MODEL 1
REMARK VINA RESULT:    -4.355      0.000      0.000
REMARK INTER + INTRA:          -5.113
REMARK INTER:                  -4.737
REMARK INTRA:                  -0.377
REMARK UNBOUND:                -0.377
REMARK SMILES C=C1C[C@]2(O)O[C@@]3(C[C@@H]2C(C)C)[C@@H]1CC[C@@H]3C
REMARK SMILES IDX 17 1 16 2 15 3 14 4 13 5 7 6 8 7 9 8 4 9 6 10 3 11 2 12 1 13
REMARK SMILES IDX 10 14 11 15 12 16 5 17
REMARK H PARENT 5 18
REMARK Flexibility Score: inf
ROOT
ATOM      1  C   UNL     1      14.970   2.508  13.000  1.00  0.00     0.011 C 
ATOM      2  C   UNL     1      15.555   1.643  11.864  1.00  0.00     0.019 C 
ATOM      3  C   UNL     1      16.087   0.317  12.427  1.00  0.00     0.007 C 
ATOM      4  C   UNL     1      14.986  -0.731  12.223  1.00  0.00     0.011 C 
ATOM      5  C   UNL     1      13.860  -0.045  11.439  1.00  0.00     0.047 C 
ATOM      6  C   UNL     1      14.515   1.204  10.817  1.00  0.00     0.081 C 
ATOM      7  C   UNL     1      13.487   2.261  10.397  1.00  0.00     0.046 C 
ATOM      8  C   UNL     1      13.253   1.966   8.915  1.00  0.00     0.054 C 
ATOM      9  C   UNL     1      14.149   0.715   8.678  1.00  0.00     0.173 C 
ATOM     10  O   UNL     1      15.176   0.819   9.632  1.00  0.00    -0.342 OA
ATOM     11  C   UNL     1      13.456  -0.663   8.909  1.00  0.00     0.096 C 
ATOM     12  C   UNL     1      13.243  -0.947  10.382  1.00  0.00    -0.066 C 
ATOM     13  C   UNL     1      12.519  -2.013  10.754  1.00  0.00     0.008 C 
ENDROOT
BRANCH   8  14
ATOM     14  C   UNL     1      11.740   1.892   8.523  1.00  0.00    -0.009 C 
ATOM     15  C   UNL     1      10.843   2.221   9.735  1.00  0.00     0.008 C 
ATOM     16  C   UNL     1      11.386   2.877   7.393  1.00  0.00     0.008 C 
ENDBRANCH   8  14
BRANCH   9  17
ATOM     17  O   UNL     1      14.740   0.768   7.402  1.00  0.00    -0.365 OA
ATOM     18  H   UNL     1      15.524   1.370   7.447  1.00  0.00     0.214 HD
ENDBRANCH   9  17
TORSDOF 2
ENDMDL
MODEL 2
REMARK VINA RESULT:    -4.333      1.497      2.692
REMARK INTER + INTRA:          -5.090
REMARK INTER:                  -4.712
REMARK INTRA:                  -0.378
REMARK UNBOUND:                -0.377
REMARK SMILES C=C1C[C@]2(O)O[C@@]3(C[C@@H]2C(C)C)[C@@H]1CC[C@@H]3C
REMARK SMILES IDX 17 1 16 2 15 3 14 4 13 5 7 6 8 7 9 8 4 9 6 10 3 11 2 12 1 13
REMARK SMILES IDX 10 14 11 15 12 16 5 17
REMARK H PARENT 5 18
REMARK Flexibility Score: inf
ROOT
ATOM      1  C   UNL     1      11.720   2.823  11.276  1.00  0.00     0.011 C 
ATOM      2  C   UNL     1      13.063   2.672  10.532  1.00  0.00     0.019 C 
ATOM      3  C   UNL     1      14.235   2.866  11.504  1.00  0.00     0.007 C 
ATOM      4  C   UNL     1      14.690   1.469  11.943  1.00  0.00     0.011 C 
ATOM      5  C   UNL     1      13.861   0.459  11.139  1.00  0.00     0.047 C 
ATOM      6  C   UNL     1      13.299   1.266   9.952  1.00  0.00     0.081 C 
ATOM      7  C   UNL     1      12.088   0.588   9.301  1.00  0.00     0.046 C 
ATOM      8  C   UNL     1      12.698  -0.200   8.140  1.00  0.00     0.054 C 
ATOM      9  C   UNL     1      14.219   0.081   8.309  1.00  0.00     0.173 C 
ATOM     10  O   UNL     1      14.288   1.331   8.949  1.00  0.00    -0.342 OA
ATOM     11  C   UNL     1      14.996  -0.929   9.208  1.00  0.00     0.096 C 
ATOM     12  C   UNL     1      14.676  -0.737  10.677  1.00  0.00    -0.066 C 
ATOM     13  C   UNL     1      15.133  -1.623  11.576  1.00  0.00     0.008 C 
ENDROOT
BRANCH   8  14
ATOM     14  C   UNL     1      12.212  -1.686   8.070  1.00  0.00    -0.009 C 
ATOM     15  C   UNL     1      11.164  -1.973   9.165  1.00  0.00     0.008 C 
ATOM     16  C   UNL     1      11.575  -2.022   6.708  1.00  0.00     0.008 C 
ENDBRANCH   8  14
BRANCH   9  17
ATOM     17  O   UNL     1      14.839   0.207   7.052  1.00  0.00    -0.365 OA
ATOM     18  H   UNL     1      14.277  -0.254   6.380  1.00  0.00     0.214 HD
ENDBRANCH   9  17
TORSDOF 2
ENDMDL
MODEL 3
REMARK VINA RESULT:    -4.006      1.722      4.426
REMARK INTER + INTRA:          -4.733
REMARK INTER:                  -4.384
REMARK INTRA:                  -0.350
REMARK UNBOUND:                -0.377
REMARK SMILES C=C1C[C@]2(O)O[C@@]3(C[C@@H]2C(C)C)[C@@H]1CC[C@@H]3C
REMARK SMILES IDX 17 1 16 2 15 3 14 4 13 5 7 6 8 7 9 8 4 9 6 10 3 11 2 12 1 13
REMARK SMILES IDX 10 14 11 15 12 16 5 17
REMARK H PARENT 5 18
REMARK Flexibility Score: inf
ROOT
ATOM      1  C   UNL     1      10.763   1.504   8.753  1.00  0.00     0.011 C 
ATOM      2  C   UNL     1      11.430   0.197   9.227  1.00  0.00     0.019 C 
ATOM      3  C   UNL     1      11.628  -0.759   8.042  1.00  0.00     0.007 C 
ATOM      4  C   UNL     1      13.070  -0.578   7.554  1.00  0.00     0.011 C 
ATOM      5  C   UNL     1      13.748   0.397   8.526  1.00  0.00     0.047 C 
ATOM      6  C   UNL     1      12.853   0.389   9.781  1.00  0.00     0.081 C 
ATOM      7  C   UNL     1      13.075   1.618  10.670  1.00  0.00     0.046 C 
ATOM      8  C   UNL     1      14.089   1.134  11.708  1.00  0.00     0.054 C 
ATOM      9  C   UNL     1      14.374  -0.324  11.242  1.00  0.00     0.173 C 
ATOM     10  O   UNL     1      13.204  -0.725  10.572  1.00  0.00    -0.342 OA
ATOM     11  C   UNL     1      15.550  -0.490  10.232  1.00  0.00     0.096 C 
ATOM     12  C   UNL     1      15.181   0.007   8.849  1.00  0.00    -0.066 C 
ATOM     13  C   UNL     1      16.125   0.085   7.899  1.00  0.00     0.008 C 
ENDROOT
BRANCH   8  14
ATOM     14  C   UNL     1      15.297   2.109  11.905  1.00  0.00    -0.009 C 
ATOM     15  C   UNL     1      15.009   3.477  11.251  1.00  0.00     0.008 C 
ATOM     16  C   UNL     1      15.606   2.353  13.394  1.00  0.00     0.008 C 
ENDBRANCH   8  14
BRANCH   9  17
ATOM     17  O   UNL     1      14.547  -1.171  12.352  1.00  0.00    -0.365 OA
ATOM     18  H   UNL     1      13.689  -1.218  12.844  1.00  0.00     0.214 HD
ENDBRANCH   9  17
TORSDOF 2
ENDMDL
MODEL 4
REMARK VINA RESULT:    -3.890      1.861      3.672
REMARK INTER + INTRA:          -4.607
REMARK INTER:                  -4.307
REMARK INTRA:                  -0.300
REMARK UNBOUND:                -0.377
REMARK SMILES C=C1C[C@]2(O)O[C@@]3(C[C@@H]2C(C)C)[C@@H]1CC[C@@H]3C
REMARK SMILES IDX 17 1 16 2 15 3 14 4 13 5 7 6 8 7 9 8 4 9 6 10 3 11 2 12 1 13
REMARK SMILES IDX 10 14 11 15 12 16 5 17
REMARK H PARENT 5 18
REMARK Flexibility Score: inf
ROOT
ATOM      1  C   UNL     1      16.125   1.817  11.465  1.00  0.00     0.011 C 
ATOM      2  C   UNL     1      14.727   1.176  11.590  1.00  0.00     0.019 C 
ATOM      3  C   UNL     1      13.710   2.211  12.091  1.00  0.00     0.007 C 
ATOM      4  C   UNL     1      12.990   2.767  10.857  1.00  0.00     0.011 C 
ATOM      5  C   UNL     1      13.505   1.974   9.649  1.00  0.00     0.047 C 
ATOM      6  C   UNL     1      14.136   0.703  10.250  1.00  0.00     0.081 C 
ATOM      7  C   UNL     1      15.108   0.015   9.284  1.00  0.00     0.046 C 
ATOM      8  C   UNL     1      14.247  -1.049   8.604  1.00  0.00     0.054 C 
ATOM      9  C   UNL     1      12.846  -0.797   9.233  1.00  0.00     0.173 C 
ATOM     10  O   UNL     1      13.110  -0.234  10.494  1.00  0.00    -0.342 OA
ATOM     11  C   UNL     1      11.937   0.214   8.469  1.00  0.00     0.096 C 
ATOM     12  C   UNL     1      12.407   1.643   8.650  1.00  0.00    -0.066 C 
ATOM     13  C   UNL     1      11.837   2.625   7.935  1.00  0.00     0.008 C 
ENDROOT
BRANCH   8  14
ATOM     14  C   UNL     1      14.380  -1.059   7.045  1.00  0.00    -0.009 C 
ATOM     15  C   UNL     1      15.784  -0.587   6.612  1.00  0.00     0.008 C 
ATOM     16  C   UNL     1      14.151  -2.463   6.454  1.00  0.00     0.008 C 
ENDBRANCH   8  14
BRANCH   9  17
ATOM     17  O   UNL     1      12.172  -2.015   9.439  1.00  0.00    -0.365 OA
ATOM     18  H   UNL     1      11.938  -2.083  10.398  1.00  0.00     0.214 HD
ENDBRANCH   9  17
TORSDOF 2
ENDMDL
MODEL 5
REMARK VINA RESULT:    -3.770      1.415      4.139
REMARK INTER + INTRA:          -4.477
REMARK INTER:                  -4.083
REMARK INTRA:                  -0.394
REMARK UNBOUND:                -0.377
REMARK SMILES C=C1C[C@]2(O)O[C@@]3(C[C@@H]2C(C)C)[C@@H]1CC[C@@H]3C
REMARK SMILES IDX 17 1 16 2 15 3 14 4 13 5 7 6 8 7 9 8 4 9 6 10 3 11 2 12 1 13
REMARK SMILES IDX 10 14 11 15 12 16 5 17
REMARK H PARENT 5 18
REMARK Flexibility Score: inf
ROOT
ATOM      1  C   UNL     1      12.154  -2.895  10.966  1.00  0.00     0.011 C 
ATOM      2  C   UNL     1      12.520  -2.401   9.551  1.00  0.00     0.019 C 
ATOM      3  C   UNL     1      11.301  -2.500   8.622  1.00  0.00     0.007 C 
ATOM      4  C   UNL     1      10.648  -1.113   8.587  1.00  0.00     0.011 C 
ATOM      5  C   UNL     1      11.551  -0.178   9.403  1.00  0.00     0.047 C 
ATOM      6  C   UNL     1      12.903  -0.912   9.490  1.00  0.00     0.081 C 
ATOM      7  C   UNL     1      13.782  -0.390  10.633  1.00  0.00     0.046 C 
ATOM      8  C   UNL     1      14.682   0.642   9.954  1.00  0.00     0.054 C 
ATOM      9  C   UNL     1      14.157   0.629   8.488  1.00  0.00     0.173 C 
ATOM     10  O   UNL     1      13.625  -0.660   8.305  1.00  0.00    -0.342 OA
ATOM     11  C   UNL     1      13.011   1.638   8.173  1.00  0.00     0.096 C 
ATOM     12  C   UNL     1      11.692   1.199   8.775  1.00  0.00    -0.066 C 
ATOM     13  C   UNL     1      10.638   2.028   8.738  1.00  0.00     0.008 C 
ENDROOT
BRANCH   8  14
ATOM     14  C   UNL     1      14.752   2.009  10.714  1.00  0.00    -0.009 C 
ATOM     15  C   UNL     1      13.677   2.076  11.819  1.00  0.00     0.008 C 
ATOM     16  C   UNL     1      16.124   2.233  11.376  1.00  0.00     0.008 C 
ENDBRANCH   8  14
BRANCH   9  17
ATOM     17  O   UNL     1      15.223   0.787   7.582  1.00  0.00    -0.365 OA
ATOM     18  H   UNL     1      14.955   1.452   6.899  1.00  0.00     0.214 HD
ENDBRANCH   9  17
TORSDOF 2
ENDMDL
MODEL 6
REMARK VINA RESULT:    -3.725      1.921      3.661
REMARK INTER + INTRA:          -4.428
REMARK INTER:                  -4.030
REMARK INTRA:                  -0.398
REMARK UNBOUND:                -0.377
REMARK SMILES C=C1C[C@]2(O)O[C@@]3(C[C@@H]2C(C)C)[C@@H]1CC[C@@H]3C
REMARK SMILES IDX 17 1 16 2 15 3 14 4 13 5 7 6 8 7 9 8 4 9 6 10 3 11 2 12 1 13
REMARK SMILES IDX 10 14 11 15 12 16 5 17
REMARK H PARENT 5 18
REMARK Flexibility Score: inf
ROOT
ATOM      1  C   UNL     1      15.540   0.147  13.463  1.00  0.00     0.011 C 
ATOM      2  C   UNL     1      14.655   0.996  12.527  1.00  0.00     0.019 C 
ATOM      3  C   UNL     1      15.410   2.256  12.080  1.00  0.00     0.007 C 
ATOM      4  C   UNL     1      16.014   1.953  10.704  1.00  0.00     0.011 C 
ATOM      5  C   UNL     1      15.517   0.560  10.298  1.00  0.00     0.047 C 
ATOM      6  C   UNL     1      14.298   0.297  11.203  1.00  0.00     0.081 C 
ATOM      7  C   UNL     1      13.945  -1.192  11.297  1.00  0.00     0.046 C 
ATOM      8  C   UNL     1      12.864  -1.373  10.230  1.00  0.00     0.054 C 
ATOM      9  C   UNL     1      12.771   0.049   9.604  1.00  0.00     0.173 C 
ATOM     10  O   UNL     1      13.172   0.923  10.630  1.00  0.00    -0.342 OA
ATOM     11  C   UNL     1      13.714   0.314   8.392  1.00  0.00     0.096 C 
ATOM     12  C   UNL     1      15.158   0.469   8.824  1.00  0.00    -0.066 C 
ATOM     13  C   UNL     1      16.124   0.543   7.895  1.00  0.00     0.008 C 
ENDROOT
BRANCH   8  14
ATOM     14  C   UNL     1      13.116  -2.595   9.285  1.00  0.00    -0.009 C 
ATOM     15  C   UNL     1      14.521  -3.187   9.518  1.00  0.00     0.008 C 
ATOM     16  C   UNL     1      12.087  -3.720   9.507  1.00  0.00     0.008 C 
ENDBRANCH   8  14
BRANCH   9  17
ATOM     17  O   UNL     1      11.438   0.355   9.274  1.00  0.00    -0.365 OA
ATOM     18  H   UNL     1      11.244  -0.020   8.379  1.00  0.00     0.214 HD
ENDBRANCH   9  17
TORSDOF 2
ENDMDL
MODEL 7
REMARK VINA RESULT:    -3.626      1.485      2.247
REMARK INTER + INTRA:          -4.321
REMARK INTER:                  -4.062
REMARK INTRA:                  -0.258
REMARK UNBOUND:                -0.377
REMARK SMILES C=C1C[C@]2(O)O[C@@]3(C[C@@H]2C(C)C)[C@@H]1CC[C@@H]3C
REMARK SMILES IDX 17 1 16 2 15 3 14 4 13 5 7 6 8 7 9 8 4 9 6 10 3 11 2 12 1 13
REMARK SMILES IDX 10 14 11 15 12 16 5 17
REMARK H PARENT 5 18
REMARK Flexibility Score: inf
ROOT
ATOM      1  C   UNL     1      14.669  -1.297  12.941  1.00  0.00     0.011 C 
ATOM      2  C   UNL     1      14.977  -1.578  11.456  1.00  0.00     0.019 C 
ATOM      3  C   UNL     1      14.848  -3.080  11.162  1.00  0.00     0.007 C 
ATOM      4  C   UNL     1      13.447  -3.305  10.581  1.00  0.00     0.011 C 
ATOM      5  C   UNL     1      12.802  -1.921  10.428  1.00  0.00     0.047 C 
ATOM      6  C   UNL     1      13.980  -0.929  10.479  1.00  0.00     0.081 C 
ATOM      7  C   UNL     1      13.533   0.499  10.815  1.00  0.00     0.046 C 
ATOM      8  C   UNL     1      13.375   1.158   9.445  1.00  0.00     0.054 C 
ATOM      9  C   UNL     1      13.700  -0.012   8.471  1.00  0.00     0.173 C 
ATOM     10  O   UNL     1      14.560  -0.858   9.195  1.00  0.00    -0.342 OA
ATOM     11  C   UNL     1      12.482  -0.879   8.030  1.00  0.00     0.096 C 
ATOM     12  C   UNL     1      11.999  -1.783   9.145  1.00  0.00    -0.066 C 
ATOM     13  C   UNL     1      10.863  -2.480   8.990  1.00  0.00     0.008 C 
ENDROOT
BRANCH   8  14
ATOM     14  C   UNL     1      12.022   1.926   9.271  1.00  0.00    -0.009 C 
ATOM     15  C   UNL     1      11.684   2.734  10.541  1.00  0.00     0.008 C 
ATOM     16  C   UNL     1      12.061   2.907   8.084  1.00  0.00     0.008 C 
ENDBRANCH   8  14
BRANCH   9  17
ATOM     17  O   UNL     1      14.407   0.461   7.350  1.00  0.00    -0.365 OA
ATOM     18  H   UNL     1      14.698  -0.318   6.813  1.00  0.00     0.214 HD
ENDBRANCH   9  17
TORSDOF 2
ENDMDL
MODEL 8
REMARK VINA RESULT:    -3.586      5.917      7.434
REMARK INTER + INTRA:          -4.277
REMARK INTER:                  -3.879
REMARK INTRA:                  -0.398
REMARK UNBOUND:                -0.377
REMARK SMILES C=C1C[C@]2(O)O[C@@]3(C[C@@H]2C(C)C)[C@@H]1CC[C@@H]3C
REMARK SMILES IDX 17 1 16 2 15 3 14 4 13 5 7 6 8 7 9 8 4 9 6 10 3 11 2 12 1 13
REMARK SMILES IDX 10 14 11 15 12 16 5 17
REMARK H PARENT 5 18
REMARK Flexibility Score: inf
ROOT
ATOM      1  C   UNL     1      10.599  -0.918   8.831  1.00  0.00     0.011 C 
ATOM      2  C   UNL     1      10.376  -2.400   8.464  1.00  0.00     0.019 C 
ATOM      3  C   UNL     1      11.220  -3.305   9.372  1.00  0.00     0.007 C 
ATOM      4  C   UNL     1      10.305  -3.783  10.506  1.00  0.00     0.011 C 
ATOM      5  C   UNL     1       8.900  -3.250  10.196  1.00  0.00     0.047 C 
ATOM      6  C   UNL     1       8.936  -2.890   8.698  1.00  0.00     0.081 C 
ATOM      7  C   UNL     1       7.816  -1.921   8.298  1.00  0.00     0.046 C 
ATOM      8  C   UNL     1       6.710  -2.843   7.784  1.00  0.00     0.054 C 
ATOM      9  C   UNL     1       7.320  -4.257   8.011  1.00  0.00     0.173 C 
ATOM     10  O   UNL     1       8.712  -4.065   7.950  1.00  0.00    -0.342 OA
ATOM     11  C   UNL     1       7.015  -4.908   9.394  1.00  0.00     0.096 C 
ATOM     12  C   UNL     1       7.805  -4.257  10.511  1.00  0.00    -0.066 C 
ATOM     13  C   UNL     1       7.547  -4.586  11.786  1.00  0.00     0.008 C 
ENDROOT
BRANCH   8  14
ATOM     14  C   UNL     1       5.301  -2.527   8.388  1.00  0.00    -0.009 C 
ATOM     15  C   UNL     1       5.410  -1.478   9.514  1.00  0.00     0.008 C 
ATOM     16  C   UNL     1       4.326  -1.980   7.327  1.00  0.00     0.008 C 
ENDBRANCH   8  14
BRANCH   9  17
ATOM     17  O   UNL     1       6.960  -5.123   6.962  1.00  0.00    -0.365 OA
ATOM     18  H   UNL     1       6.841  -4.585   6.140  1.00  0.00     0.214 HD
ENDBRANCH   9  17
TORSDOF 2
ENDMDL
MODEL 9
REMARK VINA RESULT:    -3.506      5.207      7.510
REMARK INTER + INTRA:          -4.190
REMARK INTER:                  -3.792
REMARK INTRA:                  -0.398
REMARK UNBOUND:                -0.377
REMARK SMILES C=C1C[C@]2(O)O[C@@]3(C[C@@H]2C(C)C)[C@@H]1CC[C@@H]3C
REMARK SMILES IDX 17 1 16 2 15 3 14 4 13 5 7 6 8 7 9 8 4 9 6 10 3 11 2 12 1 13
REMARK SMILES IDX 10 14 11 15 12 16 5 17
REMARK H PARENT 5 18
REMARK Flexibility Score: inf
ROOT
ATOM      1  C   UNL     1       6.186  -3.626   6.713  1.00  0.00     0.011 C 
ATOM      2  C   UNL     1       6.736  -2.633   7.758  1.00  0.00     0.019 C 
ATOM      3  C   UNL     1       5.978  -2.785   9.085  1.00  0.00     0.007 C 
ATOM      4  C   UNL     1       6.823  -3.698   9.982  1.00  0.00     0.011 C 
ATOM      5  C   UNL     1       8.125  -3.983   9.223  1.00  0.00     0.047 C 
ATOM      6  C   UNL     1       8.204  -2.884   8.146  1.00  0.00     0.081 C 
ATOM      7  C   UNL     1       9.155  -3.250   7.000  1.00  0.00     0.046 C 
ATOM      8  C   UNL     1      10.473  -2.587   7.401  1.00  0.00     0.054 C 
ATOM      9  C   UNL     1      10.125  -1.961   8.783  1.00  0.00     0.173 C 
ATOM     10  O   UNL     1       8.741  -1.720   8.733  1.00  0.00    -0.342 OA
ATOM     11  C   UNL     1      10.380  -2.875  10.020  1.00  0.00     0.096 C 
ATOM     12  C   UNL     1       9.347  -3.979  10.127  1.00  0.00    -0.066 C 
ATOM     13  C   UNL     1       9.507  -4.950  11.040  1.00  0.00     0.008 C 
ENDROOT
BRANCH   8  14
ATOM     14  C   UNL     1      11.710  -3.541   7.299  1.00  0.00    -0.009 C 
ATOM     15  C   UNL     1      11.262  -4.989   7.012  1.00  0.00     0.008 C 
ATOM     16  C   UNL     1      12.677  -3.116   6.178  1.00  0.00     0.008 C 
ENDBRANCH   8  14
BRANCH   9  17
ATOM     17  O   UNL     1      10.772  -0.721   8.939  1.00  0.00    -0.365 OA
ATOM     18  H   UNL     1      10.659  -0.203   8.102  1.00  0.00     0.214 HD
ENDBRANCH   9  17
TORSDOF 2
ENDMDL
