MODEL 1
REMARK VINA RESULT:    -2.807      0.000      0.000
REMARK INTER + INTRA:          -7.768
REMARK INTER:                  -5.104
REMARK INTRA:                  -2.664
REMARK UNBOUND:                -2.664
REMARK SMILES CCCCCCCCCCCCCC[C@H](C)C(=O)[O-]
REMARK SMILES IDX 9 1 10 2 11 3 12 4 13 5 14 6 15 7 16 8 17 9 18 10 19 11 8 12
REMARK SMILES IDX 7 13 6 14 5 15 4 16 3 17 2 18 1 19
REMARK H PARENT
REMARK Flexibility Score: inf
ROOT
ATOM      1  C   UNL     1      96.584  66.144 228.561  1.00  0.00     0.000 C 
ENDROOT
BRANCH   1   2
ATOM      2  C   UNL     1      96.062  67.215 227.591  1.00  0.00     0.000 C 
BRANCH   2   3
ATOM      3  C   UNL     1      95.455  66.567 226.336  1.00  0.00     0.000 C 
BRANCH   3   4
ATOM      4  C   UNL     1      96.063  65.188 226.031  1.00  0.00     0.000 C 
BRANCH   4   5
ATOM      5  C   UNL     1      97.043  65.225 224.849  1.00  0.00     0.001 C 
BRANCH   5   6
ATOM      6  C   UNL     1      98.464  64.737 225.206  1.00  0.00     0.009 C 
BRANCH   6   7
ATOM      7  C   UNL     1      99.535  65.821 225.498  1.00  0.00     0.032 C 
ATOM      8  C   UNL     1      99.012  67.252 225.310  1.00  0.00     0.014 C 
BRANCH   7   9
ATOM      9  C   UNL     1     100.822  65.587 224.750  1.00  0.00     0.044 C 
ATOM     10  O   UNL     1     101.679  66.507 224.676  1.00  0.00    -0.550 OA
ATOM     11  O   UNL     1     101.102  64.350 224.182  1.00  0.00    -0.550 OA
ENDBRANCH   7   9
ENDBRANCH   6   7
ENDBRANCH   5   6
ENDBRANCH   4   5
ENDBRANCH   3   4
ENDBRANCH   2   3
ENDBRANCH   1   2
BRANCH   1  12
ATOM     12  C   UNL     1      98.078  66.310 228.889  1.00  0.00     0.000 C 
BRANCH  12  13
ATOM     13  C   UNL     1      98.592  65.438 230.052  1.00  0.00    -0.000 C 
BRANCH  13  14
ATOM     14  C   UNL     1      97.616  64.341 230.525  1.00  0.00    -0.000 C 
BRANCH  14  15
ATOM     15  C   UNL     1      98.022  62.904 230.143  1.00  0.00    -0.000 C 
BRANCH  15  16
ATOM     16  C   UNL     1      97.690  62.494 228.695  1.00  0.00    -0.000 C 
BRANCH  16  17
ATOM     17  C   UNL     1      98.905  62.383 227.756  1.00  0.00    -0.000 C 
BRANCH  17  18
ATOM     18  C   UNL     1     100.245  62.467 228.501  1.00  0.00    -0.003 C 
ATOM     19  C   UNL     1     101.112  63.594 227.948  1.00  0.00     0.004 C 
ENDBRANCH  17  18
ENDBRANCH  16  17
ENDBRANCH  15  16
ENDBRANCH  14  15
ENDBRANCH  13  14
ENDBRANCH  12  13
ENDBRANCH   1  12
TORSDOF 14
ENDMDL
MODEL 2
REMARK VINA RESULT:    -2.783      1.293      1.949
REMARK INTER + INTRA:          -7.725
REMARK INTER:                  -4.960
REMARK INTRA:                  -2.764
REMARK UNBOUND:                -2.664
REMARK SMILES CCCCCCCCCCCCCC[C@H](C)C(=O)[O-]
REMARK SMILES IDX 9 1 10 2 11 3 12 4 13 5 14 6 15 7 16 8 17 9 18 10 19 11 8 12
REMARK SMILES IDX 7 13 6 14 5 15 4 16 3 17 2 18 1 19
REMARK H PARENT
REMARK Flexibility Score: inf
ROOT
ATOM      1  C   UNL     1      96.397  65.856 228.313  1.00  0.00     0.000 C 
ENDROOT
BRANCH   1   2
ATOM      2  C   UNL     1      95.764  65.015 227.194  1.00  0.00     0.000 C 
BRANCH   2   3
ATOM      3  C   UNL     1      95.848  65.745 225.845  1.00  0.00     0.000 C 
BRANCH   3   4
ATOM      4  C   UNL     1      96.744  65.013 224.832  1.00  0.00     0.000 C 
BRANCH   4   5
ATOM      5  C   UNL     1      97.979  64.378 225.490  1.00  0.00     0.001 C 
BRANCH   5   6
ATOM      6  C   UNL     1      99.319  64.903 224.931  1.00  0.00     0.009 C 
BRANCH   6   7
ATOM      7  C   UNL     1     100.094  65.934 225.793  1.00  0.00     0.032 C 
ATOM      8  C   UNL     1      99.325  67.247 226.000  1.00  0.00     0.014 C 
BRANCH   7   9
ATOM      9  C   UNL     1     101.497  66.173 225.298  1.00  0.00     0.044 C 
ATOM     10  O   UNL     1     102.354  66.682 226.068  1.00  0.00    -0.550 OA
ATOM     11  O   UNL     1     101.874  65.792 224.016  1.00  0.00    -0.550 OA
ENDBRANCH   7   9
ENDBRANCH   6   7
ENDBRANCH   5   6
ENDBRANCH   4   5
ENDBRANCH   3   4
ENDBRANCH   2   3
ENDBRANCH   1   2
BRANCH   1  12
ATOM     12  C   UNL     1      97.316  65.034 229.234  1.00  0.00     0.000 C 
BRANCH  12  13
ATOM     13  C   UNL     1      98.720  65.632 229.458  1.00  0.00    -0.000 C 
BRANCH  13  14
ATOM     14  C   UNL     1      99.892  64.689 229.120  1.00  0.00    -0.000 C 
BRANCH  14  15
ATOM     15  C   UNL     1      99.478  63.322 228.540  1.00  0.00    -0.000 C 
BRANCH  15  16
ATOM     16  C   UNL     1     100.563  62.611 227.708  1.00  0.00    -0.000 C 
BRANCH  16  17
ATOM     17  C   UNL     1     101.947  63.286 227.729  1.00  0.00    -0.000 C 
BRANCH  17  18
ATOM     18  C   UNL     1     102.763  63.013 226.457  1.00  0.00    -0.003 C 
ATOM     19  C   UNL     1     101.948  62.220 225.440  1.00  0.00     0.004 C 
ENDBRANCH  17  18
ENDBRANCH  16  17
ENDBRANCH  15  16
ENDBRANCH  14  15
ENDBRANCH  13  14
ENDBRANCH  12  13
ENDBRANCH   1  12
TORSDOF 14
ENDMDL
MODEL 3
REMARK VINA RESULT:    -2.782      0.980      1.862
REMARK INTER + INTRA:          -7.722
REMARK INTER:                  -5.188
REMARK INTRA:                  -2.535
REMARK UNBOUND:                -2.664
REMARK SMILES CCCCCCCCCCCCCC[C@H](C)C(=O)[O-]
REMARK SMILES IDX 9 1 10 2 11 3 12 4 13 5 14 6 15 7 16 8 17 9 18 10 19 11 8 12
REMARK SMILES IDX 7 13 6 14 5 15 4 16 3 17 2 18 1 19
REMARK H PARENT
REMARK Flexibility Score: inf
ROOT
ATOM      1  C   UNL     1      95.959  67.854 226.687  1.00  0.00     0.000 C 
ENDROOT
BRANCH   1   2
ATOM      2  C   UNL     1      94.899  66.992 225.985  1.00  0.00     0.000 C 
BRANCH   2   3
ATOM      3  C   UNL     1      95.361  65.529 225.888  1.00  0.00     0.000 C 
BRANCH   3   4
ATOM      4  C   UNL     1      96.386  65.307 224.763  1.00  0.00     0.000 C 
BRANCH   4   5
ATOM      5  C   UNL     1      97.762  64.881 225.295  1.00  0.00     0.001 C 
BRANCH   5   6
ATOM      6  C   UNL     1      98.800  66.024 225.320  1.00  0.00     0.009 C 
BRANCH   6   7
ATOM      7  C   UNL     1     100.239  65.666 225.775  1.00  0.00     0.032 C 
ATOM      8  C   UNL     1     100.829  66.680 226.766  1.00  0.00     0.014 C 
BRANCH   7   9
ATOM      9  C   UNL     1     101.169  65.400 224.619  1.00  0.00     0.044 C 
ATOM     10  O   UNL     1     101.243  64.243 224.129  1.00  0.00    -0.550 OA
ATOM     11  O   UNL     1     101.909  66.430 224.050  1.00  0.00    -0.550 OA
ENDBRANCH   7   9
ENDBRANCH   6   7
ENDBRANCH   5   6
ENDBRANCH   4   5
ENDBRANCH   3   4
ENDBRANCH   2   3
ENDBRANCH   1   2
BRANCH   1  12
ATOM     12  C   UNL     1      96.060  67.568 228.196  1.00  0.00     0.000 C 
BRANCH  12  13
ATOM     13  C   UNL     1      97.486  67.638 228.779  1.00  0.00    -0.000 C 
BRANCH  13  14
ATOM     14  C   UNL     1      98.159  66.272 229.020  1.00  0.00    -0.000 C 
BRANCH  14  15
ATOM     15  C   UNL     1      97.187  65.082 229.142  1.00  0.00    -0.000 C 
BRANCH  15  16
ATOM     16  C   UNL     1      97.856  63.715 229.384  1.00  0.00    -0.000 C 
BRANCH  16  17
ATOM     17  C   UNL     1      98.480  63.066 228.134  1.00  0.00    -0.000 C 
BRANCH  17  18
ATOM     18  C   UNL     1      99.899  62.537 228.383  1.00  0.00    -0.003 C 
ATOM     19  C   UNL     1     100.613  62.237 227.067  1.00  0.00     0.004 C 
ENDBRANCH  17  18
ENDBRANCH  16  17
ENDBRANCH  15  16
ENDBRANCH  14  15
ENDBRANCH  13  14
ENDBRANCH  12  13
ENDBRANCH   1  12
TORSDOF 14
ENDMDL
MODEL 4
REMARK VINA RESULT:    -2.750      1.309      4.281
REMARK INTER + INTRA:          -7.665
REMARK INTER:                  -5.102
REMARK INTRA:                  -2.564
REMARK UNBOUND:                -2.664
REMARK SMILES CCCCCCCCCCCCCC[C@H](C)C(=O)[O-]
REMARK SMILES IDX 9 1 10 2 11 3 12 4 13 5 14 6 15 7 16 8 17 9 18 10 19 11 8 12
REMARK SMILES IDX 7 13 6 14 5 15 4 16 3 17 2 18 1 19
REMARK H PARENT
REMARK Flexibility Score: inf
ROOT
ATOM      1  C   UNL     1      98.880  66.543 229.980  1.00  0.00     0.000 C 
ENDROOT
BRANCH   1   2
ATOM      2  C   UNL     1     100.130  65.660 229.860  1.00  0.00     0.000 C 
BRANCH   2   3
ATOM      3  C   UNL     1      99.744  64.200 229.574  1.00  0.00     0.000 C 
BRANCH   3   4
ATOM      4  C   UNL     1     100.344  63.679 228.257  1.00  0.00     0.000 C 
BRANCH   4   5
ATOM      5  C   UNL     1      99.268  63.337 227.215  1.00  0.00     0.001 C 
BRANCH   5   6
ATOM      6  C   UNL     1      99.217  64.324 226.028  1.00  0.00     0.009 C 
BRANCH   6   7
ATOM      7  C   UNL     1     100.263  65.470 226.013  1.00  0.00     0.032 C 
ATOM      8  C   UNL     1      99.645  66.854 226.258  1.00  0.00     0.014 C 
BRANCH   7   9
ATOM      9  C   UNL     1     101.133  65.450 224.783  1.00  0.00     0.044 C 
ATOM     10  O   UNL     1     101.114  64.449 224.019  1.00  0.00    -0.550 OA
ATOM     11  O   UNL     1     101.920  66.546 224.450  1.00  0.00    -0.550 OA
ENDBRANCH   7   9
ENDBRANCH   6   7
ENDBRANCH   5   6
ENDBRANCH   4   5
ENDBRANCH   3   4
ENDBRANCH   2   3
ENDBRANCH   1   2
BRANCH   1  12
ATOM     12  C   UNL     1      97.570  65.755 229.797  1.00  0.00     0.000 C 
BRANCH  12  13
ATOM     13  C   UNL     1      96.746  66.139 228.552  1.00  0.00    -0.000 C 
BRANCH  13  14
ATOM     14  C   UNL     1      96.182  64.949 227.751  1.00  0.00    -0.000 C 
BRANCH  14  15
ATOM     15  C   UNL     1      95.409  65.333 226.474  1.00  0.00    -0.000 C 
BRANCH  15  16
ATOM     16  C   UNL     1      95.828  66.672 225.836  1.00  0.00    -0.000 C 
BRANCH  16  17
ATOM     17  C   UNL     1      96.501  66.553 224.456  1.00  0.00    -0.000 C 
BRANCH  17  18
ATOM     18  C   UNL     1      95.818  65.523 223.546  1.00  0.00    -0.003 C 
ATOM     19  C   UNL     1      95.862  65.964 222.086  1.00  0.00     0.004 C 
ENDBRANCH  17  18
ENDBRANCH  16  17
ENDBRANCH  15  16
ENDBRANCH  14  15
ENDBRANCH  13  14
ENDBRANCH  12  13
ENDBRANCH   1  12
TORSDOF 14
ENDMDL
MODEL 5
REMARK VINA RESULT:    -2.732      1.625      4.197
REMARK INTER + INTRA:          -7.633
REMARK INTER:                  -4.917
REMARK INTRA:                  -2.716
REMARK UNBOUND:                -2.664
REMARK SMILES CCCCCCCCCCCCCC[C@H](C)C(=O)[O-]
REMARK SMILES IDX 9 1 10 2 11 3 12 4 13 5 14 6 15 7 16 8 17 9 18 10 19 11 8 12
REMARK SMILES IDX 7 13 6 14 5 15 4 16 3 17 2 18 1 19
REMARK H PARENT
REMARK Flexibility Score: inf
ROOT
ATOM      1  C   UNL     1      98.925  66.941 225.366  1.00  0.00     0.000 C 
ENDROOT
BRANCH   1   2
ATOM      2  C   UNL     1      99.425  67.131 226.805  1.00  0.00     0.000 C 
BRANCH   2   3
ATOM      3  C   UNL     1     100.921  67.484 226.823  1.00  0.00     0.000 C 
BRANCH   3   4
ATOM      4  C   UNL     1     101.700  66.696 227.889  1.00  0.00     0.000 C 
BRANCH   4   5
ATOM      5  C   UNL     1     100.994  65.392 228.290  1.00  0.00     0.001 C 
BRANCH   5   6
ATOM      6  C   UNL     1     101.720  64.118 227.805  1.00  0.00     0.009 C 
BRANCH   6   7
ATOM      7  C   UNL     1     101.334  63.569 226.407  1.00  0.00     0.032 C 
ATOM      8  C   UNL     1     101.194  62.040 226.376  1.00  0.00     0.014 C 
BRANCH   7   9
ATOM      9  C   UNL     1     102.234  64.076 225.310  1.00  0.00     0.044 C 
ATOM     10  O   UNL     1     103.445  63.734 225.287  1.00  0.00    -0.550 OA
ATOM     11  O   UNL     1     101.733  64.877 224.291  1.00  0.00    -0.550 OA
ENDBRANCH   7   9
ENDBRANCH   6   7
ENDBRANCH   5   6
ENDBRANCH   4   5
ENDBRANCH   3   4
ENDBRANCH   2   3
ENDBRANCH   1   2
BRANCH   1  12
ATOM     12  C   UNL     1      98.407  65.517 225.096  1.00  0.00     0.000 C 
BRANCH  12  13
ATOM     13  C   UNL     1      96.942  65.434 224.619  1.00  0.00    -0.000 C 
BRANCH  13  14
ATOM     14  C   UNL     1      95.893  65.876 225.659  1.00  0.00    -0.000 C 
BRANCH  14  15
ATOM     15  C   UNL     1      95.732  64.925 226.862  1.00  0.00    -0.000 C 
BRANCH  15  16
ATOM     16  C   UNL     1      96.344  65.433 228.183  1.00  0.00    -0.000 C 
BRANCH  16  17
ATOM     17  C   UNL     1      97.497  64.577 228.737  1.00  0.00    -0.000 C 
BRANCH  17  18
ATOM     18  C   UNL     1      97.819  63.365 227.853  1.00  0.00    -0.003 C 
ATOM     19  C   UNL     1      98.065  62.118 228.697  1.00  0.00     0.004 C 
ENDBRANCH  17  18
ENDBRANCH  16  17
ENDBRANCH  15  16
ENDBRANCH  14  15
ENDBRANCH  13  14
ENDBRANCH  12  13
ENDBRANCH   1  12
TORSDOF 14
ENDMDL
MODEL 6
REMARK VINA RESULT:    -2.704     14.092     16.764
REMARK INTER + INTRA:          -7.582
REMARK INTER:                  -5.351
REMARK INTRA:                  -2.231
REMARK UNBOUND:                -2.664
REMARK SMILES CCCCCCCCCCCCCC[C@H](C)C(=O)[O-]
REMARK SMILES IDX 9 1 10 2 11 3 12 4 13 5 14 6 15 7 16 8 17 9 18 10 19 11 8 12
REMARK SMILES IDX 7 13 6 14 5 15 4 16 3 17 2 18 1 19
REMARK H PARENT
REMARK Flexibility Score: inf
ROOT
ATOM      1  C   UNL     1     110.998  60.948 218.381  1.00  0.00     0.000 C 
ENDROOT
BRANCH   1   2
ATOM      2  C   UNL     1     112.508  60.768 218.597  1.00  0.00     0.000 C 
BRANCH   2   3
ATOM      3  C   UNL     1     113.180  62.113 218.917  1.00  0.00     0.000 C 
BRANCH   3   4
ATOM      4  C   UNL     1     112.162  63.214 219.260  1.00  0.00     0.000 C 
BRANCH   4   5
ATOM      5  C   UNL     1     112.432  64.523 218.503  1.00  0.00     0.001 C 
BRANCH   5   6
ATOM      6  C   UNL     1     111.777  64.579 217.106  1.00  0.00     0.009 C 
BRANCH   6   7
ATOM      7  C   UNL     1     112.723  64.552 215.877  1.00  0.00     0.032 C 
ATOM      8  C   UNL     1     112.983  63.134 215.347  1.00  0.00     0.014 C 
BRANCH   7   9
ATOM      9  C   UNL     1     114.003  65.312 216.107  1.00  0.00     0.044 C 
ATOM     10  O   UNL     1     115.095  64.690 216.186  1.00  0.00    -0.550 OA
ATOM     11  O   UNL     1     114.003  66.700 216.182  1.00  0.00    -0.550 OA
ENDBRANCH   7   9
ENDBRANCH   6   7
ENDBRANCH   5   6
ENDBRANCH   4   5
ENDBRANCH   3   4
ENDBRANCH   2   3
ENDBRANCH   1   2
BRANCH   1  12
ATOM     12  C   UNL     1     110.547  60.567 216.960  1.00  0.00     0.000 C 
BRANCH  12  13
ATOM     13  C   UNL     1     109.748  61.656 216.215  1.00  0.00    -0.000 C 
BRANCH  13  14
ATOM     14  C   UNL     1     108.601  61.131 215.328  1.00  0.00    -0.000 C 
BRANCH  14  15
ATOM     15  C   UNL     1     107.185  61.378 215.885  1.00  0.00    -0.000 C 
BRANCH  15  16
ATOM     16  C   UNL     1     106.365  60.104 216.170  1.00  0.00    -0.000 C 
BRANCH  16  17
ATOM     17  C   UNL     1     106.183  59.768 217.661  1.00  0.00    -0.000 C 
BRANCH  17  18
ATOM     18  C   UNL     1     107.402  59.055 218.264  1.00  0.00    -0.003 C 
ATOM     19  C   UNL     1     107.912  57.957 217.336  1.00  0.00     0.004 C 
ENDBRANCH  17  18
ENDBRANCH  16  17
ENDBRANCH  15  16
ENDBRANCH  14  15
ENDBRANCH  13  14
ENDBRANCH  12  13
ENDBRANCH   1  12
TORSDOF 14
ENDMDL
MODEL 7
REMARK VINA RESULT:    -2.667      3.116      4.675
REMARK INTER + INTRA:          -7.515
REMARK INTER:                  -4.674
REMARK INTRA:                  -2.840
REMARK UNBOUND:                -2.664
REMARK SMILES CCCCCCCCCCCCCC[C@H](C)C(=O)[O-]
REMARK SMILES IDX 9 1 10 2 11 3 12 4 13 5 14 6 15 7 16 8 17 9 18 10 19 11 8 12
REMARK SMILES IDX 7 13 6 14 5 15 4 16 3 17 2 18 1 19
REMARK H PARENT
REMARK Flexibility Score: inf
ROOT
ATOM      1  C   UNL     1     101.456  66.396 226.715  1.00  0.00     0.000 C 
ENDROOT
BRANCH   1   2
ATOM      2  C   UNL     1     100.774  66.096 225.372  1.00  0.00     0.000 C 
BRANCH   2   3
ATOM      3  C   UNL     1      99.244  66.153 225.508  1.00  0.00     0.000 C 
BRANCH   3   4
ATOM      4  C   UNL     1      98.570  64.818 225.152  1.00  0.00     0.000 C 
BRANCH   4   5
ATOM      5  C   UNL     1      97.590  64.346 226.237  1.00  0.00     0.001 C 
BRANCH   5   6
ATOM      6  C   UNL     1      96.915  65.501 227.010  1.00  0.00     0.009 C 
BRANCH   6   7
ATOM      7  C   UNL     1      97.181  65.584 228.536  1.00  0.00     0.032 C 
ATOM      8  C   UNL     1      97.547  64.230 229.160  1.00  0.00     0.014 C 
BRANCH   7   9
ATOM      9  C   UNL     1      96.069  66.269 229.287  1.00  0.00     0.044 C 
ATOM     10  O   UNL     1      95.568  67.331 228.831  1.00  0.00    -0.550 OA
ATOM     11  O   UNL     1      95.551  65.717 230.452  1.00  0.00    -0.550 OA
ENDBRANCH   7   9
ENDBRANCH   6   7
ENDBRANCH   5   6
ENDBRANCH   4   5
ENDBRANCH   3   4
ENDBRANCH   2   3
ENDBRANCH   1   2
BRANCH   1  12
ATOM     12  C   UNL     1     100.800  65.660 227.897  1.00  0.00     0.000 C 
BRANCH  12  13
ATOM     13  C   UNL     1     101.715  64.657 228.629  1.00  0.00    -0.000 C 
BRANCH  13  14
ATOM     14  C   UNL     1     101.129  63.241 228.796  1.00  0.00    -0.000 C 
BRANCH  14  15
ATOM     15  C   UNL     1     100.486  62.652 227.525  1.00  0.00    -0.000 C 
BRANCH  15  16
ATOM     16  C   UNL     1     101.453  61.888 226.599  1.00  0.00    -0.000 C 
BRANCH  16  17
ATOM     17  C   UNL     1     101.960  62.687 225.385  1.00  0.00    -0.000 C 
BRANCH  17  18
ATOM     18  C   UNL     1     103.398  63.194 225.562  1.00  0.00    -0.003 C 
ATOM     19  C   UNL     1     104.143  62.377 226.613  1.00  0.00     0.004 C 
ENDBRANCH  17  18
ENDBRANCH  16  17
ENDBRANCH  15  16
ENDBRANCH  14  15
ENDBRANCH  13  14
ENDBRANCH  12  13
ENDBRANCH   1  12
TORSDOF 14
ENDMDL
MODEL 8
REMARK VINA RESULT:    -2.590      7.744      9.746
REMARK INTER + INTRA:          -7.374
REMARK INTER:                  -4.785
REMARK INTRA:                  -2.589
REMARK UNBOUND:                -2.664
REMARK SMILES CCCCCCCCCCCCCC[C@H](C)C(=O)[O-]
REMARK SMILES IDX 9 1 10 2 11 3 12 4 13 5 14 6 15 7 16 8 17 9 18 10 19 11 8 12
REMARK SMILES IDX 7 13 6 14 5 15 4 16 3 17 2 18 1 19
REMARK H PARENT
REMARK Flexibility Score: inf
ROOT
ATOM      1  C   UNL     1      98.514  55.002 225.539  1.00  0.00     0.000 C 
ENDROOT
BRANCH   1   2
ATOM      2  C   UNL     1      99.512  55.142 224.380  1.00  0.00     0.000 C 
BRANCH   2   3
ATOM      3  C   UNL     1     100.375  56.403 224.549  1.00  0.00     0.000 C 
BRANCH   3   4
ATOM      4  C   UNL     1     100.025  57.498 223.528  1.00  0.00     0.000 C 
BRANCH   4   5
ATOM      5  C   UNL     1      99.507  56.923 222.201  1.00  0.00     0.001 C 
BRANCH   5   6
ATOM      6  C   UNL     1      98.610  57.899 221.409  1.00  0.00     0.009 C 
BRANCH   6   7
ATOM      7  C   UNL     1      98.660  57.810 219.861  1.00  0.00     0.032 C 
ATOM      8  C   UNL     1      99.004  56.405 219.347  1.00  0.00     0.014 C 
BRANCH   7   9
ATOM      9  C   UNL     1      99.537  58.868 219.242  1.00  0.00     0.044 C 
ATOM     10  O   UNL     1      99.546  60.032 219.721  1.00  0.00    -0.550 OA
ATOM     11  O   UNL     1     100.378  58.563 218.178  1.00  0.00    -0.550 OA
ENDBRANCH   7   9
ENDBRANCH   6   7
ENDBRANCH   5   6
ENDBRANCH   4   5
ENDBRANCH   3   4
ENDBRANCH   2   3
ENDBRANCH   1   2
BRANCH   1  12
ATOM     12  C   UNL     1      98.851  55.914 226.733  1.00  0.00     0.000 C 
BRANCH  12  13
ATOM     13  C   UNL     1      97.742  56.910 227.127  1.00  0.00    -0.000 C 
BRANCH  13  14
ATOM     14  C   UNL     1      97.400  57.964 226.055  1.00  0.00    -0.000 C 
BRANCH  14  15
ATOM     15  C   UNL     1      96.015  57.798 225.401  1.00  0.00    -0.000 C 
BRANCH  15  16
ATOM     16  C   UNL     1      96.039  57.455 223.898  1.00  0.00    -0.000 C 
BRANCH  16  17
ATOM     17  C   UNL     1      95.768  55.976 223.564  1.00  0.00    -0.000 C 
BRANCH  17  18
ATOM     18  C   UNL     1      95.729  55.703 222.053  1.00  0.00    -0.003 C 
ATOM     19  C   UNL     1      96.674  54.567 221.675  1.00  0.00     0.004 C 
ENDBRANCH  17  18
ENDBRANCH  16  17
ENDBRANCH  15  16
ENDBRANCH  14  15
ENDBRANCH  13  14
ENDBRANCH  12  13
ENDBRANCH   1  12
TORSDOF 14
ENDMDL
MODEL 9
REMARK VINA RESULT:    -2.589      2.967      5.043
REMARK INTER + INTRA:          -7.371
REMARK INTER:                  -4.784
REMARK INTRA:                  -2.587
REMARK UNBOUND:                -2.664
REMARK SMILES CCCCCCCCCCCCCC[C@H](C)C(=O)[O-]
REMARK SMILES IDX 9 1 10 2 11 3 12 4 13 5 14 6 15 7 16 8 17 9 18 10 19 11 8 12
REMARK SMILES IDX 7 13 6 14 5 15 4 16 3 17 2 18 1 19
REMARK H PARENT
REMARK Flexibility Score: inf
ROOT
ATOM      1  C   UNL     1     102.826  65.571 227.193  1.00  0.00     0.000 C 
ENDROOT
BRANCH   1   2
ATOM      2  C   UNL     1     101.759  65.245 228.249  1.00  0.00     0.000 C 
BRANCH   2   3
ATOM      3  C   UNL     1     100.346  65.427 227.673  1.00  0.00     0.000 C 
BRANCH   3   4
ATOM      4  C   UNL     1     100.357  66.053 226.269  1.00  0.00     0.000 C 
BRANCH   4   5
ATOM      5  C   UNL     1      99.517  65.254 225.261  1.00  0.00     0.001 C 
BRANCH   5   6
ATOM      6  C   UNL     1      98.485  64.314 225.920  1.00  0.00     0.009 C 
BRANCH   6   7
ATOM      7  C   UNL     1      96.988  64.563 225.597  1.00  0.00     0.032 C 
ATOM      8  C   UNL     1      96.777  65.512 224.408  1.00  0.00     0.014 C 
BRANCH   7   9
ATOM      9  C   UNL     1      96.192  64.985 226.805  1.00  0.00     0.044 C 
ATOM     10  O   UNL     1      94.935  65.030 226.741  1.00  0.00    -0.550 OA
ATOM     11  O   UNL     1      96.823  65.277 228.008  1.00  0.00    -0.550 OA
ENDBRANCH   7   9
ENDBRANCH   6   7
ENDBRANCH   5   6
ENDBRANCH   4   5
ENDBRANCH   3   4
ENDBRANCH   2   3
ENDBRANCH   1   2
BRANCH   1  12
ATOM     12  C   UNL     1     104.057  64.651 227.282  1.00  0.00     0.000 C 
BRANCH  12  13
ATOM     13  C   UNL     1     104.067  63.475 226.284  1.00  0.00    -0.000 C 
BRANCH  13  14
ATOM     14  C   UNL     1     102.818  63.374 225.385  1.00  0.00    -0.000 C 
BRANCH  14  15
ATOM     15  C   UNL     1     102.047  62.043 225.494  1.00  0.00    -0.000 C 
BRANCH  15  16
ATOM     16  C   UNL     1     101.100  61.935 226.705  1.00  0.00    -0.000 C 
BRANCH  16  17
ATOM     17  C   UNL     1     101.329  60.705 227.602  1.00  0.00    -0.000 C 
BRANCH  17  18
ATOM     18  C   UNL     1     102.682  60.738 228.327  1.00  0.00    -0.003 C 
ATOM     19  C   UNL     1     102.707  61.828 229.394  1.00  0.00     0.004 C 
ENDBRANCH  17  18
ENDBRANCH  16  17
ENDBRANCH  15  16
ENDBRANCH  14  15
ENDBRANCH  13  14
ENDBRANCH  12  13
ENDBRANCH   1  12
TORSDOF 14
ENDMDL
