MODEL 1
REMARK VINA RESULT:    -2.380      0.000      0.000
REMARK INTER + INTRA:          -2.800
REMARK INTER:                  -2.798
REMARK INTRA:                  -0.002
REMARK UNBOUND:                -0.002
REMARK SMILES CCCCC(=O)[O-]
REMARK SMILES IDX 4 1 5 2 6 3 7 4 3 5 2 6 1 7
REMARK H PARENT
REMARK Flexibility Score: inf
ROOT
ATOM      1  C   UNL     1     -11.302  22.398  19.431  1.00  0.00     0.053 C 
ENDROOT
BRANCH   1   2
ATOM      2  C   UNL     1     -12.547  21.572  19.337  1.00  0.00     0.041 C 
ATOM      3  O   UNL     1     -13.059  21.322  18.214  1.00  0.00    -0.550 OA
ATOM      4  O   UNL     1     -13.125  21.051  20.487  1.00  0.00    -0.550 OA
ENDBRANCH   1   2
BRANCH   1   5
ATOM      5  C   UNL     1     -10.993  22.809  20.880  1.00  0.00     0.006 C 
BRANCH   5   6
ATOM      6  C   UNL     1     -10.049  21.845  21.620  1.00  0.00    -0.003 C 
ATOM      7  C   UNL     1      -9.331  20.879  20.680  1.00  0.00     0.004 C 
ENDBRANCH   5   6
ENDBRANCH   1   5
TORSDOF 3
ENDMDL
MODEL 2
REMARK VINA RESULT:    -2.185     19.038     19.521
REMARK INTER + INTRA:          -2.570
REMARK INTER:                  -2.554
REMARK INTRA:                  -0.016
REMARK UNBOUND:                -0.002
REMARK SMILES CCCCC(=O)[O-]
REMARK SMILES IDX 4 1 5 2 6 3 7 4 3 5 2 6 1 7
REMARK H PARENT
REMARK Flexibility Score: inf
ROOT
ATOM      1  C   UNL     1      -7.324  40.862  17.234  1.00  0.00     0.053 C 
ENDROOT
BRANCH   1   2
ATOM      2  C   UNL     1      -6.538  40.434  18.435  1.00  0.00     0.041 C 
ATOM      3  O   UNL     1      -7.089  40.374  19.565  1.00  0.00    -0.550 OA
ATOM      4  O   UNL     1      -5.204  40.071  18.300  1.00  0.00    -0.550 OA
ENDBRANCH   1   2
BRANCH   1   5
ATOM      5  C   UNL     1      -8.541  39.954  16.991  1.00  0.00     0.006 C 
BRANCH   5   6
ATOM      6  C   UNL     1      -9.006  39.905  15.524  1.00  0.00    -0.003 C 
ATOM      7  C   UNL     1     -10.491  40.227  15.361  1.00  0.00     0.004 C 
ENDBRANCH   5   6
ENDBRANCH   1   5
TORSDOF 3
ENDMDL
MODEL 3
REMARK VINA RESULT:    -2.180     18.664     19.178
REMARK INTER + INTRA:          -2.564
REMARK INTER:                  -2.544
REMARK INTRA:                  -0.020
REMARK UNBOUND:                -0.002
REMARK SMILES CCCCC(=O)[O-]
REMARK SMILES IDX 4 1 5 2 6 3 7 4 3 5 2 6 1 7
REMARK H PARENT
REMARK Flexibility Score: inf
ROOT
ATOM      1  C   UNL     1      -7.463  40.749  17.109  1.00  0.00     0.053 C 
ENDROOT
BRANCH   1   2
ATOM      2  C   UNL     1      -8.648  39.937  16.686  1.00  0.00     0.041 C 
ATOM      3  O   UNL     1      -9.463  39.510  17.546  1.00  0.00    -0.550 OA
ATOM      4  O   UNL     1      -8.870  39.679  15.340  1.00  0.00    -0.550 OA
ENDBRANCH   1   2
BRANCH   1   5
ATOM      5  C   UNL     1      -6.920  40.305  18.476  1.00  0.00     0.006 C 
BRANCH   5   6
ATOM      6  C   UNL     1      -5.555  40.916  18.840  1.00  0.00    -0.003 C 
ATOM      7  C   UNL     1      -4.381  40.160  18.220  1.00  0.00     0.004 C 
ENDBRANCH   5   6
ENDBRANCH   1   5
TORSDOF 3
ENDMDL
MODEL 4
REMARK VINA RESULT:    -2.174     16.045     16.793
REMARK INTER + INTRA:          -2.557
REMARK INTER:                  -2.535
REMARK INTRA:                  -0.022
REMARK UNBOUND:                -0.002
REMARK SMILES CCCCC(=O)[O-]
REMARK SMILES IDX 4 1 5 2 6 3 7 4 3 5 2 6 1 7
REMARK H PARENT
REMARK Flexibility Score: inf
ROOT
ATOM      1  C   UNL     1      -0.197  22.016   6.997  1.00  0.00     0.053 C 
ENDROOT
BRANCH   1   2
ATOM      2  C   UNL     1      -0.802  22.267   5.650  1.00  0.00     0.041 C 
ATOM      3  O   UNL     1      -1.662  21.475   5.183  1.00  0.00    -0.550 OA
ATOM      4  O   UNL     1      -0.440  23.395   4.925  1.00  0.00    -0.550 OA
ENDBRANCH   1   2
BRANCH   1   5
ATOM      5  C   UNL     1      -1.124  21.183   7.897  1.00  0.00     0.006 C 
BRANCH   5   6
ATOM      6  C   UNL     1      -1.116  21.610   9.375  1.00  0.00    -0.003 C 
ATOM      7  C   UNL     1      -2.514  21.912   9.914  1.00  0.00     0.004 C 
ENDBRANCH   5   6
ENDBRANCH   1   5
TORSDOF 3
ENDMDL
MODEL 5
REMARK VINA RESULT:    -2.172     18.623     19.135
REMARK INTER + INTRA:          -2.555
REMARK INTER:                  -2.530
REMARK INTRA:                  -0.024
REMARK UNBOUND:                -0.002
REMARK SMILES CCCCC(=O)[O-]
REMARK SMILES IDX 4 1 5 2 6 3 7 4 3 5 2 6 1 7
REMARK H PARENT
REMARK Flexibility Score: inf
ROOT
ATOM      1  C   UNL     1      -9.026  39.915  15.572  1.00  0.00     0.053 C 
ENDROOT
BRANCH   1   2
ATOM      2  C   UNL     1     -10.472  40.268  15.406  1.00  0.00     0.041 C 
ATOM      3  O   UNL     1     -11.314  39.913  16.271  1.00  0.00    -0.550 OA
ATOM      4  O   UNL     1     -10.884  41.018  14.312  1.00  0.00    -0.550 OA
ENDBRANCH   1   2
BRANCH   1   5
ATOM      5  C   UNL     1      -8.623  39.822  17.052  1.00  0.00     0.006 C 
BRANCH   5   6
ATOM      6  C   UNL     1      -7.392  40.670  17.423  1.00  0.00    -0.003 C 
ATOM      7  C   UNL     1      -6.710  40.195  18.705  1.00  0.00     0.004 C 
ENDBRANCH   5   6
ENDBRANCH   1   5
TORSDOF 3
ENDMDL
MODEL 6
REMARK VINA RESULT:    -2.114     20.812     21.630
REMARK INTER + INTRA:          -2.486
REMARK INTER:                  -2.424
REMARK INTRA:                  -0.062
REMARK UNBOUND:                -0.002
REMARK SMILES CCCCC(=O)[O-]
REMARK SMILES IDX 4 1 5 2 6 3 7 4 3 5 2 6 1 7
REMARK H PARENT
REMARK Flexibility Score: inf
ROOT
ATOM      1  C   UNL     1       4.885  23.219   7.411  1.00  0.00     0.053 C 
ENDROOT
BRANCH   1   2
ATOM      2  C   UNL     1       5.338  21.936   8.037  1.00  0.00     0.041 C 
ATOM      3  O   UNL     1       4.530  20.982   8.186  1.00  0.00    -0.550 OA
ATOM      4  O   UNL     1       6.663  21.783   8.426  1.00  0.00    -0.550 OA
ENDBRANCH   1   2
BRANCH   1   5
ATOM      5  C   UNL     1       6.036  24.227   7.267  1.00  0.00     0.006 C 
BRANCH   5   6
ATOM      6  C   UNL     1       6.293  24.685   5.820  1.00  0.00    -0.003 C 
ATOM      7  C   UNL     1       5.115  24.401   4.889  1.00  0.00     0.004 C 
ENDBRANCH   5   6
ENDBRANCH   1   5
TORSDOF 3
ENDMDL
MODEL 7
REMARK VINA RESULT:    -2.085     17.956     18.645
REMARK INTER + INTRA:          -2.452
REMARK INTER:                  -2.353
REMARK INTRA:                  -0.100
REMARK UNBOUND:                -0.002
REMARK SMILES CCCCC(=O)[O-]
REMARK SMILES IDX 4 1 5 2 6 3 7 4 3 5 2 6 1 7
REMARK H PARENT
REMARK Flexibility Score: inf
ROOT
ATOM      1  C   UNL     1      -8.726  39.216  18.094  1.00  0.00     0.053 C 
ENDROOT
BRANCH   1   2
ATOM      2  C   UNL     1      -9.908  39.587  18.935  1.00  0.00     0.041 C 
ATOM      3  O   UNL     1     -10.440  38.733  19.693  1.00  0.00    -0.550 OA
ATOM      4  O   UNL     1     -10.403  40.884  18.908  1.00  0.00    -0.550 OA
ENDBRANCH   1   2
BRANCH   1   5
ATOM      5  C   UNL     1      -8.442  40.266  17.008  1.00  0.00     0.006 C 
BRANCH   5   6
ATOM      6  C   UNL     1      -8.934  39.869  15.604  1.00  0.00    -0.003 C 
ATOM      7  C   UNL     1     -10.379  40.291  15.340  1.00  0.00     0.004 C 
ENDBRANCH   5   6
ENDBRANCH   1   5
TORSDOF 3
ENDMDL
MODEL 8
REMARK VINA RESULT:    -2.052     19.854     20.620
REMARK INTER + INTRA:          -2.414
REMARK INTER:                  -2.393
REMARK INTRA:                  -0.021
REMARK UNBOUND:                -0.002
REMARK SMILES CCCCC(=O)[O-]
REMARK SMILES IDX 4 1 5 2 6 3 7 4 3 5 2 6 1 7
REMARK H PARENT
REMARK Flexibility Score: inf
ROOT
ATOM      1  C   UNL     1       3.792  23.501   6.234  1.00  0.00     0.053 C 
ENDROOT
BRANCH   1   2
ATOM      2  C   UNL     1       2.581  22.650   6.458  1.00  0.00     0.041 C 
ATOM      3  O   UNL     1       2.640  21.404   6.284  1.00  0.00    -0.550 OA
ATOM      4  O   UNL     1       1.394  23.228   6.890  1.00  0.00    -0.550 OA
ENDBRANCH   1   2
BRANCH   1   5
ATOM      5  C   UNL     1       4.887  23.228   7.278  1.00  0.00     0.006 C 
BRANCH   5   6
ATOM      6  C   UNL     1       6.019  24.271   7.290  1.00  0.00    -0.003 C 
ATOM      7  C   UNL     1       6.398  24.752   5.890  1.00  0.00     0.004 C 
ENDBRANCH   5   6
ENDBRANCH   1   5
TORSDOF 3
ENDMDL
MODEL 9
REMARK VINA RESULT:     0.454      0.872      2.006
REMARK INTER + INTRA:           0.532
REMARK INTER:                   0.615
REMARK INTRA:                  -0.082
REMARK UNBOUND:                -0.002
REMARK SMILES CCCCC(=O)[O-]
REMARK SMILES IDX 4 1 5 2 6 3 7 4 3 5 2 6 1 7
REMARK H PARENT
REMARK Flexibility Score: inf
ROOT
ATOM      1  C   UNL     1     -10.974  21.879  19.826  1.00  0.00     0.053 C 
ENDROOT
BRANCH   1   2
ATOM      2  C   UNL     1     -12.325  21.268  19.612  1.00  0.00     0.041 C 
ATOM      3  O   UNL     1     -13.121  21.133  20.578  1.00  0.00    -0.550 OA
ATOM      4  O   UNL     1     -12.717  20.877  18.338  1.00  0.00    -0.550 OA
ENDBRANCH   1   2
BRANCH   1   5
ATOM      5  C   UNL     1     -10.403  21.538  21.212  1.00  0.00     0.006 C 
BRANCH   5   6
ATOM      6  C   UNL     1     -10.195  22.759  22.125  1.00  0.00    -0.003 C 
ATOM      7  C   UNL     1     -11.165  23.900  21.820  1.00  0.00     0.004 C 
ENDBRANCH   5   6
ENDBRANCH   1   5
TORSDOF 3
ENDMDL
