MODEL 1
REMARK VINA RESULT:    -4.681      0.000      0.000
REMARK INTER + INTRA:          -8.716
REMARK INTER:                  -7.418
REMARK INTRA:                  -1.297
REMARK UNBOUND:                -1.297
REMARK SMILES CCCCCCCCCCCC(=O)[O-]
REMARK SMILES IDX 7 1 8 2 9 3 10 4 11 5 12 6 13 7 14 8 6 9 5 10 4 11 3 12 2 13
REMARK SMILES IDX 1 14
REMARK H PARENT
REMARK Flexibility Score: inf
ROOT
ATOM      1  C   UNL     1      18.344  54.446  13.064  1.00  0.00     0.000 C 
ENDROOT
BRANCH   1   2
ATOM      2  C   UNL     1      19.672  53.881  13.581  1.00  0.00     0.000 C 
BRANCH   2   3
ATOM      3  C   UNL     1      19.474  53.142  14.913  1.00  0.00     0.000 C 
BRANCH   3   4
ATOM      4  C   UNL     1      20.230  53.794  16.085  1.00  0.00     0.006 C 
BRANCH   4   5
ATOM      5  C   UNL     1      21.153  54.951  15.666  1.00  0.00     0.053 C 
BRANCH   5   6
ATOM      6  C   UNL     1      22.450  54.959  16.417  1.00  0.00     0.041 C 
ATOM      7  O   UNL     1      23.128  53.903  16.526  1.00  0.00    -0.550 OA
ATOM      8  O   UNL     1      22.927  56.141  16.970  1.00  0.00    -0.550 OA
ENDBRANCH   5   6
ENDBRANCH   4   5
ENDBRANCH   3   4
ENDBRANCH   2   3
ENDBRANCH   1   2
BRANCH   1   9
ATOM      9  C   UNL     1      17.849  55.594  13.959  1.00  0.00     0.000 C 
BRANCH   9  10
ATOM     10  C   UNL     1      16.608  55.217  14.788  1.00  0.00    -0.000 C 
BRANCH  10  11
ATOM     11  C   UNL     1      16.509  55.911  16.159  1.00  0.00    -0.000 C 
BRANCH  11  12
ATOM     12  C   UNL     1      17.700  56.842  16.444  1.00  0.00    -0.000 C 
BRANCH  12  13
ATOM     13  C   UNL     1      18.312  56.607  17.833  1.00  0.00    -0.003 C 
ATOM     14  C   UNL     1      19.671  57.287  18.000  1.00  0.00     0.004 C 
ENDBRANCH  12  13
ENDBRANCH  11  12
ENDBRANCH  10  11
ENDBRANCH   9  10
ENDBRANCH   1   9
TORSDOF 10
ENDMDL
MODEL 2
REMARK VINA RESULT:    -4.561      1.001      1.457
REMARK INTER + INTRA:          -8.524
REMARK INTER:                  -7.116
REMARK INTRA:                  -1.408
REMARK UNBOUND:                -1.297
REMARK SMILES CCCCCCCCCCCC(=O)[O-]
REMARK SMILES IDX 7 1 8 2 9 3 10 4 11 5 12 6 13 7 14 8 6 9 5 10 4 11 3 12 2 13
REMARK SMILES IDX 1 14
REMARK H PARENT
REMARK Flexibility Score: inf
ROOT
ATOM      1  C   UNL     1      19.573  54.080  13.654  1.00  0.00     0.000 C 
ENDROOT
BRANCH   1   2
ATOM      2  C   UNL     1      19.649  53.304  14.973  1.00  0.00     0.000 C 
BRANCH   2   3
ATOM      3  C   UNL     1      20.927  53.657  15.748  1.00  0.00     0.000 C 
BRANCH   3   4
ATOM      4  C   UNL     1      21.399  55.103  15.508  1.00  0.00     0.006 C 
BRANCH   4   5
ATOM      5  C   UNL     1      22.171  55.713  16.691  1.00  0.00     0.053 C 
BRANCH   5   6
ATOM      6  C   UNL     1      23.646  55.796  16.440  1.00  0.00     0.041 C 
ATOM      7  O   UNL     1      24.389  54.809  16.682  1.00  0.00    -0.550 OA
ATOM      8  O   UNL     1      24.196  56.956  15.907  1.00  0.00    -0.550 OA
ENDBRANCH   5   6
ENDBRANCH   4   5
ENDBRANCH   3   4
ENDBRANCH   2   3
ENDBRANCH   1   2
BRANCH   1   9
ATOM      9  C   UNL     1      18.219  54.792  13.511  1.00  0.00     0.000 C 
BRANCH   9  10
ATOM     10  C   UNL     1      17.368  54.727  14.793  1.00  0.00    -0.000 C 
BRANCH  10  11
ATOM     11  C   UNL     1      17.042  56.093  15.425  1.00  0.00    -0.000 C 
BRANCH  11  12
ATOM     12  C   UNL     1      18.279  56.787  16.020  1.00  0.00    -0.000 C 
BRANCH  12  13
ATOM     13  C   UNL     1      18.322  56.701  17.553  1.00  0.00    -0.003 C 
ATOM     14  C   UNL     1      18.627  55.290  18.055  1.00  0.00     0.004 C 
ENDBRANCH  12  13
ENDBRANCH  11  12
ENDBRANCH  10  11
ENDBRANCH   9  10
ENDBRANCH   1   9
TORSDOF 10
ENDMDL
MODEL 3
REMARK VINA RESULT:    -4.497      3.325      5.731
REMARK INTER + INTRA:          -8.424
REMARK INTER:                  -7.099
REMARK INTRA:                  -1.325
REMARK UNBOUND:                -1.297
REMARK SMILES CCCCCCCCCCCC(=O)[O-]
REMARK SMILES IDX 7 1 8 2 9 3 10 4 11 5 12 6 13 7 14 8 6 9 5 10 4 11 3 12 2 13
REMARK SMILES IDX 1 14
REMARK H PARENT
REMARK Flexibility Score: inf
ROOT
ATOM      1  C   UNL     1      20.556  56.689  16.460  1.00  0.00     0.000 C 
ENDROOT
BRANCH   1   2
ATOM      2  C   UNL     1      19.795  57.130  17.714  1.00  0.00     0.000 C 
BRANCH   2   3
ATOM      3  C   UNL     1      18.391  56.508  17.754  1.00  0.00     0.000 C 
BRANCH   3   4
ATOM      4  C   UNL     1      17.587  56.748  16.464  1.00  0.00     0.006 C 
BRANCH   4   5
ATOM      5  C   UNL     1      16.378  55.810  16.296  1.00  0.00     0.053 C 
BRANCH   5   6
ATOM      6  C   UNL     1      15.073  56.545  16.269  1.00  0.00     0.041 C 
ATOM      7  O   UNL     1      13.989  55.913  16.162  1.00  0.00    -0.550 OA
ATOM      8  O   UNL     1      15.050  57.929  16.394  1.00  0.00    -0.550 OA
ENDBRANCH   5   6
ENDBRANCH   4   5
ENDBRANCH   3   4
ENDBRANCH   2   3
ENDBRANCH   1   2
BRANCH   1   9
ATOM      9  C   UNL     1      21.485  55.504  16.768  1.00  0.00     0.000 C 
BRANCH   9  10
ATOM     10  C   UNL     1      21.394  54.380  15.719  1.00  0.00    -0.000 C 
BRANCH  10  11
ATOM     11  C   UNL     1      20.388  53.263  16.050  1.00  0.00    -0.000 C 
BRANCH  11  12
ATOM     12  C   UNL     1      19.162  53.268  15.120  1.00  0.00    -0.000 C 
BRANCH  12  13
ATOM     13  C   UNL     1      19.455  53.923  13.762  1.00  0.00    -0.003 C 
ATOM     14  C   UNL     1      18.292  54.776  13.257  1.00  0.00     0.004 C 
ENDBRANCH  12  13
ENDBRANCH  11  12
ENDBRANCH  10  11
ENDBRANCH   9  10
ENDBRANCH   1   9
TORSDOF 10
ENDMDL
MODEL 4
REMARK VINA RESULT:    -4.485      1.498      2.107
REMARK INTER + INTRA:          -8.404
REMARK INTER:                  -6.982
REMARK INTRA:                  -1.422
REMARK UNBOUND:                -1.297
REMARK SMILES CCCCCCCCCCCC(=O)[O-]
REMARK SMILES IDX 7 1 8 2 9 3 10 4 11 5 12 6 13 7 14 8 6 9 5 10 4 11 3 12 2 13
REMARK SMILES IDX 1 14
REMARK H PARENT
REMARK Flexibility Score: inf
ROOT
ATOM      1  C   UNL     1      18.813  54.957  14.016  1.00  0.00     0.000 C 
ENDROOT
BRANCH   1   2
ATOM      2  C   UNL     1      19.732  53.732  14.011  1.00  0.00     0.000 C 
BRANCH   2   3
ATOM      3  C   UNL     1      19.898  53.161  15.428  1.00  0.00     0.000 C 
BRANCH   3   4
ATOM      4  C   UNL     1      19.351  54.094  16.523  1.00  0.00     0.006 C 
BRANCH   4   5
ATOM      5  C   UNL     1      20.439  54.703  17.426  1.00  0.00     0.053 C 
BRANCH   5   6
ATOM      6  C   UNL     1      20.855  56.074  16.988  1.00  0.00     0.041 C 
ATOM      7  O   UNL     1      20.462  57.090  17.620  1.00  0.00    -0.550 OA
ATOM      8  O   UNL     1      21.705  56.230  15.900  1.00  0.00    -0.550 OA
ENDBRANCH   5   6
ENDBRANCH   4   5
ENDBRANCH   3   4
ENDBRANCH   2   3
ENDBRANCH   1   2
BRANCH   1   9
ATOM      9  C   UNL     1      17.809  54.896  12.854  1.00  0.00     0.000 C 
BRANCH   9  10
ATOM     10  C   UNL     1      16.343  54.897  13.326  1.00  0.00    -0.000 C 
BRANCH  10  11
ATOM     11  C   UNL     1      16.138  54.522  14.805  1.00  0.00    -0.000 C 
BRANCH  11  12
ATOM     12  C   UNL     1      15.425  55.624  15.608  1.00  0.00    -0.000 C 
BRANCH  12  13
ATOM     13  C   UNL     1      16.327  56.244  16.686  1.00  0.00    -0.003 C 
ATOM     14  C   UNL     1      17.217  57.360  16.138  1.00  0.00     0.004 C 
ENDBRANCH  12  13
ENDBRANCH  11  12
ENDBRANCH  10  11
ENDBRANCH   9  10
ENDBRANCH   1   9
TORSDOF 10
ENDMDL
MODEL 5
REMARK VINA RESULT:    -4.473      2.668      4.387
REMARK INTER + INTRA:          -8.385
REMARK INTER:                  -6.822
REMARK INTRA:                  -1.563
REMARK UNBOUND:                -1.297
REMARK SMILES CCCCCCCCCCCC(=O)[O-]
REMARK SMILES IDX 7 1 8 2 9 3 10 4 11 5 12 6 13 7 14 8 6 9 5 10 4 11 3 12 2 13
REMARK SMILES IDX 1 14
REMARK H PARENT
REMARK Flexibility Score: inf
ROOT
ATOM      1  C   UNL     1      19.158  52.989  15.220  1.00  0.00     0.000 C 
ENDROOT
BRANCH   1   2
ATOM      2  C   UNL     1      19.598  53.813  14.005  1.00  0.00     0.000 C 
BRANCH   2   3
ATOM      3  C   UNL     1      18.584  54.925  13.697  1.00  0.00     0.000 C 
BRANCH   3   4
ATOM      4  C   UNL     1      17.355  54.896  14.623  1.00  0.00     0.006 C 
BRANCH   4   5
ATOM      5  C   UNL     1      17.190  56.161  15.484  1.00  0.00     0.053 C 
BRANCH   5   6
ATOM      6  C   UNL     1      16.713  55.859  16.872  1.00  0.00     0.041 C 
ATOM      7  O   UNL     1      17.245  54.934  17.541  1.00  0.00    -0.550 OA
ATOM      8  O   UNL     1      15.700  56.622  17.441  1.00  0.00    -0.550 OA
ENDBRANCH   5   6
ENDBRANCH   4   5
ENDBRANCH   3   4
ENDBRANCH   2   3
ENDBRANCH   1   2
BRANCH   1   9
ATOM      9  C   UNL     1      20.131  53.180  16.395  1.00  0.00     0.000 C 
BRANCH   9  10
ATOM     10  C   UNL     1      21.518  53.679  15.952  1.00  0.00    -0.000 C 
BRANCH  10  11
ATOM     11  C   UNL     1      22.031  54.921  16.703  1.00  0.00    -0.000 C 
BRANCH  11  12
ATOM     12  C   UNL     1      21.931  56.209  15.867  1.00  0.00    -0.000 C 
BRANCH  12  13
ATOM     13  C   UNL     1      20.652  57.006  16.161  1.00  0.00    -0.003 C 
ATOM     14  C   UNL     1      20.238  56.931  17.631  1.00  0.00     0.004 C 
ENDBRANCH  12  13
ENDBRANCH  11  12
ENDBRANCH  10  11
ENDBRANCH   9  10
ENDBRANCH   1   9
TORSDOF 10
ENDMDL
MODEL 6
REMARK VINA RESULT:    -4.470      3.083      3.926
REMARK INTER + INTRA:          -8.380
REMARK INTER:                  -6.797
REMARK INTRA:                  -1.583
REMARK UNBOUND:                -1.297
REMARK SMILES CCCCCCCCCCCC(=O)[O-]
REMARK SMILES IDX 7 1 8 2 9 3 10 4 11 5 12 6 13 7 14 8 6 9 5 10 4 11 3 12 2 13
REMARK SMILES IDX 1 14
REMARK H PARENT
REMARK Flexibility Score: inf
ROOT
ATOM      1  C   UNL     1      19.909  53.053  15.123  1.00  0.00     0.000 C 
ENDROOT
BRANCH   1   2
ATOM      2  C   UNL     1      20.945  53.353  16.211  1.00  0.00     0.000 C 
BRANCH   2   3
ATOM      3  C   UNL     1      20.316  53.266  17.610  1.00  0.00     0.000 C 
BRANCH   3   4
ATOM      4  C   UNL     1      18.778  53.245  17.581  1.00  0.00     0.006 C 
BRANCH   4   5
ATOM      5  C   UNL     1      18.120  53.804  18.855  1.00  0.00     0.053 C 
BRANCH   5   6
ATOM      6  C   UNL     1      16.767  54.394  18.598  1.00  0.00     0.041 C 
ATOM      7  O   UNL     1      16.235  55.158  19.446  1.00  0.00    -0.550 OA
ATOM      8  O   UNL     1      16.105  54.125  17.407  1.00  0.00    -0.550 OA
ENDBRANCH   5   6
ENDBRANCH   4   5
ENDBRANCH   3   4
ENDBRANCH   2   3
ENDBRANCH   1   2
BRANCH   1   9
ATOM      9  C   UNL     1      19.891  54.161  14.058  1.00  0.00     0.000 C 
BRANCH   9  10
ATOM     10  C   UNL     1      18.478  54.705  13.781  1.00  0.00    -0.000 C 
BRANCH  10  11
ATOM     11  C   UNL     1      17.963  55.729  14.808  1.00  0.00    -0.000 C 
BRANCH  11  12
ATOM     12  C   UNL     1      19.098  56.518  15.485  1.00  0.00    -0.000 C 
BRANCH  12  13
ATOM     13  C   UNL     1      18.726  56.988  16.900  1.00  0.00    -0.003 C 
ATOM     14  C   UNL     1      19.940  57.090  17.823  1.00  0.00     0.004 C 
ENDBRANCH  12  13
ENDBRANCH  11  12
ENDBRANCH  10  11
ENDBRANCH   9  10
ENDBRANCH   1   9
TORSDOF 10
ENDMDL
MODEL 7
REMARK VINA RESULT:    -4.433      1.137      3.342
REMARK INTER + INTRA:          -8.322
REMARK INTER:                  -6.903
REMARK INTRA:                  -1.419
REMARK UNBOUND:                -1.297
REMARK SMILES CCCCCCCCCCCC(=O)[O-]
REMARK SMILES IDX 7 1 8 2 9 3 10 4 11 5 12 6 13 7 14 8 6 9 5 10 4 11 3 12 2 13
REMARK SMILES IDX 1 14
REMARK H PARENT
REMARK Flexibility Score: inf
ROOT
ATOM      1  C   UNL     1      17.120  54.826  17.890  1.00  0.00     0.000 C 
ENDROOT
BRANCH   1   2
ATOM      2  C   UNL     1      18.030  56.042  17.691  1.00  0.00     0.000 C 
BRANCH   2   3
ATOM      3  C   UNL     1      19.511  55.641  17.766  1.00  0.00     0.000 C 
BRANCH   3   4
ATOM      4  C   UNL     1      20.467  56.783  17.377  1.00  0.00     0.006 C 
BRANCH   4   5
ATOM      5  C   UNL     1      21.305  56.496  16.119  1.00  0.00     0.053 C 
BRANCH   5   6
ATOM      6  C   UNL     1      22.539  55.700  16.413  1.00  0.00     0.041 C 
ATOM      7  O   UNL     1      22.492  54.442  16.445  1.00  0.00    -0.550 OA
ATOM      8  O   UNL     1      23.752  56.346  16.620  1.00  0.00    -0.550 OA
ENDBRANCH   5   6
ENDBRANCH   4   5
ENDBRANCH   3   4
ENDBRANCH   2   3
ENDBRANCH   1   2
BRANCH   1   9
ATOM      9  C   UNL     1      16.524  54.361  16.552  1.00  0.00     0.000 C 
BRANCH   9  10
ATOM     10  C   UNL     1      16.556  55.453  15.468  1.00  0.00    -0.000 C 
BRANCH  10  11
ATOM     11  C   UNL     1      17.133  55.004  14.113  1.00  0.00    -0.000 C 
BRANCH  11  12
ATOM     12  C   UNL     1      18.654  55.213  14.013  1.00  0.00    -0.000 C 
BRANCH  12  13
ATOM     13  C   UNL     1      19.412  53.903  13.748  1.00  0.00    -0.003 C 
ATOM     14  C   UNL     1      19.599  53.065  15.013  1.00  0.00     0.004 C 
ENDBRANCH  12  13
ENDBRANCH  11  12
ENDBRANCH  10  11
ENDBRANCH   9  10
ENDBRANCH   1   9
TORSDOF 10
ENDMDL
MODEL 8
REMARK VINA RESULT:    -4.423      2.940      4.595
REMARK INTER + INTRA:          -8.306
REMARK INTER:                  -6.923
REMARK INTRA:                  -1.382
REMARK UNBOUND:                -1.297
REMARK SMILES CCCCCCCCCCCC(=O)[O-]
REMARK SMILES IDX 7 1 8 2 9 3 10 4 11 5 12 6 13 7 14 8 6 9 5 10 4 11 3 12 2 13
REMARK SMILES IDX 1 14
REMARK H PARENT
REMARK Flexibility Score: inf
ROOT
ATOM      1  C   UNL     1      17.971  54.847  13.508  1.00  0.00     0.000 C 
ENDROOT
BRANCH   1   2
ATOM      2  C   UNL     1      17.410  55.204  14.889  1.00  0.00     0.000 C 
BRANCH   2   3
ATOM      3  C   UNL     1      17.913  56.579  15.350  1.00  0.00     0.000 C 
BRANCH   3   4
ATOM      4  C   UNL     1      18.083  56.681  16.876  1.00  0.00     0.006 C 
BRANCH   4   5
ATOM      5  C   UNL     1      17.707  55.395  17.634  1.00  0.00     0.053 C 
BRANCH   5   6
ATOM      6  C   UNL     1      16.517  55.576  18.527  1.00  0.00     0.041 C 
ATOM      7  O   UNL     1      15.654  56.455  18.266  1.00  0.00    -0.550 OA
ATOM      8  O   UNL     1      16.343  54.751  19.631  1.00  0.00    -0.550 OA
ENDBRANCH   5   6
ENDBRANCH   4   5
ENDBRANCH   3   4
ENDBRANCH   2   3
ENDBRANCH   1   2
BRANCH   1   9
ATOM      9  C   UNL     1      19.356  54.193  13.630  1.00  0.00     0.000 C 
BRANCH   9  10
ATOM     10  C   UNL     1      19.505  53.332  14.897  1.00  0.00    -0.000 C 
BRANCH  10  11
ATOM     11  C   UNL     1      20.653  53.750  15.834  1.00  0.00    -0.000 C 
BRANCH  11  12
ATOM     12  C   UNL     1      21.246  55.124  15.475  1.00  0.00    -0.000 C 
BRANCH  12  13
ATOM     13  C   UNL     1      21.768  55.880  16.706  1.00  0.00    -0.003 C 
ATOM     14  C   UNL     1      23.284  56.076  16.677  1.00  0.00     0.004 C 
ENDBRANCH  12  13
ENDBRANCH  11  12
ENDBRANCH  10  11
ENDBRANCH   9  10
ENDBRANCH   1   9
TORSDOF 10
ENDMDL
MODEL 9
REMARK VINA RESULT:    -4.364      1.311      2.966
REMARK INTER + INTRA:          -8.212
REMARK INTER:                  -6.697
REMARK INTRA:                  -1.515
REMARK UNBOUND:                -1.297
REMARK SMILES CCCCCCCCCCCC(=O)[O-]
REMARK SMILES IDX 7 1 8 2 9 3 10 4 11 5 12 6 13 7 14 8 6 9 5 10 4 11 3 12 2 13
REMARK SMILES IDX 1 14
REMARK H PARENT
REMARK Flexibility Score: inf
ROOT
ATOM      1  C   UNL     1      18.640  53.354  17.538  1.00  0.00     0.000 C 
ENDROOT
BRANCH   1   2
ATOM      2  C   UNL     1      18.732  52.659  16.175  1.00  0.00     0.000 C 
BRANCH   2   3
ATOM      3  C   UNL     1      20.178  52.650  15.657  1.00  0.00     0.000 C 
BRANCH   3   4
ATOM      4  C   UNL     1      21.093  53.638  16.402  1.00  0.00     0.006 C 
BRANCH   4   5
ATOM      5  C   UNL     1      21.429  54.906  15.598  1.00  0.00     0.053 C 
BRANCH   5   6
ATOM      6  C   UNL     1      22.131  55.944  16.419  1.00  0.00     0.041 C 
ATOM      7  O   UNL     1      23.365  56.148  16.268  1.00  0.00    -0.550 OA
ATOM      8  O   UNL     1      21.416  56.710  17.331  1.00  0.00    -0.550 OA
ENDBRANCH   5   6
ENDBRANCH   4   5
ENDBRANCH   3   4
ENDBRANCH   2   3
ENDBRANCH   1   2
BRANCH   1   9
ATOM      9  C   UNL     1      17.523  54.410  17.544  1.00  0.00     0.000 C 
BRANCH   9  10
ATOM     10  C   UNL     1      18.055  55.847  17.689  1.00  0.00    -0.000 C 
BRANCH  10  11
ATOM     11  C   UNL     1      18.022  56.685  16.398  1.00  0.00    -0.000 C 
BRANCH  11  12
ATOM     12  C   UNL     1      17.317  55.963  15.236  1.00  0.00    -0.000 C 
BRANCH  12  13
ATOM     13  C   UNL     1      18.261  55.683  14.057  1.00  0.00    -0.003 C 
ATOM     14  C   UNL     1      17.565  54.962  12.904  1.00  0.00     0.004 C 
ENDBRANCH  12  13
ENDBRANCH  11  12
ENDBRANCH  10  11
ENDBRANCH   9  10
ENDBRANCH   1   9
TORSDOF 10
ENDMDL
