MODEL 1
REMARK VINA RESULT:    -4.033      0.000      0.000
REMARK INTER + INTRA:          -6.435
REMARK INTER:                  -5.919
REMARK INTRA:                  -0.517
REMARK UNBOUND:                -0.517
REMARK SMILES O=C([O-])CCCCCCCC(=O)[O-]
REMARK SMILES IDX 7 1 6 2 5 3 4 4 2 5 1 6 3 7 8 8 9 9 10 10 11 11 12 12 13 13
REMARK H PARENT
REMARK Flexibility Score: inf
ROOT
ATOM      1  C   UNL     1      35.251  25.554  69.873  1.00  0.00     0.000 C 
ENDROOT
BRANCH   1   2
ATOM      2  C   UNL     1      34.551  26.541  70.816  1.00  0.00     0.000 C 
BRANCH   2   3
ATOM      3  C   UNL     1      33.386  25.866  71.550  1.00  0.00     0.006 C 
BRANCH   3   4
ATOM      4  C   UNL     1      32.045  26.243  70.914  1.00  0.00     0.053 C 
BRANCH   4   5
ATOM      5  C   UNL     1      31.470  25.076  70.174  1.00  0.00     0.041 C 
ATOM      6  O   UNL     1      30.549  24.390  70.689  1.00  0.00    -0.550 OA
ATOM      7  O   UNL     1      31.919  24.776  68.894  1.00  0.00    -0.550 OA
ENDBRANCH   4   5
ENDBRANCH   3   4
ENDBRANCH   2   3
ENDBRANCH   1   2
BRANCH   1   8
ATOM      8  C   UNL     1      35.256  24.139  70.463  1.00  0.00     0.000 C 
BRANCH   8   9
ATOM      9  C   UNL     1      36.549  23.875  71.250  1.00  0.00     0.006 C 
BRANCH   9  10
ATOM     10  C   UNL     1      37.804  24.116  70.401  1.00  0.00     0.053 C 
BRANCH  10  11
ATOM     11  C   UNL     1      39.029  24.276  71.251  1.00  0.00     0.041 C 
ATOM     12  O   UNL     1      40.111  24.660  70.736  1.00  0.00    -0.550 OA
ATOM     13  O   UNL     1      38.964  24.033  72.617  1.00  0.00    -0.550 OA
ENDBRANCH  10  11
ENDBRANCH   9  10
ENDBRANCH   8   9
ENDBRANCH   1   8
TORSDOF 8
ENDMDL
MODEL 2
REMARK VINA RESULT:    -4.017     18.912     20.321
REMARK INTER + INTRA:          -6.412
REMARK INTER:                  -5.564
REMARK INTRA:                  -0.849
REMARK UNBOUND:                -0.517
REMARK SMILES O=C([O-])CCCCCCCC(=O)[O-]
REMARK SMILES IDX 7 1 6 2 5 3 4 4 2 5 1 6 3 7 8 8 9 9 10 10 11 11 12 12 13 13
REMARK H PARENT
REMARK Flexibility Score: inf
ROOT
ATOM      1  C   UNL     1      39.256  43.828  60.814  1.00  0.00     0.000 C 
ENDROOT
BRANCH   1   2
ATOM      2  C   UNL     1      39.568  43.276  59.417  1.00  0.00     0.000 C 
BRANCH   2   3
ATOM      3  C   UNL     1      40.676  42.218  59.479  1.00  0.00     0.006 C 
BRANCH   3   4
ATOM      4  C   UNL     1      40.215  40.903  58.843  1.00  0.00     0.053 C 
BRANCH   4   5
ATOM      5  C   UNL     1      41.212  39.818  59.101  1.00  0.00     0.041 C 
ATOM      6  O   UNL     1      41.665  39.133  58.147  1.00  0.00    -0.550 OA
ATOM      7  O   UNL     1      41.679  39.596  60.391  1.00  0.00    -0.550 OA
ENDBRANCH   4   5
ENDBRANCH   3   4
ENDBRANCH   2   3
ENDBRANCH   1   2
BRANCH   1   8
ATOM      8  C   UNL     1      40.074  43.102  61.888  1.00  0.00     0.000 C 
BRANCH   8   9
ATOM      9  C   UNL     1      39.156  42.345  62.860  1.00  0.00     0.006 C 
BRANCH   9  10
ATOM     10  C   UNL     1      39.175  40.830  62.615  1.00  0.00     0.053 C 
BRANCH  10  11
ATOM     11  C   UNL     1      37.975  40.378  61.839  1.00  0.00     0.041 C 
ATOM     12  O   UNL     1      36.967  41.126  61.738  1.00  0.00    -0.550 OA
ATOM     13  O   UNL     1      37.984  39.145  61.199  1.00  0.00    -0.550 OA
ENDBRANCH  10  11
ENDBRANCH   9  10
ENDBRANCH   8   9
ENDBRANCH   1   8
TORSDOF 8
ENDMDL
MODEL 3
REMARK VINA RESULT:    -3.873      1.490      5.999
REMARK INTER + INTRA:          -6.201
REMARK INTER:                  -5.637
REMARK INTRA:                  -0.565
REMARK UNBOUND:                -0.517
REMARK SMILES O=C([O-])CCCCCCCC(=O)[O-]
REMARK SMILES IDX 7 1 6 2 5 3 4 4 2 5 1 6 3 7 8 8 9 9 10 10 11 11 12 12 13 13
REMARK H PARENT
REMARK Flexibility Score: inf
ROOT
ATOM      1  C   UNL     1      32.836  26.659  70.820  1.00  0.00     0.000 C 
ENDROOT
BRANCH   1   2
ATOM      2  C   UNL     1      34.252  26.332  71.310  1.00  0.00     0.000 C 
BRANCH   2   3
ATOM      3  C   UNL     1      35.014  25.500  70.271  1.00  0.00     0.006 C 
BRANCH   3   4
ATOM      4  C   UNL     1      35.595  24.231  70.904  1.00  0.00     0.053 C 
BRANCH   4   5
ATOM      5  C   UNL     1      37.062  24.133  70.629  1.00  0.00     0.041 C 
ATOM      6  O   UNL     1      37.494  24.224  69.450  1.00  0.00    -0.550 OA
ATOM      7  O   UNL     1      37.959  23.991  71.681  1.00  0.00    -0.550 OA
ENDBRANCH   4   5
ENDBRANCH   3   4
ENDBRANCH   2   3
ENDBRANCH   1   2
BRANCH   1   8
ATOM      8  C   UNL     1      31.796  25.766  71.509  1.00  0.00     0.000 C 
BRANCH   8   9
ATOM      9  C   UNL     1      30.956  25.002  70.474  1.00  0.00     0.006 C 
BRANCH   9  10
ATOM     10  C   UNL     1      31.791  23.986  69.684  1.00  0.00     0.053 C 
BRANCH  10  11
ATOM     11  C   UNL     1      31.728  24.241  68.208  1.00  0.00     0.041 C 
ATOM     12  O   UNL     1      30.614  24.331  67.628  1.00  0.00    -0.550 OA
ATOM     13  O   UNL     1      32.899  24.412  67.482  1.00  0.00    -0.550 OA
ENDBRANCH  10  11
ENDBRANCH   9  10
ENDBRANCH   8   9
ENDBRANCH   1   8
TORSDOF 8
ENDMDL
MODEL 4
REMARK VINA RESULT:    -3.840      1.434      2.444
REMARK INTER + INTRA:          -6.153
REMARK INTER:                  -5.608
REMARK INTRA:                  -0.545
REMARK UNBOUND:                -0.517
REMARK SMILES O=C([O-])CCCCCCCC(=O)[O-]
REMARK SMILES IDX 7 1 6 2 5 3 4 4 2 5 1 6 3 7 8 8 9 9 10 10 11 11 12 12 13 13
REMARK H PARENT
REMARK Flexibility Score: inf
ROOT
ATOM      1  C   UNL     1      33.150  26.873  70.751  1.00  0.00     0.000 C 
ENDROOT
BRANCH   1   2
ATOM      2  C   UNL     1      32.143  26.000  71.510  1.00  0.00     0.000 C 
BRANCH   2   3
ATOM      3  C   UNL     1      31.134  25.362  70.548  1.00  0.00     0.006 C 
BRANCH   3   4
ATOM      4  C   UNL     1      31.732  24.131  69.861  1.00  0.00     0.053 C 
BRANCH   4   5
ATOM      5  C   UNL     1      31.625  24.257  68.374  1.00  0.00     0.041 C 
ATOM      6  O   UNL     1      30.495  24.288  67.820  1.00  0.00    -0.550 OA
ATOM      7  O   UNL     1      32.773  24.390  67.603  1.00  0.00    -0.550 OA
ENDBRANCH   4   5
ENDBRANCH   3   4
ENDBRANCH   2   3
ENDBRANCH   1   2
BRANCH   1   8
ATOM      8  C   UNL     1      34.590  26.443  71.056  1.00  0.00     0.000 C 
BRANCH   8   9
ATOM      9  C   UNL     1      35.031  25.300  70.129  1.00  0.00     0.006 C 
BRANCH   9  10
ATOM     10  C   UNL     1      35.693  24.150  70.899  1.00  0.00     0.053 C 
BRANCH  10  11
ATOM     11  C   UNL     1      37.186  24.179  70.767  1.00  0.00     0.041 C 
ATOM     12  O   UNL     1      37.914  24.053  71.787  1.00  0.00    -0.550 OA
ATOM     13  O   UNL     1      37.771  24.311  69.515  1.00  0.00    -0.550 OA
ENDBRANCH  10  11
ENDBRANCH   9  10
ENDBRANCH   8   9
ENDBRANCH   1   8
TORSDOF 8
ENDMDL
MODEL 5
REMARK VINA RESULT:    -3.693      2.744      5.863
REMARK INTER + INTRA:          -5.936
REMARK INTER:                  -5.394
REMARK INTRA:                  -0.542
REMARK UNBOUND:                -0.517
REMARK SMILES O=C([O-])CCCCCCCC(=O)[O-]
REMARK SMILES IDX 7 1 6 2 5 3 4 4 2 5 1 6 3 7 8 8 9 9 10 10 11 11 12 12 13 13
REMARK H PARENT
REMARK Flexibility Score: inf
ROOT
ATOM      1  C   UNL     1      32.019  24.711  70.642  1.00  0.00     0.000 C 
ENDROOT
BRANCH   1   2
ATOM      2  C   UNL     1      32.531  26.131  70.916  1.00  0.00     0.000 C 
BRANCH   2   3
ATOM      3  C   UNL     1      34.063  26.173  70.910  1.00  0.00     0.006 C 
BRANCH   3   4
ATOM      4  C   UNL     1      34.652  24.759  70.911  1.00  0.00     0.053 C 
BRANCH   4   5
ATOM      5  C   UNL     1      35.850  24.690  70.017  1.00  0.00     0.041 C 
ATOM      6  O   UNL     1      35.736  24.925  68.785  1.00  0.00    -0.550 OA
ATOM      7  O   UNL     1      37.102  24.415  70.553  1.00  0.00    -0.550 OA
ENDBRANCH   4   5
ENDBRANCH   3   4
ENDBRANCH   2   3
ENDBRANCH   1   2
BRANCH   1   8
ATOM      8  C   UNL     1      31.270  24.645  69.305  1.00  0.00     0.000 C 
BRANCH   8   9
ATOM      9  C   UNL     1      32.223  24.275  68.158  1.00  0.00     0.006 C 
BRANCH   9  10
ATOM     10  C   UNL     1      31.652  24.652  66.785  1.00  0.00     0.053 C 
BRANCH  10  11
ATOM     11  C   UNL     1      32.705  24.628  65.718  1.00  0.00     0.041 C 
ATOM     12  O   UNL     1      33.841  24.142  65.962  1.00  0.00    -0.550 OA
ATOM     13  O   UNL     1      32.420  25.110  64.448  1.00  0.00    -0.550 OA
ENDBRANCH  10  11
ENDBRANCH   9  10
ENDBRANCH   8   9
ENDBRANCH   1   8
TORSDOF 8
ENDMDL
MODEL 6
REMARK VINA RESULT:    -3.681      3.419      5.099
REMARK INTER + INTRA:          -5.919
REMARK INTER:                  -5.451
REMARK INTRA:                  -0.468
REMARK UNBOUND:                -0.517
REMARK SMILES O=C([O-])CCCCCCCC(=O)[O-]
REMARK SMILES IDX 7 1 6 2 5 3 4 4 2 5 1 6 3 7 8 8 9 9 10 10 11 11 12 12 13 13
REMARK H PARENT
REMARK Flexibility Score: inf
ROOT
ATOM      1  C   UNL     1      35.775  24.999  68.749  1.00  0.00     0.000 C 
ENDROOT
BRANCH   1   2
ATOM      2  C   UNL     1      35.323  23.949  67.727  1.00  0.00     0.000 C 
BRANCH   2   3
ATOM      3  C   UNL     1      33.850  24.146  67.350  1.00  0.00     0.006 C 
BRANCH   3   4
ATOM      4  C   UNL     1      33.651  24.030  65.835  1.00  0.00     0.053 C 
BRANCH   4   5
ATOM      5  C   UNL     1      32.420  24.767  65.411  1.00  0.00     0.041 C 
ATOM      6  O   UNL     1      31.371  24.700  66.104  1.00  0.00    -0.550 OA
ATOM      7  O   UNL     1      32.445  25.568  64.276  1.00  0.00    -0.550 OA
ENDBRANCH   4   5
ENDBRANCH   3   4
ENDBRANCH   2   3
ENDBRANCH   1   2
BRANCH   1   8
ATOM      8  C   UNL     1      35.960  24.373  70.136  1.00  0.00     0.000 C 
BRANCH   8   9
ATOM      9  C   UNL     1      34.698  24.553  70.994  1.00  0.00     0.006 C 
BRANCH   9  10
ATOM     10  C   UNL     1      33.998  25.892  70.722  1.00  0.00     0.053 C 
BRANCH  10  11
ATOM     11  C   UNL     1      32.506  25.759  70.769  1.00  0.00     0.041 C 
ATOM     12  O   UNL     1      31.817  26.586  71.424  1.00  0.00    -0.550 OA
ATOM     13  O   UNL     1      31.875  24.744  70.064  1.00  0.00    -0.550 OA
ENDBRANCH  10  11
ENDBRANCH   9  10
ENDBRANCH   8   9
ENDBRANCH   1   8
TORSDOF 8
ENDMDL
MODEL 7
REMARK VINA RESULT:    -3.640     19.605     20.911
REMARK INTER + INTRA:          -5.859
REMARK INTER:                  -5.000
REMARK INTRA:                  -0.859
REMARK UNBOUND:                -0.517
REMARK SMILES O=C([O-])CCCCCCCC(=O)[O-]
REMARK SMILES IDX 7 1 6 2 5 3 4 4 2 5 1 6 3 7 8 8 9 9 10 10 11 11 12 12 13 13
REMARK H PARENT
REMARK Flexibility Score: inf
ROOT
ATOM      1  C   UNL     1      39.124  42.244  62.800  1.00  0.00     0.000 C 
ENDROOT
BRANCH   1   2
ATOM      2  C   UNL     1      38.107  41.430  61.991  1.00  0.00     0.000 C 
BRANCH   2   3
ATOM      3  C   UNL     1      38.689  40.070  61.585  1.00  0.00     0.006 C 
BRANCH   3   4
ATOM      4  C   UNL     1      39.118  40.073  60.115  1.00  0.00     0.053 C 
BRANCH   4   5
ATOM      5  C   UNL     1      40.608  39.992  60.004  1.00  0.00     0.041 C 
ATOM      6  O   UNL     1      41.328  40.130  61.027  1.00  0.00    -0.550 OA
ATOM      7  O   UNL     1      41.199  39.716  58.777  1.00  0.00    -0.550 OA
ENDBRANCH   4   5
ENDBRANCH   3   4
ENDBRANCH   2   3
ENDBRANCH   1   2
BRANCH   1   8
ATOM      8  C   UNL     1      39.025  43.737  62.464  1.00  0.00     0.000 C 
BRANCH   8   9
ATOM      9  C   UNL     1      39.144  43.969  60.950  1.00  0.00     0.006 C 
BRANCH   9  10
ATOM     10  C   UNL     1      40.578  43.768  60.443  1.00  0.00     0.053 C 
BRANCH  10  11
ATOM     11  C   UNL     1      40.610  43.405  58.989  1.00  0.00     0.041 C 
ATOM     12  O   UNL     1      41.707  43.351  58.374  1.00  0.00    -0.550 OA
ATOM     13  O   UNL     1      39.431  43.094  58.324  1.00  0.00    -0.550 OA
ENDBRANCH  10  11
ENDBRANCH   9  10
ENDBRANCH   8   9
ENDBRANCH   1   8
TORSDOF 8
ENDMDL
MODEL 8
REMARK VINA RESULT:    -3.627     19.252     20.269
REMARK INTER + INTRA:          -5.839
REMARK INTER:                  -5.196
REMARK INTRA:                  -0.643
REMARK UNBOUND:                -0.517
REMARK SMILES O=C([O-])CCCCCCCC(=O)[O-]
REMARK SMILES IDX 7 1 6 2 5 3 4 4 2 5 1 6 3 7 8 8 9 9 10 10 11 11 12 12 13 13
REMARK H PARENT
REMARK Flexibility Score: inf
ROOT
ATOM      1  C   UNL     1      41.231  43.307  61.541  1.00  0.00     0.000 C 
ENDROOT
BRANCH   1   2
ATOM      2  C   UNL     1      39.862  43.961  61.759  1.00  0.00     0.000 C 
BRANCH   2   3
ATOM      3  C   UNL     1      39.033  43.174  62.781  1.00  0.00     0.006 C 
BRANCH   3   4
ATOM      4  C   UNL     1      39.421  41.693  62.779  1.00  0.00     0.053 C 
BRANCH   4   5
ATOM      5  C   UNL     1      38.329  40.866  62.177  1.00  0.00     0.041 C 
ATOM      6  O   UNL     1      38.390  39.609  62.219  1.00  0.00    -0.550 OA
ATOM      7  O   UNL     1      37.220  41.483  61.613  1.00  0.00    -0.550 OA
ENDBRANCH   4   5
ENDBRANCH   3   4
ENDBRANCH   2   3
ENDBRANCH   1   2
BRANCH   1   8
ATOM      8  C   UNL     1      41.546  43.176  60.046  1.00  0.00     0.000 C 
BRANCH   8   9
ATOM      9  C   UNL     1      40.481  42.330  59.331  1.00  0.00     0.006 C 
BRANCH   9  10
ATOM     10  C   UNL     1      41.090  41.409  58.266  1.00  0.00     0.053 C 
BRANCH  10  11
ATOM     11  C   UNL     1      41.275  40.012  58.778  1.00  0.00     0.041 C 
ATOM     12  O   UNL     1      41.704  39.109  58.012  1.00  0.00    -0.550 OA
ATOM     13  O   UNL     1      41.006  39.717  60.108  1.00  0.00    -0.550 OA
ENDBRANCH  10  11
ENDBRANCH   9  10
ENDBRANCH   8   9
ENDBRANCH   1   8
TORSDOF 8
ENDMDL
MODEL 9
REMARK VINA RESULT:    -3.422      1.121      6.624
REMARK INTER + INTRA:          -5.540
REMARK INTER:                  -5.221
REMARK INTRA:                  -0.319
REMARK UNBOUND:                -0.517
REMARK SMILES O=C([O-])CCCCCCCC(=O)[O-]
REMARK SMILES IDX 7 1 6 2 5 3 4 4 2 5 1 6 3 7 8 8 9 9 10 10 11 11 12 12 13 13
REMARK H PARENT
REMARK Flexibility Score: inf
ROOT
ATOM      1  C   UNL     1      35.351  24.750  70.621  1.00  0.00     0.000 C 
ENDROOT
BRANCH   1   2
ATOM      2  C   UNL     1      36.336  24.421  69.492  1.00  0.00     0.000 C 
BRANCH   2   3
ATOM      3  C   UNL     1      37.654  23.875  70.054  1.00  0.00     0.006 C 
BRANCH   3   4
ATOM      4  C   UNL     1      37.712  24.040  71.576  1.00  0.00     0.053 C 
BRANCH   4   5
ATOM      5  C   UNL     1      39.122  24.260  72.026  1.00  0.00     0.041 C 
ATOM      6  O   UNL     1      40.083  23.879  71.307  1.00  0.00    -0.550 OA
ATOM      7  O   UNL     1      39.376  24.929  73.217  1.00  0.00    -0.550 OA
ENDBRANCH   4   5
ENDBRANCH   3   4
ENDBRANCH   2   3
ENDBRANCH   1   2
BRANCH   1   8
ATOM      8  C   UNL     1      34.988  26.240  70.617  1.00  0.00     0.000 C 
BRANCH   8   9
ATOM      9  C   UNL     1      33.514  26.447  70.998  1.00  0.00     0.006 C 
BRANCH   9  10
ATOM     10  C   UNL     1      32.595  25.403  70.351  1.00  0.00     0.053 C 
BRANCH  10  11
ATOM     11  C   UNL     1      31.339  25.199  71.144  1.00  0.00     0.041 C 
ATOM     12  O   UNL     1      30.919  26.108  71.908  1.00  0.00    -0.550 OA
ATOM     13  O   UNL     1      30.617  24.021  71.013  1.00  0.00    -0.550 OA
ENDBRANCH  10  11
ENDBRANCH   9  10
ENDBRANCH   8   9
ENDBRANCH   1   8
TORSDOF 8
ENDMDL
