MODEL 1
REMARK VINA RESULT:    -3.319      0.000      0.000
REMARK INTER + INTRA:          -3.416
REMARK INTER:                  -3.416
REMARK INTRA:                   0.000
REMARK UNBOUND:                 0.000
REMARK SMILES Oc1ccc2[nH]ccc2c1
REMARK SMILES IDX 3 1 4 2 5 3 9 4 8 5 7 6 6 7 10 8 2 9 1 11
REMARK H PARENT 6 10 1 12
REMARK Flexibility Score: inf
ROOT
ATOM      1  C   UNL     1     140.481 145.341 143.793  1.00  0.00     0.048 A 
ATOM      2  C   UNL     1     141.753 144.836 144.124  1.00  0.00     0.030 A 
ATOM      3  C   UNL     1     142.487 144.212 143.119  1.00  0.00     0.046 A 
ATOM      4  C   UNL     1     142.002 144.086 141.844  1.00  0.00     0.003 A 
ATOM      5  C   UNL     1     142.959 143.430 141.101  1.00  0.00     0.028 A 
ATOM      6  C   UNL     1     144.003 143.187 141.988  1.00  0.00     0.083 A 
ATOM      7  N   UNL     1     143.710 143.665 143.220  1.00  0.00    -0.361 N 
ATOM      8  C   UNL     1     140.749 144.575 141.482  1.00  0.00     0.056 A 
ATOM      9  C   UNL     1     139.978 145.212 142.474  1.00  0.00     0.116 A 
ATOM     10  H   UNL     1     144.313 143.617 144.070  1.00  0.00     0.166 HD
ENDROOT
BRANCH   9  11
ATOM     11  O   UNL     1     138.721 145.712 142.146  1.00  0.00    -0.508 OA
ATOM     12  H   UNL     1     138.609 146.473 141.485  1.00  0.00     0.293 HD
ENDBRANCH   9  11
TORSDOF 1
ENDMDL
MODEL 2
REMARK VINA RESULT:    -3.282      7.646      8.196
REMARK INTER + INTRA:          -3.378
REMARK INTER:                  -3.378
REMARK INTRA:                   0.000
REMARK UNBOUND:                 0.000
REMARK SMILES Oc1ccc2[nH]ccc2c1
REMARK SMILES IDX 3 1 4 2 5 3 9 4 8 5 7 6 6 7 10 8 2 9 1 11
REMARK H PARENT 6 10 1 12
REMARK Flexibility Score: inf
ROOT
ATOM      1  C   UNL     1     141.146 136.391 143.771  1.00  0.00     0.048 A 
ATOM      2  C   UNL     1     139.871 136.873 144.124  1.00  0.00     0.030 A 
ATOM      3  C   UNL     1     139.108 137.482 143.130  1.00  0.00     0.046 A 
ATOM      4  C   UNL     1     139.569 137.615 141.848  1.00  0.00     0.003 A 
ATOM      5  C   UNL     1     138.587 138.252 141.120  1.00  0.00     0.028 A 
ATOM      6  C   UNL     1     137.555 138.477 142.025  1.00  0.00     0.083 A 
ATOM      7  N   UNL     1     137.878 138.005 143.251  1.00  0.00    -0.361 N 
ATOM      8  C   UNL     1     140.825 137.150 141.465  1.00  0.00     0.056 A 
ATOM      9  C   UNL     1     141.624 136.528 142.444  1.00  0.00     0.116 A 
ATOM     10  H   UNL     1     137.288 138.043 144.112  1.00  0.00     0.166 HD
ENDROOT
BRANCH   9  11
ATOM     11  O   UNL     1     142.885 136.051 142.095  1.00  0.00    -0.508 OA
ATOM     12  H   UNL     1     143.635 136.680 141.831  1.00  0.00     0.293 HD
ENDBRANCH   9  11
TORSDOF 1
ENDMDL
MODEL 3
REMARK VINA RESULT:    -3.259      5.103      6.099
REMARK INTER + INTRA:          -3.354
REMARK INTER:                  -3.354
REMARK INTRA:                   0.000
REMARK UNBOUND:                 0.000
REMARK SMILES Oc1ccc2[nH]ccc2c1
REMARK SMILES IDX 3 1 4 2 5 3 9 4 8 5 7 6 6 7 10 8 2 9 1 11
REMARK H PARENT 6 10 1 12
REMARK Flexibility Score: inf
ROOT
ATOM      1  C   UNL     1     143.546 138.401 141.966  1.00  0.00     0.048 A 
ATOM      2  C   UNL     1     143.873 139.530 141.190  1.00  0.00     0.030 A 
ATOM      3  C   UNL     1     144.458 140.616 141.837  1.00  0.00     0.046 A 
ATOM      4  C   UNL     1     144.713 140.602 143.182  1.00  0.00     0.003 A 
ATOM      5  C   UNL     1     145.288 141.811 143.507  1.00  0.00     0.028 A 
ATOM      6  C   UNL     1     145.353 142.514 142.308  1.00  0.00     0.083 A 
ATOM      7  N   UNL     1     144.845 141.780 141.291  1.00  0.00    -0.361 N 
ATOM      8  C   UNL     1     144.402 139.502 143.979  1.00  0.00     0.056 A 
ATOM      9  C   UNL     1     143.810 138.385 143.358  1.00  0.00     0.116 A 
ATOM     10  H   UNL     1     144.770 142.065 140.289  1.00  0.00     0.166 HD
ENDROOT
BRANCH   9  11
ATOM     11  O   UNL     1     143.486 137.268 144.125  1.00  0.00    -0.508 OA
ATOM     12  H   UNL     1     143.912 136.365 143.951  1.00  0.00     0.293 HD
ENDBRANCH   9  11
TORSDOF 1
ENDMDL
MODEL 4
REMARK VINA RESULT:    -3.243      5.114      5.840
REMARK INTER + INTRA:          -3.338
REMARK INTER:                  -3.338
REMARK INTRA:                   0.000
REMARK UNBOUND:                 0.000
REMARK SMILES Oc1ccc2[nH]ccc2c1
REMARK SMILES IDX 3 1 4 2 5 3 9 4 8 5 7 6 6 7 10 8 2 9 1 11
REMARK H PARENT 6 10 1 12
REMARK Flexibility Score: inf
ROOT
ATOM      1  C   UNL     1     145.464 141.337 143.512  1.00  0.00     0.048 A 
ATOM      2  C   UNL     1     145.073 140.131 144.124  1.00  0.00     0.030 A 
ATOM      3  C   UNL     1     144.334 139.226 143.366  1.00  0.00     0.046 A 
ATOM      4  C   UNL     1     143.992 139.486 142.066  1.00  0.00     0.003 A 
ATOM      5  C   UNL     1     143.272 138.406 141.604  1.00  0.00     0.028 A 
ATOM      6  C   UNL     1     143.215 137.524 142.679  1.00  0.00     0.083 A 
ATOM      7  N   UNL     1     143.864 138.029 143.752  1.00  0.00    -0.361 N 
ATOM      8  C   UNL     1     144.364 140.668 141.429  1.00  0.00     0.056 A 
ATOM      9  C   UNL     1     145.112 141.607 142.166  1.00  0.00     0.116 A 
ATOM     10  H   UNL     1     143.975 137.578 144.688  1.00  0.00     0.166 HD
ENDROOT
BRANCH   9  11
ATOM     11  O   UNL     1     145.500 142.799 141.560  1.00  0.00    -0.508 OA
ATOM     12  H   UNL     1     144.851 143.347 141.006  1.00  0.00     0.293 HD
ENDBRANCH   9  11
TORSDOF 1
ENDMDL
MODEL 5
REMARK VINA RESULT:    -3.208      2.624      4.075
REMARK INTER + INTRA:          -3.301
REMARK INTER:                  -3.301
REMARK INTRA:                   0.000
REMARK UNBOUND:                 0.000
REMARK SMILES Oc1ccc2[nH]ccc2c1
REMARK SMILES IDX 3 1 4 2 5 3 9 4 8 5 7 6 6 7 10 8 2 9 1 11
REMARK H PARENT 6 10 1 12
REMARK Flexibility Score: inf
ROOT
ATOM      1  C   UNL     1     143.340 143.293 141.983  1.00  0.00     0.048 A 
ATOM      2  C   UNL     1     142.145 143.714 141.371  1.00  0.00     0.030 A 
ATOM      3  C   UNL     1     141.211 144.383 142.159  1.00  0.00     0.046 A 
ATOM      4  C   UNL     1     141.434 144.630 143.487  1.00  0.00     0.003 A 
ATOM      5  C   UNL     1     140.332 145.300 143.974  1.00  0.00     0.028 A 
ATOM      6  C   UNL     1     139.476 145.427 142.884  1.00  0.00     0.083 A 
ATOM      7  N   UNL     1     140.017 144.865 141.778  1.00  0.00    -0.361 N 
ATOM      8  C   UNL     1     142.605 144.227 144.124  1.00  0.00     0.056 A 
ATOM      9  C   UNL     1     143.573 143.548 143.358  1.00  0.00     0.116 A 
ATOM     10  H   UNL     1     139.589 144.819 140.827  1.00  0.00     0.166 HD
ENDROOT
BRANCH   9  11
ATOM     11  O   UNL     1     144.756 143.132 143.963  1.00  0.00    -0.508 OA
ATOM     12  H   UNL     1     145.029 142.155 143.974  1.00  0.00     0.293 HD
ENDBRANCH   9  11
TORSDOF 1
ENDMDL
MODEL 6
REMARK VINA RESULT:    -3.180      5.189      5.910
REMARK INTER + INTRA:          -3.273
REMARK INTER:                  -3.273
REMARK INTRA:                   0.000
REMARK UNBOUND:                 0.000
REMARK SMILES Oc1ccc2[nH]ccc2c1
REMARK SMILES IDX 3 1 4 2 5 3 9 4 8 5 7 6 6 7 10 8 2 9 1 11
REMARK H PARENT 6 10 1 12
REMARK Flexibility Score: inf
ROOT
ATOM      1  C   UNL     1     136.165 140.165 143.458  1.00  0.00     0.048 A 
ATOM      2  C   UNL     1     136.480 141.364 144.125  1.00  0.00     0.030 A 
ATOM      3  C   UNL     1     137.250 142.304 143.444  1.00  0.00     0.046 A 
ATOM      4  C   UNL     1     137.692 142.084 142.167  1.00  0.00     0.003 A 
ATOM      5  C   UNL     1     138.417 143.192 141.784  1.00  0.00     0.028 A 
ATOM      6  C   UNL     1     138.374 144.048 142.880  1.00  0.00     0.083 A 
ATOM      7  N   UNL     1     137.660 143.502 143.891  1.00  0.00    -0.361 N 
ATOM      8  C   UNL     1     137.399 140.909 141.478  1.00  0.00     0.056 A 
ATOM      9  C   UNL     1     136.622 139.936 142.136  1.00  0.00     0.116 A 
ATOM     10  H   UNL     1     137.471 143.928 144.825  1.00  0.00     0.166 HD
ENDROOT
BRANCH   9  11
ATOM     11  O   UNL     1     136.309 138.750 141.476  1.00  0.00    -0.508 OA
ATOM     12  H   UNL     1     136.878 138.404 140.712  1.00  0.00     0.293 HD
ENDBRANCH   9  11
TORSDOF 1
ENDMDL
MODEL 7
REMARK VINA RESULT:    -3.171      7.296      7.614
REMARK INTER + INTRA:          -3.263
REMARK INTER:                  -3.263
REMARK INTRA:                   0.000
REMARK UNBOUND:                 0.000
REMARK SMILES Oc1ccc2[nH]ccc2c1
REMARK SMILES IDX 3 1 4 2 5 3 9 4 8 5 7 6 6 7 10 8 2 9 1 11
REMARK H PARENT 6 10 1 12
REMARK Flexibility Score: inf
ROOT
ATOM      1  C   UNL     1     138.268 138.312 142.033  1.00  0.00     0.048 A 
ATOM      2  C   UNL     1     139.457 137.920 141.390  1.00  0.00     0.030 A 
ATOM      3  C   UNL     1     140.402 137.223 142.139  1.00  0.00     0.046 A 
ATOM      4  C   UNL     1     140.195 136.921 143.458  1.00  0.00     0.003 A 
ATOM      5  C   UNL     1     141.304 136.235 143.903  1.00  0.00     0.028 A 
ATOM      6  C   UNL     1     142.148 136.155 142.799  1.00  0.00     0.083 A 
ATOM      7  N   UNL     1     141.592 136.760 141.724  1.00  0.00    -0.361 N 
ATOM      8  C   UNL     1     139.030 137.293 144.125  1.00  0.00     0.056 A 
ATOM      9  C   UNL     1     138.052 138.000 143.399  1.00  0.00     0.116 A 
ATOM     10  H   UNL     1     142.008 136.847 140.770  1.00  0.00     0.166 HD
ENDROOT
BRANCH   9  11
ATOM     11  O   UNL     1     136.876 138.388 144.034  1.00  0.00    -0.508 OA
ATOM     12  H   UNL     1     136.846 138.562 145.033  1.00  0.00     0.293 HD
ENDBRANCH   9  11
TORSDOF 1
ENDMDL
MODEL 8
REMARK VINA RESULT:    -3.165      4.963      5.900
REMARK INTER + INTRA:          -3.257
REMARK INTER:                  -3.257
REMARK INTRA:                   0.000
REMARK UNBOUND:                 0.000
REMARK SMILES Oc1ccc2[nH]ccc2c1
REMARK SMILES IDX 3 1 4 2 5 3 9 4 8 5 7 6 6 7 10 8 2 9 1 11
REMARK H PARENT 6 10 1 12
REMARK Flexibility Score: inf
ROOT
ATOM      1  C   UNL     1     138.383 143.316 142.044  1.00  0.00     0.048 A 
ATOM      2  C   UNL     1     138.014 142.104 141.430  1.00  0.00     0.030 A 
ATOM      3  C   UNL     1     137.291 141.185 142.188  1.00  0.00     0.046 A 
ATOM      4  C   UNL     1     136.943 141.439 143.488  1.00  0.00     0.003 A 
ATOM      5  C   UNL     1     136.242 140.345 143.948  1.00  0.00     0.028 A 
ATOM      6  C   UNL     1     136.200 139.463 142.873  1.00  0.00     0.083 A 
ATOM      7  N   UNL     1     136.843 139.980 141.801  1.00  0.00    -0.361 N 
ATOM      8  C   UNL     1     137.292 142.627 144.125  1.00  0.00     0.056 A 
ATOM      9  C   UNL     1     138.024 143.580 143.389  1.00  0.00     0.116 A 
ATOM     10  H   UNL     1     136.963 139.530 140.866  1.00  0.00     0.166 HD
ENDROOT
BRANCH   9  11
ATOM     11  O   UNL     1     138.389 144.779 143.995  1.00  0.00    -0.508 OA
ATOM     12  H   UNL     1     139.093 144.811 144.724  1.00  0.00     0.293 HD
ENDBRANCH   9  11
TORSDOF 1
ENDMDL
MODEL 9
REMARK VINA RESULT:    -3.098      7.357      7.538
REMARK INTER + INTRA:          -3.188
REMARK INTER:                  -3.188
REMARK INTRA:                   0.000
REMARK UNBOUND:                 0.000
REMARK SMILES Oc1ccc2[nH]ccc2c1
REMARK SMILES IDX 3 1 4 2 5 3 9 4 8 5 7 6 6 7 10 8 2 9 1 11
REMARK H PARENT 6 10 1 12
REMARK Flexibility Score: inf
ROOT
ATOM      1  C   UNL     1     135.619 139.924 140.898  1.00  0.00     0.048 A 
ATOM      2  C   UNL     1     135.743 139.559 142.252  1.00  0.00     0.030 A 
ATOM      3  C   UNL     1     136.871 138.834 142.628  1.00  0.00     0.046 A 
ATOM      4  C   UNL     1     137.837 138.481 141.723  1.00  0.00     0.003 A 
ATOM      5  C   UNL     1     138.807 137.779 142.406  1.00  0.00     0.028 A 
ATOM      6  C   UNL     1     138.366 137.743 143.725  1.00  0.00     0.083 A 
ATOM      7  N   UNL     1     137.184 138.388 143.856  1.00  0.00    -0.361 N 
ATOM      8  C   UNL     1     137.745 138.827 140.377  1.00  0.00     0.056 A 
ATOM      9  C   UNL     1     136.617 139.561 139.960  1.00  0.00     0.116 A 
ATOM     10  H   UNL     1     136.631 138.510 144.733  1.00  0.00     0.166 HD
ENDROOT
BRANCH   9  11
ATOM     11  O   UNL     1     136.494 139.924 138.622  1.00  0.00    -0.508 OA
ATOM     12  H   UNL     1     135.836 139.460 138.006  1.00  0.00     0.293 HD
ENDBRANCH   9  11
TORSDOF 1
ENDMDL
