MODEL 1
REMARK VINA RESULT:    -5.375      0.000      0.000
REMARK INTER + INTRA:          -6.623
REMARK INTER:                  -6.317
REMARK INTRA:                  -0.306
REMARK UNBOUND:                -0.306
REMARK SMILES COc1ccc(C=CC(=O)[O-])cc1
REMARK SMILES IDX 6 1 5 2 12 3 4 4 13 5 3 6 7 7 8 8 9 9 10 10 11 11 2 12 1 13
REMARK H PARENT
REMARK Flexibility Score: inf
ROOT
ATOM      1  C   UNL     1       3.573  38.164   4.512  1.00  0.00    -0.025 A 
ATOM      2  C   UNL     1       4.242  37.510   3.464  1.00  0.00     0.012 A 
ATOM      3  C   UNL     1       2.769  37.417   5.382  1.00  0.00     0.012 A 
ATOM      4  C   UNL     1       4.148  36.122   3.326  1.00  0.00     0.047 A 
ATOM      5  C   UNL     1       2.675  36.029   5.244  1.00  0.00     0.047 A 
ATOM      6  C   UNL     1       3.371  35.370   4.212  1.00  0.00     0.118 A 
ENDROOT
BRANCH   1   7
ATOM      7  C   UNL     1       3.613  39.635   4.647  1.00  0.00     0.010 C 
ATOM      8  C   UNL     1       4.604  40.335   5.219  1.00  0.00     0.025 C 
BRANCH   8   9
ATOM      9  C   UNL     1       5.729  39.760   5.981  1.00  0.00     0.064 C 
ATOM     10  O   UNL     1       6.895  39.843   5.513  1.00  0.00    -0.545 OA
ATOM     11  O   UNL     1       5.542  39.193   7.236  1.00  0.00    -0.545 OA
ENDBRANCH   8   9
ENDBRANCH   1   7
BRANCH   6  12
ATOM     12  O   UNL     1       3.311  33.980   4.032  1.00  0.00    -0.497 OA
ATOM     13  C   UNL     1       2.141  33.192   4.235  1.00  0.00     0.278 C 
ENDBRANCH   6  12
TORSDOF 3
ENDMDL
MODEL 2
REMARK VINA RESULT:    -5.248      1.801      2.533
REMARK INTER + INTRA:          -6.474
REMARK INTER:                  -6.152
REMARK INTRA:                  -0.322
REMARK UNBOUND:                -0.306
REMARK SMILES COc1ccc(C=CC(=O)[O-])cc1
REMARK SMILES IDX 6 1 5 2 12 3 4 4 13 5 3 6 7 7 8 8 9 9 10 10 11 11 2 12 1 13
REMARK H PARENT
REMARK Flexibility Score: inf
ROOT
ATOM      1  C   UNL     1       3.072  36.931   5.174  1.00  0.00    -0.025 A 
ATOM      2  C   UNL     1       3.724  37.532   4.084  1.00  0.00     0.012 A 
ATOM      3  C   UNL     1       2.982  35.534   5.232  1.00  0.00     0.012 A 
ATOM      4  C   UNL     1       4.323  36.742   3.099  1.00  0.00     0.047 A 
ATOM      5  C   UNL     1       3.581  34.744   4.246  1.00  0.00     0.047 A 
ATOM      6  C   UNL     1       4.261  35.347   3.170  1.00  0.00     0.118 A 
ENDROOT
BRANCH   1   7
ATOM      7  C   UNL     1       2.386  37.745   6.199  1.00  0.00     0.010 C 
ATOM      8  C   UNL     1       2.979  38.326   7.253  1.00  0.00     0.025 C 
BRANCH   8   9
ATOM      9  C   UNL     1       4.373  38.103   7.682  1.00  0.00     0.064 C 
ATOM     10  O   UNL     1       4.654  37.072   8.347  1.00  0.00    -0.545 OA
ATOM     11  O   UNL     1       5.395  38.967   7.308  1.00  0.00    -0.545 OA
ENDBRANCH   8   9
ENDBRANCH   1   7
BRANCH   6  12
ATOM     12  O   UNL     1       4.880  34.598   2.157  1.00  0.00    -0.497 OA
ATOM     13  C   UNL     1       4.370  34.461   0.834  1.00  0.00     0.278 C 
ENDBRANCH   6  12
TORSDOF 3
ENDMDL
MODEL 3
REMARK VINA RESULT:    -5.209      7.968      9.933
REMARK INTER + INTRA:          -6.428
REMARK INTER:                  -6.131
REMARK INTRA:                  -0.297
REMARK UNBOUND:                -0.306
REMARK SMILES COc1ccc(C=CC(=O)[O-])cc1
REMARK SMILES IDX 6 1 5 2 12 3 4 4 13 5 3 6 7 7 8 8 9 9 10 10 11 11 2 12 1 13
REMARK H PARENT
REMARK Flexibility Score: inf
ROOT
ATOM      1  C   UNL     1       7.612  29.597   1.183  1.00  0.00    -0.025 A 
ATOM      2  C   UNL     1       6.546  29.371   0.296  1.00  0.00     0.012 A 
ATOM      3  C   UNL     1       8.894  29.146   0.843  1.00  0.00     0.012 A 
ATOM      4  C   UNL     1       6.776  28.752  -0.936  1.00  0.00     0.047 A 
ATOM      5  C   UNL     1       9.123  28.526  -0.389  1.00  0.00     0.047 A 
ATOM      6  C   UNL     1       8.060  28.328  -1.292  1.00  0.00     0.118 A 
ENDROOT
BRANCH   1   7
ATOM      7  C   UNL     1       7.386  30.200   2.513  1.00  0.00     0.010 C 
ATOM      8  C   UNL     1       7.250  31.513   2.757  1.00  0.00     0.025 C 
BRANCH   8   9
ATOM      9  C   UNL     1       7.492  32.593   1.782  1.00  0.00     0.064 C 
ATOM     10  O   UNL     1       6.568  32.932   0.997  1.00  0.00    -0.545 OA
ATOM     11  O   UNL     1       8.691  33.296   1.759  1.00  0.00    -0.545 OA
ENDBRANCH   8   9
ENDBRANCH   1   7
BRANCH   6  12
ATOM     12  O   UNL     1       8.238  27.714  -2.541  1.00  0.00    -0.497 OA
ATOM     13  C   UNL     1       9.409  27.000  -2.926  1.00  0.00     0.278 C 
ENDBRANCH   6  12
TORSDOF 3
ENDMDL
MODEL 4
REMARK VINA RESULT:    -5.131      2.741      4.926
REMARK INTER + INTRA:          -6.337
REMARK INTER:                  -6.043
REMARK INTRA:                  -0.294
REMARK UNBOUND:                -0.306
REMARK SMILES COc1ccc(C=CC(=O)[O-])cc1
REMARK SMILES IDX 6 1 5 2 12 3 4 4 13 5 3 6 7 7 8 8 9 9 10 10 11 11 2 12 1 13
REMARK H PARENT
REMARK Flexibility Score: inf
ROOT
ATOM      1  C   UNL     1       4.249  35.395   2.807  1.00  0.00    -0.025 A 
ATOM      2  C   UNL     1       3.670  34.492   3.714  1.00  0.00     0.012 A 
ATOM      3  C   UNL     1       4.231  36.765   3.099  1.00  0.00     0.012 A 
ATOM      4  C   UNL     1       3.131  34.953   4.919  1.00  0.00     0.047 A 
ATOM      5  C   UNL     1       3.692  37.226   4.304  1.00  0.00     0.047 A 
ATOM      6  C   UNL     1       3.139  36.317   5.227  1.00  0.00     0.118 A 
ENDROOT
BRANCH   1   7
ATOM      7  C   UNL     1       4.776  34.939   1.504  1.00  0.00     0.010 C 
ATOM      8  C   UNL     1       5.937  34.291   1.320  1.00  0.00     0.025 C 
BRANCH   8   9
ATOM      9  C   UNL     1       6.976  34.090   2.347  1.00  0.00     0.064 C 
ATOM     10  O   UNL     1       7.020  32.998   2.972  1.00  0.00    -0.545 OA
ATOM     11  O   UNL     1       7.953  35.049   2.591  1.00  0.00    -0.545 OA
ENDBRANCH   8   9
ENDBRANCH   1   7
BRANCH   6  12
ATOM     12  O   UNL     1       2.587  36.728   6.450  1.00  0.00    -0.497 OA
ATOM     13  C   UNL     1       2.690  38.048   6.975  1.00  0.00     0.278 C 
ENDBRANCH   6  12
TORSDOF 3
ENDMDL
MODEL 5
REMARK VINA RESULT:    -4.979     11.034     12.855
REMARK INTER + INTRA:          -6.158
REMARK INTER:                  -5.836
REMARK INTRA:                  -0.322
REMARK UNBOUND:                -0.306
REMARK SMILES COc1ccc(C=CC(=O)[O-])cc1
REMARK SMILES IDX 6 1 5 2 12 3 4 4 13 5 3 6 7 7 8 8 9 9 10 10 11 11 2 12 1 13
REMARK H PARENT
REMARK Flexibility Score: inf
ROOT
ATOM      1  C   UNL     1      10.402  27.504  -0.601  1.00  0.00    -0.025 A 
ATOM      2  C   UNL     1       9.903  28.382   0.375  1.00  0.00     0.012 A 
ATOM      3  C   UNL     1       9.558  27.076  -1.634  1.00  0.00     0.012 A 
ATOM      4  C   UNL     1       8.594  28.865   0.284  1.00  0.00     0.047 A 
ATOM      5  C   UNL     1       8.249  27.559  -1.725  1.00  0.00     0.047 A 
ATOM      6  C   UNL     1       7.759  28.464  -0.764  1.00  0.00     0.118 A 
ENDROOT
BRANCH   1   7
ATOM      7  C   UNL     1      11.764  26.938  -0.497  1.00  0.00     0.010 C 
ATOM      8  C   UNL     1      12.893  27.560  -0.868  1.00  0.00     0.025 C 
BRANCH   8   9
ATOM      9  C   UNL     1      12.965  28.829  -1.615  1.00  0.00     0.064 C 
ATOM     10  O   UNL     1      13.013  28.801  -2.873  1.00  0.00    -0.545 OA
ATOM     11  O   UNL     1      12.909  30.058  -0.967  1.00  0.00    -0.545 OA
ENDBRANCH   8   9
ENDBRANCH   1   7
BRANCH   6  12
ATOM     12  O   UNL     1       6.454  28.979  -0.812  1.00  0.00    -0.497 OA
ATOM     13  C   UNL     1       5.306  28.226  -1.188  1.00  0.00     0.278 C 
ENDBRANCH   6  12
TORSDOF 3
ENDMDL
MODEL 6
REMARK VINA RESULT:    -4.856      2.327      6.432
REMARK INTER + INTRA:          -6.014
REMARK INTER:                  -5.686
REMARK INTRA:                  -0.328
REMARK UNBOUND:                -0.306
REMARK SMILES COc1ccc(C=CC(=O)[O-])cc1
REMARK SMILES IDX 6 1 5 2 12 3 4 4 13 5 3 6 7 7 8 8 9 9 10 10 11 11 2 12 1 13
REMARK H PARENT
REMARK Flexibility Score: inf
ROOT
ATOM      1  C   UNL     1       2.265  33.863   4.977  1.00  0.00    -0.025 A 
ATOM      2  C   UNL     1       3.239  33.840   3.966  1.00  0.00     0.012 A 
ATOM      3  C   UNL     1       1.904  35.088   5.553  1.00  0.00     0.012 A 
ATOM      4  C   UNL     1       3.802  35.033   3.503  1.00  0.00     0.047 A 
ATOM      5  C   UNL     1       2.467  36.281   5.091  1.00  0.00     0.047 A 
ATOM      6  C   UNL     1       3.422  36.260   4.055  1.00  0.00     0.118 A 
ENDROOT
BRANCH   1   7
ATOM      7  C   UNL     1       1.694  32.612   5.519  1.00  0.00     0.010 C 
ATOM      8  C   UNL     1       0.685  31.918   4.972  1.00  0.00     0.025 C 
BRANCH   8   9
ATOM      9  C   UNL     1      -0.157  32.373   3.849  1.00  0.00     0.064 C 
ATOM     10  O   UNL     1      -1.244  32.958   4.093  1.00  0.00    -0.545 OA
ATOM     11  O   UNL     1       0.257  32.235   2.529  1.00  0.00    -0.545 OA
ENDBRANCH   8   9
ENDBRANCH   1   7
BRANCH   6  12
ATOM     12  O   UNL     1       4.015  37.429   3.555  1.00  0.00    -0.497 OA
ATOM     13  C   UNL     1       3.832  38.727   4.114  1.00  0.00     0.278 C 
ENDBRANCH   6  12
TORSDOF 3
ENDMDL
MODEL 7
REMARK VINA RESULT:    -4.821      6.315      8.825
REMARK INTER + INTRA:          -5.972
REMARK INTER:                  -5.641
REMARK INTRA:                  -0.331
REMARK UNBOUND:                -0.306
REMARK SMILES COc1ccc(C=CC(=O)[O-])cc1
REMARK SMILES IDX 6 1 5 2 12 3 4 4 13 5 3 6 7 7 8 8 9 9 10 10 11 11 2 12 1 13
REMARK H PARENT
REMARK Flexibility Score: inf
ROOT
ATOM      1  C   UNL     1       7.764  32.366   2.447  1.00  0.00    -0.025 A 
ATOM      2  C   UNL     1       9.085  32.834   2.535  1.00  0.00     0.012 A 
ATOM      3  C   UNL     1       6.796  33.162   1.821  1.00  0.00     0.012 A 
ATOM      4  C   UNL     1       9.440  34.056   1.956  1.00  0.00     0.047 A 
ATOM      5  C   UNL     1       7.150  34.384   1.242  1.00  0.00     0.047 A 
ATOM      6  C   UNL     1       8.482  34.839   1.304  1.00  0.00     0.118 A 
ENDROOT
BRANCH   1   7
ATOM      7  C   UNL     1       7.354  31.103   3.096  1.00  0.00     0.010 C 
ATOM      8  C   UNL     1       7.428  29.884   2.541  1.00  0.00     0.025 C 
BRANCH   8   9
ATOM      9  C   UNL     1       7.750  29.606   1.128  1.00  0.00     0.064 C 
ATOM     10  O   UNL     1       8.882  29.142   0.834  1.00  0.00    -0.545 OA
ATOM     11  O   UNL     1       6.806  29.776   0.121  1.00  0.00    -0.545 OA
ENDBRANCH   8   9
ENDBRANCH   1   7
BRANCH   6  12
ATOM     12  O   UNL     1       8.889  36.057   0.738  1.00  0.00    -0.497 OA
ATOM     13  C   UNL     1      10.003  36.820   1.189  1.00  0.00     0.278 C 
ENDBRANCH   6  12
TORSDOF 3
ENDMDL
MODEL 8
REMARK VINA RESULT:    -4.722      2.258      6.043
REMARK INTER + INTRA:          -5.856
REMARK INTER:                  -5.553
REMARK INTRA:                  -0.303
REMARK UNBOUND:                -0.306
REMARK SMILES COc1ccc(C=CC(=O)[O-])cc1
REMARK SMILES IDX 6 1 5 2 12 3 4 4 13 5 3 6 7 7 8 8 9 9 10 10 11 11 2 12 1 13
REMARK H PARENT
REMARK Flexibility Score: inf
ROOT
ATOM      1  C   UNL     1       4.257  34.510   3.380  1.00  0.00    -0.025 A 
ATOM      2  C   UNL     1       4.736  35.644   2.703  1.00  0.00     0.012 A 
ATOM      3  C   UNL     1       3.428  34.679   4.497  1.00  0.00     0.012 A 
ATOM      4  C   UNL     1       4.344  36.923   3.107  1.00  0.00     0.047 A 
ATOM      5  C   UNL     1       3.037  35.958   4.902  1.00  0.00     0.047 A 
ATOM      6  C   UNL     1       3.492  37.094   4.203  1.00  0.00     0.118 A 
ENDROOT
BRANCH   1   7
ATOM      7  C   UNL     1       4.699  33.151   3.005  1.00  0.00     0.010 C 
ATOM      8  C   UNL     1       4.032  32.313   2.197  1.00  0.00     0.025 C 
BRANCH   8   9
ATOM      9  C   UNL     1       2.660  32.519   1.695  1.00  0.00     0.064 C 
ATOM     10  O   UNL     1       2.486  32.838   0.490  1.00  0.00    -0.545 OA
ATOM     11  O   UNL     1       1.550  32.299   2.503  1.00  0.00    -0.545 OA
ENDBRANCH   8   9
ENDBRANCH   1   7
BRANCH   6  12
ATOM     12  O   UNL     1       3.127  38.398   4.568  1.00  0.00    -0.497 OA
ATOM     13  C   UNL     1       3.670  39.578   3.983  1.00  0.00     0.278 C 
ENDBRANCH   6  12
TORSDOF 3
ENDMDL
MODEL 9
REMARK VINA RESULT:    -4.697      9.899     11.882
REMARK INTER + INTRA:          -5.826
REMARK INTER:                  -6.025
REMARK INTRA:                   0.199
REMARK UNBOUND:                -0.306
REMARK SMILES COc1ccc(C=CC(=O)[O-])cc1
REMARK SMILES IDX 6 1 5 2 12 3 4 4 13 5 3 6 7 7 8 8 9 9 10 10 11 11 2 12 1 13
REMARK H PARENT
REMARK Flexibility Score: inf
ROOT
ATOM      1  C   UNL     1       8.113  28.491  -0.257  1.00  0.00    -0.025 A 
ATOM      2  C   UNL     1       7.335  27.621  -1.040  1.00  0.00     0.012 A 
ATOM      3  C   UNL     1       7.477  29.473   0.513  1.00  0.00     0.012 A 
ATOM      4  C   UNL     1       5.940  27.702  -1.006  1.00  0.00     0.047 A 
ATOM      5  C   UNL     1       6.081  29.553   0.547  1.00  0.00     0.047 A 
ATOM      6  C   UNL     1       5.301  28.661  -0.214  1.00  0.00     0.118 A 
ENDROOT
BRANCH   1   7
ATOM      7  C   UNL     1       9.589  28.461  -0.316  1.00  0.00     0.010 C 
ATOM      8  C   UNL     1      10.319  28.359  -1.437  1.00  0.00     0.025 C 
BRANCH   8   9
ATOM      9  C   UNL     1       9.786  28.069  -2.782  1.00  0.00     0.064 C 
ATOM     10  O   UNL     1       9.387  29.020  -3.504  1.00  0.00    -0.545 OA
ATOM     11  O   UNL     1       9.782  26.779  -3.299  1.00  0.00    -0.545 OA
ENDBRANCH   8   9
ENDBRANCH   1   7
BRANCH   6  12
ATOM     12  O   UNL     1       3.898  28.699  -0.214  1.00  0.00    -0.497 OA
ATOM     13  C   UNL     1       3.065  27.627  -0.642  1.00  0.00     0.278 C 
ENDBRANCH   6  12
TORSDOF 3
ENDMDL
