MODEL 1
REMARK VINA RESULT:    -2.599      0.000      0.000
REMARK INTER + INTRA:          -4.983
REMARK INTER:                  -4.118
REMARK INTRA:                  -0.865
REMARK UNBOUND:                -0.865
REMARK SMILES CCCCCCCCCCCC(=O)[O-]
REMARK SMILES IDX 7 1 8 2 9 3 10 4 11 5 12 6 13 7 14 8 6 9 5 10 4 11 3 12 2 13
REMARK SMILES IDX 1 14
REMARK H PARENT
REMARK Flexibility Score: inf
ROOT
ATOM      1  C   UNL     1      40.125  37.732  17.145  1.00  0.00     0.000 C 
ENDROOT
BRANCH   1   2
ATOM      2  C   UNL     1      39.391  39.046  16.851  1.00  0.00     0.000 C 
BRANCH   2   3
ATOM      3  C   UNL     1      39.722  40.110  17.907  1.00  0.00     0.000 C 
BRANCH   3   4
ATOM      4  C   UNL     1      39.028  39.856  19.258  1.00  0.00     0.006 C 
BRANCH   4   5
ATOM      5  C   UNL     1      37.507  40.090  19.233  1.00  0.00     0.053 C 
BRANCH   5   6
ATOM      6  C   UNL     1      36.789  39.342  20.314  1.00  0.00     0.041 C 
ATOM      7  O   UNL     1      35.562  39.082  20.200  1.00  0.00    -0.550 OA
ATOM      8  O   UNL     1      37.467  38.959  21.464  1.00  0.00    -0.550 OA
ENDBRANCH   5   6
ENDBRANCH   4   5
ENDBRANCH   3   4
ENDBRANCH   2   3
ENDBRANCH   1   2
BRANCH   1   9
ATOM      9  C   UNL     1      39.901  36.713  16.017  1.00  0.00     0.000 C 
BRANCH   9  10
ATOM     10  C   UNL     1      39.478  35.333  16.542  1.00  0.00    -0.000 C 
BRANCH  10  11
ATOM     11  C   UNL     1      38.059  35.335  17.137  1.00  0.00    -0.000 C 
BRANCH  11  12
ATOM     12  C   UNL     1      38.032  34.876  18.602  1.00  0.00    -0.000 C 
BRANCH  12  13
ATOM     13  C   UNL     1      37.635  36.002  19.567  1.00  0.00    -0.003 C 
ATOM     14  C   UNL     1      37.131  35.440  20.893  1.00  0.00     0.004 C 
ENDBRANCH  12  13
ENDBRANCH  11  12
ENDBRANCH  10  11
ENDBRANCH   9  10
ENDBRANCH   1   9
TORSDOF 10
ENDMDL
MODEL 2
REMARK VINA RESULT:    -2.307      2.474      4.184
REMARK INTER + INTRA:          -4.521
REMARK INTER:                  -4.082
REMARK INTRA:                  -0.439
REMARK UNBOUND:                -0.865
REMARK SMILES CCCCCCCCCCCC(=O)[O-]
REMARK SMILES IDX 7 1 8 2 9 3 10 4 11 5 12 6 13 7 14 8 6 9 5 10 4 11 3 12 2 13
REMARK SMILES IDX 1 14
REMARK H PARENT
REMARK Flexibility Score: inf
ROOT
ATOM      1  C   UNL     1      37.246  38.077  20.881  1.00  0.00     0.000 C 
ENDROOT
BRANCH   1   2
ATOM      2  C   UNL     1      36.672  39.157  19.956  1.00  0.00     0.000 C 
BRANCH   2   3
ATOM      3  C   UNL     1      37.593  39.396  18.751  1.00  0.00     0.000 C 
BRANCH   3   4
ATOM      4  C   UNL     1      39.039  38.925  18.992  1.00  0.00     0.006 C 
BRANCH   4   5
ATOM      5  C   UNL     1      40.097  39.734  18.220  1.00  0.00     0.053 C 
BRANCH   5   6
ATOM      6  C   UNL     1      39.977  39.576  16.735  1.00  0.00     0.041 C 
ATOM      7  O   UNL     1      39.779  38.440  16.230  1.00  0.00    -0.550 OA
ATOM      8  O   UNL     1      40.115  40.681  15.905  1.00  0.00    -0.550 OA
ENDBRANCH   5   6
ENDBRANCH   4   5
ENDBRANCH   3   4
ENDBRANCH   2   3
ENDBRANCH   1   2
BRANCH   1   9
ATOM      9  C   UNL     1      36.748  36.682  20.475  1.00  0.00     0.000 C 
BRANCH   9  10
ATOM     10  C   UNL     1      37.539  35.552  21.150  1.00  0.00    -0.000 C 
BRANCH  10  11
ATOM     11  C   UNL     1      38.538  34.875  20.195  1.00  0.00    -0.000 C 
BRANCH  11  12
ATOM     12  C   UNL     1      38.918  35.771  19.007  1.00  0.00    -0.000 C 
BRANCH  12  13
ATOM     13  C   UNL     1      38.166  35.397  17.722  1.00  0.00    -0.003 C 
ATOM     14  C   UNL     1      39.135  35.145  16.570  1.00  0.00     0.004 C 
ENDBRANCH  12  13
ENDBRANCH  11  12
ENDBRANCH  10  11
ENDBRANCH   9  10
ENDBRANCH   1   9
TORSDOF 10
ENDMDL
MODEL 3
REMARK VINA RESULT:    -2.217     13.604     15.045
REMARK INTER + INTRA:          -4.378
REMARK INTER:                  -4.050
REMARK INTRA:                  -0.327
REMARK UNBOUND:                -0.865
REMARK SMILES CCCCCCCCCCCC(=O)[O-]
REMARK SMILES IDX 7 1 8 2 9 3 10 4 11 5 12 6 13 7 14 8 6 9 5 10 4 11 3 12 2 13
REMARK SMILES IDX 1 14
REMARK H PARENT
REMARK Flexibility Score: inf
ROOT
ATOM      1  C   UNL     1      23.767  35.702  17.975  1.00  0.00     0.000 C 
ENDROOT
BRANCH   1   2
ATOM      2  C   UNL     1      24.996  34.927  17.485  1.00  0.00     0.000 C 
BRANCH   2   3
ATOM      3  C   UNL     1      26.294  35.582  17.978  1.00  0.00     0.000 C 
BRANCH   3   4
ATOM      4  C   UNL     1      26.868  34.910  19.239  1.00  0.00     0.006 C 
BRANCH   4   5
ATOM      5  C   UNL     1      26.160  35.319  20.543  1.00  0.00     0.053 C 
BRANCH   5   6
ATOM      6  C   UNL     1      27.088  35.361  21.718  1.00  0.00     0.041 C 
ATOM      7  O   UNL     1      28.264  34.923  21.615  1.00  0.00    -0.550 OA
ATOM      8  O   UNL     1      26.645  35.855  22.938  1.00  0.00    -0.550 OA
ENDBRANCH   5   6
ENDBRANCH   4   5
ENDBRANCH   3   4
ENDBRANCH   2   3
ENDBRANCH   1   2
BRANCH   1   9
ATOM      9  C   UNL     1      22.778  35.949  16.825  1.00  0.00     0.000 C 
BRANCH   9  10
ATOM     10  C   UNL     1      21.569  35.003  16.871  1.00  0.00    -0.000 C 
BRANCH  10  11
ATOM     11  C   UNL     1      20.276  35.715  17.305  1.00  0.00    -0.000 C 
BRANCH  11  12
ATOM     12  C   UNL     1      20.535  36.860  18.296  1.00  0.00    -0.000 C 
BRANCH  12  13
ATOM     13  C   UNL     1      20.418  36.411  19.759  1.00  0.00    -0.003 C 
ATOM     14  C   UNL     1      20.032  34.937  19.854  1.00  0.00     0.004 C 
ENDBRANCH  12  13
ENDBRANCH  11  12
ENDBRANCH  10  11
ENDBRANCH   9  10
ENDBRANCH   1   9
TORSDOF 10
ENDMDL
MODEL 4
REMARK VINA RESULT:    -1.567      1.751      3.845
REMARK INTER + INTRA:          -3.348
REMARK INTER:                  -2.464
REMARK INTRA:                  -0.883
REMARK UNBOUND:                -0.865
REMARK SMILES CCCCCCCCCCCC(=O)[O-]
REMARK SMILES IDX 7 1 8 2 9 3 10 4 11 5 12 6 13 7 14 8 6 9 5 10 4 11 3 12 2 13
REMARK SMILES IDX 1 14
REMARK H PARENT
REMARK Flexibility Score: inf
ROOT
ATOM      1  C   UNL     1      38.655  40.065  19.493  1.00  0.00     0.000 C 
ENDROOT
BRANCH   1   2
ATOM      2  C   UNL     1      37.255  39.585  19.092  1.00  0.00     0.000 C 
BRANCH   2   3
ATOM      3  C   UNL     1      36.784  38.440  20.000  1.00  0.00     0.000 C 
BRANCH   3   4
ATOM      4  C   UNL     1      37.918  37.478  20.397  1.00  0.00     0.006 C 
BRANCH   4   5
ATOM      5  C   UNL     1      37.584  35.992  20.176  1.00  0.00     0.053 C 
BRANCH   5   6
ATOM      6  C   UNL     1      36.947  35.357  21.374  1.00  0.00     0.041 C 
ATOM      7  O   UNL     1      35.694  35.282  21.463  1.00  0.00    -0.550 OA
ATOM      8  O   UNL     1      37.738  34.875  22.410  1.00  0.00    -0.550 OA
ENDBRANCH   5   6
ENDBRANCH   4   5
ENDBRANCH   3   4
ENDBRANCH   2   3
ENDBRANCH   1   2
BRANCH   1   9
ATOM      9  C   UNL     1      39.695  39.675  18.432  1.00  0.00     0.000 C 
BRANCH   9  10
ATOM     10  C   UNL     1      39.056  39.083  17.167  1.00  0.00    -0.000 C 
BRANCH  10  11
ATOM     11  C   UNL     1      40.099  38.662  16.118  1.00  0.00    -0.000 C 
BRANCH  11  12
ATOM     12  C   UNL     1      40.114  37.145  15.875  1.00  0.00    -0.000 C 
BRANCH  12  13
ATOM     13  C   UNL     1      39.886  36.339  17.162  1.00  0.00    -0.003 C 
ATOM     14  C   UNL     1      38.791  35.293  16.969  1.00  0.00     0.004 C 
ENDBRANCH  12  13
ENDBRANCH  11  12
ENDBRANCH  10  11
ENDBRANCH   9  10
ENDBRANCH   1   9
TORSDOF 10
ENDMDL
MODEL 5
REMARK VINA RESULT:    -1.438      1.047      3.889
REMARK INTER + INTRA:          -3.144
REMARK INTER:                  -2.973
REMARK INTRA:                  -0.171
REMARK UNBOUND:                -0.865
REMARK SMILES CCCCCCCCCCCC(=O)[O-]
REMARK SMILES IDX 7 1 8 2 9 3 10 4 11 5 12 6 13 7 14 8 6 9 5 10 4 11 3 12 2 13
REMARK SMILES IDX 1 14
REMARK H PARENT
REMARK Flexibility Score: inf
ROOT
ATOM      1  C   UNL     1      38.674  36.413  18.263  1.00  0.00     0.000 C 
ENDROOT
BRANCH   1   2
ATOM      2  C   UNL     1      37.829  35.300  18.894  1.00  0.00     0.000 C 
BRANCH   2   3
ATOM      3  C   UNL     1      38.107  35.181  20.399  1.00  0.00     0.000 C 
BRANCH   3   4
ATOM      4  C   UNL     1      37.050  35.891  21.266  1.00  0.00     0.006 C 
BRANCH   4   5
ATOM      5  C   UNL     1      36.171  36.887  20.489  1.00  0.00     0.053 C 
BRANCH   5   6
ATOM      6  C   UNL     1      36.666  38.297  20.589  1.00  0.00     0.041 C 
ATOM      7  O   UNL     1      36.012  39.240  20.070  1.00  0.00    -0.550 OA
ATOM      8  O   UNL     1      37.869  38.569  21.228  1.00  0.00    -0.550 OA
ENDBRANCH   5   6
ENDBRANCH   4   5
ENDBRANCH   3   4
ENDBRANCH   2   3
ENDBRANCH   1   2
BRANCH   1   9
ATOM      9  C   UNL     1      38.781  36.228  16.742  1.00  0.00     0.000 C 
BRANCH   9  10
ATOM     10  C   UNL     1      39.595  37.342  16.066  1.00  0.00    -0.000 C 
BRANCH  10  11
ATOM     11  C   UNL     1      40.124  38.381  17.071  1.00  0.00    -0.000 C 
BRANCH  11  12
ATOM     12  C   UNL     1      39.073  39.439  17.435  1.00  0.00    -0.000 C 
BRANCH  12  13
ATOM     13  C   UNL     1      39.361  40.118  18.782  1.00  0.00    -0.003 C 
ATOM     14  C   UNL     1      40.054  41.463  18.584  1.00  0.00     0.004 C 
ENDBRANCH  12  13
ENDBRANCH  11  12
ENDBRANCH  10  11
ENDBRANCH   9  10
ENDBRANCH   1   9
TORSDOF 10
ENDMDL
MODEL 6
REMARK VINA RESULT:    -0.184     23.692     26.551
REMARK INTER + INTRA:          -1.157
REMARK INTER:                  -0.734
REMARK INTRA:                  -0.423
REMARK UNBOUND:                -0.865
REMARK SMILES CCCCCCCCCCCC(=O)[O-]
REMARK SMILES IDX 7 1 8 2 9 3 10 4 11 5 12 6 13 7 14 8 6 9 5 10 4 11 3 12 2 13
REMARK SMILES IDX 1 14
REMARK H PARENT
REMARK Flexibility Score: inf
ROOT
ATOM      1  C   UNL     1      20.989  54.396  31.010  1.00  0.00     0.000 C 
ENDROOT
BRANCH   1   2
ATOM      2  C   UNL     1      20.635  54.411  32.502  1.00  0.00     0.000 C 
BRANCH   2   3
ATOM      3  C   UNL     1      21.751  55.067  33.328  1.00  0.00     0.000 C 
BRANCH   3   4
ATOM      4  C   UNL     1      23.105  54.347  33.192  1.00  0.00     0.006 C 
BRANCH   4   5
ATOM      5  C   UNL     1      24.287  55.117  33.807  1.00  0.00     0.053 C 
BRANCH   5   6
ATOM      6  C   UNL     1      24.572  54.708  35.220  1.00  0.00     0.041 C 
ATOM      7  O   UNL     1      25.706  54.917  35.726  1.00  0.00    -0.550 OA
ATOM      8  O   UNL     1      23.594  54.067  35.970  1.00  0.00    -0.550 OA
ENDBRANCH   5   6
ENDBRANCH   4   5
ENDBRANCH   3   4
ENDBRANCH   2   3
ENDBRANCH   1   2
BRANCH   1   9
ATOM      9  C   UNL     1      19.875  55.043  30.173  1.00  0.00     0.000 C 
BRANCH   9  10
ATOM     10  C   UNL     1      19.974  54.687  28.682  1.00  0.00    -0.000 C 
BRANCH  10  11
ATOM     11  C   UNL     1      20.408  53.230  28.449  1.00  0.00    -0.000 C 
BRANCH  11  12
ATOM     12  C   UNL     1      21.739  53.125  27.690  1.00  0.00    -0.000 C 
BRANCH  12  13
ATOM     13  C   UNL     1      22.672  52.056  28.278  1.00  0.00    -0.003 C 
ATOM     14  C   UNL     1      23.345  51.245  27.175  1.00  0.00     0.004 C 
ENDBRANCH  12  13
ENDBRANCH  11  12
ENDBRANCH  10  11
ENDBRANCH   9  10
ENDBRANCH   1   9
TORSDOF 10
ENDMDL
