MODEL 1
REMARK VINA RESULT:    -5.855      0.000      0.000
REMARK INTER + INTRA:         -11.853
REMARK INTER:                 -10.988
REMARK INTRA:                  -0.864
REMARK UNBOUND:                -0.864
REMARK SMILES O=C([O-])CCCCCCCCCCCCCCC(=O)[O-]
REMARK SMILES IDX 10 1 9 2 8 3 7 4 6 5 5 6 4 7 2 8 1 9 3 10 11 11 12 12 13 13
REMARK SMILES IDX 14 14 15 15 16 16 17 17 18 18 19 19 20 20
REMARK H PARENT
REMARK Flexibility Score: inf
ROOT
ATOM      1  C   UNL     1      18.027  24.650  70.412  1.00  0.00     0.000 C 
ENDROOT
BRANCH   1   2
ATOM      2  C   UNL     1      17.476  24.242  71.790  1.00  0.00     0.000 C 
BRANCH   2   3
ATOM      3  C   UNL     1      17.459  22.724  72.060  1.00  0.00     0.000 C 
BRANCH   3   4
ATOM      4  C   UNL     1      18.182  21.863  71.006  1.00  0.00     0.000 C 
BRANCH   4   5
ATOM      5  C   UNL     1      17.468  20.549  70.634  1.00  0.00     0.000 C 
BRANCH   5   6
ATOM      6  C   UNL     1      15.965  20.499  70.969  1.00  0.00     0.006 C 
BRANCH   6   7
ATOM      7  C   UNL     1      15.528  19.218  71.703  1.00  0.00     0.053 C 
BRANCH   7   8
ATOM      8  C   UNL     1      16.076  17.974  71.070  1.00  0.00     0.041 C 
ATOM      9  O   UNL     1      16.033  17.827  69.821  1.00  0.00    -0.550 OA
ATOM     10  O   UNL     1      16.668  16.995  71.857  1.00  0.00    -0.550 OA
ENDBRANCH   7   8
ENDBRANCH   6   7
ENDBRANCH   5   6
ENDBRANCH   4   5
ENDBRANCH   3   4
ENDBRANCH   2   3
ENDBRANCH   1   2
BRANCH   1  11
ATOM     11  C   UNL     1      18.160  26.171  70.248  1.00  0.00     0.000 C 
BRANCH  11  12
ATOM     12  C   UNL     1      19.187  26.743  71.233  1.00  0.00     0.000 C 
BRANCH  12  13
ATOM     13  C   UNL     1      19.473  28.223  70.932  1.00  0.00     0.000 C 
BRANCH  13  14
ATOM     14  C   UNL     1      18.561  28.790  69.833  1.00  0.00     0.000 C 
BRANCH  14  15
ATOM     15  C   UNL     1      19.314  29.698  68.849  1.00  0.00     0.000 C 
BRANCH  15  16
ATOM     16  C   UNL     1      18.603  29.744  67.491  1.00  0.00     0.006 C 
BRANCH  16  17
ATOM     17  C   UNL     1      17.785  28.471  67.254  1.00  0.00     0.053 C 
BRANCH  17  18
ATOM     18  C   UNL     1      17.954  27.993  65.847  1.00  0.00     0.041 C 
ATOM     19  O   UNL     1      19.027  28.216  65.226  1.00  0.00    -0.550 OA
ATOM     20  O   UNL     1      16.946  27.258  65.236  1.00  0.00    -0.550 OA
ENDBRANCH  17  18
ENDBRANCH  16  17
ENDBRANCH  15  16
ENDBRANCH  14  15
ENDBRANCH  13  14
ENDBRANCH  12  13
ENDBRANCH  11  12
ENDBRANCH   1  11
TORSDOF 15
ENDMDL
MODEL 2
REMARK VINA RESULT:    -5.541     10.971     12.803
REMARK INTER + INTRA:         -11.264
REMARK INTER:                  -9.818
REMARK INTRA:                  -1.447
REMARK UNBOUND:                -0.864
REMARK SMILES O=C([O-])CCCCCCCCCCCCCCC(=O)[O-]
REMARK SMILES IDX 10 1 9 2 8 3 7 4 6 5 5 6 4 7 2 8 1 9 3 10 11 11 12 12 13 13
REMARK SMILES IDX 14 14 15 15 16 16 17 17 18 18 19 19 20 20
REMARK H PARENT
REMARK Flexibility Score: inf
ROOT
ATOM      1  C   UNL     1      15.101  16.925  62.660  1.00  0.00     0.000 C 
ENDROOT
BRANCH   1   2
ATOM      2  C   UNL     1      14.063  17.932  63.187  1.00  0.00     0.000 C 
BRANCH   2   3
ATOM      3  C   UNL     1      12.723  17.313  63.631  1.00  0.00     0.000 C 
BRANCH   3   4
ATOM      4  C   UNL     1      12.681  15.771  63.630  1.00  0.00     0.000 C 
BRANCH   4   5
ATOM      5  C   UNL     1      12.840  15.112  65.013  1.00  0.00     0.000 C 
BRANCH   5   6
ATOM      6  C   UNL     1      13.611  13.778  65.021  1.00  0.00     0.006 C 
BRANCH   6   7
ATOM      7  C   UNL     1      14.207  13.391  63.655  1.00  0.00     0.053 C 
BRANCH   7   8
ATOM      8  C   UNL     1      14.476  11.921  63.538  1.00  0.00     0.041 C 
ATOM      9  O   UNL     1      15.308  11.494  62.695  1.00  0.00    -0.550 OA
ATOM     10  O   UNL     1      13.836  11.025  64.385  1.00  0.00    -0.550 OA
ENDBRANCH   7   8
ENDBRANCH   6   7
ENDBRANCH   5   6
ENDBRANCH   4   5
ENDBRANCH   3   4
ENDBRANCH   2   3
ENDBRANCH   1   2
BRANCH   1  11
ATOM     11  C   UNL     1      15.240  16.955  61.131  1.00  0.00     0.000 C 
BRANCH  11  12
ATOM     12  C   UNL     1      15.299  15.535  60.556  1.00  0.00     0.000 C 
BRANCH  12  13
ATOM     13  C   UNL     1      15.251  15.560  59.021  1.00  0.00     0.000 C 
BRANCH  13  14
ATOM     14  C   UNL     1      16.627  15.310  58.382  1.00  0.00     0.000 C 
BRANCH  14  15
ATOM     15  C   UNL     1      17.687  14.884  59.408  1.00  0.00     0.000 C 
BRANCH  15  16
ATOM     16  C   UNL     1      18.913  15.803  59.344  1.00  0.00     0.006 C 
BRANCH  16  17
ATOM     17  C   UNL     1      18.655  17.117  60.088  1.00  0.00     0.053 C 
BRANCH  17  18
ATOM     18  C   UNL     1      18.894  16.945  61.554  1.00  0.00     0.041 C 
ATOM     19  O   UNL     1      18.978  15.792  62.052  1.00  0.00    -0.550 OA
ATOM     20  O   UNL     1      19.072  18.059  62.365  1.00  0.00    -0.550 OA
ENDBRANCH  17  18
ENDBRANCH  16  17
ENDBRANCH  15  16
ENDBRANCH  14  15
ENDBRANCH  13  14
ENDBRANCH  12  13
ENDBRANCH  11  12
ENDBRANCH   1  11
TORSDOF 15
ENDMDL
MODEL 3
REMARK VINA RESULT:    -5.362     11.730     14.971
REMARK INTER + INTRA:         -10.928
REMARK INTER:                  -9.096
REMARK INTRA:                  -1.832
REMARK UNBOUND:                -0.864
REMARK SMILES O=C([O-])CCCCCCCCCCCCCCC(=O)[O-]
REMARK SMILES IDX 10 1 9 2 8 3 7 4 6 5 5 6 4 7 2 8 1 9 3 10 11 11 12 12 13 13
REMARK SMILES IDX 14 14 15 15 16 16 17 17 18 18 19 19 20 20
REMARK H PARENT
REMARK Flexibility Score: inf
ROOT
ATOM      1  C   UNL     1      14.662  16.752  63.864  1.00  0.00     0.000 C 
ENDROOT
BRANCH   1   2
ATOM      2  C   UNL     1      15.664  16.836  62.700  1.00  0.00     0.000 C 
BRANCH   2   3
ATOM      3  C   UNL     1      15.068  17.318  61.362  1.00  0.00     0.000 C 
BRANCH   3   4
ATOM      4  C   UNL     1      15.789  16.802  60.100  1.00  0.00     0.000 C 
BRANCH   4   5
ATOM      5  C   UNL     1      15.134  15.580  59.427  1.00  0.00     0.000 C 
BRANCH   5   6
ATOM      6  C   UNL     1      16.074  14.728  58.554  1.00  0.00     0.006 C 
BRANCH   6   7
ATOM      7  C   UNL     1      17.537  14.715  59.035  1.00  0.00     0.053 C 
BRANCH   7   8
ATOM      8  C   UNL     1      18.506  15.070  57.949  1.00  0.00     0.041 C 
ATOM      9  O   UNL     1      19.317  14.211  57.516  1.00  0.00    -0.550 OA
ATOM     10  O   UNL     1      18.488  16.341  57.387  1.00  0.00    -0.550 OA
ENDBRANCH   7   8
ENDBRANCH   6   7
ENDBRANCH   5   6
ENDBRANCH   4   5
ENDBRANCH   3   4
ENDBRANCH   2   3
ENDBRANCH   1   2
BRANCH   1  11
ATOM     11  C   UNL     1      13.202  16.697  63.393  1.00  0.00     0.000 C 
BRANCH  11  12
ATOM     12  C   UNL     1      12.477  15.482  63.987  1.00  0.00     0.000 C 
BRANCH  12  13
ATOM     13  C   UNL     1      13.434  14.630  64.835  1.00  0.00     0.000 C 
BRANCH  13  14
ATOM     14  C   UNL     1      13.703  13.250  64.215  1.00  0.00     0.000 C 
BRANCH  14  15
ATOM     15  C   UNL     1      13.410  13.210  62.708  1.00  0.00     0.000 C 
BRANCH  15  16
ATOM     16  C   UNL     1      14.710  13.155  61.897  1.00  0.00     0.006 C 
BRANCH  16  17
ATOM     17  C   UNL     1      14.954  11.748  61.342  1.00  0.00     0.053 C 
BRANCH  17  18
ATOM     18  C   UNL     1      16.271  11.219  61.812  1.00  0.00     0.041 C 
ATOM     19  O   UNL     1      16.314  10.290  62.661  1.00  0.00    -0.550 OA
ATOM     20  O   UNL     1      17.451  11.718  61.278  1.00  0.00    -0.550 OA
ENDBRANCH  17  18
ENDBRANCH  16  17
ENDBRANCH  15  16
ENDBRANCH  14  15
ENDBRANCH  13  14
ENDBRANCH  12  13
ENDBRANCH  11  12
ENDBRANCH   1  11
TORSDOF 15
ENDMDL
MODEL 4
REMARK VINA RESULT:    -5.354     11.665     13.307
REMARK INTER + INTRA:         -10.913
REMARK INTER:                  -9.235
REMARK INTRA:                  -1.678
REMARK UNBOUND:                -0.864
REMARK SMILES O=C([O-])CCCCCCCCCCCCCCC(=O)[O-]
REMARK SMILES IDX 10 1 9 2 8 3 7 4 6 5 5 6 4 7 2 8 1 9 3 10 11 11 12 12 13 13
REMARK SMILES IDX 14 14 15 15 16 16 17 17 18 18 19 19 20 20
REMARK H PARENT
REMARK Flexibility Score: inf
ROOT
ATOM      1  C   UNL     1      12.924  16.798  63.187  1.00  0.00     0.000 C 
ENDROOT
BRANCH   1   2
ATOM      2  C   UNL     1      12.270  15.621  63.932  1.00  0.00     0.000 C 
BRANCH   2   3
ATOM      3  C   UNL     1      13.070  15.089  65.138  1.00  0.00     0.000 C 
BRANCH   3   4
ATOM      4  C   UNL     1      13.887  13.809  64.869  1.00  0.00     0.000 C 
BRANCH   4   5
ATOM      5  C   UNL     1      13.459  13.011  63.621  1.00  0.00     0.000 C 
BRANCH   5   6
ATOM      6  C   UNL     1      14.592  12.247  62.910  1.00  0.00     0.006 C 
BRANCH   6   7
ATOM      7  C   UNL     1      14.860  12.720  61.470  1.00  0.00     0.053 C 
BRANCH   7   8
ATOM      8  C   UNL     1      16.050  12.049  60.853  1.00  0.00     0.041 C 
ATOM      9  O   UNL     1      15.921  10.943  60.267  1.00  0.00    -0.550 OA
ATOM     10  O   UNL     1      17.295  12.664  60.892  1.00  0.00    -0.550 OA
ENDBRANCH   7   8
ENDBRANCH   6   7
ENDBRANCH   5   6
ENDBRANCH   4   5
ENDBRANCH   3   4
ENDBRANCH   2   3
ENDBRANCH   1   2
BRANCH   1  11
ATOM     11  C   UNL     1      14.229  17.270  63.844  1.00  0.00     0.000 C 
BRANCH  11  12
ATOM     12  C   UNL     1      15.427  17.041  62.914  1.00  0.00     0.000 C 
BRANCH  12  13
ATOM     13  C   UNL     1      14.966  16.564  61.529  1.00  0.00     0.000 C 
BRANCH  13  14
ATOM     14  C   UNL     1      16.127  16.045  60.665  1.00  0.00     0.000 C 
BRANCH  14  15
ATOM     15  C   UNL     1      17.495  16.234  61.337  1.00  0.00     0.000 C 
BRANCH  15  16
ATOM     16  C   UNL     1      18.634  15.922  60.360  1.00  0.00     0.006 C 
BRANCH  16  17
ATOM     17  C   UNL     1      18.389  16.583  59.000  1.00  0.00     0.053 C 
BRANCH  17  18
ATOM     18  C   UNL     1      18.217  15.546  57.936  1.00  0.00     0.041 C 
ATOM     19  O   UNL     1      17.279  15.642  57.102  1.00  0.00    -0.550 OA
ATOM     20  O   UNL     1      19.122  14.497  57.835  1.00  0.00    -0.550 OA
ENDBRANCH  17  18
ENDBRANCH  16  17
ENDBRANCH  15  16
ENDBRANCH  14  15
ENDBRANCH  13  14
ENDBRANCH  12  13
ENDBRANCH  11  12
ENDBRANCH   1  11
TORSDOF 15
ENDMDL
MODEL 5
REMARK VINA RESULT:    -5.340     11.603     13.895
REMARK INTER + INTRA:         -10.887
REMARK INTER:                  -9.136
REMARK INTRA:                  -1.750
REMARK UNBOUND:                -0.864
REMARK SMILES O=C([O-])CCCCCCCCCCCCCCC(=O)[O-]
REMARK SMILES IDX 10 1 9 2 8 3 7 4 6 5 5 6 4 7 2 8 1 9 3 10 11 11 12 12 13 13
REMARK SMILES IDX 14 14 15 15 16 16 17 17 18 18 19 19 20 20
REMARK H PARENT
REMARK Flexibility Score: inf
ROOT
ATOM      1  C   UNL     1      13.892  13.087  64.201  1.00  0.00     0.000 C 
ENDROOT
BRANCH   1   2
ATOM      2  C   UNL     1      13.612  13.097  62.688  1.00  0.00     0.000 C 
BRANCH   2   3
ATOM      3  C   UNL     1      14.847  12.860  61.796  1.00  0.00     0.000 C 
BRANCH   3   4
ATOM      4  C   UNL     1      14.618  13.085  60.287  1.00  0.00     0.000 C 
BRANCH   4   5
ATOM      5  C   UNL     1      15.549  12.282  59.358  1.00  0.00     0.000 C 
BRANCH   5   6
ATOM      6  C   UNL     1      16.909  12.941  59.062  1.00  0.00     0.006 C 
BRANCH   6   7
ATOM      7  C   UNL     1      16.806  14.393  58.559  1.00  0.00     0.053 C 
BRANCH   7   8
ATOM      8  C   UNL     1      18.077  14.878  57.930  1.00  0.00     0.041 C 
ATOM      9  O   UNL     1      19.065  14.106  57.817  1.00  0.00    -0.550 OA
ATOM     10  O   UNL     1      18.158  16.173  57.433  1.00  0.00    -0.550 OA
ENDBRANCH   7   8
ENDBRANCH   6   7
ENDBRANCH   5   6
ENDBRANCH   4   5
ENDBRANCH   3   4
ENDBRANCH   2   3
ENDBRANCH   1   2
BRANCH   1  11
ATOM     11  C   UNL     1      14.014  14.498  64.795  1.00  0.00     0.000 C 
BRANCH  11  12
ATOM     12  C   UNL     1      13.037  15.467  64.119  1.00  0.00     0.000 C 
BRANCH  12  13
ATOM     13  C   UNL     1      13.742  16.773  63.722  1.00  0.00     0.000 C 
BRANCH  13  14
ATOM     14  C   UNL     1      14.511  16.651  62.397  1.00  0.00     0.000 C 
BRANCH  14  15
ATOM     15  C   UNL     1      16.023  16.476  62.603  1.00  0.00     0.000 C 
BRANCH  15  16
ATOM     16  C   UNL     1      16.746  16.329  61.259  1.00  0.00     0.006 C 
BRANCH  16  17
ATOM     17  C   UNL     1      18.203  15.900  61.462  1.00  0.00     0.053 C 
BRANCH  17  18
ATOM     18  C   UNL     1      19.133  17.014  61.100  1.00  0.00     0.041 C 
ATOM     19  O   UNL     1      18.829  17.820  60.181  1.00  0.00    -0.550 OA
ATOM     20  O   UNL     1      20.314  17.192  61.808  1.00  0.00    -0.550 OA
ENDBRANCH  17  18
ENDBRANCH  16  17
ENDBRANCH  15  16
ENDBRANCH  14  15
ENDBRANCH  13  14
ENDBRANCH  12  13
ENDBRANCH  11  12
ENDBRANCH   1  11
TORSDOF 15
ENDMDL
MODEL 6
REMARK VINA RESULT:    -5.270     11.280     14.501
REMARK INTER + INTRA:         -10.755
REMARK INTER:                  -9.120
REMARK INTRA:                  -1.635
REMARK UNBOUND:                -0.864
REMARK SMILES O=C([O-])CCCCCCCCCCCCCCC(=O)[O-]
REMARK SMILES IDX 10 1 9 2 8 3 7 4 6 5 5 6 4 7 2 8 1 9 3 10 11 11 12 12 13 13
REMARK SMILES IDX 14 14 15 15 16 16 17 17 18 18 19 19 20 20
REMARK H PARENT
REMARK Flexibility Score: inf
ROOT
ATOM      1  C   UNL     1      13.694  17.007  63.445  1.00  0.00     0.000 C 
ENDROOT
BRANCH   1   2
ATOM      2  C   UNL     1      15.078  16.962  62.774  1.00  0.00     0.000 C 
BRANCH   2   3
ATOM      3  C   UNL     1      15.066  17.141  61.243  1.00  0.00     0.000 C 
BRANCH   3   4
ATOM      4  C   UNL     1      15.991  16.185  60.463  1.00  0.00     0.000 C 
BRANCH   4   5
ATOM      5  C   UNL     1      16.921  16.864  59.440  1.00  0.00     0.000 C 
BRANCH   5   6
ATOM      6  C   UNL     1      18.400  16.440  59.514  1.00  0.00     0.006 C 
BRANCH   6   7
ATOM      7  C   UNL     1      18.874  16.058  60.929  1.00  0.00     0.053 C 
BRANCH   7   8
ATOM      8  C   UNL     1      19.637  17.159  61.599  1.00  0.00     0.041 C 
ATOM      9  O   UNL     1      20.881  17.262  61.433  1.00  0.00    -0.550 OA
ATOM     10  O   UNL     1      18.970  18.096  62.379  1.00  0.00    -0.550 OA
ENDBRANCH   7   8
ENDBRANCH   6   7
ENDBRANCH   5   6
ENDBRANCH   4   5
ENDBRANCH   3   4
ENDBRANCH   2   3
ENDBRANCH   1   2
BRANCH   1  11
ATOM     11  C   UNL     1      13.554  16.000  64.595  1.00  0.00     0.000 C 
BRANCH  11  12
ATOM     12  C   UNL     1      14.505  14.812  64.406  1.00  0.00     0.000 C 
BRANCH  12  13
ATOM     13  C   UNL     1      13.754  13.478  64.541  1.00  0.00     0.000 C 
BRANCH  13  14
ATOM     14  C   UNL     1      13.645  12.723  63.206  1.00  0.00     0.000 C 
BRANCH  14  15
ATOM     15  C   UNL     1      14.465  13.381  62.086  1.00  0.00     0.000 C 
BRANCH  15  16
ATOM     16  C   UNL     1      14.729  12.390  60.946  1.00  0.00     0.006 C 
BRANCH  16  17
ATOM     17  C   UNL     1      16.231  12.238  60.686  1.00  0.00     0.053 C 
BRANCH  17  18
ATOM     18  C   UNL     1      16.774  11.057  61.426  1.00  0.00     0.041 C 
ATOM     19  O   UNL     1      17.983  10.728  61.296  1.00  0.00    -0.550 OA
ATOM     20  O   UNL     1      15.959  10.349  62.299  1.00  0.00    -0.550 OA
ENDBRANCH  17  18
ENDBRANCH  16  17
ENDBRANCH  15  16
ENDBRANCH  14  15
ENDBRANCH  13  14
ENDBRANCH  12  13
ENDBRANCH  11  12
ENDBRANCH   1  11
TORSDOF 15
ENDMDL
MODEL 7
REMARK VINA RESULT:    -5.254      0.801      9.001
REMARK INTER + INTRA:         -10.726
REMARK INTER:                  -9.892
REMARK INTRA:                  -0.834
REMARK UNBOUND:                -0.864
REMARK SMILES O=C([O-])CCCCCCCCCCCCCCC(=O)[O-]
REMARK SMILES IDX 10 1 9 2 8 3 7 4 6 5 5 6 4 7 2 8 1 9 3 10 11 11 12 12 13 13
REMARK SMILES IDX 14 14 15 15 16 16 17 17 18 18 19 19 20 20
REMARK H PARENT
REMARK Flexibility Score: inf
ROOT
ATOM      1  C   UNL     1      18.187  26.618  70.904  1.00  0.00     0.000 C 
ENDROOT
BRANCH   1   2
ATOM      2  C   UNL     1      19.524  27.347  71.123  1.00  0.00     0.000 C 
BRANCH   2   3
ATOM      3  C   UNL     1      19.508  28.853  70.788  1.00  0.00     0.000 C 
BRANCH   3   4
ATOM      4  C   UNL     1      19.188  29.194  69.319  1.00  0.00     0.000 C 
BRANCH   4   5
ATOM      5  C   UNL     1      17.763  29.723  69.066  1.00  0.00     0.000 C 
BRANCH   5   6
ATOM      6  C   UNL     1      17.193  29.430  67.665  1.00  0.00     0.006 C 
BRANCH   6   7
ATOM      7  C   UNL     1      17.279  27.950  67.250  1.00  0.00     0.053 C 
BRANCH   7   8
ATOM      8  C   UNL     1      17.692  27.774  65.819  1.00  0.00     0.041 C 
ATOM      9  O   UNL     1      16.917  27.215  65.000  1.00  0.00    -0.550 OA
ATOM     10  O   UNL     1      18.917  28.262  65.382  1.00  0.00    -0.550 OA
ENDBRANCH   7   8
ENDBRANCH   6   7
ENDBRANCH   5   6
ENDBRANCH   4   5
ENDBRANCH   3   4
ENDBRANCH   2   3
ENDBRANCH   1   2
BRANCH   1  11
ATOM     11  C   UNL     1      17.973  25.455  71.883  1.00  0.00     0.000 C 
BRANCH  11  12
ATOM     12  C   UNL     1      17.255  24.285  71.200  1.00  0.00     0.000 C 
BRANCH  12  13
ATOM     13  C   UNL     1      18.263  23.249  70.679  1.00  0.00     0.000 C 
BRANCH  13  14
ATOM     14  C   UNL     1      17.973  21.831  71.196  1.00  0.00     0.000 C 
BRANCH  14  15
ATOM     15  C   UNL     1      16.506  21.641  71.612  1.00  0.00     0.000 C 
BRANCH  15  16
ATOM     16  C   UNL     1      15.895  20.415  70.922  1.00  0.00     0.006 C 
BRANCH  16  17
ATOM     17  C   UNL     1      15.778  19.237  71.894  1.00  0.00     0.053 C 
BRANCH  17  18
ATOM     18  C   UNL     1      16.178  17.962  71.223  1.00  0.00     0.041 C 
ATOM     19  O   UNL     1      16.247  17.900  69.967  1.00  0.00    -0.550 OA
ATOM     20  O   UNL     1      16.521  16.853  71.985  1.00  0.00    -0.550 OA
ENDBRANCH  17  18
ENDBRANCH  16  17
ENDBRANCH  15  16
ENDBRANCH  14  15
ENDBRANCH  13  14
ENDBRANCH  12  13
ENDBRANCH  11  12
ENDBRANCH   1  11
TORSDOF 15
ENDMDL
MODEL 8
REMARK VINA RESULT:    -5.252     11.270     12.911
REMARK INTER + INTRA:         -10.721
REMARK INTER:                  -9.222
REMARK INTRA:                  -1.499
REMARK UNBOUND:                -0.864
REMARK SMILES O=C([O-])CCCCCCCCCCCCCCC(=O)[O-]
REMARK SMILES IDX 10 1 9 2 8 3 7 4 6 5 5 6 4 7 2 8 1 9 3 10 11 11 12 12 13 13
REMARK SMILES IDX 14 14 15 15 16 16 17 17 18 18 19 19 20 20
REMARK H PARENT
REMARK Flexibility Score: inf
ROOT
ATOM      1  C   UNL     1      13.324  16.158  63.102  1.00  0.00     0.000 C 
ENDROOT
BRANCH   1   2
ATOM      2  C   UNL     1      12.508  15.810  64.360  1.00  0.00     0.000 C 
BRANCH   2   3
ATOM      3  C   UNL     1      13.148  14.748  65.277  1.00  0.00     0.000 C 
BRANCH   3   4
ATOM      4  C   UNL     1      14.263  13.905  64.625  1.00  0.00     0.000 C 
BRANCH   4   5
ATOM      5  C   UNL     1      13.772  12.779  63.695  1.00  0.00     0.000 C 
BRANCH   5   6
ATOM      6  C   UNL     1      14.624  12.551  62.432  1.00  0.00     0.006 C 
BRANCH   6   7
ATOM      7  C   UNL     1      15.389  11.215  62.424  1.00  0.00     0.053 C 
BRANCH   7   8
ATOM      8  C   UNL     1      16.476  11.177  61.392  1.00  0.00     0.041 C 
ATOM      9  O   UNL     1      17.245  12.163  61.245  1.00  0.00    -0.550 OA
ATOM     10  O   UNL     1      16.665  10.038  60.620  1.00  0.00    -0.550 OA
ENDBRANCH   7   8
ENDBRANCH   6   7
ENDBRANCH   5   6
ENDBRANCH   4   5
ENDBRANCH   3   4
ENDBRANCH   2   3
ENDBRANCH   1   2
BRANCH   1  11
ATOM     11  C   UNL     1      14.215  17.394  63.292  1.00  0.00     0.000 C 
BRANCH  11  12
ATOM     12  C   UNL     1      15.496  17.283  62.455  1.00  0.00     0.000 C 
BRANCH  12  13
ATOM     13  C   UNL     1      15.532  15.958  61.677  1.00  0.00     0.000 C 
BRANCH  13  14
ATOM     14  C   UNL     1      15.354  16.157  60.163  1.00  0.00     0.000 C 
BRANCH  14  15
ATOM     15  C   UNL     1      16.488  16.982  59.538  1.00  0.00     0.000 C 
BRANCH  15  16
ATOM     16  C   UNL     1      17.824  16.234  59.624  1.00  0.00     0.006 C 
BRANCH  16  17
ATOM     17  C   UNL     1      18.910  17.116  60.250  1.00  0.00     0.053 C 
BRANCH  17  18
ATOM     18  C   UNL     1      19.282  16.607  61.606  1.00  0.00     0.041 C 
ATOM     19  O   UNL     1      18.752  15.558  62.057  1.00  0.00    -0.550 OA
ATOM     20  O   UNL     1      20.251  17.265  62.353  1.00  0.00    -0.550 OA
ENDBRANCH  17  18
ENDBRANCH  16  17
ENDBRANCH  15  16
ENDBRANCH  14  15
ENDBRANCH  13  14
ENDBRANCH  12  13
ENDBRANCH  11  12
ENDBRANCH   1  11
TORSDOF 15
ENDMDL
MODEL 9
REMARK VINA RESULT:    -5.207     11.484     14.614
REMARK INTER + INTRA:         -10.638
REMARK INTER:                  -8.892
REMARK INTRA:                  -1.746
REMARK UNBOUND:                -0.864
REMARK SMILES O=C([O-])CCCCCCCCCCCCCCC(=O)[O-]
REMARK SMILES IDX 10 1 9 2 8 3 7 4 6 5 5 6 4 7 2 8 1 9 3 10 11 11 12 12 13 13
REMARK SMILES IDX 14 14 15 15 16 16 17 17 18 18 19 19 20 20
REMARK H PARENT
REMARK Flexibility Score: inf
ROOT
ATOM      1  C   UNL     1      12.961  16.004  63.447  1.00  0.00     0.000 C 
ENDROOT
BRANCH   1   2
ATOM      2  C   UNL     1      13.991  17.133  63.272  1.00  0.00     0.000 C 
BRANCH   2   3
ATOM      3  C   UNL     1      15.362  16.684  62.727  1.00  0.00     0.000 C 
BRANCH   3   4
ATOM      4  C   UNL     1      15.310  15.840  61.438  1.00  0.00     0.000 C 
BRANCH   4   5
ATOM      5  C   UNL     1      15.518  16.628  60.131  1.00  0.00     0.000 C 
BRANCH   5   6
ATOM      6  C   UNL     1      16.714  16.173  59.272  1.00  0.00     0.006 C 
BRANCH   6   7
ATOM      7  C   UNL     1      17.889  15.601  60.086  1.00  0.00     0.053 C 
BRANCH   7   8
ATOM      8  C   UNL     1      18.703  16.667  60.755  1.00  0.00     0.041 C 
ATOM      9  O   UNL     1      18.863  17.785  60.199  1.00  0.00    -0.550 OA
ATOM     10  O   UNL     1      19.254  16.440  62.010  1.00  0.00    -0.550 OA
ENDBRANCH   7   8
ENDBRANCH   6   7
ENDBRANCH   5   6
ENDBRANCH   4   5
ENDBRANCH   3   4
ENDBRANCH   2   3
ENDBRANCH   1   2
BRANCH   1  11
ATOM     11  C   UNL     1      12.889  15.478  64.887  1.00  0.00     0.000 C 
BRANCH  11  12
ATOM     12  C   UNL     1      13.548  14.098  65.003  1.00  0.00     0.000 C 
BRANCH  12  13
ATOM     13  C   UNL     1      13.542  13.369  63.651  1.00  0.00     0.000 C 
BRANCH  13  14
ATOM     14  C   UNL     1      13.766  11.855  63.793  1.00  0.00     0.000 C 
BRANCH  14  15
ATOM     15  C   UNL     1      14.974  11.357  62.987  1.00  0.00     0.000 C 
BRANCH  15  16
ATOM     16  C   UNL     1      15.250  12.273  61.788  1.00  0.00     0.006 C 
BRANCH  16  17
ATOM     17  C   UNL     1      15.915  11.499  60.645  1.00  0.00     0.053 C 
BRANCH  17  18
ATOM     18  C   UNL     1      16.047  12.365  59.433  1.00  0.00     0.041 C 
ATOM     19  O   UNL     1      15.051  12.999  58.995  1.00  0.00    -0.550 OA
ATOM     20  O   UNL     1      17.282  12.511  58.815  1.00  0.00    -0.550 OA
ENDBRANCH  17  18
ENDBRANCH  16  17
ENDBRANCH  15  16
ENDBRANCH  14  15
ENDBRANCH  13  14
ENDBRANCH  12  13
ENDBRANCH  11  12
ENDBRANCH   1  11
TORSDOF 15
ENDMDL
