MODEL 1
REMARK VINA RESULT:    -2.984      0.000      0.000
REMARK INTER + INTRA:          -4.325
REMARK INTER:                  -3.682
REMARK INTRA:                  -0.643
REMARK UNBOUND:                -0.643
REMARK SMILES CC(C)=CCC[C@@H](C)c1ccc(C)cc1
REMARK SMILES IDX 6 1 7 2 8 3 9 4 13 5 12 6 11 7 14 8 10 9 15 10 5 11 4 12
REMARK SMILES IDX 2 13 1 14 3 15
REMARK H PARENT
REMARK Flexibility Score: inf
ROOT
ATOM      1  C   UNL     1      -2.384 -10.502  -1.290  1.00  0.00     0.012 C 
ENDROOT
BRANCH   1   2
ATOM      2  C   UNL     1      -0.923 -10.895  -0.961  1.00  0.00     0.016 C 
ATOM      3  C   UNL     1      -0.236 -11.628  -2.125  1.00  0.00     0.013 C 
BRANCH   2   4
ATOM      4  C   UNL     1      -0.126  -9.664  -0.567  1.00  0.00    -0.045 A 
ATOM      5  C   UNL     1       2.119  -6.154   0.579  1.00  0.00     0.044 C 
ATOM      6  C   UNL     1       1.322  -7.356   0.161  1.00  0.00    -0.051 A 
ATOM      7  C   UNL     1       0.195  -7.746   0.899  1.00  0.00     0.004 A 
ATOM      8  C   UNL     1       1.736  -8.135  -0.928  1.00  0.00     0.004 A 
ATOM      9  C   UNL     1      -0.528  -8.886   0.534  1.00  0.00     0.004 A 
ATOM     10  C   UNL     1       1.015  -9.274  -1.295  1.00  0.00     0.004 A 
ENDBRANCH   2   4
ENDBRANCH   1   2
BRANCH   1  11
ATOM     11  C   UNL     1      -3.163 -11.569  -2.079  1.00  0.00     0.028 C 
BRANCH  11  12
ATOM     12  C   UNL     1      -4.019 -12.436  -1.185  1.00  0.00    -0.028 C 
ATOM     13  C   UNL     1      -4.036 -13.786  -1.211  1.00  0.00    -0.080 C 
ATOM     14  C   UNL     1      -3.131 -14.584  -2.121  1.00  0.00     0.039 C 
ATOM     15  C   UNL     1      -4.975 -14.510  -0.280  1.00  0.00     0.039 C 
ENDBRANCH  11  12
ENDBRANCH   1  11
TORSDOF 4
ENDMDL
MODEL 2
REMARK VINA RESULT:    -2.943      0.694      1.427
REMARK INTER + INTRA:          -4.274
REMARK INTER:                  -3.808
REMARK INTRA:                  -0.467
REMARK UNBOUND:                -0.643
REMARK SMILES CC(C)=CCC[C@@H](C)c1ccc(C)cc1
REMARK SMILES IDX 6 1 7 2 8 3 9 4 13 5 12 6 11 7 14 8 10 9 15 10 5 11 4 12
REMARK SMILES IDX 2 13 1 14 3 15
REMARK H PARENT
REMARK Flexibility Score: inf
ROOT
ATOM      1  C   UNL     1      -1.622 -10.576  -1.548  1.00  0.00     0.012 C 
ENDROOT
BRANCH   1   2
ATOM      2  C   UNL     1      -0.180 -10.727  -1.004  1.00  0.00     0.016 C 
ATOM      3  C   UNL     1       0.731 -11.508  -1.966  1.00  0.00     0.013 C 
BRANCH   2   4
ATOM      4  C   UNL     1       0.413  -9.362  -0.705  1.00  0.00    -0.045 A 
ATOM      5  C   UNL     1       2.125  -5.481   0.117  1.00  0.00     0.044 C 
ATOM      6  C   UNL     1       1.552  -6.842  -0.150  1.00  0.00    -0.051 A 
ATOM      7  C   UNL     1       1.961  -7.570  -1.277  1.00  0.00     0.004 A 
ATOM      8  C   UNL     1       0.557  -7.367   0.685  1.00  0.00     0.004 A 
ATOM      9  C   UNL     1       1.402  -8.823  -1.549  1.00  0.00     0.004 A 
ATOM     10  C   UNL     1      -0.003  -8.619   0.416  1.00  0.00     0.004 A 
ENDBRANCH   2   4
ENDBRANCH   1   2
BRANCH   1  11
ATOM     11  C   UNL     1      -2.219 -11.871  -2.125  1.00  0.00     0.028 C 
BRANCH  11  12
ATOM     12  C   UNL     1      -3.440 -12.331  -1.365  1.00  0.00    -0.028 C 
ATOM     13  C   UNL     1      -3.896 -13.603  -1.339  1.00  0.00    -0.080 C 
ATOM     14  C   UNL     1      -3.174 -14.730  -2.040  1.00  0.00     0.039 C 
ATOM     15  C   UNL     1      -5.154 -13.898  -0.564  1.00  0.00     0.039 C 
ENDBRANCH  11  12
ENDBRANCH   1  11
TORSDOF 4
ENDMDL
MODEL 3
REMARK VINA RESULT:    -2.245      1.487      1.988
REMARK INTER + INTRA:          -3.414
REMARK INTER:                  -2.841
REMARK INTRA:                  -0.572
REMARK UNBOUND:                -0.643
REMARK SMILES CC(C)=CCC[C@@H](C)c1ccc(C)cc1
REMARK SMILES IDX 6 1 7 2 8 3 9 4 13 5 12 6 11 7 14 8 10 9 15 10 5 11 4 12
REMARK SMILES IDX 2 13 1 14 3 15
REMARK H PARENT
REMARK Flexibility Score: inf
ROOT
ATOM      1  C   UNL     1      -1.023 -10.331  -1.783  1.00  0.00     0.012 C 
ENDROOT
BRANCH   1   2
ATOM      2  C   UNL     1       0.398 -10.438  -1.176  1.00  0.00     0.016 C 
ATOM      3  C   UNL     1       1.484  -9.906  -2.125  1.00  0.00     0.013 C 
BRANCH   2   4
ATOM      4  C   UNL     1       0.455  -9.710   0.155  1.00  0.00    -0.045 A 
ATOM      5  C   UNL     1       0.581  -7.636   3.944  1.00  0.00     0.044 C 
ATOM      6  C   UNL     1       0.535  -8.329   2.613  1.00  0.00    -0.051 A 
ATOM      7  C   UNL     1      -0.691  -8.746   2.076  1.00  0.00     0.004 A 
ATOM      8  C   UNL     1       1.723  -8.623   1.929  1.00  0.00     0.004 A 
ATOM      9  C   UNL     1      -0.732  -9.424   0.854  1.00  0.00     0.004 A 
ATOM     10  C   UNL     1       1.684  -9.301   0.707  1.00  0.00     0.004 A 
ENDBRANCH   2   4
ENDBRANCH   1   2
BRANCH   1  11
ATOM     11  C   UNL     1      -1.711 -11.686  -2.023  1.00  0.00     0.028 C 
BRANCH  11  12
ATOM     12  C   UNL     1      -3.102 -11.737  -1.437  1.00  0.00    -0.028 C 
ATOM     13  C   UNL     1      -3.895 -12.830  -1.432  1.00  0.00    -0.080 C 
ATOM     14  C   UNL     1      -3.431 -14.162  -1.975  1.00  0.00     0.039 C 
ATOM     15  C   UNL     1      -5.277 -12.712  -0.842  1.00  0.00     0.039 C 
ENDBRANCH  11  12
ENDBRANCH   1  11
TORSDOF 4
ENDMDL
MODEL 4
REMARK VINA RESULT:    -2.054      1.485      2.178
REMARK INTER + INTRA:          -3.178
REMARK INTER:                  -2.506
REMARK INTRA:                  -0.672
REMARK UNBOUND:                -0.643
REMARK SMILES CC(C)=CCC[C@@H](C)c1ccc(C)cc1
REMARK SMILES IDX 6 1 7 2 8 3 9 4 13 5 12 6 11 7 14 8 10 9 15 10 5 11 4 12
REMARK SMILES IDX 2 13 1 14 3 15
REMARK H PARENT
REMARK Flexibility Score: inf
ROOT
ATOM      1  C   UNL     1      -1.807 -12.534  -2.084  1.00  0.00     0.012 C 
ENDROOT
BRANCH   1   2
ATOM      2  C   UNL     1      -2.039 -11.003  -2.125  1.00  0.00     0.016 C 
ATOM      3  C   UNL     1      -3.529 -10.633  -2.041  1.00  0.00     0.013 C 
BRANCH   2   4
ATOM      4  C   UNL     1      -1.262 -10.325  -1.011  1.00  0.00    -0.045 A 
ATOM      5  C   UNL     1       0.918  -8.391   2.178  1.00  0.00     0.044 C 
ATOM      6  C   UNL     1       0.157  -9.035   1.057  1.00  0.00    -0.051 A 
ATOM      7  C   UNL     1      -1.224  -9.253   1.175  1.00  0.00     0.004 A 
ATOM      8  C   UNL     1       0.829  -9.484  -0.087  1.00  0.00     0.004 A 
ATOM      9  C   UNL     1      -1.929  -9.886   0.148  1.00  0.00     0.004 A 
ATOM     10  C   UNL     1       0.127 -10.116  -1.117  1.00  0.00     0.004 A 
ENDBRANCH   2   4
ENDBRANCH   1   2
BRANCH   1  11
ATOM     11  C   UNL     1      -3.098 -13.370  -2.121  1.00  0.00     0.028 C 
BRANCH  11  12
ATOM     12  C   UNL     1      -3.086 -14.493  -1.111  1.00  0.00    -0.028 C 
ATOM     13  C   UNL     1      -4.075 -14.742  -0.227  1.00  0.00    -0.080 C 
ATOM     14  C   UNL     1      -5.353 -13.935  -0.201  1.00  0.00     0.039 C 
ATOM     15  C   UNL     1      -3.899 -15.880   0.747  1.00  0.00     0.039 C 
ENDBRANCH  11  12
ENDBRANCH   1  11
TORSDOF 4
ENDMDL
MODEL 5
REMARK VINA RESULT:    -2.054      1.378      2.167
REMARK INTER + INTRA:          -3.177
REMARK INTER:                  -2.489
REMARK INTRA:                  -0.688
REMARK UNBOUND:                -0.643
REMARK SMILES CC(C)=CCC[C@@H](C)c1ccc(C)cc1
REMARK SMILES IDX 6 1 7 2 8 3 9 4 13 5 12 6 11 7 14 8 10 9 15 10 5 11 4 12
REMARK SMILES IDX 2 13 1 14 3 15
REMARK H PARENT
REMARK Flexibility Score: inf
ROOT
ATOM      1  C   UNL     1      -2.800 -10.265  -1.541  1.00  0.00     0.012 C 
ENDROOT
BRANCH   1   2
ATOM      2  C   UNL     1      -1.515 -10.942  -1.005  1.00  0.00     0.016 C 
ATOM      3  C   UNL     1      -0.499 -11.239  -2.121  1.00  0.00     0.013 C 
BRANCH   2   4
ATOM      4  C   UNL     1      -0.879 -10.081   0.073  1.00  0.00    -0.045 A 
ATOM      5  C   UNL     1       0.960  -7.632   3.120  1.00  0.00     0.044 C 
ATOM      6  C   UNL     1       0.333  -8.509   2.075  1.00  0.00    -0.051 A 
ATOM      7  C   UNL     1       1.011  -8.774   0.877  1.00  0.00     0.004 A 
ATOM      8  C   UNL     1      -0.962  -9.013   2.260  1.00  0.00     0.004 A 
ATOM      9  C   UNL     1       0.414  -9.560  -0.113  1.00  0.00     0.004 A 
ATOM     10  C   UNL     1      -1.561  -9.799   1.272  1.00  0.00     0.004 A 
ENDBRANCH   2   4
ENDBRANCH   1   2
BRANCH   1  11
ATOM     11  C   UNL     1      -3.863 -11.248  -2.062  1.00  0.00     0.028 C 
BRANCH  11  12
ATOM     12  C   UNL     1      -3.703 -12.631  -1.477  1.00  0.00    -0.028 C 
ATOM     13  C   UNL     1      -4.607 -13.237  -0.677  1.00  0.00    -0.080 C 
ATOM     14  C   UNL     1      -5.930 -12.594  -0.329  1.00  0.00     0.039 C 
ATOM     15  C   UNL     1      -4.286 -14.608  -0.140  1.00  0.00     0.039 C 
ENDBRANCH  11  12
ENDBRANCH   1  11
TORSDOF 4
ENDMDL
MODEL 6
REMARK VINA RESULT:    -1.875      1.164      6.693
REMARK INTER + INTRA:          -2.956
REMARK INTER:                  -2.432
REMARK INTRA:                  -0.525
REMARK UNBOUND:                -0.643
REMARK SMILES CC(C)=CCC[C@@H](C)c1ccc(C)cc1
REMARK SMILES IDX 6 1 7 2 8 3 9 4 13 5 12 6 11 7 14 8 10 9 15 10 5 11 4 12
REMARK SMILES IDX 2 13 1 14 3 15
REMARK H PARENT
REMARK Flexibility Score: inf
ROOT
ATOM      1  C   UNL     1      -0.747  -9.974  -0.796  1.00  0.00     0.012 C 
ENDROOT
BRANCH   1   2
ATOM      2  C   UNL     1      -0.787 -11.001  -1.955  1.00  0.00     0.016 C 
ATOM      3  C   UNL     1       0.548 -11.746  -2.125  1.00  0.00     0.013 C 
BRANCH   2   4
ATOM      4  C   UNL     1      -1.920 -11.989  -1.742  1.00  0.00    -0.045 A 
ATOM      5  C   UNL     1      -5.164 -14.773  -1.118  1.00  0.00     0.044 C 
ATOM      6  C   UNL     1      -4.026 -13.814  -1.307  1.00  0.00    -0.051 A 
ATOM      7  C   UNL     1      -4.171 -12.467  -0.945  1.00  0.00     0.004 A 
ATOM      8  C   UNL     1      -2.834 -14.241  -1.907  1.00  0.00     0.004 A 
ATOM      9  C   UNL     1      -3.125 -11.563  -1.153  1.00  0.00     0.004 A 
ATOM     10  C   UNL     1      -1.786 -13.340  -2.116  1.00  0.00     0.004 A 
ENDBRANCH   2   4
ENDBRANCH   1   2
BRANCH   1  11
ATOM     11  C   UNL     1       0.655  -9.419  -0.491  1.00  0.00     0.028 C 
BRANCH  11  12
ATOM     12  C   UNL     1       0.885  -9.217   0.987  1.00  0.00    -0.028 C 
ATOM     13  C   UNL     1       1.064  -8.017   1.581  1.00  0.00    -0.080 C 
ATOM     14  C   UNL     1       0.989  -6.720   0.810  1.00  0.00     0.039 C 
ATOM     15  C   UNL     1       1.322  -7.982   3.066  1.00  0.00     0.039 C 
ENDBRANCH  11  12
ENDBRANCH   1  11
TORSDOF 4
ENDMDL
