MODEL 1
REMARK VINA RESULT:    -5.507      0.000      0.000
REMARK INTER + INTRA:          -9.276
REMARK INTER:                  -8.082
REMARK INTRA:                  -1.194
REMARK UNBOUND:                -1.194
REMARK SMILES O=c1c(O[C@H]2O[C@@H](CO)[C@@H](O)[C@H](O)[C@H]2O)c(-c2ccc(O)c(O)c2)oc2cc(O)cc(O)c12
REMARK SMILES IDX 4 1 3 2 16 3 25 4 2 5 26 6 1 7 33 8 27 9 31 10 28 11 30 12
REMARK SMILES IDX 17 13 18 14 19 15 20 16 24 17 22 18 21 19 23 21 32 23 29 25
REMARK SMILES IDX 5 27 14 28 6 29 12 30 7 31 10 32 15 33 13 35 8 37 9 38 11 40
REMARK H PARENT 21 20 23 22 32 24 29 26 15 34 13 36 9 39 11 41
REMARK Flexibility Score: inf
ROOT
ATOM      1  O   UNL     1       7.520  13.389 -15.223  1.00  0.00    -0.454 OA
ENDROOT
BRANCH   1   2
ATOM      2  C   UNL     1       7.500  11.987 -15.303  1.00  0.00     0.214 A 
ATOM      3  C   UNL     1       7.583  11.342 -16.556  1.00  0.00     0.180 A 
ATOM      4  O   UNL     1       7.519  10.015 -16.614  1.00  0.00    -0.452 OA
ATOM      5  C   UNL     1       7.304  11.197 -14.154  1.00  0.00     0.239 A 
ATOM      6  C   UNL     1       7.400   9.234 -15.547  1.00  0.00     0.146 A 
ATOM      7  O   UNL     1       7.012  11.761 -13.069  1.00  0.00    -0.285 OA
ATOM      8  C   UNL     1       7.330   9.789 -14.248  1.00  0.00     0.111 A 
ATOM      9  C   UNL     1       7.323   7.854 -15.733  1.00  0.00     0.094 A 
ATOM     10  C   UNL     1       7.238   8.907 -13.132  1.00  0.00     0.134 A 
ATOM     11  C   UNL     1       7.164   7.001 -14.645  1.00  0.00     0.123 A 
ATOM     12  C   UNL     1       7.118   7.529 -13.352  1.00  0.00     0.093 A 
BRANCH   3  13
ATOM     13  C   UNL     1       7.694  12.069 -17.849  1.00  0.00     0.025 A 
ATOM     14  C   UNL     1       6.876  13.164 -18.173  1.00  0.00     0.016 A 
ATOM     15  C   UNL     1       7.051  13.851 -19.375  1.00  0.00     0.051 A 
ATOM     16  C   UNL     1       8.051  13.474 -20.277  1.00  0.00     0.157 A 
ATOM     17  C   UNL     1       8.708  11.701 -18.751  1.00  0.00     0.062 A 
ATOM     18  C   UNL     1       8.893  12.386 -19.959  1.00  0.00     0.158 A 
BRANCH  16  19
ATOM     19  O   UNL     1       8.184  14.213 -21.451  1.00  0.00    -0.504 OA
ATOM     20  H   UNL     1       8.867  14.949 -21.580  1.00  0.00     0.293 HD
ENDBRANCH  16  19
BRANCH  18  21
ATOM     21  O   UNL     1       9.925  11.958 -20.801  1.00  0.00    -0.504 OA
ATOM     22  H   UNL     1       9.794  11.326 -21.576  1.00  0.00     0.293 HD
ENDBRANCH  18  21
ENDBRANCH   3  13
BRANCH  10  23
ATOM     23  O   UNL     1       7.292   9.331 -11.801  1.00  0.00    -0.507 OA
ATOM     24  H   UNL     1       7.286   8.711 -11.004  1.00  0.00     0.293 HD
ENDBRANCH  10  23
BRANCH  11  25
ATOM     25  O   UNL     1       7.064   5.627 -14.856  1.00  0.00    -0.508 OA
ATOM     26  H   UNL     1       7.167   5.225 -15.780  1.00  0.00     0.293 HD
ENDBRANCH  11  25
ENDBRANCH   1   2
BRANCH   1  27
ATOM     27  C   UNL     1       8.716  14.164 -15.079  1.00  0.00     0.339 C 
ATOM     28  C   UNL     1       8.479  15.591 -15.657  1.00  0.00     0.214 C 
ATOM     29  O   UNL     1       9.779  13.460 -15.720  1.00  0.00    -0.332 OA
ATOM     30  C   UNL     1       8.988  15.659 -17.104  1.00  0.00     0.180 C 
ATOM     31  C   UNL     1      10.869  14.310 -16.015  1.00  0.00     0.179 C 
ATOM     32  C   UNL     1      10.496  15.311 -17.151  1.00  0.00     0.177 C 
BRANCH  28  33
ATOM     33  O   UNL     1       7.118  15.927 -15.593  1.00  0.00    -0.384 OA
ATOM     34  H   UNL     1       7.031  16.848 -15.950  1.00  0.00     0.211 HD
ENDBRANCH  28  33
BRANCH  30  35
ATOM     35  O   UNL     1       8.794  16.946 -17.631  1.00  0.00    -0.387 OA
ATOM     36  H   UNL     1       8.232  17.443 -16.981  1.00  0.00     0.211 HD
ENDBRANCH  30  35
BRANCH  31  37
ATOM     37  C   UNL     1      12.108  13.460 -16.341  1.00  0.00     0.191 C 
BRANCH  37  38
ATOM     38  O   UNL     1      11.735  12.166 -16.735  1.00  0.00    -0.394 OA
ATOM     39  H   UNL     1      11.604  12.179 -17.721  1.00  0.00     0.210 HD
ENDBRANCH  37  38
ENDBRANCH  31  37
BRANCH  32  40
ATOM     40  O   UNL     1      10.807  14.790 -18.420  1.00  0.00    -0.387 OA
ATOM     41  H   UNL     1      11.355  13.973 -18.266  1.00  0.00     0.211 HD
ENDBRANCH  32  40
ENDBRANCH   1  27
TORSDOF 12
ENDMDL
MODEL 2
REMARK VINA RESULT:    -5.213      3.250      7.494
REMARK INTER + INTRA:          -8.846
REMARK INTER:                  -8.180
REMARK INTRA:                  -0.666
REMARK UNBOUND:                -1.194
REMARK SMILES O=c1c(O[C@H]2O[C@@H](CO)[C@@H](O)[C@H](O)[C@H]2O)c(-c2ccc(O)c(O)c2)oc2cc(O)cc(O)c12
REMARK SMILES IDX 4 1 3 2 16 3 25 4 2 5 26 6 1 7 33 8 27 9 31 10 28 11 30 12
REMARK SMILES IDX 17 13 18 14 19 15 20 16 24 17 22 18 21 19 23 21 32 23 29 25
REMARK SMILES IDX 5 27 14 28 6 29 12 30 7 31 10 32 15 33 13 35 8 37 9 38 11 40
REMARK H PARENT 21 20 23 22 32 24 29 26 15 34 13 36 9 39 11 41
REMARK Flexibility Score: inf
ROOT
ATOM      1  O   UNL     1       7.700  14.432 -20.206  1.00  0.00    -0.454 OA
ENDROOT
BRANCH   1   2
ATOM      2  C   UNL     1       7.882  15.759 -19.785  1.00  0.00     0.214 A 
ATOM      3  C   UNL     1       8.384  16.730 -20.678  1.00  0.00     0.180 A 
ATOM      4  O   UNL     1       8.589  17.971 -20.248  1.00  0.00    -0.452 OA
ATOM      5  C   UNL     1       7.660  16.132 -18.445  1.00  0.00     0.239 A 
ATOM      6  C   UNL     1       8.330  18.376 -19.011  1.00  0.00     0.146 A 
ATOM      7  O   UNL     1       7.425  15.238 -17.594  1.00  0.00    -0.285 OA
ATOM      8  C   UNL     1       7.806  17.480 -18.050  1.00  0.00     0.111 A 
ATOM      9  C   UNL     1       8.605  19.700 -18.668  1.00  0.00     0.094 A 
ATOM     10  C   UNL     1       7.512  17.971 -16.745  1.00  0.00     0.134 A 
ATOM     11  C   UNL     1       8.380  20.157 -17.372  1.00  0.00     0.123 A 
ATOM     12  C   UNL     1       7.840  19.293 -16.417  1.00  0.00     0.093 A 
BRANCH   3  13
ATOM     13  C   UNL     1       8.748  16.437 -22.090  1.00  0.00     0.025 A 
ATOM     14  C   UNL     1       7.794  16.083 -23.059  1.00  0.00     0.016 A 
ATOM     15  C   UNL     1       8.173  15.871 -24.385  1.00  0.00     0.051 A 
ATOM     16  C   UNL     1       9.506  16.019 -24.782  1.00  0.00     0.157 A 
ATOM     17  C   UNL     1      10.085  16.600 -22.495  1.00  0.00     0.062 A 
ATOM     18  C   UNL     1      10.474  16.391 -23.825  1.00  0.00     0.158 A 
BRANCH  16  19
ATOM     19  O   UNL     1       9.815  15.809 -26.125  1.00  0.00    -0.504 OA
ATOM     20  H   UNL     1       9.427  16.354 -26.884  1.00  0.00     0.293 HD
ENDBRANCH  16  19
BRANCH  18  21
ATOM     21  O   UNL     1      11.824  16.574 -24.146  1.00  0.00    -0.504 OA
ATOM     22  H   UNL     1      12.523  16.883 -23.488  1.00  0.00     0.293 HD
ENDBRANCH  18  21
ENDBRANCH   3  13
BRANCH  10  23
ATOM     23  O   UNL     1       6.875  17.216 -15.755  1.00  0.00    -0.507 OA
ATOM     24  H   UNL     1       6.709  17.535 -14.812  1.00  0.00     0.293 HD
ENDBRANCH  10  23
BRANCH  11  25
ATOM     25  O   UNL     1       8.686  21.477 -17.046  1.00  0.00    -0.508 OA
ATOM     26  H   UNL     1       8.379  22.250 -17.624  1.00  0.00     0.293 HD
ENDBRANCH  11  25
ENDBRANCH   1   2
BRANCH   1  27
ATOM     27  C   UNL     1       8.679  13.400 -20.039  1.00  0.00     0.339 C 
ATOM     28  C   UNL     1       8.007  12.011 -20.257  1.00  0.00     0.214 C 
ATOM     29  O   UNL     1       9.265  13.552 -18.746  1.00  0.00    -0.332 OA
ATOM     30  C   UNL     1       7.603  11.410 -18.903  1.00  0.00     0.180 C 
ATOM     31  C   UNL     1       9.902  12.365 -18.316  1.00  0.00     0.179 C 
ATOM     32  C   UNL     1       8.849  11.259 -17.998  1.00  0.00     0.177 C 
BRANCH  28  33
ATOM     33  O   UNL     1       6.891  12.133 -21.100  1.00  0.00    -0.384 OA
ATOM     34  H   UNL     1       6.229  12.693 -20.621  1.00  0.00     0.211 HD
ENDBRANCH  28  33
BRANCH  30  35
ATOM     35  O   UNL     1       7.009  10.150 -19.086  1.00  0.00    -0.387 OA
ATOM     36  H   UNL     1       6.676  10.120 -20.021  1.00  0.00     0.211 HD
ENDBRANCH  30  35
BRANCH  31  37
ATOM     37  C   UNL     1      10.825  12.681 -17.128  1.00  0.00     0.191 C 
BRANCH  37  38
ATOM     38  O   UNL     1      11.561  11.547 -16.754  1.00  0.00    -0.394 OA
ATOM     39  H   UNL     1      11.111  11.145 -15.963  1.00  0.00     0.210 HD
ENDBRANCH  37  38
ENDBRANCH  31  37
BRANCH  32  40
ATOM     40  O   UNL     1       8.447  11.303 -16.651  1.00  0.00    -0.387 OA
ATOM     41  H   UNL     1       8.259  12.257 -16.440  1.00  0.00     0.211 HD
ENDBRANCH  32  40
ENDBRANCH   1  27
TORSDOF 12
ENDMDL
MODEL 3
REMARK VINA RESULT:    -5.157      2.173      4.887
REMARK INTER + INTRA:          -8.763
REMARK INTER:                  -8.490
REMARK INTRA:                  -0.273
REMARK UNBOUND:                -1.194
REMARK SMILES O=c1c(O[C@H]2O[C@@H](CO)[C@@H](O)[C@H](O)[C@H]2O)c(-c2ccc(O)c(O)c2)oc2cc(O)cc(O)c12
REMARK SMILES IDX 4 1 3 2 16 3 25 4 2 5 26 6 1 7 33 8 27 9 31 10 28 11 30 12
REMARK SMILES IDX 17 13 18 14 19 15 20 16 24 17 22 18 21 19 23 21 32 23 29 25
REMARK SMILES IDX 5 27 14 28 6 29 12 30 7 31 10 32 15 33 13 35 8 37 9 38 11 40
REMARK H PARENT 21 20 23 22 32 24 29 26 15 34 13 36 9 39 11 41
REMARK Flexibility Score: inf
ROOT
ATOM      1  O   UNL     1      10.238  15.140 -17.515  1.00  0.00    -0.454 OA
ENDROOT
BRANCH   1   2
ATOM      2  C   UNL     1       9.507  14.352 -16.612  1.00  0.00     0.214 A 
ATOM      3  C   UNL     1       8.413  14.902 -15.908  1.00  0.00     0.180 A 
ATOM      4  O   UNL     1       7.760  14.152 -15.025  1.00  0.00    -0.452 OA
ATOM      5  C   UNL     1       9.899  13.033 -16.316  1.00  0.00     0.239 A 
ATOM      6  C   UNL     1       8.059  12.885 -14.768  1.00  0.00     0.146 A 
ATOM      7  O   UNL     1      10.991  12.606 -16.768  1.00  0.00    -0.285 OA
ATOM      8  C   UNL     1       9.126  12.242 -15.439  1.00  0.00     0.111 A 
ATOM      9  C   UNL     1       7.315  12.204 -13.804  1.00  0.00     0.094 A 
ATOM     10  C   UNL     1       9.385  10.870 -15.152  1.00  0.00     0.134 A 
ATOM     11  C   UNL     1       7.617  10.884 -13.479  1.00  0.00     0.123 A 
ATOM     12  C   UNL     1       8.650  10.225 -14.149  1.00  0.00     0.093 A 
BRANCH   3  13
ATOM     13  C   UNL     1       7.962  16.311 -16.060  1.00  0.00     0.025 A 
ATOM     14  C   UNL     1       7.621  17.118 -14.961  1.00  0.00     0.016 A 
ATOM     15  C   UNL     1       7.256  18.452 -15.146  1.00  0.00     0.051 A 
ATOM     16  C   UNL     1       7.234  19.019 -16.424  1.00  0.00     0.157 A 
ATOM     17  C   UNL     1       7.954  16.888 -17.343  1.00  0.00     0.062 A 
ATOM     18  C   UNL     1       7.591  18.227 -17.537  1.00  0.00     0.158 A 
BRANCH  16  19
ATOM     19  O   UNL     1       6.877  20.362 -16.537  1.00  0.00    -0.504 OA
ATOM     20  H   UNL     1       7.126  21.070 -15.859  1.00  0.00     0.293 HD
ENDBRANCH  16  19
BRANCH  18  21
ATOM     21  O   UNL     1       7.608  18.725 -18.844  1.00  0.00    -0.504 OA
ATOM     22  H   UNL     1       8.431  19.094 -19.296  1.00  0.00     0.293 HD
ENDBRANCH  18  21
ENDBRANCH   3  13
BRANCH  10  23
ATOM     23  O   UNL     1      10.324  10.097 -15.841  1.00  0.00    -0.507 OA
ATOM     24  H   UNL     1      10.466  10.127 -16.841  1.00  0.00     0.293 HD
ENDBRANCH  10  23
BRANCH  11  25
ATOM     25  O   UNL     1       6.876  10.231 -12.496  1.00  0.00    -0.508 OA
ATOM     26  H   UNL     1       7.282   9.991 -11.600  1.00  0.00     0.293 HD
ENDBRANCH  11  25
ENDBRANCH   1   2
BRANCH   1  27
ATOM     27  C   UNL     1      10.484  14.772 -18.878  1.00  0.00     0.339 C 
ATOM     28  C   UNL     1      10.228  16.003 -19.799  1.00  0.00     0.214 C 
ATOM     29  O   UNL     1       9.662  13.648 -19.188  1.00  0.00    -0.332 OA
ATOM     30  C   UNL     1       8.804  15.938 -20.370  1.00  0.00     0.180 C 
ATOM     31  C   UNL     1       9.499  13.485 -20.582  1.00  0.00     0.179 C 
ATOM     32  C   UNL     1       8.615  14.627 -21.172  1.00  0.00     0.177 C 
BRANCH  28  33
ATOM     33  O   UNL     1      10.424  17.197 -19.088  1.00  0.00    -0.384 OA
ATOM     34  H   UNL     1      10.936  16.967 -18.272  1.00  0.00     0.211 HD
ENDBRANCH  28  33
BRANCH  30  35
ATOM     35  O   UNL     1       8.566  17.034 -21.215  1.00  0.00    -0.387 OA
ATOM     36  H   UNL     1       8.451  17.829 -20.631  1.00  0.00     0.211 HD
ENDBRANCH  30  35
BRANCH  31  37
ATOM     37  C   UNL     1       8.946  12.081 -20.873  1.00  0.00     0.191 C 
BRANCH  37  38
ATOM     38  O   UNL     1       7.990  11.713 -19.914  1.00  0.00    -0.394 OA
ATOM     39  H   UNL     1       8.171  10.769 -19.657  1.00  0.00     0.210 HD
ENDBRANCH  37  38
ENDBRANCH  31  37
BRANCH  32  40
ATOM     40  O   UNL     1       7.253  14.278 -21.166  1.00  0.00    -0.387 OA
ATOM     41  H   UNL     1       6.740  15.131 -21.177  1.00  0.00     0.211 HD
ENDBRANCH  32  40
ENDBRANCH   1  27
TORSDOF 12
ENDMDL
MODEL 4
REMARK VINA RESULT:    -5.035      2.261      7.335
REMARK INTER + INTRA:          -8.584
REMARK INTER:                  -7.682
REMARK INTRA:                  -0.902
REMARK UNBOUND:                -1.194
REMARK SMILES O=c1c(O[C@H]2O[C@@H](CO)[C@@H](O)[C@H](O)[C@H]2O)c(-c2ccc(O)c(O)c2)oc2cc(O)cc(O)c12
REMARK SMILES IDX 4 1 3 2 16 3 25 4 2 5 26 6 1 7 33 8 27 9 31 10 28 11 30 12
REMARK SMILES IDX 17 13 18 14 19 15 20 16 24 17 22 18 21 19 23 21 32 23 29 25
REMARK SMILES IDX 5 27 14 28 6 29 12 30 7 31 10 32 15 33 13 35 8 37 9 38 11 40
REMARK H PARENT 21 20 23 22 32 24 29 26 15 34 13 36 9 39 11 41
REMARK Flexibility Score: inf
ROOT
ATOM      1  O   UNL     1       8.220  13.771 -18.441  1.00  0.00    -0.454 OA
ENDROOT
BRANCH   1   2
ATOM      2  C   UNL     1       8.000  14.950 -17.711  1.00  0.00     0.214 A 
ATOM      3  C   UNL     1       7.682  14.890 -16.337  1.00  0.00     0.180 A 
ATOM      4  O   UNL     1       7.435  16.016 -15.673  1.00  0.00    -0.452 OA
ATOM      5  C   UNL     1       7.999  16.207 -18.345  1.00  0.00     0.239 A 
ATOM      6  C   UNL     1       7.489  17.223 -16.221  1.00  0.00     0.146 A 
ATOM      7  O   UNL     1       8.065  16.258 -19.599  1.00  0.00    -0.285 OA
ATOM      8  C   UNL     1       7.820  17.385 -17.587  1.00  0.00     0.111 A 
ATOM      9  C   UNL     1       7.190  18.332 -15.429  1.00  0.00     0.094 A 
ATOM     10  C   UNL     1       7.899  18.704 -18.120  1.00  0.00     0.134 A 
ATOM     11  C   UNL     1       7.202  19.614 -15.972  1.00  0.00     0.123 A 
ATOM     12  C   UNL     1       7.550  19.795 -17.313  1.00  0.00     0.093 A 
BRANCH   3  13
ATOM     13  C   UNL     1       7.556  13.618 -15.577  1.00  0.00     0.025 A 
ATOM     14  C   UNL     1       6.922  12.481 -16.106  1.00  0.00     0.016 A 
ATOM     15  C   UNL     1       6.876  11.291 -15.379  1.00  0.00     0.051 A 
ATOM     16  C   UNL     1       7.469  11.199 -14.116  1.00  0.00     0.157 A 
ATOM     17  C   UNL     1       8.165  13.518 -14.313  1.00  0.00     0.062 A 
ATOM     18  C   UNL     1       8.125  12.327 -13.577  1.00  0.00     0.158 A 
BRANCH  16  19
ATOM     19  O   UNL     1       7.402   9.976 -13.450  1.00  0.00    -0.504 OA
ATOM     20  H   UNL     1       7.898   9.145 -13.746  1.00  0.00     0.293 HD
ENDBRANCH  16  19
BRANCH  18  21
ATOM     21  O   UNL     1       8.755  12.310 -12.328  1.00  0.00    -0.504 OA
ATOM     22  H   UNL     1       8.281  12.108 -11.461  1.00  0.00     0.293 HD
ENDBRANCH  18  21
ENDBRANCH   3  13
BRANCH  10  23
ATOM     23  O   UNL     1       8.340  18.994 -19.415  1.00  0.00    -0.507 OA
ATOM     24  H   UNL     1       9.088  18.506 -19.886  1.00  0.00     0.293 HD
ENDBRANCH  10  23
BRANCH  11  25
ATOM     25  O   UNL     1       6.876  20.705 -15.168  1.00  0.00    -0.508 OA
ATOM     26  H   UNL     1       6.190  21.391 -15.461  1.00  0.00     0.293 HD
ENDBRANCH  11  25
ENDBRANCH   1   2
BRANCH   1  27
ATOM     27  C   UNL     1       9.497  13.134 -18.563  1.00  0.00     0.339 C 
ATOM     28  C   UNL     1       9.299  11.674 -19.072  1.00  0.00     0.214 C 
ATOM     29  O   UNL     1      10.153  13.211 -17.299  1.00  0.00    -0.332 OA
ATOM     30  C   UNL     1       9.283  10.705 -17.880  1.00  0.00     0.180 C 
ATOM     31  C   UNL     1      11.192  12.260 -17.186  1.00  0.00     0.179 C 
ATOM     32  C   UNL     1      10.610  10.816 -17.091  1.00  0.00     0.177 C 
BRANCH  28  33
ATOM     33  O   UNL     1       8.111  11.569 -19.813  1.00  0.00    -0.384 OA
ATOM     34  H   UNL     1       8.163  12.243 -20.537  1.00  0.00     0.211 HD
ENDBRANCH  28  33
BRANCH  30  35
ATOM     35  O   UNL     1       9.120   9.384 -18.327  1.00  0.00    -0.387 OA
ATOM     36  H   UNL     1       8.155   9.166 -18.240  1.00  0.00     0.211 HD
ENDBRANCH  30  35
BRANCH  31  37
ATOM     37  C   UNL     1      12.097  12.627 -15.999  1.00  0.00     0.191 C 
BRANCH  37  38
ATOM     38  O   UNL     1      11.415  13.448 -15.088  1.00  0.00    -0.394 OA
ATOM     39  H   UNL     1      12.092  14.022 -14.639  1.00  0.00     0.210 HD
ENDBRANCH  37  38
ENDBRANCH  31  37
BRANCH  32  40
ATOM     40  O   UNL     1      10.382  10.439 -15.756  1.00  0.00    -0.387 OA
ATOM     41  H   UNL     1      11.074  10.899 -15.207  1.00  0.00     0.211 HD
ENDBRANCH  32  40
ENDBRANCH   1  27
TORSDOF 12
ENDMDL
MODEL 5
REMARK VINA RESULT:    -5.030      2.081      7.355
REMARK INTER + INTRA:          -8.576
REMARK INTER:                  -7.829
REMARK INTRA:                  -0.748
REMARK UNBOUND:                -1.194
REMARK SMILES O=c1c(O[C@H]2O[C@@H](CO)[C@@H](O)[C@H](O)[C@H]2O)c(-c2ccc(O)c(O)c2)oc2cc(O)cc(O)c12
REMARK SMILES IDX 4 1 3 2 16 3 25 4 2 5 26 6 1 7 33 8 27 9 31 10 28 11 30 12
REMARK SMILES IDX 17 13 18 14 19 15 20 16 24 17 22 18 21 19 23 21 32 23 29 25
REMARK SMILES IDX 5 27 14 28 6 29 12 30 7 31 10 32 15 33 13 35 8 37 9 38 11 40
REMARK H PARENT 21 20 23 22 32 24 29 26 15 34 13 36 9 39 11 41
REMARK Flexibility Score: inf
ROOT
ATOM      1  O   UNL     1       7.718  11.563 -18.511  1.00  0.00    -0.454 OA
ENDROOT
BRANCH   1   2
ATOM      2  C   UNL     1       7.891  12.956 -18.475  1.00  0.00     0.214 A 
ATOM      3  C   UNL     1       7.936  13.638 -17.240  1.00  0.00     0.180 A 
ATOM      4  O   UNL     1       8.058  14.961 -17.228  1.00  0.00    -0.452 OA
ATOM      5  C   UNL     1       7.930  13.714 -19.661  1.00  0.00     0.239 A 
ATOM      6  C   UNL     1       8.163  15.703 -18.323  1.00  0.00     0.146 A 
ATOM      7  O   UNL     1       7.674  13.149 -20.754  1.00  0.00    -0.285 OA
ATOM      8  C   UNL     1       8.148  15.107 -19.606  1.00  0.00     0.111 A 
ATOM      9  C   UNL     1       8.265  17.088 -18.187  1.00  0.00     0.094 A 
ATOM     10  C   UNL     1       8.299  15.944 -20.750  1.00  0.00     0.134 A 
ATOM     11  C   UNL     1       8.343  17.906 -19.310  1.00  0.00     0.123 A 
ATOM     12  C   UNL     1       8.355  17.333 -20.585  1.00  0.00     0.093 A 
BRANCH   3  13
ATOM     13  C   UNL     1       7.808  12.960 -15.921  1.00  0.00     0.025 A 
ATOM     14  C   UNL     1       6.923  11.890 -15.705  1.00  0.00     0.016 A 
ATOM     15  C   UNL     1       6.875  11.248 -14.467  1.00  0.00     0.051 A 
ATOM     16  C   UNL     1       7.713  11.645 -13.420  1.00  0.00     0.157 A 
ATOM     17  C   UNL     1       8.659  13.348 -14.872  1.00  0.00     0.062 A 
ATOM     18  C   UNL     1       8.619  12.708 -13.627  1.00  0.00     0.158 A 
BRANCH  16  19
ATOM     19  O   UNL     1       7.627  10.951 -12.215  1.00  0.00    -0.504 OA
ATOM     20  H   UNL     1       8.169  10.124 -12.001  1.00  0.00     0.293 HD
ENDBRANCH  16  19
BRANCH  18  21
ATOM     21  O   UNL     1       9.500  13.154 -12.635  1.00  0.00    -0.504 OA
ATOM     22  H   UNL     1      10.242  13.817 -12.797  1.00  0.00     0.293 HD
ENDBRANCH  18  21
ENDBRANCH   3  13
BRANCH  10  23
ATOM     23  O   UNL     1       8.428  15.458 -22.055  1.00  0.00    -0.507 OA
ATOM     24  H   UNL     1       8.867  14.582 -22.297  1.00  0.00     0.293 HD
ENDBRANCH  10  23
BRANCH  11  25
ATOM     25  O   UNL     1       8.420  19.289 -19.151  1.00  0.00    -0.508 OA
ATOM     26  H   UNL     1       9.041  19.709 -18.470  1.00  0.00     0.293 HD
ENDBRANCH  11  25
ENDBRANCH   1   2
BRANCH   1  27
ATOM     27  C   UNL     1       8.797  10.622 -18.451  1.00  0.00     0.339 C 
ATOM     28  C   UNL     1       8.260   9.254 -17.931  1.00  0.00     0.214 C 
ATOM     29  O   UNL     1       9.823  11.179 -17.632  1.00  0.00    -0.332 OA
ATOM     30  C   UNL     1       8.497   9.144 -16.417  1.00  0.00     0.180 C 
ATOM     31  C   UNL     1      10.712  10.187 -17.157  1.00  0.00     0.179 C 
ATOM     32  C   UNL     1      10.008   9.272 -16.108  1.00  0.00     0.177 C 
BRANCH  28  33
ATOM     33  O   UNL     1       6.896   9.116 -18.231  1.00  0.00    -0.384 OA
ATOM     34  H   UNL     1       6.635   8.197 -17.968  1.00  0.00     0.211 HD
ENDBRANCH  28  33
BRANCH  30  35
ATOM     35  O   UNL     1       8.031   7.908 -15.939  1.00  0.00    -0.387 OA
ATOM     36  H   UNL     1       7.446   7.527 -16.644  1.00  0.00     0.211 HD
ENDBRANCH  30  35
BRANCH  31  37
ATOM     37  C   UNL     1      11.986  10.858 -16.617  1.00  0.00     0.191 C 
BRANCH  37  38
ATOM     38  O   UNL     1      11.668  11.989 -15.850  1.00  0.00    -0.394 OA
ATOM     39  H   UNL     1      11.511  12.743 -16.481  1.00  0.00     0.210 HD
ENDBRANCH  37  38
ENDBRANCH  31  37
BRANCH  32  40
ATOM     40  O   UNL     1      10.169   9.768 -14.802  1.00  0.00    -0.387 OA
ATOM     41  H   UNL     1       9.373  10.334 -14.611  1.00  0.00     0.211 HD
ENDBRANCH  32  40
ENDBRANCH   1  27
TORSDOF 12
ENDMDL
MODEL 6
REMARK VINA RESULT:    -4.916      2.862      7.568
REMARK INTER + INTRA:          -8.409
REMARK INTER:                  -7.062
REMARK INTRA:                  -1.347
REMARK UNBOUND:                -1.194
REMARK SMILES O=c1c(O[C@H]2O[C@@H](CO)[C@@H](O)[C@H](O)[C@H]2O)c(-c2ccc(O)c(O)c2)oc2cc(O)cc(O)c12
REMARK SMILES IDX 4 1 3 2 16 3 25 4 2 5 26 6 1 7 33 8 27 9 31 10 28 11 30 12
REMARK SMILES IDX 17 13 18 14 19 15 20 16 24 17 22 18 21 19 23 21 32 23 29 25
REMARK SMILES IDX 5 27 14 28 6 29 12 30 7 31 10 32 15 33 13 35 8 37 9 38 11 40
REMARK H PARENT 21 20 23 22 32 24 29 26 15 34 13 36 9 39 11 41
REMARK Flexibility Score: inf
ROOT
ATOM      1  O   UNL     1       7.596  16.004 -18.303  1.00  0.00    -0.454 OA
ENDROOT
BRANCH   1   2
ATOM      2  C   UNL     1       7.541  16.848 -17.182  1.00  0.00     0.214 A 
ATOM      3  C   UNL     1       7.698  16.320 -15.883  1.00  0.00     0.180 A 
ATOM      4  O   UNL     1       7.599  17.129 -14.832  1.00  0.00    -0.452 OA
ATOM      5  C   UNL     1       7.235  18.216 -17.318  1.00  0.00     0.239 A 
ATOM      6  C   UNL     1       7.377  18.434 -14.923  1.00  0.00     0.146 A 
ATOM      7  O   UNL     1       6.880  18.653 -18.442  1.00  0.00    -0.285 OA
ATOM      8  C   UNL     1       7.227  19.057 -16.185  1.00  0.00     0.111 A 
ATOM      9  C   UNL     1       7.273  19.180 -13.748  1.00  0.00     0.094 A 
ATOM     10  C   UNL     1       7.025  20.467 -16.231  1.00  0.00     0.134 A 
ATOM     11  C   UNL     1       7.008  20.545 -13.798  1.00  0.00     0.123 A 
ATOM     12  C   UNL     1       6.881  21.182 -15.035  1.00  0.00     0.093 A 
BRANCH   3  13
ATOM     13  C   UNL     1       7.927  14.877 -15.603  1.00  0.00     0.025 A 
ATOM     14  C   UNL     1       6.876  13.946 -15.526  1.00  0.00     0.016 A 
ATOM     15  C   UNL     1       7.141  12.593 -15.317  1.00  0.00     0.051 A 
ATOM     16  C   UNL     1       8.455  12.130 -15.192  1.00  0.00     0.157 A 
ATOM     17  C   UNL     1       9.247  14.407 -15.493  1.00  0.00     0.062 A 
ATOM     18  C   UNL     1       9.523  13.049 -15.285  1.00  0.00     0.158 A 
BRANCH  16  19
ATOM     19  O   UNL     1       8.651  10.763 -15.002  1.00  0.00    -0.504 OA
ATOM     20  H   UNL     1       8.095  10.046 -15.450  1.00  0.00     0.293 HD
ENDBRANCH  16  19
BRANCH  18  21
ATOM     21  O   UNL     1      10.864  12.663 -15.187  1.00  0.00    -0.504 OA
ATOM     22  H   UNL     1      11.624  13.304 -15.024  1.00  0.00     0.293 HD
ENDBRANCH  18  21
ENDBRANCH   3  13
BRANCH  10  23
ATOM     23  O   UNL     1       6.992  21.208 -17.416  1.00  0.00    -0.507 OA
ATOM     24  H   UNL     1       7.509  22.061 -17.571  1.00  0.00     0.293 HD
ENDBRANCH  10  23
BRANCH  11  25
ATOM     25  O   UNL     1       6.883  21.265 -12.611  1.00  0.00    -0.508 OA
ATOM     26  H   UNL     1       6.334  22.115 -12.563  1.00  0.00     0.293 HD
ENDBRANCH  11  25
ENDBRANCH   1   2
BRANCH   1  27
ATOM     27  C   UNL     1       8.795  15.372 -18.769  1.00  0.00     0.339 C 
ATOM     28  C   UNL     1       9.050  15.776 -20.251  1.00  0.00     0.214 C 
ATOM     29  O   UNL     1       8.654  13.965 -18.579  1.00  0.00    -0.332 OA
ATOM     30  C   UNL     1       8.492  14.695 -21.190  1.00  0.00     0.180 C 
ATOM     31  C   UNL     1       9.559  13.233 -19.382  1.00  0.00     0.179 C 
ATOM     32  C   UNL     1       9.166  13.335 -20.888  1.00  0.00     0.177 C 
BRANCH  28  33
ATOM     33  O   UNL     1       8.466  17.023 -20.528  1.00  0.00    -0.384 OA
ATOM     34  H   UNL     1       9.062  17.484 -21.171  1.00  0.00     0.211 HD
ENDBRANCH  28  33
BRANCH  30  35
ATOM     35  O   UNL     1       8.730  15.042 -22.530  1.00  0.00    -0.387 OA
ATOM     36  H   UNL     1       7.878  14.899 -23.021  1.00  0.00     0.211 HD
ENDBRANCH  30  35
BRANCH  31  37
ATOM     37  C   UNL     1       9.639  11.784 -18.874  1.00  0.00     0.191 C 
BRANCH  37  38
ATOM     38  O   UNL     1      10.707  11.629 -17.977  1.00  0.00    -0.394 OA
ATOM     39  H   UNL     1      11.549  11.677 -18.504  1.00  0.00     0.210 HD
ENDBRANCH  37  38
ENDBRANCH  31  37
BRANCH  32  40
ATOM     40  O   UNL     1       8.294  12.298 -21.264  1.00  0.00    -0.387 OA
ATOM     41  H   UNL     1       8.384  12.192 -22.249  1.00  0.00     0.211 HD
ENDBRANCH  32  40
ENDBRANCH   1  27
TORSDOF 12
ENDMDL
MODEL 7
REMARK VINA RESULT:    -4.223      2.667      7.240
REMARK INTER + INTRA:          -7.392
REMARK INTER:                  -9.051
REMARK INTRA:                   1.659
REMARK UNBOUND:                -1.194
REMARK SMILES O=c1c(O[C@H]2O[C@@H](CO)[C@@H](O)[C@H](O)[C@H]2O)c(-c2ccc(O)c(O)c2)oc2cc(O)cc(O)c12
REMARK SMILES IDX 4 1 3 2 16 3 25 4 2 5 26 6 1 7 33 8 27 9 31 10 28 11 30 12
REMARK SMILES IDX 17 13 18 14 19 15 20 16 24 17 22 18 21 19 23 21 32 23 29 25
REMARK SMILES IDX 5 27 14 28 6 29 12 30 7 31 10 32 15 33 13 35 8 37 9 38 11 40
REMARK H PARENT 21 20 23 22 32 24 29 26 15 34 13 36 9 39 11 41
REMARK Flexibility Score: inf
ROOT
ATOM      1  O   UNL     1       7.357  14.708 -16.153  1.00  0.00    -0.454 OA
ENDROOT
BRANCH   1   2
ATOM      2  C   UNL     1       7.740  15.254 -17.389  1.00  0.00     0.214 A 
ATOM      3  C   UNL     1       7.831  16.653 -17.554  1.00  0.00     0.180 A 
ATOM      4  O   UNL     1       8.154  17.151 -18.743  1.00  0.00    -0.452 OA
ATOM      5  C   UNL     1       7.949  14.432 -18.512  1.00  0.00     0.239 A 
ATOM      6  C   UNL     1       8.422  16.406 -19.808  1.00  0.00     0.146 A 
ATOM      7  O   UNL     1       7.661  13.211 -18.436  1.00  0.00    -0.285 OA
ATOM      8  C   UNL     1       8.376  14.994 -19.734  1.00  0.00     0.111 A 
ATOM      9  C   UNL     1       8.729  17.043 -21.012  1.00  0.00     0.094 A 
ATOM     10  C   UNL     1       8.706  14.238 -20.896  1.00  0.00     0.134 A 
ATOM     11  C   UNL     1       8.984  16.300 -22.160  1.00  0.00     0.123 A 
ATOM     12  C   UNL     1       8.967  14.904 -22.101  1.00  0.00     0.093 A 
BRANCH   3  13
ATOM     13  C   UNL     1       7.539  17.630 -16.471  1.00  0.00     0.025 A 
ATOM     14  C   UNL     1       7.084  17.236 -15.201  1.00  0.00     0.016 A 
ATOM     15  C   UNL     1       6.876  18.181 -14.196  1.00  0.00     0.051 A 
ATOM     16  C   UNL     1       7.127  19.538 -14.425  1.00  0.00     0.157 A 
ATOM     17  C   UNL     1       7.805  18.993 -16.693  1.00  0.00     0.062 A 
ATOM     18  C   UNL     1       7.601  19.949 -15.690  1.00  0.00     0.158 A 
BRANCH  16  19
ATOM     19  O   UNL     1       6.914  20.429 -13.374  1.00  0.00    -0.504 OA
ATOM     20  H   UNL     1       6.603  21.383 -13.498  1.00  0.00     0.293 HD
ENDBRANCH  16  19
BRANCH  18  21
ATOM     21  O   UNL     1       7.890  21.284 -15.992  1.00  0.00    -0.504 OA
ATOM     22  H   UNL     1       7.701  21.713 -16.885  1.00  0.00     0.293 HD
ENDBRANCH  18  21
ENDBRANCH   3  13
BRANCH  10  23
ATOM     23  O   UNL     1       8.820  12.844 -20.909  1.00  0.00    -0.507 OA
ATOM     24  H   UNL     1       9.601  12.332 -20.526  1.00  0.00     0.293 HD
ENDBRANCH  10  23
BRANCH  11  25
ATOM     25  O   UNL     1       9.264  16.957 -23.357  1.00  0.00    -0.508 OA
ATOM     26  H   UNL     1       8.961  17.910 -23.521  1.00  0.00     0.293 HD
ENDBRANCH  11  25
ENDBRANCH   1   2
BRANCH   1  27
ATOM     27  C   UNL     1       8.008  13.590 -15.538  1.00  0.00     0.339 C 
ATOM     28  C   UNL     1       9.455  13.997 -15.128  1.00  0.00     0.214 C 
ATOM     29  O   UNL     1       7.961  12.495 -16.451  1.00  0.00    -0.332 OA
ATOM     30  C   UNL     1      10.446  13.568 -16.221  1.00  0.00     0.180 C 
ATOM     31  C   UNL     1       8.927  11.511 -16.140  1.00  0.00     0.179 C 
ATOM     32  C   UNL     1      10.365  12.037 -16.435  1.00  0.00     0.177 C 
BRANCH  28  33
ATOM     33  O   UNL     1       9.532  15.380 -14.903  1.00  0.00    -0.384 OA
ATOM     34  H   UNL     1       9.296  15.824 -15.757  1.00  0.00     0.211 HD
ENDBRANCH  28  33
BRANCH  30  35
ATOM     35  O   UNL     1      11.756  13.915 -15.855  1.00  0.00    -0.387 OA
ATOM     36  H   UNL     1      12.320  13.110 -15.998  1.00  0.00     0.211 HD
ENDBRANCH  30  35
BRANCH  31  37
ATOM     37  C   UNL     1       8.593  10.210 -16.889  1.00  0.00     0.191 C 
BRANCH  37  38
ATOM     38  O   UNL     1       8.362  10.464 -18.249  1.00  0.00    -0.394 OA
ATOM     39  H   UNL     1       8.819   9.749 -18.769  1.00  0.00     0.210 HD
ENDBRANCH  37  38
ENDBRANCH  31  37
BRANCH  32  40
ATOM     40  O   UNL     1      10.764  11.737 -17.750  1.00  0.00    -0.387 OA
ATOM     41  H   UNL     1      10.272  10.913 -18.017  1.00  0.00     0.211 HD
ENDBRANCH  32  40
ENDBRANCH   1  27
TORSDOF 12
ENDMDL
MODEL 8
REMARK VINA RESULT:    -4.102      1.575      4.379
REMARK INTER + INTRA:          -7.214
REMARK INTER:                  -6.295
REMARK INTRA:                  -0.919
REMARK UNBOUND:                -1.194
REMARK SMILES O=c1c(O[C@H]2O[C@@H](CO)[C@@H](O)[C@H](O)[C@H]2O)c(-c2ccc(O)c(O)c2)oc2cc(O)cc(O)c12
REMARK SMILES IDX 4 1 3 2 16 3 25 4 2 5 26 6 1 7 33 8 27 9 31 10 28 11 30 12
REMARK SMILES IDX 17 13 18 14 19 15 20 16 24 17 22 18 21 19 23 21 32 23 29 25
REMARK SMILES IDX 5 27 14 28 6 29 12 30 7 31 10 32 15 33 13 35 8 37 9 38 11 40
REMARK H PARENT 21 20 23 22 32 24 29 26 15 34 13 36 9 39 11 41
REMARK Flexibility Score: inf
ROOT
ATOM      1  O   UNL     1       8.087  10.933 -17.255  1.00  0.00    -0.454 OA
ENDROOT
BRANCH   1   2
ATOM      2  C   UNL     1       7.827  10.590 -15.918  1.00  0.00     0.214 A 
ATOM      3  C   UNL     1       7.760  11.590 -14.925  1.00  0.00     0.180 A 
ATOM      4  O   UNL     1       7.556  11.241 -13.658  1.00  0.00    -0.452 OA
ATOM      5  C   UNL     1       7.720   9.243 -15.522  1.00  0.00     0.239 A 
ATOM      6  C   UNL     1       7.385   9.988 -13.256  1.00  0.00     0.146 A 
ATOM      7  O   UNL     1       7.993   8.340 -16.352  1.00  0.00    -0.285 OA
ATOM      8  C   UNL     1       7.415   8.920 -14.182  1.00  0.00     0.111 A 
ATOM      9  C   UNL     1       7.197   9.741 -11.895  1.00  0.00     0.094 A 
ATOM     10  C   UNL     1       7.192   7.595 -13.705  1.00  0.00     0.134 A 
ATOM     11  C   UNL     1       7.049   8.439 -11.426  1.00  0.00     0.123 A 
ATOM     12  C   UNL     1       7.051   7.373 -12.329  1.00  0.00     0.093 A 
BRANCH   3  13
ATOM     13  C   UNL     1       7.954  13.039 -15.202  1.00  0.00     0.025 A 
ATOM     14  C   UNL     1       6.877  13.924 -15.383  1.00  0.00     0.016 A 
ATOM     15  C   UNL     1       7.104  15.285 -15.586  1.00  0.00     0.051 A 
ATOM     16  C   UNL     1       8.403  15.802 -15.601  1.00  0.00     0.157 A 
ATOM     17  C   UNL     1       9.259  13.563 -15.202  1.00  0.00     0.062 A 
ATOM     18  C   UNL     1       9.495  14.929 -15.403  1.00  0.00     0.158 A 
BRANCH  16  19
ATOM     19  O   UNL     1       8.559  17.174 -15.792  1.00  0.00    -0.504 OA
ATOM     20  H   UNL     1       9.078  17.774 -15.165  1.00  0.00     0.293 HD
ENDBRANCH  16  19
BRANCH  18  21
ATOM     21  O   UNL     1      10.823  15.371 -15.390  1.00  0.00    -0.504 OA
ATOM     22  H   UNL     1      11.137  16.196 -14.903  1.00  0.00     0.293 HD
ENDBRANCH  18  21
ENDBRANCH   3  13
BRANCH  10  23
ATOM     23  O   UNL     1       7.071   6.479 -14.539  1.00  0.00    -0.507 OA
ATOM     24  H   UNL     1       7.787   6.163 -15.177  1.00  0.00     0.293 HD
ENDBRANCH  10  23
BRANCH  11  25
ATOM     25  O   UNL     1       6.887   8.214 -10.060  1.00  0.00    -0.508 OA
ATOM     26  H   UNL     1       7.541   8.588  -9.382  1.00  0.00     0.293 HD
ENDBRANCH  11  25
ENDBRANCH   1   2
BRANCH   1  27
ATOM     27  C   UNL     1       7.267  11.818 -18.027  1.00  0.00     0.339 C 
ATOM     28  C   UNL     1       6.875  11.124 -19.365  1.00  0.00     0.214 C 
ATOM     29  O   UNL     1       7.984  13.039 -18.208  1.00  0.00    -0.332 OA
ATOM     30  C   UNL     1       7.840  11.557 -20.479  1.00  0.00     0.180 C 
ATOM     31  C   UNL     1       7.475  13.792 -19.290  1.00  0.00     0.179 C 
ATOM     32  C   UNL     1       7.798  13.095 -20.647  1.00  0.00     0.177 C 
BRANCH  28  33
ATOM     33  O   UNL     1       6.884   9.728 -19.216  1.00  0.00    -0.384 OA
ATOM     34  H   UNL     1       7.264   9.352 -20.049  1.00  0.00     0.211 HD
ENDBRANCH  28  33
BRANCH  30  35
ATOM     35  O   UNL     1       7.487  10.949 -21.695  1.00  0.00    -0.387 OA
ATOM     36  H   UNL     1       7.599   9.970 -21.572  1.00  0.00     0.211 HD
ENDBRANCH  30  35
BRANCH  31  37
ATOM     37  C   UNL     1       8.007  15.232 -19.207  1.00  0.00     0.191 C 
BRANCH  37  38
ATOM     38  O   UNL     1       9.387  15.240 -18.957  1.00  0.00    -0.394 OA
ATOM     39  H   UNL     1       9.513  15.371 -17.978  1.00  0.00     0.210 HD
ENDBRANCH  37  38
ENDBRANCH  31  37
BRANCH  32  40
ATOM     40  O   UNL     1       9.027  13.533 -21.172  1.00  0.00    -0.387 OA
ATOM     41  H   UNL     1       9.104  13.142 -22.083  1.00  0.00     0.211 HD
ENDBRANCH  32  40
ENDBRANCH   1  27
TORSDOF 12
ENDMDL
