MODEL 1
REMARK VINA RESULT:    -6.301      0.000      0.000
REMARK INTER + INTRA:          -7.912
REMARK INTER:                  -7.590
REMARK INTRA:                  -0.323
REMARK UNBOUND:                -0.323
REMARK SMILES O=c1c(O)c(-c2ccc(O)c(O)c2)oc2cc(O)cc(O)c12
REMARK SMILES IDX 5 1 3 2 2 3 1 4 22 5 20 6 19 7 17 8 16 9 15 10 14 11 6 12
REMARK SMILES IDX 7 13 8 14 9 15 13 16 11 17 10 18 12 20 4 22 21 24 18 26
REMARK H PARENT 10 19 12 21 4 23 21 25 18 27
REMARK Flexibility Score: inf
ROOT
ATOM      1  C   UNL     1      60.041  29.124  24.493  1.00  0.00     0.180 A 
ATOM      2  C   UNL     1      59.311  30.314  24.331  1.00  0.00     0.208 A 
ATOM      3  C   UNL     1      59.402  31.010  23.115  1.00  0.00     0.238 A 
ATOM      4  O   UNL     1      58.789  32.103  22.996  1.00  0.00    -0.285 OA
ATOM      5  C   UNL     1      60.209  30.499  22.070  1.00  0.00     0.111 A 
ATOM      6  C   UNL     1      60.344  31.100  20.783  1.00  0.00     0.134 A 
ATOM      7  C   UNL     1      61.271  30.580  19.871  1.00  0.00     0.093 A 
ATOM      8  C   UNL     1      62.020  29.441  20.177  1.00  0.00     0.123 A 
ATOM      9  C   UNL     1      61.852  28.813  21.409  1.00  0.00     0.094 A 
ATOM     10  C   UNL     1      60.962  29.329  22.353  1.00  0.00     0.146 A 
ATOM     11  O   UNL     1      60.840  28.706  23.518  1.00  0.00    -0.452 OA
ENDROOT
BRANCH   1  12
ATOM     12  C   UNL     1      59.977  28.323  25.737  1.00  0.00     0.025 A 
ATOM     13  C   UNL     1      60.844  28.576  26.814  1.00  0.00     0.016 A 
ATOM     14  C   UNL     1      60.749  27.823  27.988  1.00  0.00     0.051 A 
ATOM     15  C   UNL     1      59.780  26.818  28.106  1.00  0.00     0.157 A 
ATOM     16  C   UNL     1      58.994  27.329  25.869  1.00  0.00     0.062 A 
ATOM     17  C   UNL     1      58.899  26.572  27.046  1.00  0.00     0.158 A 
BRANCH  15  18
ATOM     18  O   UNL     1      59.685  26.063  29.274  1.00  0.00    -0.504 OA
ATOM     19  H   UNL     1      58.802  25.944  29.758  1.00  0.00     0.293 HD
ENDBRANCH  15  18
BRANCH  17  20
ATOM     20  O   UNL     1      57.932  25.576  27.169  1.00  0.00    -0.504 OA
ATOM     21  H   UNL     1      58.160  24.658  27.533  1.00  0.00     0.293 HD
ENDBRANCH  17  20
ENDBRANCH   1  12
BRANCH   2  22
ATOM     22  O   UNL     1      58.538  30.813  25.384  1.00  0.00    -0.502 OA
ATOM     23  H   UNL     1      58.250  31.783  25.435  1.00  0.00     0.293 HD
ENDBRANCH   2  22
BRANCH   6  24
ATOM     24  O   UNL     1      59.577  32.184  20.343  1.00  0.00    -0.507 OA
ATOM     25  H   UNL     1      59.438  32.433  19.376  1.00  0.00     0.293 HD
ENDBRANCH   6  24
BRANCH   8  26
ATOM     26  O   UNL     1      62.929  28.920  19.258  1.00  0.00    -0.508 OA
ATOM     27  H   UNL     1      63.798  29.396  19.044  1.00  0.00     0.293 HD
ENDBRANCH   8  26
TORSDOF 6
ENDMDL
MODEL 2
REMARK VINA RESULT:    -6.205      3.032      5.107
REMARK INTER + INTRA:          -7.798
REMARK INTER:                  -7.565
REMARK INTRA:                  -0.233
REMARK UNBOUND:                -0.323
REMARK SMILES O=c1c(O)c(-c2ccc(O)c(O)c2)oc2cc(O)cc(O)c12
REMARK SMILES IDX 5 1 3 2 2 3 1 4 22 5 20 6 19 7 17 8 16 9 15 10 14 11 6 12
REMARK SMILES IDX 7 13 8 14 9 15 13 16 11 17 10 18 12 20 4 22 21 24 18 26
REMARK H PARENT 10 19 12 21 4 23 21 25 18 27
REMARK Flexibility Score: inf
ROOT
ATOM      1  C   UNL     1      57.752  27.765  27.055  1.00  0.00     0.180 A 
ATOM      2  C   UNL     1      58.838  26.915  27.326  1.00  0.00     0.208 A 
ATOM      3  C   UNL     1      60.045  27.110  26.635  1.00  0.00     0.238 A 
ATOM      4  O   UNL     1      60.996  26.313  26.843  1.00  0.00    -0.285 OA
ATOM      5  C   UNL     1      60.155  28.162  25.694  1.00  0.00     0.111 A 
ATOM      6  C   UNL     1      61.343  28.476  24.967  1.00  0.00     0.134 A 
ATOM      7  C   UNL     1      61.300  29.455  23.966  1.00  0.00     0.093 A 
ATOM      8  C   UNL     1      60.131  30.176  23.712  1.00  0.00     0.123 A 
ATOM      9  C   UNL     1      58.983  29.917  24.458  1.00  0.00     0.094 A 
ATOM     10  C   UNL     1      58.984  28.922  25.438  1.00  0.00     0.146 A 
ATOM     11  O   UNL     1      57.866  28.701  26.119  1.00  0.00    -0.452 OA
ENDROOT
BRANCH   1  12
ATOM     12  C   UNL     1      56.456  27.637  27.760  1.00  0.00     0.025 A 
ATOM     13  C   UNL     1      56.036  28.596  28.698  1.00  0.00     0.016 A 
ATOM     14  C   UNL     1      54.798  28.468  29.333  1.00  0.00     0.051 A 
ATOM     15  C   UNL     1      53.957  27.390  29.029  1.00  0.00     0.157 A 
ATOM     16  C   UNL     1      55.599  26.570  27.444  1.00  0.00     0.062 A 
ATOM     17  C   UNL     1      54.356  26.441  28.081  1.00  0.00     0.158 A 
BRANCH  15  18
ATOM     18  O   UNL     1      52.722  27.258  29.663  1.00  0.00    -0.504 OA
ATOM     19  H   UNL     1      52.052  28.019  29.682  1.00  0.00     0.293 HD
ENDBRANCH  15  18
BRANCH  17  20
ATOM     20  O   UNL     1      53.514  25.373  27.777  1.00  0.00    -0.504 OA
ATOM     21  H   UNL     1      53.829  24.595  27.208  1.00  0.00     0.293 HD
ENDBRANCH  17  20
ENDBRANCH   1  12
BRANCH   2  22
ATOM     22  O   UNL     1      58.700  25.869  28.243  1.00  0.00    -0.502 OA
ATOM     23  H   UNL     1      57.820  25.388  28.389  1.00  0.00     0.293 HD
ENDBRANCH   2  22
BRANCH   6  24
ATOM     24  O   UNL     1      62.585  27.881  25.204  1.00  0.00    -0.507 OA
ATOM     25  H   UNL     1      62.799  26.911  25.030  1.00  0.00     0.293 HD
ENDBRANCH   6  24
BRANCH   8  26
ATOM     26  O   UNL     1      60.102  31.159  22.725  1.00  0.00    -0.508 OA
ATOM     27  H   UNL     1      60.166  32.144  22.957  1.00  0.00     0.293 HD
ENDBRANCH   8  26
TORSDOF 6
ENDMDL
MODEL 3
REMARK VINA RESULT:    -6.163      0.695      1.496
REMARK INTER + INTRA:          -7.747
REMARK INTER:                  -7.421
REMARK INTRA:                  -0.326
REMARK UNBOUND:                -0.323
REMARK SMILES O=c1c(O)c(-c2ccc(O)c(O)c2)oc2cc(O)cc(O)c12
REMARK SMILES IDX 5 1 3 2 2 3 1 4 22 5 20 6 19 7 17 8 16 9 15 10 14 11 6 12
REMARK SMILES IDX 7 13 8 14 9 15 13 16 11 17 10 18 12 20 4 22 21 24 18 26
REMARK H PARENT 10 19 12 21 4 23 21 25 18 27
REMARK Flexibility Score: inf
ROOT
ATOM      1  C   UNL     1      59.930  28.991  24.550  1.00  0.00     0.180 A 
ATOM      2  C   UNL     1      59.111  30.117  24.362  1.00  0.00     0.208 A 
ATOM      3  C   UNL     1      59.157  30.797  23.135  1.00  0.00     0.238 A 
ATOM      4  O   UNL     1      58.461  31.836  22.992  1.00  0.00    -0.285 OA
ATOM      5  C   UNL     1      60.009  30.331  22.104  1.00  0.00     0.111 A 
ATOM      6  C   UNL     1      60.105  30.919  20.807  1.00  0.00     0.134 A 
ATOM      7  C   UNL     1      61.077  30.456  19.910  1.00  0.00     0.093 A 
ATOM      8  C   UNL     1      61.911  29.385  20.241  1.00  0.00     0.123 A 
ATOM      9  C   UNL     1      61.784  28.768  21.484  1.00  0.00     0.094 A 
ATOM     10  C   UNL     1      60.848  29.230  22.412  1.00  0.00     0.146 A 
ATOM     11  O   UNL     1      60.767  28.619  23.588  1.00  0.00    -0.452 OA
ENDROOT
BRANCH   1  12
ATOM     12  C   UNL     1      59.920  28.209  25.808  1.00  0.00     0.025 A 
ATOM     13  C   UNL     1      58.965  27.203  26.035  1.00  0.00     0.016 A 
ATOM     14  C   UNL     1      58.989  26.461  27.218  1.00  0.00     0.051 A 
ATOM     15  C   UNL     1      59.975  26.703  28.184  1.00  0.00     0.157 A 
ATOM     16  C   UNL     1      60.918  28.433  26.770  1.00  0.00     0.062 A 
ATOM     17  C   UNL     1      60.942  27.689  27.959  1.00  0.00     0.158 A 
BRANCH  15  18
ATOM     18  O   UNL     1      60.000  25.966  29.367  1.00  0.00    -0.504 OA
ATOM     19  H   UNL     1      59.156  25.568  29.761  1.00  0.00     0.293 HD
ENDBRANCH  15  18
BRANCH  17  20
ATOM     20  O   UNL     1      61.925  27.923  28.918  1.00  0.00    -0.504 OA
ATOM     21  H   UNL     1      61.829  27.587  29.870  1.00  0.00     0.293 HD
ENDBRANCH  17  20
ENDBRANCH   1  12
BRANCH   2  22
ATOM     22  O   UNL     1      58.293  30.572  25.401  1.00  0.00    -0.502 OA
ATOM     23  H   UNL     1      58.310  30.159  26.326  1.00  0.00     0.293 HD
ENDBRANCH   2  22
BRANCH   6  24
ATOM     24  O   UNL     1      59.260  31.931  20.342  1.00  0.00    -0.507 OA
ATOM     25  H   UNL     1      59.101  32.808  20.815  1.00  0.00     0.293 HD
ENDBRANCH   6  24
BRANCH   8  26
ATOM     26  O   UNL     1      62.865  28.921  19.338  1.00  0.00    -0.508 OA
ATOM     27  H   UNL     1      63.703  29.452  19.133  1.00  0.00     0.293 HD
ENDBRANCH   8  26
TORSDOF 6
ENDMDL
MODEL 4
REMARK VINA RESULT:    -6.079      2.364      7.255
REMARK INTER + INTRA:          -7.645
REMARK INTER:                  -7.353
REMARK INTRA:                  -0.292
REMARK UNBOUND:                -0.323
REMARK SMILES O=c1c(O)c(-c2ccc(O)c(O)c2)oc2cc(O)cc(O)c12
REMARK SMILES IDX 5 1 3 2 2 3 1 4 22 5 20 6 19 7 17 8 16 9 15 10 14 11 6 12
REMARK SMILES IDX 7 13 8 14 9 15 13 16 11 17 10 18 12 20 4 22 21 24 18 26
REMARK H PARENT 10 19 12 21 4 23 21 25 18 27
REMARK Flexibility Score: inf
ROOT
ATOM      1  C   UNL     1      61.481  30.368  23.820  1.00  0.00     0.180 A 
ATOM      2  C   UNL     1      61.085  29.040  24.053  1.00  0.00     0.208 A 
ATOM      3  C   UNL     1      61.053  28.560  25.372  1.00  0.00     0.238 A 
ATOM      4  O   UNL     1      60.751  27.354  25.570  1.00  0.00    -0.285 OA
ATOM      5  C   UNL     1      61.401  29.419  26.443  1.00  0.00     0.111 A 
ATOM      6  C   UNL     1      61.365  29.051  27.821  1.00  0.00     0.134 A 
ATOM      7  C   UNL     1      61.855  29.940  28.787  1.00  0.00     0.093 A 
ATOM      8  C   UNL     1      62.318  31.208  28.428  1.00  0.00     0.123 A 
ATOM      9  C   UNL     1      62.302  31.598  27.091  1.00  0.00     0.094 A 
ATOM     10  C   UNL     1      61.853  30.721  26.102  1.00  0.00     0.146 A 
ATOM     11  O   UNL     1      61.864  31.129  24.839  1.00  0.00    -0.452 OA
ENDROOT
BRANCH   1  12
ATOM     12  C   UNL     1      61.516  30.953  22.460  1.00  0.00     0.025 A 
ATOM     13  C   UNL     1      62.717  31.040  21.733  1.00  0.00     0.016 A 
ATOM     14  C   UNL     1      62.723  31.573  20.441  1.00  0.00     0.051 A 
ATOM     15  C   UNL     1      61.530  32.012  19.853  1.00  0.00     0.157 A 
ATOM     16  C   UNL     1      60.320  31.375  21.856  1.00  0.00     0.062 A 
ATOM     17  C   UNL     1      60.326  31.911  20.560  1.00  0.00     0.158 A 
BRANCH  15  18
ATOM     18  O   UNL     1      61.533  32.547  18.565  1.00  0.00    -0.504 OA
ATOM     19  H   UNL     1      61.166  33.472  18.375  1.00  0.00     0.293 HD
ENDBRANCH  15  18
BRANCH  17  20
ATOM     20  O   UNL     1      59.140  32.343  19.970  1.00  0.00    -0.504 OA
ATOM     21  H   UNL     1      58.772  31.901  19.135  1.00  0.00     0.293 HD
ENDBRANCH  17  20
ENDBRANCH   1  12
BRANCH   2  22
ATOM     22  O   UNL     1      60.768  28.202  22.980  1.00  0.00    -0.502 OA
ATOM     23  H   UNL     1      60.653  28.550  22.035  1.00  0.00     0.293 HD
ENDBRANCH   2  22
BRANCH   6  24
ATOM     24  O   UNL     1      60.837  27.845  28.294  1.00  0.00    -0.507 OA
ATOM     25  H   UNL     1      59.868  27.696  28.528  1.00  0.00     0.293 HD
ENDBRANCH   6  24
BRANCH   8  26
ATOM     26  O   UNL     1      62.789  32.092  29.397  1.00  0.00    -0.508 OA
ATOM     27  H   UNL     1      63.574  31.856  29.993  1.00  0.00     0.293 HD
ENDBRANCH   8  26
TORSDOF 6
ENDMDL
MODEL 5
REMARK VINA RESULT:    -6.076      1.481      1.854
REMARK INTER + INTRA:          -7.642
REMARK INTER:                  -7.331
REMARK INTRA:                  -0.312
REMARK UNBOUND:                -0.323
REMARK SMILES O=c1c(O)c(-c2ccc(O)c(O)c2)oc2cc(O)cc(O)c12
REMARK SMILES IDX 5 1 3 2 2 3 1 4 22 5 20 6 19 7 17 8 16 9 15 10 14 11 6 12
REMARK SMILES IDX 7 13 8 14 9 15 13 16 11 17 10 18 12 20 4 22 21 24 18 26
REMARK H PARENT 10 19 12 21 4 23 21 25 18 27
REMARK Flexibility Score: inf
ROOT
ATOM      1  C   UNL     1      61.256  30.285  24.670  1.00  0.00     0.180 A 
ATOM      2  C   UNL     1      60.460  31.412  24.398  1.00  0.00     0.208 A 
ATOM      3  C   UNL     1      60.281  31.814  23.065  1.00  0.00     0.238 A 
ATOM      4  O   UNL     1      59.612  32.855  22.832  1.00  0.00    -0.285 OA
ATOM      5  C   UNL     1      60.884  31.074  22.019  1.00  0.00     0.111 A 
ATOM      6  C   UNL     1      60.735  31.368  20.631  1.00  0.00     0.134 A 
ATOM      7  C   UNL     1      61.484  30.649  19.689  1.00  0.00     0.093 A 
ATOM      8  C   UNL     1      62.324  29.605  20.083  1.00  0.00     0.123 A 
ATOM      9  C   UNL     1      62.430  29.273  21.432  1.00  0.00     0.094 A 
ATOM     10  C   UNL     1      61.724  29.995  22.397  1.00  0.00     0.146 A 
ATOM     11  O   UNL     1      61.862  29.652  23.672  1.00  0.00    -0.452 OA
ENDROOT
BRANCH   1  12
ATOM     12  C   UNL     1      61.472  29.786  26.048  1.00  0.00     0.025 A 
ATOM     13  C   UNL     1      62.468  30.335  26.875  1.00  0.00     0.016 A 
ATOM     14  C   UNL     1      62.638  29.865  28.180  1.00  0.00     0.051 A 
ATOM     15  C   UNL     1      61.809  28.853  28.681  1.00  0.00     0.157 A 
ATOM     16  C   UNL     1      60.630  28.787  26.562  1.00  0.00     0.062 A 
ATOM     17  C   UNL     1      60.801  28.315  27.871  1.00  0.00     0.158 A 
BRANCH  15  18
ATOM     18  O   UNL     1      61.978  28.381  29.982  1.00  0.00    -0.504 OA
ATOM     19  H   UNL     1      61.663  27.457  30.255  1.00  0.00     0.293 HD
ENDBRANCH  15  18
BRANCH  17  20
ATOM     20  O   UNL     1      59.974  27.313  28.374  1.00  0.00    -0.504 OA
ATOM     21  H   UNL     1      59.533  26.634  27.764  1.00  0.00     0.293 HD
ENDBRANCH  17  20
ENDBRANCH   1  12
BRANCH   2  22
ATOM     22  O   UNL     1      59.893  32.140  25.448  1.00  0.00    -0.502 OA
ATOM     23  H   UNL     1      59.350  31.701  26.183  1.00  0.00     0.293 HD
ENDBRANCH   2  22
BRANCH   6  24
ATOM     24  O   UNL     1      59.854  32.328  20.124  1.00  0.00    -0.507 OA
ATOM     25  H   UNL     1      59.508  32.347  19.178  1.00  0.00     0.293 HD
ENDBRANCH   6  24
BRANCH   8  26
ATOM     26  O   UNL     1      63.053  28.884  19.139  1.00  0.00    -0.508 OA
ATOM     27  H   UNL     1      62.706  28.013  18.755  1.00  0.00     0.293 HD
ENDBRANCH   8  26
TORSDOF 6
ENDMDL
MODEL 6
REMARK VINA RESULT:    -6.031      1.666      6.565
REMARK INTER + INTRA:          -7.588
REMARK INTER:                  -7.255
REMARK INTRA:                  -0.333
REMARK UNBOUND:                -0.323
REMARK SMILES O=c1c(O)c(-c2ccc(O)c(O)c2)oc2cc(O)cc(O)c12
REMARK SMILES IDX 5 1 3 2 2 3 1 4 22 5 20 6 19 7 17 8 16 9 15 10 14 11 6 12
REMARK SMILES IDX 7 13 8 14 9 15 13 16 11 17 10 18 12 20 4 22 21 24 18 26
REMARK H PARENT 10 19 12 21 4 23 21 25 18 27
REMARK Flexibility Score: inf
ROOT
ATOM      1  C   UNL     1      60.047  29.676  23.986  1.00  0.00     0.180 A 
ATOM      2  C   UNL     1      58.746  30.207  23.999  1.00  0.00     0.208 A 
ATOM      3  C   UNL     1      57.862  29.820  25.019  1.00  0.00     0.238 A 
ATOM      4  O   UNL     1      56.682  30.257  24.995  1.00  0.00    -0.285 OA
ATOM      5  C   UNL     1      58.295  28.920  26.022  1.00  0.00     0.111 A 
ATOM      6  C   UNL     1      57.497  28.491  27.125  1.00  0.00     0.134 A 
ATOM      7  C   UNL     1      57.983  27.497  27.984  1.00  0.00     0.093 A 
ATOM      8  C   UNL     1      59.264  26.965  27.818  1.00  0.00     0.123 A 
ATOM      9  C   UNL     1      60.073  27.421  26.779  1.00  0.00     0.094 A 
ATOM     10  C   UNL     1      59.603  28.385  25.885  1.00  0.00     0.146 A 
ATOM     11  O   UNL     1      60.402  28.783  24.903  1.00  0.00    -0.452 OA
ENDROOT
BRANCH   1  12
ATOM     12  C   UNL     1      61.043  30.054  22.957  1.00  0.00     0.025 A 
ATOM     13  C   UNL     1      61.872  31.178  23.122  1.00  0.00     0.016 A 
ATOM     14  C   UNL     1      62.822  31.502  22.149  1.00  0.00     0.051 A 
ATOM     15  C   UNL     1      62.967  30.702  21.009  1.00  0.00     0.157 A 
ATOM     16  C   UNL     1      61.207  29.244  21.822  1.00  0.00     0.062 A 
ATOM     17  C   UNL     1      62.160  29.570  20.846  1.00  0.00     0.158 A 
BRANCH  15  18
ATOM     18  O   UNL     1      63.912  31.025  20.035  1.00  0.00    -0.504 OA
ATOM     19  H   UNL     1      64.184  30.360  19.321  1.00  0.00     0.293 HD
ENDBRANCH  15  18
BRANCH  17  20
ATOM     20  O   UNL     1      62.310  28.772  19.713  1.00  0.00    -0.504 OA
ATOM     21  H   UNL     1      62.928  29.039  18.954  1.00  0.00     0.293 HD
ENDBRANCH  17  20
ENDBRANCH   1  12
BRANCH   2  22
ATOM     22  O   UNL     1      58.332  31.077  22.986  1.00  0.00    -0.502 OA
ATOM     23  H   UNL     1      57.952  31.995  23.181  1.00  0.00     0.293 HD
ENDBRANCH   2  22
BRANCH   6  24
ATOM     24  O   UNL     1      56.242  29.024  27.435  1.00  0.00    -0.507 OA
ATOM     25  H   UNL     1      55.696  29.604  26.816  1.00  0.00     0.293 HD
ENDBRANCH   6  24
BRANCH   8  26
ATOM     26  O   UNL     1      59.746  25.989  28.687  1.00  0.00    -0.508 OA
ATOM     27  H   UNL     1      59.196  25.659  29.471  1.00  0.00     0.293 HD
ENDBRANCH   8  26
TORSDOF 6
ENDMDL
MODEL 7
REMARK VINA RESULT:    -5.950      2.893      3.553
REMARK INTER + INTRA:          -7.490
REMARK INTER:                  -7.208
REMARK INTRA:                  -0.282
REMARK UNBOUND:                -0.323
REMARK SMILES O=c1c(O)c(-c2ccc(O)c(O)c2)oc2cc(O)cc(O)c12
REMARK SMILES IDX 5 1 3 2 2 3 1 4 22 5 20 6 19 7 17 8 16 9 15 10 14 11 6 12
REMARK SMILES IDX 7 13 8 14 9 15 13 16 11 17 10 18 12 20 4 22 21 24 18 26
REMARK H PARENT 10 19 12 21 4 23 21 25 18 27
REMARK Flexibility Score: inf
ROOT
ATOM      1  C   UNL     1      61.433  31.263  24.625  1.00  0.00     0.180 A 
ATOM      2  C   UNL     1      60.117  31.664  24.339  1.00  0.00     0.208 A 
ATOM      3  C   UNL     1      59.587  31.402  23.065  1.00  0.00     0.238 A 
ATOM      4  O   UNL     1      58.427  31.811  22.797  1.00  0.00    -0.285 OA
ATOM      5  C   UNL     1      60.374  30.729  22.099  1.00  0.00     0.111 A 
ATOM      6  C   UNL     1      59.924  30.377  20.791  1.00  0.00     0.134 A 
ATOM      7  C   UNL     1      60.831  29.829  19.874  1.00  0.00     0.093 A 
ATOM      8  C   UNL     1      62.152  29.561  20.240  1.00  0.00     0.123 A 
ATOM      9  C   UNL     1      62.584  29.847  21.533  1.00  0.00     0.094 A 
ATOM     10  C   UNL     1      61.713  30.427  22.459  1.00  0.00     0.146 A 
ATOM     11  O   UNL     1      62.168  30.693  23.677  1.00  0.00    -0.452 OA
ENDROOT
BRANCH   1  12
ATOM     12  C   UNL     1      62.053  31.482  25.952  1.00  0.00     0.025 A 
ATOM     13  C   UNL     1      62.540  32.745  26.332  1.00  0.00     0.016 A 
ATOM     14  C   UNL     1      63.099  32.935  27.598  1.00  0.00     0.051 A 
ATOM     15  C   UNL     1      63.165  31.871  28.508  1.00  0.00     0.157 A 
ATOM     16  C   UNL     1      62.102  30.425  26.876  1.00  0.00     0.062 A 
ATOM     17  C   UNL     1      62.664  30.615  28.147  1.00  0.00     0.158 A 
BRANCH  15  18
ATOM     18  O   UNL     1      63.724  32.056  29.771  1.00  0.00    -0.504 OA
ATOM     19  H   UNL     1      64.044  32.967  30.081  1.00  0.00     0.293 HD
ENDBRANCH  15  18
BRANCH  17  20
ATOM     20  O   UNL     1      62.725  29.560  29.056  1.00  0.00    -0.504 OA
ATOM     21  H   UNL     1      63.020  29.703  30.015  1.00  0.00     0.293 HD
ENDBRANCH  17  20
ENDBRANCH   1  12
BRANCH   2  22
ATOM     22  O   UNL     1      59.365  32.347  25.299  1.00  0.00    -0.502 OA
ATOM     23  H   UNL     1      58.586  31.918  25.785  1.00  0.00     0.293 HD
ENDBRANCH   2  22
BRANCH   6  24
ATOM     24  O   UNL     1      58.603  30.517  20.355  1.00  0.00    -0.507 OA
ATOM     25  H   UNL     1      58.063  31.365  20.427  1.00  0.00     0.293 HD
ENDBRANCH   6  24
BRANCH   8  26
ATOM     26  O   UNL     1      63.043  29.002  19.326  1.00  0.00    -0.508 OA
ATOM     27  H   UNL     1      63.796  28.394  19.626  1.00  0.00     0.293 HD
ENDBRANCH   8  26
TORSDOF 6
ENDMDL
MODEL 8
REMARK VINA RESULT:    -5.914      1.886      6.915
REMARK INTER + INTRA:          -7.446
REMARK INTER:                  -7.203
REMARK INTRA:                  -0.244
REMARK UNBOUND:                -0.323
REMARK SMILES O=c1c(O)c(-c2ccc(O)c(O)c2)oc2cc(O)cc(O)c12
REMARK SMILES IDX 5 1 3 2 2 3 1 4 22 5 20 6 19 7 17 8 16 9 15 10 14 11 6 12
REMARK SMILES IDX 7 13 8 14 9 15 13 16 11 17 10 18 12 20 4 22 21 24 18 26
REMARK H PARENT 10 19 12 21 4 23 21 25 18 27
REMARK Flexibility Score: inf
ROOT
ATOM      1  C   UNL     1      59.034  30.136  24.626  1.00  0.00     0.180 A 
ATOM      2  C   UNL     1      57.737  29.837  25.079  1.00  0.00     0.208 A 
ATOM      3  C   UNL     1      57.579  29.209  26.325  1.00  0.00     0.238 A 
ATOM      4  O   UNL     1      56.419  28.895  26.701  1.00  0.00    -0.285 OA
ATOM      5  C   UNL     1      58.717  28.904  27.110  1.00  0.00     0.111 A 
ATOM      6  C   UNL     1      58.671  28.306  28.404  1.00  0.00     0.134 A 
ATOM      7  C   UNL     1      59.865  27.929  29.034  1.00  0.00     0.093 A 
ATOM      8  C   UNL     1      61.104  28.189  28.443  1.00  0.00     0.123 A 
ATOM      9  C   UNL     1      61.160  28.826  27.205  1.00  0.00     0.094 A 
ATOM     10  C   UNL     1      59.986  29.182  26.537  1.00  0.00     0.146 A 
ATOM     11  O   UNL     1      60.084  29.778  25.355  1.00  0.00    -0.452 OA
ENDROOT
BRANCH   1  12
ATOM     12  C   UNL     1      59.280  30.819  23.335  1.00  0.00     0.025 A 
ATOM     13  C   UNL     1      58.953  32.173  23.150  1.00  0.00     0.016 A 
ATOM     14  C   UNL     1      59.216  32.803  21.931  1.00  0.00     0.051 A 
ATOM     15  C   UNL     1      59.822  32.094  20.886  1.00  0.00     0.157 A 
ATOM     16  C   UNL     1      59.906  30.118  22.291  1.00  0.00     0.062 A 
ATOM     17  C   UNL     1      60.170  30.750  21.067  1.00  0.00     0.158 A 
BRANCH  15  18
ATOM     18  O   UNL     1      60.084  32.719  19.667  1.00  0.00    -0.504 OA
ATOM     19  H   UNL     1      59.571  32.478  18.828  1.00  0.00     0.293 HD
ENDBRANCH  15  18
BRANCH  17  20
ATOM     20  O   UNL     1      60.779  30.049  20.027  1.00  0.00    -0.504 OA
ATOM     21  H   UNL     1      60.251  29.422  19.431  1.00  0.00     0.293 HD
ENDBRANCH  17  20
ENDBRANCH   1  12
BRANCH   2  22
ATOM     22  O   UNL     1      56.629  30.127  24.278  1.00  0.00    -0.502 OA
ATOM     23  H   UNL     1      56.635  30.872  23.592  1.00  0.00     0.293 HD
ENDBRANCH   2  22
BRANCH   6  24
ATOM     24  O   UNL     1      57.492  28.086  29.122  1.00  0.00    -0.507 OA
ATOM     25  H   UNL     1      57.384  27.400  29.854  1.00  0.00     0.293 HD
ENDBRANCH   6  24
BRANCH   8  26
ATOM     26  O   UNL     1      62.287  27.825  29.083  1.00  0.00    -0.508 OA
ATOM     27  H   UNL     1      62.342  26.996  29.662  1.00  0.00     0.293 HD
ENDBRANCH   8  26
TORSDOF 6
ENDMDL
MODEL 9
REMARK VINA RESULT:    -5.844      1.397      2.706
REMARK INTER + INTRA:          -7.363
REMARK INTER:                  -7.029
REMARK INTRA:                  -0.334
REMARK UNBOUND:                -0.323
REMARK SMILES O=c1c(O)c(-c2ccc(O)c(O)c2)oc2cc(O)cc(O)c12
REMARK SMILES IDX 5 1 3 2 2 3 1 4 22 5 20 6 19 7 17 8 16 9 15 10 14 11 6 12
REMARK SMILES IDX 7 13 8 14 9 15 13 16 11 17 10 18 12 20 4 22 21 24 18 26
REMARK H PARENT 10 19 12 21 4 23 21 25 18 27
REMARK Flexibility Score: inf
ROOT
ATOM      1  C   UNL     1      60.296  29.053  24.731  1.00  0.00     0.180 A 
ATOM      2  C   UNL     1      61.596  28.825  24.246  1.00  0.00     0.208 A 
ATOM      3  C   UNL     1      61.958  29.349  22.995  1.00  0.00     0.238 A 
ATOM      4  O   UNL     1      63.105  29.096  22.543  1.00  0.00    -0.285 OA
ATOM      5  C   UNL     1      61.021  30.108  22.252  1.00  0.00     0.111 A 
ATOM      6  C   UNL     1      61.294  30.720  20.992  1.00  0.00     0.134 A 
ATOM      7  C   UNL     1      60.254  31.337  20.284  1.00  0.00     0.093 A 
ATOM      8  C   UNL     1      58.968  31.420  20.823  1.00  0.00     0.123 A 
ATOM      9  C   UNL     1      58.707  30.877  22.079  1.00  0.00     0.094 A 
ATOM     10  C   UNL     1      59.714  30.224  22.792  1.00  0.00     0.146 A 
ATOM     11  O   UNL     1      59.420  29.712  23.981  1.00  0.00    -0.452 OA
ENDROOT
BRANCH   1  12
ATOM     12  C   UNL     1      59.848  28.553  26.051  1.00  0.00     0.025 A 
ATOM     13  C   UNL     1      60.039  29.309  27.221  1.00  0.00     0.016 A 
ATOM     14  C   UNL     1      59.586  28.828  28.453  1.00  0.00     0.051 A 
ATOM     15  C   UNL     1      58.925  27.596  28.531  1.00  0.00     0.157 A 
ATOM     16  C   UNL     1      59.166  27.328  26.132  1.00  0.00     0.062 A 
ATOM     17  C   UNL     1      58.712  26.845  27.368  1.00  0.00     0.158 A 
BRANCH  15  18
ATOM     18  O   UNL     1      58.474  27.112  29.759  1.00  0.00    -0.504 OA
ATOM     19  H   UNL     1      58.225  26.138  29.885  1.00  0.00     0.293 HD
ENDBRANCH  15  18
BRANCH  17  20
ATOM     20  O   UNL     1      58.049  25.622  27.448  1.00  0.00    -0.504 OA
ATOM     21  H   UNL     1      58.272  24.856  26.823  1.00  0.00     0.293 HD
ENDBRANCH  17  20
ENDBRANCH   1  12
BRANCH   2  22
ATOM     22  O   UNL     1      62.497  28.055  24.987  1.00  0.00    -0.502 OA
ATOM     23  H   UNL     1      62.204  27.473  25.763  1.00  0.00     0.293 HD
ENDBRANCH   2  22
BRANCH   6  24
ATOM     24  O   UNL     1      62.563  30.774  20.407  1.00  0.00    -0.507 OA
ATOM     25  H   UNL     1      63.373  31.199  20.832  1.00  0.00     0.293 HD
ENDBRANCH   6  24
BRANCH   8  26
ATOM     26  O   UNL     1      57.942  32.049  20.120  1.00  0.00    -0.508 OA
ATOM     27  H   UNL     1      57.907  32.034  19.107  1.00  0.00     0.293 HD
ENDBRANCH   8  26
TORSDOF 6
ENDMDL
