MODEL 1
REMARK VINA RESULT:    -4.908      0.000      0.000
REMARK INTER + INTRA:          -5.371
REMARK INTER:                  -5.338
REMARK INTRA:                  -0.033
REMARK UNBOUND:                -0.033
REMARK SMILES C[C@@H]1[C@@H](C)CC[C@@]2(C(=O)[O-])CC[C@@]3(C)C(=CC[C@H]4[C@]5(C)CC[C@@H](O)C(C)(C)[C@@H]5CC[C@@]43C)[C@@H]12
REMARK SMILES IDX 7 1 6 2 11 3 33 4 5 5 12 6 15 7 2 8 3 9 13 10 16 11 1 12
REMARK SMILES IDX 4 13 14 14 31 15 17 16 18 17 30 18 32 19 19 20 29 21 28 22
REMARK SMILES IDX 21 23 20 24 25 25 22 26 23 27 26 28 27 29 8 30 9 31 10 32
REMARK SMILES IDX 24 33
REMARK H PARENT 24 34
REMARK Flexibility Score: inf
ROOT
ATOM      1  C   UNL     1      62.402  49.231   8.494  1.00  0.00     0.017 C 
ATOM      2  C   UNL     1      61.467  48.140   7.890  1.00  0.00     0.014 C 
ATOM      3  C   UNL     1      61.644  50.077   9.536  1.00  0.00     0.014 C 
ATOM      4  C   UNL     1      63.661  48.585   9.171  1.00  0.00     0.030 C 
ATOM      5  C   UNL     1      62.198  47.218   6.916  1.00  0.00     0.004 C 
ATOM      6  C   UNL     1      61.109  49.256  10.711  1.00  0.00     0.013 C 
ATOM      7  C   UNL     1      63.504  48.229  10.672  1.00  0.00    -0.063 C 
ATOM      8  C   UNL     1      64.338  47.448   8.302  1.00  0.00    -0.003 C 
ATOM      9  C   UNL     1      63.349  46.474   7.604  1.00  0.00    -0.011 C 
ATOM     10  C   UNL     1      62.181  48.381  11.472  1.00  0.00    -0.006 C 
ATOM     11  C   UNL     1      64.650  47.918  11.335  1.00  0.00    -0.027 C 
ATOM     12  C   UNL     1      65.318  48.045   7.271  1.00  0.00     0.008 C 
ATOM     13  C   UNL     1      62.859  45.361   8.551  1.00  0.00     0.008 C 
ATOM     14  C   UNL     1      61.599  46.933  11.599  1.00  0.00     0.017 C 
ATOM     15  C   UNL     1      62.485  49.014  12.924  1.00  0.00    -0.020 C 
ATOM     16  C   UNL     1      64.841  47.983  12.830  1.00  0.00     0.032 C 
ATOM     17  C   UNL     1      63.541  48.104  13.661  1.00  0.00     0.006 C 
ATOM     18  C   UNL     1      61.165  49.128  13.777  1.00  0.00     0.008 C 
ATOM     19  C   UNL     1      63.055  50.457  12.757  1.00  0.00     0.012 C 
ATOM     20  C   UNL     1      63.772  48.330  15.241  1.00  0.00    -0.025 C 
ATOM     21  C   UNL     1      61.225  48.473  15.159  1.00  0.00     0.005 C 
ATOM     22  C   UNL     1      62.479  48.948  15.939  1.00  0.00     0.003 C 
ATOM     23  C   UNL     1      64.087  46.925  15.858  1.00  0.00     0.010 C 
ATOM     24  C   UNL     1      65.010  49.246  15.479  1.00  0.00     0.012 C 
ATOM     25  C   UNL     1      62.352  48.749  17.531  1.00  0.00    -0.006 C 
ATOM     26  C   UNL     1      64.111  46.895  17.384  1.00  0.00     0.033 C 
ATOM     27  C   UNL     1      62.748  47.308  17.950  1.00  0.00     0.120 C 
ATOM     28  C   UNL     1      63.199  49.805  18.311  1.00  0.00     0.014 C 
ATOM     29  C   UNL     1      60.892  48.994  18.018  1.00  0.00     0.014 C 
ENDROOT
BRANCH   1  30
ATOM     30  C   UNL     1      62.825  50.216   7.399  1.00  0.00     0.048 C 
ATOM     31  O   UNL     1      62.142  50.349   6.346  1.00  0.00    -0.550 OA
ATOM     32  O   UNL     1      63.898  51.076   7.601  1.00  0.00    -0.550 OA
ENDBRANCH   1  30
BRANCH  27  33
ATOM     33  O   UNL     1      62.766  47.192  19.352  1.00  0.00    -0.393 OA
ATOM     34  H   UNL     1      63.716  47.246  19.636  1.00  0.00     0.210 HD
ENDBRANCH  27  33
TORSDOF 2
ENDMDL
MODEL 2
REMARK VINA RESULT:    -4.760      3.288      7.402
REMARK INTER + INTRA:          -5.210
REMARK INTER:                  -5.177
REMARK INTRA:                  -0.033
REMARK UNBOUND:                -0.033
REMARK SMILES C[C@@H]1[C@@H](C)CC[C@@]2(C(=O)[O-])CC[C@@]3(C)C(=CC[C@H]4[C@]5(C)CC[C@@H](O)C(C)(C)[C@@H]5CC[C@@]43C)[C@@H]12
REMARK SMILES IDX 7 1 6 2 11 3 33 4 5 5 12 6 15 7 2 8 3 9 13 10 16 11 1 12
REMARK SMILES IDX 4 13 14 14 31 15 17 16 18 17 30 18 32 19 19 20 29 21 28 22
REMARK SMILES IDX 21 23 20 24 25 25 22 26 23 27 26 28 27 29 8 30 9 31 10 32
REMARK SMILES IDX 24 33
REMARK H PARENT 24 34
REMARK Flexibility Score: inf
ROOT
ATOM      1  C   UNL     1      64.400  46.608  14.673  1.00  0.00     0.017 C 
ATOM      2  C   UNL     1      64.163  46.506  16.211  1.00  0.00     0.014 C 
ATOM      3  C   UNL     1      63.270  45.898  13.904  1.00  0.00     0.014 C 
ATOM      4  C   UNL     1      64.478  48.105  14.211  1.00  0.00     0.030 C 
ATOM      5  C   UNL     1      65.212  47.273  17.015  1.00  0.00     0.004 C 
ATOM      6  C   UNL     1      61.885  46.489  14.176  1.00  0.00     0.013 C 
ATOM      7  C   UNL     1      63.128  48.750  13.804  1.00  0.00    -0.063 C 
ATOM      8  C   UNL     1      65.375  49.014  15.146  1.00  0.00    -0.003 C 
ATOM      9  C   UNL     1      65.202  48.767  16.670  1.00  0.00    -0.011 C 
ATOM     10  C   UNL     1      61.750  48.043  13.928  1.00  0.00    -0.006 C 
ATOM     11  C   UNL     1      63.207  49.944  13.158  1.00  0.00    -0.027 C 
ATOM     12  C   UNL     1      66.864  48.916  14.755  1.00  0.00     0.008 C 
ATOM     13  C   UNL     1      63.978  49.505  17.246  1.00  0.00     0.008 C 
ATOM     14  C   UNL     1      61.073  48.662  15.196  1.00  0.00     0.017 C 
ATOM     15  C   UNL     1      60.869  48.319  12.606  1.00  0.00    -0.020 C 
ATOM     16  C   UNL     1      62.132  50.538  12.283  1.00  0.00     0.032 C 
ATOM     17  C   UNL     1      60.737  49.878  12.402  1.00  0.00     0.006 C 
ATOM     18  C   UNL     1      59.444  47.658  12.729  1.00  0.00     0.008 C 
ATOM     19  C   UNL     1      61.570  47.681  11.366  1.00  0.00     0.012 C 
ATOM     20  C   UNL     1      59.644  50.420  11.348  1.00  0.00    -0.025 C 
ATOM     21  C   UNL     1      58.265  48.605  12.496  1.00  0.00     0.005 C 
ATOM     22  C   UNL     1      58.442  49.388  11.168  1.00  0.00     0.003 C 
ATOM     23  C   UNL     1      59.099  51.774  11.917  1.00  0.00     0.010 C 
ATOM     24  C   UNL     1      60.319  50.714   9.975  1.00  0.00     0.012 C 
ATOM     25  C   UNL     1      57.063  49.979  10.588  1.00  0.00    -0.006 C 
ATOM     26  C   UNL     1      57.887  52.331  11.174  1.00  0.00     0.033 C 
ATOM     27  C   UNL     1      56.717  51.344  11.243  1.00  0.00     0.120 C 
ATOM     28  C   UNL     1      57.101  50.106   9.032  1.00  0.00     0.014 C 
ATOM     29  C   UNL     1      55.871  49.013  10.864  1.00  0.00     0.014 C 
ENDROOT
BRANCH   1  30
ATOM     30  C   UNL     1      65.684  45.860  14.296  1.00  0.00     0.048 C 
ATOM     31  O   UNL     1      66.155  44.960  15.043  1.00  0.00    -0.550 OA
ATOM     32  O   UNL     1      66.282  46.069  13.059  1.00  0.00    -0.550 OA
ENDBRANCH   1  30
BRANCH  27  33
ATOM     33  O   UNL     1      55.586  51.911  10.626  1.00  0.00    -0.393 OA
ATOM     34  H   UNL     1      55.667  52.896  10.722  1.00  0.00     0.210 HD
ENDBRANCH  27  33
TORSDOF 2
ENDMDL
MODEL 3
REMARK VINA RESULT:    -4.757      3.105      7.855
REMARK INTER + INTRA:          -5.207
REMARK INTER:                  -5.208
REMARK INTRA:                   0.001
REMARK UNBOUND:                -0.033
REMARK SMILES C[C@@H]1[C@@H](C)CC[C@@]2(C(=O)[O-])CC[C@@]3(C)C(=CC[C@H]4[C@]5(C)CC[C@@H](O)C(C)(C)[C@@H]5CC[C@@]43C)[C@@H]12
REMARK SMILES IDX 7 1 6 2 11 3 33 4 5 5 12 6 15 7 2 8 3 9 13 10 16 11 1 12
REMARK SMILES IDX 4 13 14 14 31 15 17 16 18 17 30 18 32 19 19 20 29 21 28 22
REMARK SMILES IDX 21 23 20 24 25 25 22 26 23 27 26 28 27 29 8 30 9 31 10 32
REMARK SMILES IDX 24 33
REMARK H PARENT 24 34
REMARK Flexibility Score: inf
ROOT
ATOM      1  C   UNL     1      63.979  48.419  14.350  1.00  0.00     0.017 C 
ATOM      2  C   UNL     1      64.274  46.911  14.084  1.00  0.00     0.014 C 
ATOM      3  C   UNL     1      64.150  49.239  13.057  1.00  0.00     0.014 C 
ATOM      4  C   UNL     1      62.525  48.622  14.902  1.00  0.00     0.030 C 
ATOM      5  C   UNL     1      64.031  46.043  15.319  1.00  0.00     0.004 C 
ATOM      6  C   UNL     1      63.212  48.799  11.930  1.00  0.00     0.013 C 
ATOM      7  C   UNL     1      61.428  48.842  13.830  1.00  0.00    -0.063 C 
ATOM      8  C   UNL     1      62.125  47.593  16.037  1.00  0.00    -0.003 C 
ATOM      9  C   UNL     1      62.573  46.127  15.786  1.00  0.00    -0.011 C 
ATOM     10  C   UNL     1      61.677  48.771  12.298  1.00  0.00    -0.006 C 
ATOM     11  C   UNL     1      60.224  49.278  14.288  1.00  0.00    -0.027 C 
ATOM     12  C   UNL     1      62.615  48.072  17.419  1.00  0.00     0.008 C 
ATOM     13  C   UNL     1      61.603  45.371  14.857  1.00  0.00     0.008 C 
ATOM     14  C   UNL     1      61.112  47.382  11.846  1.00  0.00     0.017 C 
ATOM     15  C   UNL     1      60.906  49.978  11.557  1.00  0.00    -0.020 C 
ATOM     16  C   UNL     1      59.176  49.983  13.462  1.00  0.00     0.032 C 
ATOM     17  C   UNL     1      59.375  49.906  11.929  1.00  0.00     0.006 C 
ATOM     18  C   UNL     1      61.098  49.896   9.995  1.00  0.00     0.008 C 
ATOM     19  C   UNL     1      61.501  51.343  12.025  1.00  0.00     0.012 C 
ATOM     20  C   UNL     1      58.339  50.795  11.071  1.00  0.00    -0.025 C 
ATOM     21  C   UNL     1      59.802  49.903   9.180  1.00  0.00     0.005 C 
ATOM     22  C   UNL     1      58.892  51.085   9.605  1.00  0.00     0.003 C 
ATOM     23  C   UNL     1      57.006  49.976  10.982  1.00  0.00     0.010 C 
ATOM     24  C   UNL     1      58.032  52.130  11.812  1.00  0.00     0.012 C 
ATOM     25  C   UNL     1      57.804  51.484   8.488  1.00  0.00    -0.006 C 
ATOM     26  C   UNL     1      55.974  50.549  10.015  1.00  0.00     0.033 C 
ATOM     27  C   UNL     1      56.539  50.589   8.591  1.00  0.00     0.120 C 
ATOM     28  C   UNL     1      57.420  52.996   8.574  1.00  0.00     0.014 C 
ATOM     29  C   UNL     1      58.380  51.316   7.050  1.00  0.00     0.014 C 
ENDROOT
BRANCH   1  30
ATOM     30  C   UNL     1      65.013  48.984  15.330  1.00  0.00     0.048 C 
ATOM     31  O   UNL     1      66.057  48.338  15.617  1.00  0.00    -0.550 OA
ATOM     32  O   UNL     1      64.882  50.277  15.823  1.00  0.00    -0.550 OA
ENDBRANCH   1  30
BRANCH  27  33
ATOM     33  O   UNL     1      55.545  51.041   7.703  1.00  0.00    -0.393 OA
ATOM     34  H   UNL     1      56.001  51.276   6.852  1.00  0.00     0.210 HD
ENDBRANCH  27  33
TORSDOF 2
ENDMDL
MODEL 4
REMARK VINA RESULT:    -4.747      3.309      5.673
REMARK INTER + INTRA:          -5.196
REMARK INTER:                  -5.164
REMARK INTRA:                  -0.032
REMARK UNBOUND:                -0.033
REMARK SMILES C[C@@H]1[C@@H](C)CC[C@@]2(C(=O)[O-])CC[C@@]3(C)C(=CC[C@H]4[C@]5(C)CC[C@@H](O)C(C)(C)[C@@H]5CC[C@@]43C)[C@@H]12
REMARK SMILES IDX 7 1 6 2 11 3 33 4 5 5 12 6 15 7 2 8 3 9 13 10 16 11 1 12
REMARK SMILES IDX 4 13 14 14 31 15 17 16 18 17 30 18 32 19 19 20 29 21 28 22
REMARK SMILES IDX 21 23 20 24 25 25 22 26 23 27 26 28 27 29 8 30 9 31 10 32
REMARK SMILES IDX 24 33
REMARK H PARENT 24 34
REMARK Flexibility Score: inf
ROOT
ATOM      1  C   UNL     1      58.106  50.272  10.221  1.00  0.00     0.017 C 
ATOM      2  C   UNL     1      58.331  51.734   9.727  1.00  0.00     0.014 C 
ATOM      3  C   UNL     1      59.225  49.348   9.703  1.00  0.00     0.014 C 
ATOM      4  C   UNL     1      58.064  50.206  11.787  1.00  0.00     0.030 C 
ATOM      5  C   UNL     1      57.293  52.706  10.287  1.00  0.00     0.004 C 
ATOM      6  C   UNL     1      60.621  49.763  10.175  1.00  0.00     0.013 C 
ATOM      7  C   UNL     1      59.430  49.977  12.484  1.00  0.00    -0.063 C 
ATOM      8  C   UNL     1      57.181  51.340  12.450  1.00  0.00    -0.003 C 
ATOM      9  C   UNL     1      57.338  52.752  11.820  1.00  0.00    -0.011 C 
ATOM     10  C   UNL     1      60.791  49.918  11.737  1.00  0.00    -0.006 C 
ATOM     11  C   UNL     1      59.381  49.655  13.804  1.00  0.00    -0.027 C 
ATOM     12  C   UNL     1      55.692  50.936  12.488  1.00  0.00     0.008 C 
ATOM     13  C   UNL     1      58.575  53.497  12.359  1.00  0.00     0.008 C 
ATOM     14  C   UNL     1      61.474  51.302  11.999  1.00  0.00     0.017 C 
ATOM     15  C   UNL     1      61.687  48.710  12.320  1.00  0.00    -0.020 C 
ATOM     16  C   UNL     1      60.475  48.960  14.576  1.00  0.00     0.032 C 
ATOM     17  C   UNL     1      61.854  48.909  13.876  1.00  0.00     0.006 C 
ATOM     18  C   UNL     1      63.097  48.663  11.617  1.00  0.00     0.008 C 
ATOM     19  C   UNL     1      60.981  47.349  12.034  1.00  0.00     0.012 C 
ATOM     20  C   UNL     1      62.965  48.028  14.643  1.00  0.00    -0.025 C 
ATOM     21  C   UNL     1      64.298  48.678  12.566  1.00  0.00     0.005 C 
ATOM     22  C   UNL     1      64.145  47.593  13.664  1.00  0.00     0.003 C 
ATOM     23  C   UNL     1      63.536  48.923  15.796  1.00  0.00     0.010 C 
ATOM     24  C   UNL     1      62.306  46.774  15.292  1.00  0.00     0.012 C 
ATOM     25  C   UNL     1      65.542  47.183  14.352  1.00  0.00    -0.006 C 
ATOM     26  C   UNL     1      64.764  48.347  16.496  1.00  0.00     0.033 C 
ATOM     27  C   UNL     1      65.913  48.163  15.497  1.00  0.00     0.120 C 
ATOM     28  C   UNL     1      65.515  45.710  14.871  1.00  0.00     0.014 C 
ATOM     29  C   UNL     1      66.710  47.205  13.320  1.00  0.00     0.014 C 
ENDROOT
BRANCH   1  30
ATOM     30  C   UNL     1      56.809  49.716   9.622  1.00  0.00     0.048 C 
ATOM     31  O   UNL     1      56.306  50.220   8.581  1.00  0.00    -0.550 OA
ATOM     32  O   UNL     1      56.232  48.563  10.141  1.00  0.00    -0.550 OA
ENDBRANCH   1  30
BRANCH  27  33
ATOM     33  O   UNL     1      67.059  47.712  16.177  1.00  0.00    -0.393 OA
ATOM     34  H   UNL     1      67.612  47.217  15.517  1.00  0.00     0.210 HD
ENDBRANCH  27  33
TORSDOF 2
ENDMDL
MODEL 5
REMARK VINA RESULT:    -4.739      2.287      8.687
REMARK INTER + INTRA:          -5.187
REMARK INTER:                  -5.155
REMARK INTRA:                  -0.032
REMARK UNBOUND:                -0.033
REMARK SMILES C[C@@H]1[C@@H](C)CC[C@@]2(C(=O)[O-])CC[C@@]3(C)C(=CC[C@H]4[C@]5(C)CC[C@@H](O)C(C)(C)[C@@H]5CC[C@@]43C)[C@@H]12
REMARK SMILES IDX 7 1 6 2 11 3 33 4 5 5 12 6 15 7 2 8 3 9 13 10 16 11 1 12
REMARK SMILES IDX 4 13 14 14 31 15 17 16 18 17 30 18 32 19 19 20 29 21 28 22
REMARK SMILES IDX 21 23 20 24 25 25 22 26 23 27 26 28 27 29 8 30 9 31 10 32
REMARK SMILES IDX 24 33
REMARK H PARENT 24 34
REMARK Flexibility Score: inf
ROOT
ATOM      1  C   UNL     1      62.821  49.146  18.938  1.00  0.00     0.017 C 
ATOM      2  C   UNL     1      62.714  47.886  19.851  1.00  0.00     0.014 C 
ATOM      3  C   UNL     1      64.153  49.140  18.164  1.00  0.00     0.014 C 
ATOM      4  C   UNL     1      61.631  49.207  17.918  1.00  0.00     0.030 C 
ATOM      5  C   UNL     1      61.370  47.802  20.573  1.00  0.00     0.004 C 
ATOM      6  C   UNL     1      64.322  47.921  17.254  1.00  0.00     0.013 C 
ATOM      7  C   UNL     1      61.876  48.497  16.562  1.00  0.00    -0.063 C 
ATOM      8  C   UNL     1      60.220  48.897  18.565  1.00  0.00    -0.003 C 
ATOM      9  C   UNL     1      60.203  47.721  19.581  1.00  0.00    -0.011 C 
ATOM     10  C   UNL     1      63.151  47.676  16.224  1.00  0.00    -0.006 C 
ATOM     11  C   UNL     1      60.975  48.760  15.578  1.00  0.00    -0.027 C 
ATOM     12  C   UNL     1      59.612  50.163  19.205  1.00  0.00     0.008 C 
ATOM     13  C   UNL     1      60.105  46.350  18.884  1.00  0.00     0.008 C 
ATOM     14  C   UNL     1      62.727  46.174  16.345  1.00  0.00     0.017 C 
ATOM     15  C   UNL     1      63.647  48.019  14.728  1.00  0.00    -0.020 C 
ATOM     16  C   UNL     1      61.216  48.582  14.099  1.00  0.00     0.032 C 
ATOM     17  C   UNL     1      62.462  47.743  13.725  1.00  0.00     0.006 C 
ATOM     18  C   UNL     1      64.908  47.158  14.340  1.00  0.00     0.008 C 
ATOM     19  C   UNL     1      64.069  49.520  14.648  1.00  0.00     0.012 C 
ATOM     20  C   UNL     1      62.792  47.696  12.148  1.00  0.00    -0.025 C 
ATOM     21  C   UNL     1      64.778  46.364  13.038  1.00  0.00     0.005 C 
ATOM     22  C   UNL     1      64.307  47.282  11.879  1.00  0.00     0.003 C 
ATOM     23  C   UNL     1      61.831  46.631  11.516  1.00  0.00     0.010 C 
ATOM     24  C   UNL     1      62.478  49.073  11.490  1.00  0.00     0.012 C 
ATOM     25  C   UNL     1      64.648  46.692  10.421  1.00  0.00    -0.006 C 
ATOM     26  C   UNL     1      62.147  46.276  10.065  1.00  0.00     0.033 C 
ATOM     27  C   UNL     1      63.559  45.690   9.952  1.00  0.00     0.120 C 
ATOM     28  C   UNL     1      64.840  47.832   9.371  1.00  0.00     0.014 C 
ATOM     29  C   UNL     1      66.011  45.936  10.420  1.00  0.00     0.014 C 
ENDROOT
BRANCH   1  30
ATOM     30  C   UNL     1      62.856  50.411  19.802  1.00  0.00     0.048 C 
ATOM     31  O   UNL     1      63.194  50.360  21.016  1.00  0.00    -0.550 OA
ATOM     32  O   UNL     1      62.641  51.660  19.230  1.00  0.00    -0.550 OA
ENDBRANCH   1  30
BRANCH  27  33
ATOM     33  O   UNL     1      63.797  45.292   8.624  1.00  0.00    -0.393 OA
ATOM     34  H   UNL     1      63.572  46.066   8.044  1.00  0.00     0.210 HD
ENDBRANCH  27  33
TORSDOF 2
ENDMDL
MODEL 6
REMARK VINA RESULT:    -4.610      1.961      8.849
REMARK INTER + INTRA:          -5.047
REMARK INTER:                  -5.015
REMARK INTRA:                  -0.032
REMARK UNBOUND:                -0.033
REMARK SMILES C[C@@H]1[C@@H](C)CC[C@@]2(C(=O)[O-])CC[C@@]3(C)C(=CC[C@H]4[C@]5(C)CC[C@@H](O)C(C)(C)[C@@H]5CC[C@@]43C)[C@@H]12
REMARK SMILES IDX 7 1 6 2 11 3 33 4 5 5 12 6 15 7 2 8 3 9 13 10 16 11 1 12
REMARK SMILES IDX 4 13 14 14 31 15 17 16 18 17 30 18 32 19 19 20 29 21 28 22
REMARK SMILES IDX 21 23 20 24 25 25 22 26 23 27 26 28 27 29 8 30 9 31 10 32
REMARK SMILES IDX 24 33
REMARK H PARENT 24 34
REMARK Flexibility Score: inf
ROOT
ATOM      1  C   UNL     1      62.974  46.283  18.986  1.00  0.00     0.017 C 
ATOM      2  C   UNL     1      61.904  46.849  19.968  1.00  0.00     0.014 C 
ATOM      3  C   UNL     1      62.297  45.528  17.826  1.00  0.00     0.014 C 
ATOM      4  C   UNL     1      63.870  47.430  18.402  1.00  0.00     0.030 C 
ATOM      5  C   UNL     1      62.524  47.682  21.089  1.00  0.00     0.004 C 
ATOM      6  C   UNL     1      61.358  46.407  16.995  1.00  0.00     0.013 C 
ATOM      7  C   UNL     1      63.356  48.078  17.091  1.00  0.00    -0.063 C 
ATOM      8  C   UNL     1      64.361  48.470  19.490  1.00  0.00    -0.003 C 
ATOM      9  C   UNL     1      63.290  48.890  20.534  1.00  0.00    -0.011 C 
ATOM     10  C   UNL     1      62.001  47.728  16.417  1.00  0.00    -0.006 C 
ATOM     11  C   UNL     1      64.238  48.880  16.435  1.00  0.00    -0.027 C 
ATOM     12  C   UNL     1      65.634  47.969  20.203  1.00  0.00     0.008 C 
ATOM     13  C   UNL     1      62.357  49.995  20.001  1.00  0.00     0.008 C 
ATOM     14  C   UNL     1      61.038  48.911  16.770  1.00  0.00     0.017 C 
ATOM     15  C   UNL     1      62.197  47.597  14.821  1.00  0.00    -0.020 C 
ATOM     16  C   UNL     1      64.167  49.246  14.974  1.00  0.00     0.032 C 
ATOM     17  C   UNL     1      62.819  48.939  14.276  1.00  0.00     0.006 C 
ATOM     18  C   UNL     1      60.826  47.295  14.107  1.00  0.00     0.008 C 
ATOM     19  C   UNL     1      63.154  46.404  14.508  1.00  0.00     0.012 C 
ATOM     20  C   UNL     1      62.815  49.191  12.683  1.00  0.00    -0.025 C 
ATOM     21  C   UNL     1      60.458  48.256  12.973  1.00  0.00     0.005 C 
ATOM     22  C   UNL     1      61.632  48.397  11.969  1.00  0.00     0.003 C 
ATOM     23  C   UNL     1      62.624  50.731  12.468  1.00  0.00     0.010 C 
ATOM     24  C   UNL     1      64.189  48.788  12.070  1.00  0.00     0.012 C 
ATOM     25  C   UNL     1      61.172  48.932  10.523  1.00  0.00    -0.006 C 
ATOM     26  C   UNL     1      62.365  51.142  11.021  1.00  0.00     0.033 C 
ATOM     27  C   UNL     1      61.083  50.482  10.499  1.00  0.00     0.120 C 
ATOM     28  C   UNL     1      62.116  48.414   9.391  1.00  0.00     0.014 C 
ATOM     29  C   UNL     1      59.768  48.377  10.133  1.00  0.00     0.014 C 
ENDROOT
BRANCH   1  30
ATOM     30  C   UNL     1      63.836  45.238  19.704  1.00  0.00     0.048 C 
ATOM     31  O   UNL     1      63.417  44.652  20.739  1.00  0.00    -0.550 OA
ATOM     32  O   UNL     1      65.042  44.822  19.154  1.00  0.00    -0.550 OA
ENDBRANCH   1  30
BRANCH  27  33
ATOM     33  O   UNL     1      60.817  50.938   9.195  1.00  0.00    -0.393 OA
ATOM     34  H   UNL     1      59.839  50.848   9.049  1.00  0.00     0.210 HD
ENDBRANCH  27  33
TORSDOF 2
ENDMDL
MODEL 7
REMARK VINA RESULT:    -4.594      2.669      5.201
REMARK INTER + INTRA:          -5.029
REMARK INTER:                  -4.998
REMARK INTRA:                  -0.031
REMARK UNBOUND:                -0.033
REMARK SMILES C[C@@H]1[C@@H](C)CC[C@@]2(C(=O)[O-])CC[C@@]3(C)C(=CC[C@H]4[C@]5(C)CC[C@@H](O)C(C)(C)[C@@H]5CC[C@@]43C)[C@@H]12
REMARK SMILES IDX 7 1 6 2 11 3 33 4 5 5 12 6 15 7 2 8 3 9 13 10 16 11 1 12
REMARK SMILES IDX 4 13 14 14 31 15 17 16 18 17 30 18 32 19 19 20 29 21 28 22
REMARK SMILES IDX 21 23 20 24 25 25 22 26 23 27 26 28 27 29 8 30 9 31 10 32
REMARK SMILES IDX 24 33
REMARK H PARENT 24 34
REMARK Flexibility Score: inf
ROOT
ATOM      1  C   UNL     1      62.955  47.013  12.371  1.00  0.00     0.017 C 
ATOM      2  C   UNL     1      63.846  47.980  11.534  1.00  0.00     0.014 C 
ATOM      3  C   UNL     1      63.804  46.261  13.414  1.00  0.00     0.014 C 
ATOM      4  C   UNL     1      61.808  47.793  13.103  1.00  0.00     0.030 C 
ATOM      5  C   UNL     1      63.033  48.813  10.544  1.00  0.00     0.004 C 
ATOM      6  C   UNL     1      64.503  47.189  14.410  1.00  0.00     0.013 C 
ATOM      7  C   UNL     1      62.155  48.316  14.521  1.00  0.00    -0.063 C 
ATOM      8  C   UNL     1      61.069  48.850  12.185  1.00  0.00    -0.003 C 
ATOM      9  C   UNL     1      61.998  49.687  11.263  1.00  0.00    -0.011 C 
ATOM     10  C   UNL     1      63.559  48.198  15.176  1.00  0.00    -0.006 C 
ATOM     11  C   UNL     1      61.108  48.757  15.268  1.00  0.00    -0.027 C 
ATOM     12  C   UNL     1      59.954  48.182  11.354  1.00  0.00     0.008 C 
ATOM     13  C   UNL     1      62.635  50.880  12.003  1.00  0.00     0.008 C 
ATOM     14  C   UNL     1      64.199  49.621  15.056  1.00  0.00     0.017 C 
ATOM     15  C   UNL     1      63.411  47.756  16.720  1.00  0.00    -0.020 C 
ATOM     16  C   UNL     1      61.096  48.878  16.772  1.00  0.00     0.032 C 
ATOM     17  C   UNL     1      62.481  48.796  17.457  1.00  0.00     0.006 C 
ATOM     18  C   UNL     1      64.819  47.682  17.423  1.00  0.00     0.008 C 
ATOM     19  C   UNL     1      62.778  46.332  16.798  1.00  0.00     0.012 C 
ATOM     20  C   UNL     1      62.434  48.769  19.068  1.00  0.00    -0.025 C 
ATOM     21  C   UNL     1      64.946  48.498  18.712  1.00  0.00     0.005 C 
ATOM     22  C   UNL     1      63.780  48.178  19.683  1.00  0.00     0.003 C 
ATOM     23  C   UNL     1      62.242  50.251  19.540  1.00  0.00     0.010 C 
ATOM     24  C   UNL     1      61.204  47.947  19.558  1.00  0.00     0.012 C 
ATOM     25  C   UNL     1      64.104  48.558  21.213  1.00  0.00    -0.006 C 
ATOM     26  C   UNL     1      62.402  50.462  21.043  1.00  0.00     0.033 C 
ATOM     27  C   UNL     1      63.809  50.056  21.495  1.00  0.00     0.120 C 
ATOM     28  C   UNL     1      63.323  47.643  22.210  1.00  0.00     0.014 C 
ATOM     29  C   UNL     1      65.603  48.304  21.555  1.00  0.00     0.014 C 
ENDROOT
BRANCH   1  30
ATOM     30  C   UNL     1      62.372  45.926  11.461  1.00  0.00     0.048 C 
ATOM     31  O   UNL     1      62.897  45.664  10.344  1.00  0.00    -0.550 OA
ATOM     32  O   UNL     1      61.331  45.120  11.905  1.00  0.00    -0.550 OA
ENDBRANCH   1  30
BRANCH  27  33
ATOM     33  O   UNL     1      63.963  50.337  22.865  1.00  0.00    -0.393 OA
ATOM     34  H   UNL     1      63.745  49.504  23.359  1.00  0.00     0.210 HD
ENDBRANCH  27  33
TORSDOF 2
ENDMDL
MODEL 8
REMARK VINA RESULT:    -4.536      2.929      5.079
REMARK INTER + INTRA:          -4.966
REMARK INTER:                  -5.050
REMARK INTRA:                   0.083
REMARK UNBOUND:                -0.033
REMARK SMILES C[C@@H]1[C@@H](C)CC[C@@]2(C(=O)[O-])CC[C@@]3(C)C(=CC[C@H]4[C@]5(C)CC[C@@H](O)C(C)(C)[C@@H]5CC[C@@]43C)[C@@H]12
REMARK SMILES IDX 7 1 6 2 11 3 33 4 5 5 12 6 15 7 2 8 3 9 13 10 16 11 1 12
REMARK SMILES IDX 4 13 14 14 31 15 17 16 18 17 30 18 32 19 19 20 29 21 28 22
REMARK SMILES IDX 21 23 20 24 25 25 22 26 23 27 26 28 27 29 8 30 9 31 10 32
REMARK SMILES IDX 24 33
REMARK H PARENT 24 34
REMARK Flexibility Score: inf
ROOT
ATOM      1  C   UNL     1      65.623  46.458  12.715  1.00  0.00     0.017 C 
ATOM      2  C   UNL     1      65.917  47.601  11.695  1.00  0.00     0.014 C 
ATOM      3  C   UNL     1      66.238  46.789  14.088  1.00  0.00     0.014 C 
ATOM      4  C   UNL     1      64.080  46.231  12.880  1.00  0.00     0.030 C 
ATOM      5  C   UNL     1      65.251  47.360  10.341  1.00  0.00     0.004 C 
ATOM      6  C   UNL     1      65.691  48.079  14.704  1.00  0.00     0.013 C 
ATOM      7  C   UNL     1      63.396  47.072  13.989  1.00  0.00    -0.063 C 
ATOM      8  C   UNL     1      63.290  46.201  11.509  1.00  0.00    -0.003 C 
ATOM      9  C   UNL     1      63.726  47.273  10.472  1.00  0.00    -0.011 C 
ATOM     10  C   UNL     1      64.120  48.156  14.835  1.00  0.00    -0.006 C 
ATOM     11  C   UNL     1      62.131  46.703  14.323  1.00  0.00    -0.027 C 
ATOM     12  C   UNL     1      63.332  44.796  10.873  1.00  0.00     0.008 C 
ATOM     13  C   UNL     1      63.071  48.643  10.739  1.00  0.00     0.008 C 
ATOM     14  C   UNL     1      63.666  49.529  14.234  1.00  0.00     0.017 C 
ATOM     15  C   UNL     1      63.685  48.028  16.383  1.00  0.00    -0.020 C 
ATOM     16  C   UNL     1      61.438  47.032  15.622  1.00  0.00     0.032 C 
ATOM     17  C   UNL     1      62.114  48.131  16.477  1.00  0.00     0.006 C 
ATOM     18  C   UNL     1      64.364  49.152  17.254  1.00  0.00     0.008 C 
ATOM     19  C   UNL     1      64.161  46.654  16.948  1.00  0.00     0.012 C 
ATOM     20  C   UNL     1      61.450  48.356  17.929  1.00  0.00    -0.025 C 
ATOM     21  C   UNL     1      63.400  49.995  18.093  1.00  0.00     0.005 C 
ATOM     22  C   UNL     1      62.457  49.087  18.925  1.00  0.00     0.003 C 
ATOM     23  C   UNL     1      60.180  49.247  17.712  1.00  0.00     0.010 C 
ATOM     24  C   UNL     1      60.984  46.995  18.526  1.00  0.00     0.012 C 
ATOM     25  C   UNL     1      61.805  49.837  20.191  1.00  0.00    -0.006 C 
ATOM     26  C   UNL     1      59.540  49.762  18.999  1.00  0.00     0.033 C 
ATOM     27  C   UNL     1      60.534  50.629  19.781  1.00  0.00     0.120 C 
ATOM     28  C   UNL     1      61.486  48.838  21.349  1.00  0.00     0.014 C 
ATOM     29  C   UNL     1      62.804  50.851  20.826  1.00  0.00     0.014 C 
ENDROOT
BRANCH   1  30
ATOM     30  C   UNL     1      66.313  45.168  12.259  1.00  0.00     0.048 C 
ATOM     31  O   UNL     1      66.068  44.066  12.824  1.00  0.00    -0.550 OA
ATOM     32  O   UNL     1      67.123  45.163  11.131  1.00  0.00    -0.550 OA
ENDBRANCH   1  30
BRANCH  27  33
ATOM     33  O   UNL     1      59.900  51.161  20.919  1.00  0.00    -0.393 OA
ATOM     34  H   UNL     1      60.206  52.101  21.009  1.00  0.00     0.210 HD
ENDBRANCH  27  33
TORSDOF 2
ENDMDL
MODEL 9
REMARK VINA RESULT:    -4.531      1.445      8.424
REMARK INTER + INTRA:          -4.961
REMARK INTER:                  -4.934
REMARK INTRA:                  -0.027
REMARK UNBOUND:                -0.033
REMARK SMILES C[C@@H]1[C@@H](C)CC[C@@]2(C(=O)[O-])CC[C@@]3(C)C(=CC[C@H]4[C@]5(C)CC[C@@H](O)C(C)(C)[C@@H]5CC[C@@]43C)[C@@H]12
REMARK SMILES IDX 7 1 6 2 11 3 33 4 5 5 12 6 15 7 2 8 3 9 13 10 16 11 1 12
REMARK SMILES IDX 4 13 14 14 31 15 17 16 18 17 30 18 32 19 19 20 29 21 28 22
REMARK SMILES IDX 21 23 20 24 25 25 22 26 23 27 26 28 27 29 8 30 9 31 10 32
REMARK SMILES IDX 24 33
REMARK H PARENT 24 34
REMARK Flexibility Score: inf
ROOT
ATOM      1  C   UNL     1      63.143  48.459  17.696  1.00  0.00     0.017 C 
ATOM      2  C   UNL     1      63.179  47.002  18.249  1.00  0.00     0.014 C 
ATOM      3  C   UNL     1      64.334  48.708  16.751  1.00  0.00     0.014 C 
ATOM      4  C   UNL     1      61.806  48.740  16.927  1.00  0.00     0.030 C 
ATOM      5  C   UNL     1      61.967  46.680  19.123  1.00  0.00     0.004 C 
ATOM      6  C   UNL     1      64.350  47.777  15.536  1.00  0.00     0.013 C 
ATOM      7  C   UNL     1      61.827  48.420  15.410  1.00  0.00    -0.063 C 
ATOM      8  C   UNL     1      60.516  48.218  17.681  1.00  0.00    -0.003 C 
ATOM      9  C   UNL     1      60.657  46.818  18.339  1.00  0.00    -0.011 C 
ATOM     10  C   UNL     1      63.028  47.766  14.673  1.00  0.00    -0.006 C 
ATOM     11  C   UNL     1      60.781  48.898  14.684  1.00  0.00    -0.027 C 
ATOM     12  C   UNL     1      60.023  49.248  18.720  1.00  0.00     0.008 C 
ATOM     13  C   UNL     1      60.442  45.674  17.328  1.00  0.00     0.008 C 
ATOM     14  C   UNL     1      62.622  46.270  14.456  1.00  0.00     0.017 C 
ATOM     15  C   UNL     1      63.279  48.508  13.263  1.00  0.00    -0.020 C 
ATOM     16  C   UNL     1      60.781  49.123  13.193  1.00  0.00     0.032 C 
ATOM     17  C   UNL     1      61.947  48.459  12.420  1.00  0.00     0.006 C 
ATOM     18  C   UNL     1      64.458  47.828  12.470  1.00  0.00     0.008 C 
ATOM     19  C   UNL     1      63.689  49.992  13.519  1.00  0.00     0.012 C 
ATOM     20  C   UNL     1      62.020  48.840  10.855  1.00  0.00    -0.025 C 
ATOM     21  C   UNL     1      64.117  47.399  11.040  1.00  0.00     0.005 C 
ATOM     22  C   UNL     1      63.470  48.569  10.254  1.00  0.00     0.003 C 
ATOM     23  C   UNL     1      60.966  47.942  10.122  1.00  0.00     0.010 C 
ATOM     24  C   UNL     1      61.611  50.329  10.643  1.00  0.00     0.012 C 
ATOM     25  C   UNL     1      63.570  48.395   8.657  1.00  0.00    -0.006 C 
ATOM     26  C   UNL     1      61.043  47.992   8.598  1.00  0.00     0.033 C 
ATOM     27  C   UNL     1      62.415  47.510   8.115  1.00  0.00     0.120 C 
ATOM     28  C   UNL     1      63.597  49.777   7.929  1.00  0.00     0.014 C 
ATOM     29  C   UNL     1      64.912  47.718   8.243  1.00  0.00     0.014 C 
ENDROOT
BRANCH   1  30
ATOM     30  C   UNL     1      63.323  49.455  18.848  1.00  0.00     0.048 C 
ATOM     31  O   UNL     1      63.891  49.112  19.921  1.00  0.00    -0.550 OA
ATOM     32  O   UNL     1      62.979  50.791  18.683  1.00  0.00    -0.550 OA
ENDBRANCH   1  30
BRANCH  27  33
ATOM     33  O   UNL     1      62.436  47.484   6.708  1.00  0.00    -0.393 OA
ATOM     34  H   UNL     1      63.364  47.258   6.436  1.00  0.00     0.210 HD
ENDBRANCH  27  33
TORSDOF 2
ENDMDL
