MODEL 1
REMARK VINA RESULT:    -3.636      0.000      0.000
REMARK INTER + INTRA:          -5.099
REMARK INTER:                  -4.911
REMARK INTRA:                  -0.188
REMARK UNBOUND:                -0.188
REMARK SMILES CCCCCCCC(=O)[O-]
REMARK SMILES IDX 5 1 6 2 7 3 8 4 9 5 10 6 4 7 3 8 2 9 1 10
REMARK H PARENT
REMARK Flexibility Score: inf
ROOT
ATOM      1  C   UNL     1      28.422  20.514  -3.647  1.00  0.00     0.000 C 
ENDROOT
BRANCH   1   2
ATOM      2  C   UNL     1      28.049  21.500  -2.525  1.00  0.00     0.006 C 
BRANCH   2   3
ATOM      3  C   UNL     1      28.020  22.970  -2.968  1.00  0.00     0.053 C 
BRANCH   3   4
ATOM      4  C   UNL     1      27.489  23.868  -1.893  1.00  0.00     0.041 C 
ATOM      5  O   UNL     1      26.250  24.070  -1.791  1.00  0.00    -0.550 OA
ATOM      6  O   UNL     1      28.362  24.500  -1.016  1.00  0.00    -0.550 OA
ENDBRANCH   3   4
ENDBRANCH   2   3
ENDBRANCH   1   2
BRANCH   1   7
ATOM      7  C   UNL     1      28.481  19.043  -3.180  1.00  0.00     0.000 C 
BRANCH   7   8
ATOM      8  C   UNL     1      28.006  18.872  -1.730  1.00  0.00    -0.000 C 
BRANCH   8   9
ATOM      9  C   UNL     1      28.560  17.580  -1.118  1.00  0.00    -0.003 C 
ATOM     10  C   UNL     1      27.531  16.916  -0.208  1.00  0.00     0.004 C 
ENDBRANCH   8   9
ENDBRANCH   7   8
ENDBRANCH   1   7
TORSDOF 6
ENDMDL
MODEL 2
REMARK VINA RESULT:    -3.634     18.307     19.722
REMARK INTER + INTRA:          -5.096
REMARK INTER:                  -4.839
REMARK INTRA:                  -0.257
REMARK UNBOUND:                -0.188
REMARK SMILES CCCCCCCC(=O)[O-]
REMARK SMILES IDX 5 1 6 2 7 3 8 4 9 5 10 6 4 7 3 8 2 9 1 10
REMARK H PARENT
REMARK Flexibility Score: inf
ROOT
ATOM      1  C   UNL     1      12.757  31.993  -9.997  1.00  0.00     0.000 C 
ENDROOT
BRANCH   1   2
ATOM      2  C   UNL     1      12.213  30.561 -10.152  1.00  0.00     0.006 C 
BRANCH   2   3
ATOM      3  C   UNL     1      11.090  30.209  -9.165  1.00  0.00     0.053 C 
BRANCH   3   4
ATOM      4  C   UNL     1      11.497  29.119  -8.222  1.00  0.00     0.041 C 
ATOM      5  O   UNL     1      12.598  29.186  -7.613  1.00  0.00    -0.550 OA
ATOM      6  O   UNL     1      10.674  28.016  -8.031  1.00  0.00    -0.550 OA
ENDBRANCH   3   4
ENDBRANCH   2   3
ENDBRANCH   1   2
BRANCH   1   7
ATOM      7  C   UNL     1      14.300  32.067  -9.979  1.00  0.00     0.000 C 
BRANCH   7   8
ATOM      8  C   UNL     1      14.858  32.236  -8.558  1.00  0.00    -0.000 C 
BRANCH   8   9
ATOM      9  C   UNL     1      16.259  32.859  -8.588  1.00  0.00    -0.003 C 
ATOM     10  C   UNL     1      16.360  33.940  -9.659  1.00  0.00     0.004 C 
ENDBRANCH   8   9
ENDBRANCH   7   8
ENDBRANCH   1   7
TORSDOF 6
ENDMDL
MODEL 3
REMARK VINA RESULT:    -3.613      0.396      1.096
REMARK INTER + INTRA:          -5.069
REMARK INTER:                  -4.891
REMARK INTRA:                  -0.178
REMARK UNBOUND:                -0.188
REMARK SMILES CCCCCCCC(=O)[O-]
REMARK SMILES IDX 5 1 6 2 7 3 8 4 9 5 10 6 4 7 3 8 2 9 1 10
REMARK H PARENT
REMARK Flexibility Score: inf
ROOT
ATOM      1  C   UNL     1      28.321  20.125  -3.556  1.00  0.00     0.000 C 
ENDROOT
BRANCH   1   2
ATOM      2  C   UNL     1      28.295  21.279  -2.537  1.00  0.00     0.006 C 
BRANCH   2   3
ATOM      3  C   UNL     1      27.970  22.648  -3.152  1.00  0.00     0.053 C 
BRANCH   3   4
ATOM      4  C   UNL     1      27.470  23.617  -2.125  1.00  0.00     0.041 C 
ATOM      5  O   UNL     1      28.272  24.151  -1.315  1.00  0.00    -0.550 OA
ATOM      6  O   UNL     1      26.114  23.913  -2.045  1.00  0.00    -0.550 OA
ENDBRANCH   3   4
ENDBRANCH   2   3
ENDBRANCH   1   2
BRANCH   1   7
ATOM      7  C   UNL     1      28.722  18.766  -2.939  1.00  0.00     0.000 C 
BRANCH   7   8
ATOM      8  C   UNL     1      28.337  18.664  -1.456  1.00  0.00    -0.000 C 
BRANCH   8   9
ATOM      9  C   UNL     1      28.421  17.215  -0.964  1.00  0.00    -0.003 C 
ATOM     10  C   UNL     1      27.253  16.875  -0.044  1.00  0.00     0.004 C 
ENDBRANCH   8   9
ENDBRANCH   7   8
ENDBRANCH   1   7
TORSDOF 6
ENDMDL
MODEL 4
REMARK VINA RESULT:    -3.582      0.765      1.032
REMARK INTER + INTRA:          -5.025
REMARK INTER:                  -4.807
REMARK INTRA:                  -0.219
REMARK UNBOUND:                -0.188
REMARK SMILES CCCCCCCC(=O)[O-]
REMARK SMILES IDX 5 1 6 2 7 3 8 4 9 5 10 6 4 7 3 8 2 9 1 10
REMARK H PARENT
REMARK Flexibility Score: inf
ROOT
ATOM      1  C   UNL     1      27.959  20.962  -2.506  1.00  0.00     0.000 C 
ENDROOT
BRANCH   1   2
ATOM      2  C   UNL     1      28.144  22.359  -3.126  1.00  0.00     0.006 C 
BRANCH   2   3
ATOM      3  C   UNL     1      28.479  23.457  -2.106  1.00  0.00     0.053 C 
BRANCH   3   4
ATOM      4  C   UNL     1      27.245  24.073  -1.522  1.00  0.00     0.041 C 
ATOM      5  O   UNL     1      26.162  24.050  -2.164  1.00  0.00    -0.550 OA
ATOM      6  O   UNL     1      27.295  24.695  -0.281  1.00  0.00    -0.550 OA
ENDBRANCH   3   4
ENDBRANCH   2   3
ENDBRANCH   1   2
BRANCH   1   7
ATOM      7  C   UNL     1      28.223  19.808  -3.498  1.00  0.00     0.000 C 
BRANCH   7   8
ATOM      8  C   UNL     1      28.742  18.544  -2.796  1.00  0.00    -0.000 C 
BRANCH   8   9
ATOM      9  C   UNL     1      28.142  18.407  -1.393  1.00  0.00    -0.003 C 
ATOM     10  C   UNL     1      28.323  16.993  -0.851  1.00  0.00     0.004 C 
ENDBRANCH   8   9
ENDBRANCH   7   8
ENDBRANCH   1   7
TORSDOF 6
ENDMDL
MODEL 5
REMARK VINA RESULT:    -3.385     12.273     13.350
REMARK INTER + INTRA:          -4.760
REMARK INTER:                  -4.628
REMARK INTRA:                  -0.131
REMARK UNBOUND:                -0.188
REMARK SMILES CCCCCCCC(=O)[O-]
REMARK SMILES IDX 5 1 6 2 7 3 8 4 9 5 10 6 4 7 3 8 2 9 1 10
REMARK H PARENT
REMARK Flexibility Score: inf
ROOT
ATOM      1  C   UNL     1      18.761  19.512 -11.125  1.00  0.00     0.000 C 
ENDROOT
BRANCH   1   2
ATOM      2  C   UNL     1      17.903  18.275 -10.802  1.00  0.00     0.006 C 
BRANCH   2   3
ATOM      3  C   UNL     1      16.399  18.479 -11.035  1.00  0.00     0.053 C 
BRANCH   3   4
ATOM      4  C   UNL     1      15.671  18.775  -9.760  1.00  0.00     0.041 C 
ATOM      5  O   UNL     1      16.075  18.287  -8.672  1.00  0.00    -0.550 OA
ATOM      6  O   UNL     1      14.532  19.571  -9.774  1.00  0.00    -0.550 OA
ENDBRANCH   3   4
ENDBRANCH   2   3
ENDBRANCH   1   2
BRANCH   1   7
ATOM      7  C   UNL     1      20.279  19.227 -11.125  1.00  0.00     0.000 C 
BRANCH   7   8
ATOM      8  C   UNL     1      21.114  20.509 -10.997  1.00  0.00    -0.000 C 
BRANCH   8   9
ATOM      9  C   UNL     1      22.388  20.258 -10.184  1.00  0.00    -0.003 C 
ATOM     10  C   UNL     1      22.976  21.565  -9.661  1.00  0.00     0.004 C 
ENDBRANCH   8   9
ENDBRANCH   7   8
ENDBRANCH   1   7
TORSDOF 6
ENDMDL
MODEL 6
REMARK VINA RESULT:    -3.259     18.220     19.279
REMARK INTER + INTRA:          -4.589
REMARK INTER:                  -4.279
REMARK INTRA:                  -0.311
REMARK UNBOUND:                -0.188
REMARK SMILES CCCCCCCC(=O)[O-]
REMARK SMILES IDX 5 1 6 2 7 3 8 4 9 5 10 6 4 7 3 8 2 9 1 10
REMARK H PARENT
REMARK Flexibility Score: inf
ROOT
ATOM      1  C   UNL     1      12.232  31.627  -9.628  1.00  0.00     0.000 C 
ENDROOT
BRANCH   1   2
ATOM      2  C   UNL     1      13.688  31.916 -10.036  1.00  0.00     0.006 C 
BRANCH   2   3
ATOM      3  C   UNL     1      14.646  32.094  -8.849  1.00  0.00     0.053 C 
BRANCH   3   4
ATOM      4  C   UNL     1      16.017  32.500  -9.294  1.00  0.00     0.041 C 
ATOM      5  O   UNL     1      16.443  33.661  -9.054  1.00  0.00    -0.550 OA
ATOM      6  O   UNL     1      16.818  31.607  -9.995  1.00  0.00    -0.550 OA
ENDBRANCH   3   4
ENDBRANCH   2   3
ENDBRANCH   1   2
BRANCH   1   7
ATOM      7  C   UNL     1      11.548  30.553 -10.504  1.00  0.00     0.000 C 
BRANCH   7   8
ATOM      8  C   UNL     1      11.811  29.129  -9.993  1.00  0.00    -0.000 C 
BRANCH   8   9
ATOM      9  C   UNL     1      11.782  29.081  -8.461  1.00  0.00    -0.003 C 
ATOM     10  C   UNL     1      10.468  28.496  -7.953  1.00  0.00     0.004 C 
ENDBRANCH   8   9
ENDBRANCH   7   8
ENDBRANCH   1   7
TORSDOF 6
ENDMDL
MODEL 7
REMARK VINA RESULT:    -3.250      2.897      5.478
REMARK INTER + INTRA:          -4.577
REMARK INTER:                  -4.283
REMARK INTRA:                  -0.295
REMARK UNBOUND:                -0.188
REMARK SMILES CCCCCCCC(=O)[O-]
REMARK SMILES IDX 5 1 6 2 7 3 8 4 9 5 10 6 4 7 3 8 2 9 1 10
REMARK H PARENT
REMARK Flexibility Score: inf
ROOT
ATOM      1  C   UNL     1      27.184  23.131  -2.524  1.00  0.00     0.000 C 
ENDROOT
BRANCH   1   2
ATOM      2  C   UNL     1      28.383  22.179  -2.363  1.00  0.00     0.006 C 
BRANCH   2   3
ATOM      3  C   UNL     1      28.607  21.246  -3.562  1.00  0.00     0.053 C 
BRANCH   3   4
ATOM      4  C   UNL     1      28.185  19.841  -3.263  1.00  0.00     0.041 C 
ATOM      5  O   UNL     1      27.764  19.536  -2.116  1.00  0.00    -0.550 OA
ATOM      6  O   UNL     1      28.277  18.860  -4.243  1.00  0.00    -0.550 OA
ENDBRANCH   3   4
ENDBRANCH   2   3
ENDBRANCH   1   2
BRANCH   1   7
ATOM      7  C   UNL     1      27.174  24.288  -1.500  1.00  0.00     0.000 C 
BRANCH   7   8
ATOM      8  C   UNL     1      28.562  24.920  -1.322  1.00  0.00    -0.000 C 
BRANCH   8   9
ATOM      9  C   UNL     1      28.736  25.475   0.096  1.00  0.00    -0.003 C 
ATOM     10  C   UNL     1      27.520  25.166   0.963  1.00  0.00     0.004 C 
ENDBRANCH   8   9
ENDBRANCH   7   8
ENDBRANCH   1   7
TORSDOF 6
ENDMDL
MODEL 8
REMARK VINA RESULT:    -3.139      3.184      5.314
REMARK INTER + INTRA:          -4.428
REMARK INTER:                  -4.148
REMARK INTRA:                  -0.280
REMARK UNBOUND:                -0.188
REMARK SMILES CCCCCCCC(=O)[O-]
REMARK SMILES IDX 5 1 6 2 7 3 8 4 9 5 10 6 4 7 3 8 2 9 1 10
REMARK H PARENT
REMARK Flexibility Score: inf
ROOT
ATOM      1  C   UNL     1      28.591  21.307  -3.893  1.00  0.00     0.000 C 
ENDROOT
BRANCH   1   2
ATOM      2  C   UNL     1      28.251  19.845  -3.550  1.00  0.00     0.006 C 
BRANCH   2   3
ATOM      3  C   UNL     1      27.924  19.610  -2.068  1.00  0.00     0.053 C 
BRANCH   3   4
ATOM      4  C   UNL     1      28.265  18.217  -1.635  1.00  0.00     0.041 C 
ATOM      5  O   UNL     1      29.124  17.549  -2.269  1.00  0.00    -0.550 OA
ATOM      6  O   UNL     1      27.619  17.646  -0.545  1.00  0.00    -0.550 OA
ENDBRANCH   3   4
ENDBRANCH   2   3
ENDBRANCH   1   2
BRANCH   1   7
ATOM      7  C   UNL     1      28.909  22.173  -2.653  1.00  0.00     0.000 C 
BRANCH   7   8
ATOM      8  C   UNL     1      28.432  23.623  -2.817  1.00  0.00    -0.000 C 
BRANCH   8   9
ATOM      9  C   UNL     1      27.707  24.109  -1.557  1.00  0.00    -0.003 C 
ATOM     10  C   UNL     1      26.198  24.154  -1.772  1.00  0.00     0.004 C 
ENDBRANCH   8   9
ENDBRANCH   7   8
ENDBRANCH   1   7
TORSDOF 6
ENDMDL
MODEL 9
REMARK VINA RESULT:    -3.107      1.461      2.162
REMARK INTER + INTRA:          -4.385
REMARK INTER:                  -4.224
REMARK INTRA:                  -0.160
REMARK UNBOUND:                -0.188
REMARK SMILES CCCCCCCC(=O)[O-]
REMARK SMILES IDX 5 1 6 2 7 3 8 4 9 5 10 6 4 7 3 8 2 9 1 10
REMARK H PARENT
REMARK Flexibility Score: inf
ROOT
ATOM      1  C   UNL     1      28.949  22.396  -2.156  1.00  0.00     0.000 C 
ENDROOT
BRANCH   1   2
ATOM      2  C   UNL     1      27.967  23.580  -2.098  1.00  0.00     0.006 C 
BRANCH   2   3
ATOM      3  C   UNL     1      28.601  24.896  -1.627  1.00  0.00     0.053 C 
BRANCH   3   4
ATOM      4  C   UNL     1      28.247  25.210  -0.206  1.00  0.00     0.041 C 
ATOM      5  O   UNL     1      27.141  24.837   0.268  1.00  0.00    -0.550 OA
ATOM      6  O   UNL     1      29.125  25.936   0.590  1.00  0.00    -0.550 OA
ENDBRANCH   3   4
ENDBRANCH   2   3
ENDBRANCH   1   2
BRANCH   1   7
ATOM      7  C   UNL     1      28.525  21.290  -3.148  1.00  0.00     0.000 C 
BRANCH   7   8
ATOM      8  C   UNL     1      27.733  20.166  -2.465  1.00  0.00    -0.000 C 
BRANCH   8   9
ATOM      9  C   UNL     1      28.452  18.820  -2.611  1.00  0.00    -0.003 C 
ATOM     10  C   UNL     1      28.387  18.017  -1.316  1.00  0.00     0.004 C 
ENDBRANCH   8   9
ENDBRANCH   7   8
ENDBRANCH   1   7
TORSDOF 6
ENDMDL
