MODEL 1
REMARK VINA RESULT:    -5.858      0.000      0.000
REMARK INTER + INTRA:          -6.372
REMARK INTER:                  -6.372
REMARK INTRA:                   0.000
REMARK UNBOUND:                 0.000
REMARK SMILES Cc1cc(O)c2c(c1)C(=O)c1cc(O)cc(O)c1C2=O
REMARK SMILES IDX 1 1 2 2 8 3 7 4 6 5 4 6 3 7 19 8 20 9 18 10 11 11 9 12 10 13
REMARK SMILES IDX 12 14 13 15 15 16 16 17 5 18 17 20 14 22
REMARK H PARENT 5 19 17 21 14 23
REMARK Flexibility Score: inf
ROOT
ATOM      1  C   UNL     1     146.954 143.816 137.452  1.00  0.00     0.044 C 
ATOM      2  C   UNL     1     148.339 143.589 137.981  1.00  0.00    -0.047 A 
ATOM      3  C   UNL     1     148.881 144.461 138.932  1.00  0.00     0.016 A 
ATOM      4  C   UNL     1     150.160 144.233 139.467  1.00  0.00     0.038 A 
ATOM      5  C   UNL     1     150.898 143.097 139.064  1.00  0.00     0.076 A 
ATOM      6  C   UNL     1     150.363 142.242 138.067  1.00  0.00     0.127 A 
ATOM      7  C   UNL     1     149.080 142.479 137.563  1.00  0.00     0.050 A 
ATOM      8  C   UNL     1     152.180 142.810 139.759  1.00  0.00     0.201 C 
ATOM      9  O   UNL     1     152.573 141.620 139.884  1.00  0.00    -0.288 OA
ATOM     10  C   UNL     1     152.895 143.903 140.468  1.00  0.00     0.076 A 
ATOM     11  C   UNL     1     152.153 145.036 140.869  1.00  0.00     0.041 A 
ATOM     12  C   UNL     1     150.739 145.179 140.450  1.00  0.00     0.194 C 
ATOM     13  O   UNL     1     150.036 146.120 140.911  1.00  0.00    -0.289 OA
ATOM     14  C   UNL     1     152.761 146.025 141.662  1.00  0.00     0.059 A 
ATOM     15  C   UNL     1     154.100 145.905 142.042  1.00  0.00     0.120 A 
ATOM     16  C   UNL     1     154.847 144.808 141.614  1.00  0.00     0.093 A 
ATOM     17  C   UNL     1     154.271 143.820 140.809  1.00  0.00     0.131 A 
ENDROOT
BRANCH   6  18
ATOM     18  O   UNL     1     151.079 141.171 137.525  1.00  0.00    -0.507 OA
ATOM     19  H   UNL     1     151.319 140.339 138.046  1.00  0.00     0.293 HD
ENDBRANCH   6  18
BRANCH  17  20
ATOM     20  O   UNL     1     155.104 142.800 140.344  1.00  0.00    -0.507 OA
ATOM     21  H   UNL     1     154.975 142.334 139.458  1.00  0.00     0.293 HD
ENDBRANCH  17  20
BRANCH  15  22
ATOM     22  O   UNL     1     154.703 146.878 142.836  1.00  0.00    -0.508 OA
ATOM     23  H   UNL     1     154.905 146.713 143.815  1.00  0.00     0.293 HD
ENDBRANCH  15  22
TORSDOF 3
ENDMDL
MODEL 2
REMARK VINA RESULT:    -5.839     13.558     14.766
REMARK INTER + INTRA:          -6.351
REMARK INTER:                  -6.351
REMARK INTRA:                   0.000
REMARK UNBOUND:                 0.000
REMARK SMILES Cc1cc(O)c2c(c1)C(=O)c1cc(O)cc(O)c1C2=O
REMARK SMILES IDX 1 1 2 2 8 3 7 4 6 5 4 6 3 7 19 8 20 9 18 10 11 11 9 12 10 13
REMARK SMILES IDX 12 14 13 15 15 16 16 17 5 18 17 20 14 22
REMARK H PARENT 5 19 17 21 14 23
REMARK Flexibility Score: inf
ROOT
ATOM      1  C   UNL     1     155.220 157.088 133.998  1.00  0.00     0.044 C 
ATOM      2  C   UNL     1     154.109 157.457 134.936  1.00  0.00    -0.047 A 
ATOM      3  C   UNL     1     154.247 157.240 136.312  1.00  0.00     0.016 A 
ATOM      4  C   UNL     1     153.230 157.622 137.202  1.00  0.00     0.038 A 
ATOM      5  C   UNL     1     152.067 158.257 136.712  1.00  0.00     0.076 A 
ATOM      6  C   UNL     1     151.912 158.432 135.313  1.00  0.00     0.127 A 
ATOM      7  C   UNL     1     152.946 158.061 134.447  1.00  0.00     0.050 A 
ATOM      8  C   UNL     1     151.083 158.777 137.696  1.00  0.00     0.201 C 
ATOM      9  O   UNL     1     150.385 159.787 137.412  1.00  0.00    -0.288 OA
ATOM     10  C   UNL     1     151.059 158.228 139.077  1.00  0.00     0.076 A 
ATOM     11  C   UNL     1     152.225 157.595 139.563  1.00  0.00     0.041 A 
ATOM     12  C   UNL     1     153.372 157.361 138.655  1.00  0.00     0.194 C 
ATOM     13  O   UNL     1     154.460 156.915 139.113  1.00  0.00    -0.289 OA
ATOM     14  C   UNL     1     152.290 157.187 140.907  1.00  0.00     0.059 A 
ATOM     15  C   UNL     1     151.203 157.387 141.762  1.00  0.00     0.120 A 
ATOM     16  C   UNL     1     150.036 157.975 141.275  1.00  0.00     0.093 A 
ATOM     17  C   UNL     1     149.939 158.372 139.937  1.00  0.00     0.131 A 
ENDROOT
BRANCH   6  18
ATOM     18  O   UNL     1     150.742 158.936 134.739  1.00  0.00    -0.507 OA
ATOM     19  H   UNL     1     149.902 158.389 134.607  1.00  0.00     0.293 HD
ENDBRANCH   6  18
BRANCH  17  20
ATOM     20  O   UNL     1     148.709 158.869 139.500  1.00  0.00    -0.507 OA
ATOM     21  H   UNL     1     148.596 159.771 139.061  1.00  0.00     0.293 HD
ENDBRANCH  17  20
BRANCH  15  22
ATOM     22  O   UNL     1     151.268 156.994 143.097  1.00  0.00    -0.508 OA
ATOM     23  H   UNL     1     150.608 156.331 143.488  1.00  0.00     0.293 HD
ENDBRANCH  15  22
TORSDOF 3
ENDMDL
MODEL 3
REMARK VINA RESULT:    -5.658     12.737     14.092
REMARK INTER + INTRA:          -6.154
REMARK INTER:                  -6.154
REMARK INTRA:                   0.000
REMARK UNBOUND:                 0.000
REMARK SMILES Cc1cc(O)c2c(c1)C(=O)c1cc(O)cc(O)c1C2=O
REMARK SMILES IDX 1 1 2 2 8 3 7 4 6 5 4 6 3 7 19 8 20 9 18 10 11 11 9 12 10 13
REMARK SMILES IDX 12 14 13 15 15 16 16 17 5 18 17 20 14 22
REMARK H PARENT 5 19 17 21 14 23
REMARK Flexibility Score: inf
ROOT
ATOM      1  C   UNL     1     153.000 158.820 133.154  1.00  0.00     0.044 C 
ATOM      2  C   UNL     1     153.075 158.272 134.548  1.00  0.00    -0.047 A 
ATOM      3  C   UNL     1     152.072 158.570 135.477  1.00  0.00     0.016 A 
ATOM      4  C   UNL     1     152.110 158.026 136.772  1.00  0.00     0.038 A 
ATOM      5  C   UNL     1     153.155 157.146 137.135  1.00  0.00     0.076 A 
ATOM      6  C   UNL     1     154.193 156.884 136.205  1.00  0.00     0.127 A 
ATOM      7  C   UNL     1     154.123 157.421 134.915  1.00  0.00     0.050 A 
ATOM      8  C   UNL     1     153.081 156.478 138.460  1.00  0.00     0.201 C 
ATOM      9  O   UNL     1     153.588 155.335 138.615  1.00  0.00    -0.288 OA
ATOM     10  C   UNL     1     152.248 157.069 139.539  1.00  0.00     0.076 A 
ATOM     11  C   UNL     1     151.204 157.947 139.171  1.00  0.00     0.041 A 
ATOM     12  C   UNL     1     151.060 158.373 137.760  1.00  0.00     0.194 C 
ATOM     13  O   UNL     1     150.057 159.051 137.404  1.00  0.00    -0.289 OA
ATOM     14  C   UNL     1     150.309 158.417 140.149  1.00  0.00     0.059 A 
ATOM     15  C   UNL     1     150.453 158.035 141.485  1.00  0.00     0.120 A 
ATOM     16  C   UNL     1     151.506 157.200 141.858  1.00  0.00     0.093 A 
ATOM     17  C   UNL     1     152.422 156.735 140.908  1.00  0.00     0.131 A 
ENDROOT
BRANCH   6  18
ATOM     18  O   UNL     1     155.322 156.127 136.526  1.00  0.00    -0.507 OA
ATOM     19  H   UNL     1     156.115 156.017 135.909  1.00  0.00     0.293 HD
ENDBRANCH   6  18
BRANCH  17  20
ATOM     20  O   UNL     1     153.501 155.979 141.370  1.00  0.00    -0.507 OA
ATOM     21  H   UNL     1     153.550 155.585 142.299  1.00  0.00     0.293 HD
ENDBRANCH  17  20
BRANCH  15  22
ATOM     22  O   UNL     1     149.562 158.489 142.453  1.00  0.00    -0.508 OA
ATOM     23  H   UNL     1     148.756 159.054 142.210  1.00  0.00     0.293 HD
ENDBRANCH  15  22
TORSDOF 3
ENDMDL
MODEL 4
REMARK VINA RESULT:    -5.580     15.989     17.170
REMARK INTER + INTRA:          -6.070
REMARK INTER:                  -6.070
REMARK INTRA:                   0.000
REMARK UNBOUND:                 0.000
REMARK SMILES Cc1cc(O)c2c(c1)C(=O)c1cc(O)cc(O)c1C2=O
REMARK SMILES IDX 1 1 2 2 8 3 7 4 6 5 4 6 3 7 19 8 20 9 18 10 11 11 9 12 10 13
REMARK SMILES IDX 12 14 13 15 15 16 16 17 5 18 17 20 14 22
REMARK H PARENT 5 19 17 21 14 23
REMARK Flexibility Score: inf
ROOT
ATOM      1  C   UNL     1     155.162 158.007 134.253  1.00  0.00     0.044 C 
ATOM      2  C   UNL     1     154.900 157.772 132.796  1.00  0.00    -0.047 A 
ATOM      3  C   UNL     1     154.770 156.468 132.304  1.00  0.00     0.016 A 
ATOM      4  C   UNL     1     154.481 156.239 130.949  1.00  0.00     0.038 A 
ATOM      5  C   UNL     1     154.291 157.333 130.075  1.00  0.00     0.076 A 
ATOM      6  C   UNL     1     154.469 158.651 130.567  1.00  0.00     0.127 A 
ATOM      7  C   UNL     1     154.737 158.855 131.925  1.00  0.00     0.050 A 
ATOM      8  C   UNL     1     153.843 157.052 128.686  1.00  0.00     0.201 C 
ATOM      9  O   UNL     1     153.134 157.895 128.073  1.00  0.00    -0.288 OA
ATOM     10  C   UNL     1     154.067 155.707 128.096  1.00  0.00     0.076 A 
ATOM     11  C   UNL     1     154.256 154.616 128.973  1.00  0.00     0.041 A 
ATOM     12  C   UNL     1     154.376 154.853 130.431  1.00  0.00     0.194 C 
ATOM     13  O   UNL     1     154.415 153.876 131.229  1.00  0.00    -0.289 OA
ATOM     14  C   UNL     1     154.333 153.310 128.459  1.00  0.00     0.059 A 
ATOM     15  C   UNL     1     154.241 153.084 127.083  1.00  0.00     0.120 A 
ATOM     16  C   UNL     1     154.095 154.162 126.211  1.00  0.00     0.093 A 
ATOM     17  C   UNL     1     154.036 155.472 126.696  1.00  0.00     0.131 A 
ENDROOT
BRANCH   6  18
ATOM     18  O   UNL     1     154.421 159.778 129.744  1.00  0.00    -0.507 OA
ATOM     19  H   UNL     1     154.553 159.745 128.742  1.00  0.00     0.293 HD
ENDBRANCH   6  18
BRANCH  17  20
ATOM     20  O   UNL     1     153.982 156.505 125.757  1.00  0.00    -0.507 OA
ATOM     21  H   UNL     1     153.290 156.557 125.023  1.00  0.00     0.293 HD
ENDBRANCH  17  20
BRANCH  15  22
ATOM     22  O   UNL     1     154.305 151.790 126.571  1.00  0.00    -0.508 OA
ATOM     23  H   UNL     1     155.101 151.473 126.029  1.00  0.00     0.293 HD
ENDBRANCH  15  22
TORSDOF 3
ENDMDL
MODEL 5
REMARK VINA RESULT:    -5.468     15.970     16.488
REMARK INTER + INTRA:          -5.948
REMARK INTER:                  -5.948
REMARK INTRA:                   0.000
REMARK UNBOUND:                 0.000
REMARK SMILES Cc1cc(O)c2c(c1)C(=O)c1cc(O)cc(O)c1C2=O
REMARK SMILES IDX 1 1 2 2 8 3 7 4 6 5 4 6 3 7 19 8 20 9 18 10 11 11 9 12 10 13
REMARK SMILES IDX 12 14 13 15 15 16 16 17 5 18 17 20 14 22
REMARK H PARENT 5 19 17 21 14 23
REMARK Flexibility Score: inf
ROOT
ATOM      1  C   UNL     1     156.960 149.977 128.732  1.00  0.00     0.044 C 
ATOM      2  C   UNL     1     156.238 151.259 128.444  1.00  0.00    -0.047 A 
ATOM      3  C   UNL     1     156.458 152.387 129.243  1.00  0.00     0.016 A 
ATOM      4  C   UNL     1     155.819 153.605 128.955  1.00  0.00     0.038 A 
ATOM      5  C   UNL     1     154.967 153.704 127.832  1.00  0.00     0.076 A 
ATOM      6  C   UNL     1     154.711 152.546 127.053  1.00  0.00     0.127 A 
ATOM      7  C   UNL     1     155.374 151.350 127.347  1.00  0.00     0.050 A 
ATOM      8  C   UNL     1     154.427 155.042 127.475  1.00  0.00     0.201 C 
ATOM      9  O   UNL     1     154.178 155.317 126.272  1.00  0.00    -0.288 OA
ATOM     10  C   UNL     1     154.365 156.110 128.506  1.00  0.00     0.076 A 
ATOM     11  C   UNL     1     155.219 156.007 129.627  1.00  0.00     0.041 A 
ATOM     12  C   UNL     1     156.034 154.786 129.825  1.00  0.00     0.194 C 
ATOM     13  O   UNL     1     156.891 154.741 130.750  1.00  0.00    -0.289 OA
ATOM     14  C   UNL     1     155.289 157.064 130.552  1.00  0.00     0.059 A 
ATOM     15  C   UNL     1     154.508 158.210 130.380  1.00  0.00     0.120 A 
ATOM     16  C   UNL     1     153.634 158.297 129.297  1.00  0.00     0.093 A 
ATOM     17  C   UNL     1     153.531 157.252 128.374  1.00  0.00     0.131 A 
ENDROOT
BRANCH   6  18
ATOM     18  O   UNL     1     153.789 152.529 126.004  1.00  0.00    -0.507 OA
ATOM     19  H   UNL     1     153.995 152.863 125.072  1.00  0.00     0.293 HD
ENDBRANCH   6  18
BRANCH  17  20
ATOM     20  O   UNL     1     152.569 157.372 127.368  1.00  0.00    -0.507 OA
ATOM     21  H   UNL     1     151.758 156.774 127.296  1.00  0.00     0.293 HD
ENDBRANCH  17  20
BRANCH  15  22
ATOM     22  O   UNL     1     154.583 159.263 131.288  1.00  0.00    -0.508 OA
ATOM     23  H   UNL     1     155.072 159.169 132.171  1.00  0.00     0.293 HD
ENDBRANCH  15  22
TORSDOF 3
ENDMDL
MODEL 6
REMARK VINA RESULT:    -5.413     11.552     13.768
REMARK INTER + INTRA:          -5.888
REMARK INTER:                  -5.888
REMARK INTRA:                   0.000
REMARK UNBOUND:                 0.000
REMARK SMILES Cc1cc(O)c2c(c1)C(=O)c1cc(O)cc(O)c1C2=O
REMARK SMILES IDX 1 1 2 2 8 3 7 4 6 5 4 6 3 7 19 8 20 9 18 10 11 11 9 12 10 13
REMARK SMILES IDX 12 14 13 15 15 16 16 17 5 18 17 20 14 22
REMARK H PARENT 5 19 17 21 14 23
REMARK Flexibility Score: inf
ROOT
ATOM      1  C   UNL     1     155.321 152.867 140.495  1.00  0.00     0.044 C 
ATOM      2  C   UNL     1     154.689 153.890 139.599  1.00  0.00    -0.047 A 
ATOM      3  C   UNL     1     153.763 154.804 140.115  1.00  0.00     0.016 A 
ATOM      4  C   UNL     1     153.198 155.794 139.293  1.00  0.00     0.038 A 
ATOM      5  C   UNL     1     153.588 155.889 137.938  1.00  0.00     0.076 A 
ATOM      6  C   UNL     1     154.492 154.933 137.409  1.00  0.00     0.127 A 
ATOM      7  C   UNL     1     155.055 153.969 138.251  1.00  0.00     0.050 A 
ATOM      8  C   UNL     1     153.082 157.037 137.142  1.00  0.00     0.201 C 
ATOM      9  O   UNL     1     153.777 157.502 136.200  1.00  0.00    -0.288 OA
ATOM     10  C   UNL     1     151.854 157.752 137.576  1.00  0.00     0.076 A 
ATOM     11  C   UNL     1     151.469 157.654 138.932  1.00  0.00     0.041 A 
ATOM     12  C   UNL     1     152.194 156.737 139.841  1.00  0.00     0.194 C 
ATOM     13  O   UNL     1     151.940 156.741 141.078  1.00  0.00    -0.289 OA
ATOM     14  C   UNL     1     150.395 158.425 139.411  1.00  0.00     0.059 A 
ATOM     15  C   UNL     1     149.694 159.276 138.553  1.00  0.00     0.120 A 
ATOM     16  C   UNL     1     150.046 159.345 137.206  1.00  0.00     0.093 A 
ATOM     17  C   UNL     1     151.097 158.574 136.699  1.00  0.00     0.131 A 
ENDROOT
BRANCH   6  18
ATOM     18  O   UNL     1     154.831 154.883 136.055  1.00  0.00    -0.507 OA
ATOM     19  H   UNL     1     155.778 154.972 135.712  1.00  0.00     0.293 HD
ENDBRANCH   6  18
BRANCH  17  20
ATOM     20  O   UNL     1     151.332 158.627 135.324  1.00  0.00    -0.507 OA
ATOM     21  H   UNL     1     151.313 159.482 134.787  1.00  0.00     0.293 HD
ENDBRANCH  17  20
BRANCH  15  22
ATOM     22  O   UNL     1     148.638 160.050 139.027  1.00  0.00    -0.508 OA
ATOM     23  H   UNL     1     147.692 159.924 138.684  1.00  0.00     0.293 HD
ENDBRANCH  15  22
TORSDOF 3
ENDMDL
MODEL 7
REMARK VINA RESULT:    -5.352     12.559     14.420
REMARK INTER + INTRA:          -5.821
REMARK INTER:                  -5.821
REMARK INTRA:                   0.000
REMARK UNBOUND:                 0.000
REMARK SMILES Cc1cc(O)c2c(c1)C(=O)c1cc(O)cc(O)c1C2=O
REMARK SMILES IDX 1 1 2 2 8 3 7 4 6 5 4 6 3 7 19 8 20 9 18 10 11 11 9 12 10 13
REMARK SMILES IDX 12 14 13 15 15 16 16 17 5 18 17 20 14 22
REMARK H PARENT 5 19 17 21 14 23
REMARK Flexibility Score: inf
ROOT
ATOM      1  C   UNL     1     155.035 158.735 132.117  1.00  0.00     0.044 C 
ATOM      2  C   UNL     1     154.252 158.445 133.363  1.00  0.00    -0.047 A 
ATOM      3  C   UNL     1     154.892 157.926 134.493  1.00  0.00     0.016 A 
ATOM      4  C   UNL     1     154.175 157.692 135.679  1.00  0.00     0.038 A 
ATOM      5  C   UNL     1     152.800 158.009 135.743  1.00  0.00     0.076 A 
ATOM      6  C   UNL     1     152.146 158.492 134.581  1.00  0.00     0.127 A 
ATOM      7  C   UNL     1     152.884 158.735 133.418  1.00  0.00     0.050 A 
ATOM      8  C   UNL     1     152.112 157.887 137.055  1.00  0.00     0.201 C 
ATOM      9  O   UNL     1     151.142 158.643 137.328  1.00  0.00    -0.288 OA
ATOM     10  C   UNL     1     152.685 157.011 138.110  1.00  0.00     0.076 A 
ATOM     11  C   UNL     1     154.061 156.697 138.041  1.00  0.00     0.041 A 
ATOM     12  C   UNL     1     154.856 157.112 136.862  1.00  0.00     0.194 C 
ATOM     13  O   UNL     1     156.107 156.949 136.854  1.00  0.00    -0.289 OA
ATOM     14  C   UNL     1     154.670 155.988 139.092  1.00  0.00     0.059 A 
ATOM     15  C   UNL     1     153.920 155.577 140.197  1.00  0.00     0.120 A 
ATOM     16  C   UNL     1     152.554 155.850 140.249  1.00  0.00     0.093 A 
ATOM     17  C   UNL     1     151.920 156.535 139.207  1.00  0.00     0.131 A 
ENDROOT
BRANCH   6  18
ATOM     18  O   UNL     1     150.767 158.712 134.526  1.00  0.00    -0.507 OA
ATOM     19  H   UNL     1     150.084 157.968 134.476  1.00  0.00     0.293 HD
ENDBRANCH   6  18
BRANCH  17  20
ATOM     20  O   UNL     1     150.535 156.692 139.287  1.00  0.00    -0.507 OA
ATOM     21  H   UNL     1     150.077 157.590 139.358  1.00  0.00     0.293 HD
ENDBRANCH  17  20
BRANCH  15  22
ATOM     22  O   UNL     1     154.522 154.884 141.245  1.00  0.00    -0.508 OA
ATOM     23  H   UNL     1     155.475 154.546 141.180  1.00  0.00     0.293 HD
ENDBRANCH  15  22
TORSDOF 3
ENDMDL
MODEL 8
REMARK VINA RESULT:    -5.282     12.704     14.434
REMARK INTER + INTRA:          -5.745
REMARK INTER:                  -5.745
REMARK INTRA:                   0.000
REMARK UNBOUND:                 0.000
REMARK SMILES Cc1cc(O)c2c(c1)C(=O)c1cc(O)cc(O)c1C2=O
REMARK SMILES IDX 1 1 2 2 8 3 7 4 6 5 4 6 3 7 19 8 20 9 18 10 11 11 9 12 10 13
REMARK SMILES IDX 12 14 13 15 15 16 16 17 5 18 17 20 14 22
REMARK H PARENT 5 19 17 21 14 23
REMARK Flexibility Score: inf
ROOT
ATOM      1  C   UNL     1     149.179 157.312 140.871  1.00  0.00     0.044 C 
ATOM      2  C   UNL     1     150.307 157.131 139.900  1.00  0.00    -0.047 A 
ATOM      3  C   UNL     1     150.346 157.880 138.718  1.00  0.00     0.016 A 
ATOM      4  C   UNL     1     151.421 157.749 137.823  1.00  0.00     0.038 A 
ATOM      5  C   UNL     1     152.488 156.874 138.127  1.00  0.00     0.076 A 
ATOM      6  C   UNL     1     152.421 156.084 139.303  1.00  0.00     0.127 A 
ATOM      7  C   UNL     1     151.351 156.245 140.189  1.00  0.00     0.050 A 
ATOM      8  C   UNL     1     153.673 156.873 137.230  1.00  0.00     0.201 C 
ATOM      9  O   UNL     1     154.813 156.606 137.696  1.00  0.00    -0.288 OA
ATOM     10  C   UNL     1     153.543 157.371 135.836  1.00  0.00     0.076 A 
ATOM     11  C   UNL     1     152.475 158.246 135.537  1.00  0.00     0.041 A 
ATOM     12  C   UNL     1     151.439 158.524 136.559  1.00  0.00     0.194 C 
ATOM     13  O   UNL     1     150.557 159.401 136.343  1.00  0.00    -0.289 OA
ATOM     14  C   UNL     1     152.398 158.847 134.268  1.00  0.00     0.059 A 
ATOM     15  C   UNL     1     153.362 158.572 133.294  1.00  0.00     0.120 A 
ATOM     16  C   UNL     1     154.395 157.678 133.573  1.00  0.00     0.093 A 
ATOM     17  C   UNL     1     154.482 157.052 134.820  1.00  0.00     0.131 A 
ENDROOT
BRANCH   6  18
ATOM     18  O   UNL     1     153.371 155.108 139.613  1.00  0.00    -0.507 OA
ATOM     19  H   UNL     1     153.482 154.708 140.535  1.00  0.00     0.293 HD
ENDBRANCH   6  18
BRANCH  17  20
ATOM     20  O   UNL     1     155.490 156.101 134.995  1.00  0.00    -0.507 OA
ATOM     21  H   UNL     1     155.447 155.165 134.617  1.00  0.00     0.293 HD
ENDBRANCH  17  20
BRANCH  15  22
ATOM     22  O   UNL     1     153.295 159.174 132.040  1.00  0.00    -0.508 OA
ATOM     23  H   UNL     1     152.431 159.567 131.685  1.00  0.00     0.293 HD
ENDBRANCH  15  22
TORSDOF 3
ENDMDL
MODEL 9
REMARK VINA RESULT:    -5.211     15.133     15.864
REMARK INTER + INTRA:          -5.668
REMARK INTER:                  -5.668
REMARK INTRA:                   0.000
REMARK UNBOUND:                 0.000
REMARK SMILES Cc1cc(O)c2c(c1)C(=O)c1cc(O)cc(O)c1C2=O
REMARK SMILES IDX 1 1 2 2 8 3 7 4 6 5 4 6 3 7 19 8 20 9 18 10 11 11 9 12 10 13
REMARK SMILES IDX 12 14 13 15 15 16 16 17 5 18 17 20 14 22
REMARK H PARENT 5 19 17 21 14 23
REMARK Flexibility Score: inf
ROOT
ATOM      1  C   UNL     1     154.182 152.550 126.940  1.00  0.00     0.044 C 
ATOM      2  C   UNL     1     154.166 153.786 127.790  1.00  0.00    -0.047 A 
ATOM      3  C   UNL     1     154.472 153.707 129.153  1.00  0.00     0.016 A 
ATOM      4  C   UNL     1     154.503 154.866 129.948  1.00  0.00     0.038 A 
ATOM      5  C   UNL     1     154.251 156.127 129.363  1.00  0.00     0.076 A 
ATOM      6  C   UNL     1     153.897 156.196 127.992  1.00  0.00     0.127 A 
ATOM      7  C   UNL     1     153.892 155.032 127.216  1.00  0.00     0.050 A 
ATOM      8  C   UNL     1     154.437 157.339 130.202  1.00  0.00     0.201 C 
ATOM      9  O   UNL     1     154.791 158.424 129.668  1.00  0.00    -0.288 OA
ATOM     10  C   UNL     1     154.393 157.226 131.683  1.00  0.00     0.076 A 
ATOM     11  C   UNL     1     154.646 155.962 132.263  1.00  0.00     0.041 A 
ATOM     12  C   UNL     1     154.797 154.769 131.398  1.00  0.00     0.194 C 
ATOM     13  O   UNL     1     155.149 153.666 131.899  1.00  0.00    -0.289 OA
ATOM     14  C   UNL     1     154.751 155.843 133.660  1.00  0.00     0.059 A 
ATOM     15  C   UNL     1     154.589 156.962 134.482  1.00  0.00     0.120 A 
ATOM     16  C   UNL     1     154.300 158.202 133.915  1.00  0.00     0.093 A 
ATOM     17  C   UNL     1     154.171 158.344 132.530  1.00  0.00     0.131 A 
ENDROOT
BRANCH   6  18
ATOM     18  O   UNL     1     153.514 157.386 127.368  1.00  0.00    -0.507 OA
ATOM     19  H   UNL     1     153.034 157.422 126.479  1.00  0.00     0.293 HD
ENDBRANCH   6  18
BRANCH  17  20
ATOM     20  O   UNL     1     153.790 159.596 132.042  1.00  0.00    -0.507 OA
ATOM     21  H   UNL     1     154.199 160.465 132.354  1.00  0.00     0.293 HD
ENDBRANCH  17  20
BRANCH  15  22
ATOM     22  O   UNL     1     154.703 156.849 135.865  1.00  0.00    -0.508 OA
ATOM     23  H   UNL     1     153.887 156.764 136.460  1.00  0.00     0.293 HD
ENDBRANCH  15  22
TORSDOF 3
ENDMDL
