MODEL 1
REMARK VINA RESULT:    -4.534      0.000      0.000
REMARK INTER + INTRA:          -4.932
REMARK INTER:                  -4.932
REMARK INTRA:                   0.000
REMARK UNBOUND:                 0.000
REMARK SMILES Cc1cc(O)c2c(c1)C(=O)c1cc(O)cc(O)c1C2=O
REMARK SMILES IDX 1 1 2 2 8 3 7 4 6 5 4 6 3 7 19 8 20 9 18 10 11 11 9 12 10 13
REMARK SMILES IDX 12 14 13 15 15 16 16 17 5 18 17 20 14 22
REMARK H PARENT 5 19 17 21 14 23
REMARK Flexibility Score: inf
ROOT
ATOM      1  C   UNL     1      45.258 -35.151  13.090  1.00  0.00     0.044 C 
ATOM      2  C   UNL     1      44.582 -33.985  12.431  1.00  0.00    -0.047 A 
ATOM      3  C   UNL     1      43.221 -33.744  12.654  1.00  0.00     0.016 A 
ATOM      4  C   UNL     1      42.573 -32.671  12.020  1.00  0.00     0.038 A 
ATOM      5  C   UNL     1      43.295 -31.827  11.148  1.00  0.00     0.076 A 
ATOM      6  C   UNL     1      44.652 -32.128  10.862  1.00  0.00     0.127 A 
ATOM      7  C   UNL     1      45.282 -33.188  11.521  1.00  0.00     0.050 A 
ATOM      8  C   UNL     1      42.614 -30.619  10.614  1.00  0.00     0.201 C 
ATOM      9  O   UNL     1      43.287 -29.589  10.342  1.00  0.00    -0.288 OA
ATOM     10  C   UNL     1      41.131 -30.564  10.578  1.00  0.00     0.076 A 
ATOM     11  C   UNL     1      40.410 -31.413  11.448  1.00  0.00     0.041 A 
ATOM     12  C   UNL     1      41.130 -32.426  12.255  1.00  0.00     0.194 C 
ATOM     13  O   UNL     1      40.509 -33.098  13.125  1.00  0.00    -0.289 OA
ATOM     14  C   UNL     1      39.013 -31.294  11.542  1.00  0.00     0.059 A 
ATOM     15  C   UNL     1      38.327 -30.355  10.771  1.00  0.00     0.120 A 
ATOM     16  C   UNL     1      39.031 -29.543   9.879  1.00  0.00     0.093 A 
ATOM     17  C   UNL     1      40.419 -29.655   9.752  1.00  0.00     0.131 A 
ENDROOT
BRANCH   6  18
ATOM     18  O   UNL     1      45.395 -31.428   9.908  1.00  0.00    -0.507 OA
ATOM     19  H   UNL     1      45.134 -30.520   9.553  1.00  0.00     0.293 HD
ENDBRANCH   6  18
BRANCH  17  20
ATOM     20  O   UNL     1      41.043 -28.875   8.775  1.00  0.00    -0.507 OA
ATOM     21  H   UNL     1      40.577 -28.546   7.941  1.00  0.00     0.293 HD
ENDBRANCH  17  20
BRANCH  15  22
ATOM     22  O   UNL     1      36.944 -30.246  10.891  1.00  0.00    -0.508 OA
ATOM     23  H   UNL     1      36.467 -30.474  11.756  1.00  0.00     0.293 HD
ENDBRANCH  15  22
TORSDOF 3
ENDMDL
MODEL 2
REMARK VINA RESULT:    -4.350      1.531      6.229
REMARK INTER + INTRA:          -4.731
REMARK INTER:                  -4.731
REMARK INTRA:                   0.000
REMARK UNBOUND:                 0.000
REMARK SMILES Cc1cc(O)c2c(c1)C(=O)c1cc(O)cc(O)c1C2=O
REMARK SMILES IDX 1 1 2 2 8 3 7 4 6 5 4 6 3 7 19 8 20 9 18 10 11 11 9 12 10 13
REMARK SMILES IDX 12 14 13 15 15 16 16 17 5 18 17 20 14 22
REMARK H PARENT 5 19 17 21 14 23
REMARK Flexibility Score: inf
ROOT
ATOM      1  C   UNL     1      36.245 -29.246   9.804  1.00  0.00     0.044 C 
ATOM      2  C   UNL     1      37.464 -29.936  10.343  1.00  0.00    -0.047 A 
ATOM      3  C   UNL     1      38.735 -29.592   9.868  1.00  0.00     0.016 A 
ATOM      4  C   UNL     1      39.879 -30.251  10.347  1.00  0.00     0.038 A 
ATOM      5  C   UNL     1      39.751 -31.272  11.314  1.00  0.00     0.076 A 
ATOM      6  C   UNL     1      38.454 -31.674  11.727  1.00  0.00     0.127 A 
ATOM      7  C   UNL     1      37.331 -30.989  11.254  1.00  0.00     0.050 A 
ATOM      8  C   UNL     1      40.990 -31.843  11.903  1.00  0.00     0.201 C 
ATOM      9  O   UNL     1      40.978 -32.282  13.084  1.00  0.00    -0.288 OA
ATOM     10  C   UNL     1      42.277 -31.724  11.171  1.00  0.00     0.076 A 
ATOM     11  C   UNL     1      42.401 -30.704  10.201  1.00  0.00     0.041 A 
ATOM     12  C   UNL     1      41.221 -29.887   9.834  1.00  0.00     0.194 C 
ATOM     13  O   UNL     1      41.355 -28.895   9.064  1.00  0.00    -0.289 OA
ATOM     14  C   UNL     1      43.643 -30.471   9.587  1.00  0.00     0.059 A 
ATOM     15  C   UNL     1      44.754 -31.250   9.914  1.00  0.00     0.120 A 
ATOM     16  C   UNL     1      44.626 -32.286  10.842  1.00  0.00     0.093 A 
ATOM     17  C   UNL     1      43.396 -32.551  11.453  1.00  0.00     0.131 A 
ENDROOT
BRANCH   6  18
ATOM     18  O   UNL     1      38.235 -32.764  12.573  1.00  0.00    -0.507 OA
ATOM     19  H   UNL     1      37.994 -33.687  12.243  1.00  0.00     0.293 HD
ENDBRANCH   6  18
BRANCH  17  20
ATOM     20  O   UNL     1      43.322 -33.659  12.300  1.00  0.00    -0.507 OA
ATOM     21  H   UNL     1      42.985 -33.614  13.252  1.00  0.00     0.293 HD
ENDBRANCH  17  20
BRANCH  15  22
ATOM     22  O   UNL     1      45.978 -30.993   9.302  1.00  0.00    -0.508 OA
ATOM     23  H   UNL     1      46.324 -30.047   9.184  1.00  0.00     0.293 HD
ENDBRANCH  15  22
TORSDOF 3
ENDMDL
MODEL 3
REMARK VINA RESULT:    -3.252      1.764      3.711
REMARK INTER + INTRA:          -3.538
REMARK INTER:                  -3.538
REMARK INTRA:                   0.000
REMARK UNBOUND:                 0.000
REMARK SMILES Cc1cc(O)c2c(c1)C(=O)c1cc(O)cc(O)c1C2=O
REMARK SMILES IDX 1 1 2 2 8 3 7 4 6 5 4 6 3 7 19 8 20 9 18 10 11 11 9 12 10 13
REMARK SMILES IDX 12 14 13 15 15 16 16 17 5 18 17 20 14 22
REMARK H PARENT 5 19 17 21 14 23
REMARK Flexibility Score: inf
ROOT
ATOM      1  C   UNL     1      46.119 -29.005   8.891  1.00  0.00     0.044 C 
ATOM      2  C   UNL     1      45.002 -29.770   9.538  1.00  0.00    -0.047 A 
ATOM      3  C   UNL     1      43.671 -29.422   9.283  1.00  0.00     0.016 A 
ATOM      4  C   UNL     1      42.619 -30.114   9.904  1.00  0.00     0.038 A 
ATOM      5  C   UNL     1      42.902 -31.172  10.797  1.00  0.00     0.076 A 
ATOM      6  C   UNL     1      44.254 -31.464  11.115  1.00  0.00     0.127 A 
ATOM      7  C   UNL     1      45.284 -30.775  10.468  1.00  0.00     0.050 A 
ATOM      8  C   UNL     1      41.767 -31.975  11.319  1.00  0.00     0.201 C 
ATOM      9  O   UNL     1      41.939 -33.189  11.610  1.00  0.00    -0.288 OA
ATOM     10  C   UNL     1      40.397 -31.402  11.319  1.00  0.00     0.076 A 
ATOM     11  C   UNL     1      40.117 -30.341  10.428  1.00  0.00     0.041 A 
ATOM     12  C   UNL     1      41.212 -29.734   9.636  1.00  0.00     0.194 C 
ATOM     13  O   UNL     1      40.948 -28.875   8.748  1.00  0.00    -0.289 OA
ATOM     14  C   UNL     1      38.801 -29.864  10.301  1.00  0.00     0.059 A 
ATOM     15  C   UNL     1      37.769 -30.418  11.058  1.00  0.00     0.120 A 
ATOM     16  C   UNL     1      38.048 -31.439  11.970  1.00  0.00     0.093 A 
ATOM     17  C   UNL     1      39.352 -31.917  12.130  1.00  0.00     0.131 A 
ENDROOT
BRANCH   6  18
ATOM     18  O   UNL     1      44.615 -32.399  12.088  1.00  0.00    -0.507 OA
ATOM     19  H   UNL     1      43.992 -33.115  12.433  1.00  0.00     0.293 HD
ENDBRANCH   6  18
BRANCH  17  20
ATOM     20  O   UNL     1      39.570 -32.874  13.125  1.00  0.00    -0.507 OA
ATOM     21  H   UNL     1      39.578 -32.662  14.113  1.00  0.00     0.293 HD
ENDBRANCH  17  20
BRANCH  15  22
ATOM     22  O   UNL     1      36.470 -29.938  10.905  1.00  0.00    -0.508 OA
ATOM     23  H   UNL     1      35.849 -30.308  10.196  1.00  0.00     0.293 HD
ENDBRANCH  15  22
TORSDOF 3
ENDMDL
MODEL 4
REMARK VINA RESULT:    -3.044      1.483      5.395
REMARK INTER + INTRA:          -3.311
REMARK INTER:                  -3.311
REMARK INTRA:                   0.000
REMARK UNBOUND:                 0.000
REMARK SMILES Cc1cc(O)c2c(c1)C(=O)c1cc(O)cc(O)c1C2=O
REMARK SMILES IDX 1 1 2 2 8 3 7 4 6 5 4 6 3 7 19 8 20 9 18 10 11 11 9 12 10 13
REMARK SMILES IDX 12 14 13 15 15 16 16 17 5 18 17 20 14 22
REMARK H PARENT 5 19 17 21 14 23
REMARK Flexibility Score: inf
ROOT
ATOM      1  C   UNL     1      36.230 -32.361  13.033  1.00  0.00     0.044 C 
ATOM      2  C   UNL     1      37.471 -31.822  12.384  1.00  0.00    -0.047 A 
ATOM      3  C   UNL     1      38.720 -32.380  12.681  1.00  0.00     0.016 A 
ATOM      4  C   UNL     1      39.890 -31.865  12.100  1.00  0.00     0.038 A 
ATOM      5  C   UNL     1      39.811 -30.773  11.208  1.00  0.00     0.076 A 
ATOM      6  C   UNL     1      38.553 -30.159  10.977  1.00  0.00     0.127 A 
ATOM      7  C   UNL     1      37.399 -30.702  11.549  1.00  0.00     0.050 A 
ATOM      8  C   UNL     1      41.049 -30.352  10.501  1.00  0.00     0.201 C 
ATOM      9  O   UNL     1      40.970 -29.837   9.354  1.00  0.00    -0.288 OA
ATOM     10  C   UNL     1      42.376 -30.708  11.063  1.00  0.00     0.076 A 
ATOM     11  C   UNL     1      42.452 -31.799  11.958  1.00  0.00     0.041 A 
ATOM     12  C   UNL     1      41.209 -32.457  12.426  1.00  0.00     0.194 C 
ATOM     13  O   UNL     1      41.275 -33.508  13.123  1.00  0.00    -0.289 OA
ATOM     14  C   UNL     1      43.705 -32.252  12.403  1.00  0.00     0.059 A 
ATOM     15  C   UNL     1      44.877 -31.625  11.982  1.00  0.00     0.120 A 
ATOM     16  C   UNL     1      44.806 -30.520  11.130  1.00  0.00     0.093 A 
ATOM     17  C   UNL     1      43.570 -30.038  10.688  1.00  0.00     0.131 A 
ENDROOT
BRANCH   6  18
ATOM     18  O   UNL     1      38.410 -28.994  10.219  1.00  0.00    -0.507 OA
ATOM     19  H   UNL     1      38.355 -28.986   9.211  1.00  0.00     0.293 HD
ENDBRANCH   6  18
BRANCH  17  20
ATOM     20  O   UNL     1      43.572 -28.875   9.912  1.00  0.00    -0.507 OA
ATOM     21  H   UNL     1      44.413 -28.388   9.637  1.00  0.00     0.293 HD
ENDBRANCH  17  20
BRANCH  15  22
ATOM     22  O   UNL     1      46.109 -32.100  12.426  1.00  0.00    -0.508 OA
ATOM     23  H   UNL     1      46.802 -31.480  12.830  1.00  0.00     0.293 HD
ENDBRANCH  15  22
TORSDOF 3
ENDMDL
MODEL 5
REMARK VINA RESULT:    -3.021      2.606      6.462
REMARK INTER + INTRA:          -3.286
REMARK INTER:                  -3.286
REMARK INTRA:                   0.000
REMARK UNBOUND:                 0.000
REMARK SMILES Cc1cc(O)c2c(c1)C(=O)c1cc(O)cc(O)c1C2=O
REMARK SMILES IDX 1 1 2 2 8 3 7 4 6 5 4 6 3 7 19 8 20 9 18 10 11 11 9 12 10 13
REMARK SMILES IDX 12 14 13 15 15 16 16 17 5 18 17 20 14 22
REMARK H PARENT 5 19 17 21 14 23
REMARK Flexibility Score: inf
ROOT
ATOM      1  C   UNL     1      34.386 -28.876   9.359  1.00  0.00     0.044 C 
ATOM      2  C   UNL     1      35.694 -29.611   9.404  1.00  0.00    -0.047 A 
ATOM      3  C   UNL     1      36.634 -29.314  10.397  1.00  0.00     0.016 A 
ATOM      4  C   UNL     1      37.871 -29.977  10.431  1.00  0.00     0.038 A 
ATOM      5  C   UNL     1      38.175 -30.952   9.454  1.00  0.00     0.076 A 
ATOM      6  C   UNL     1      37.253 -31.186   8.402  1.00  0.00     0.127 A 
ATOM      7  C   UNL     1      36.018 -30.530   8.401  1.00  0.00     0.050 A 
ATOM      8  C   UNL     1      39.429 -31.735   9.608  1.00  0.00     0.201 C 
ATOM      9  O   UNL     1      39.487 -32.916   9.174  1.00  0.00    -0.288 OA
ATOM     10  C   UNL     1      40.539 -31.194  10.433  1.00  0.00     0.076 A 
ATOM     11  C   UNL     1      40.233 -30.217  11.407  1.00  0.00     0.041 A 
ATOM     12  C   UNL     1      38.865 -29.653  11.481  1.00  0.00     0.194 C 
ATOM     13  O   UNL     1      38.553 -28.875  12.427  1.00  0.00    -0.289 OA
ATOM     14  C   UNL     1      41.229 -29.782  12.297  1.00  0.00     0.059 A 
ATOM     15  C   UNL     1      42.524 -30.295  12.219  1.00  0.00     0.120 A 
ATOM     16  C   UNL     1      42.842 -31.231  11.232  1.00  0.00     0.093 A 
ATOM     17  C   UNL     1      41.874 -31.665  10.321  1.00  0.00     0.131 A 
ENDROOT
BRANCH   6  18
ATOM     18  O   UNL     1      37.536 -32.029   7.324  1.00  0.00    -0.507 OA
ATOM     19  H   UNL     1      36.839 -32.591   6.858  1.00  0.00     0.293 HD
ENDBRANCH   6  18
BRANCH  17  20
ATOM     20  O   UNL     1      42.287 -32.532   9.306  1.00  0.00    -0.507 OA
ATOM     21  H   UNL     1      41.828 -33.408   9.098  1.00  0.00     0.293 HD
ENDBRANCH  17  20
BRANCH  15  22
ATOM     22  O   UNL     1      43.492 -29.859  13.122  1.00  0.00    -0.508 OA
ATOM     23  H   UNL     1      44.390 -29.511  12.808  1.00  0.00     0.293 HD
ENDBRANCH  15  22
TORSDOF 3
ENDMDL
MODEL 6
REMARK VINA RESULT:    -2.758      1.916      5.971
REMARK INTER + INTRA:          -3.000
REMARK INTER:                  -3.000
REMARK INTRA:                   0.000
REMARK UNBOUND:                 0.000
REMARK SMILES Cc1cc(O)c2c(c1)C(=O)c1cc(O)cc(O)c1C2=O
REMARK SMILES IDX 1 1 2 2 8 3 7 4 6 5 4 6 3 7 19 8 20 9 18 10 11 11 9 12 10 13
REMARK SMILES IDX 12 14 13 15 15 16 16 17 5 18 17 20 14 22
REMARK H PARENT 5 19 17 21 14 23
REMARK Flexibility Score: inf
ROOT
ATOM      1  C   UNL     1      34.481 -31.725  13.115  1.00  0.00     0.044 C 
ATOM      2  C   UNL     1      35.679 -31.313  12.311  1.00  0.00    -0.047 A 
ATOM      3  C   UNL     1      36.944 -31.828  12.618  1.00  0.00     0.016 A 
ATOM      4  C   UNL     1      38.075 -31.427  11.889  1.00  0.00     0.038 A 
ATOM      5  C   UNL     1      37.941 -30.496  10.836  1.00  0.00     0.076 A 
ATOM      6  C   UNL     1      36.671 -29.915  10.585  1.00  0.00     0.127 A 
ATOM      7  C   UNL     1      35.555 -30.344  11.310  1.00  0.00     0.050 A 
ATOM      8  C   UNL     1      39.131 -30.209   9.994  1.00  0.00     0.201 C 
ATOM      9  O   UNL     1      38.981 -29.888   8.785  1.00  0.00    -0.288 OA
ATOM     10  C   UNL     1      40.492 -30.482  10.523  1.00  0.00     0.076 A 
ATOM     11  C   UNL     1      40.623 -31.412  11.580  1.00  0.00     0.041 A 
ATOM     12  C   UNL     1      39.412 -31.971  12.225  1.00  0.00     0.194 C 
ATOM     13  O   UNL     1      39.522 -32.894  13.081  1.00  0.00    -0.289 OA
ATOM     14  C   UNL     1      41.902 -31.799  12.015  1.00  0.00     0.059 A 
ATOM     15  C   UNL     1      43.045 -31.261  11.425  1.00  0.00     0.120 A 
ATOM     16  C   UNL     1      42.920 -30.311  10.408  1.00  0.00     0.093 A 
ATOM     17  C   UNL     1      41.660 -29.894   9.970  1.00  0.00     0.131 A 
ENDROOT
BRANCH   6  18
ATOM     18  O   UNL     1      36.481 -28.888   9.657  1.00  0.00    -0.507 OA
ATOM     19  H   UNL     1      36.910 -27.977   9.736  1.00  0.00     0.293 HD
ENDBRANCH   6  18
BRANCH  17  20
ATOM     20  O   UNL     1      41.613 -28.875   9.016  1.00  0.00    -0.507 OA
ATOM     21  H   UNL     1      41.218 -28.991   8.093  1.00  0.00     0.293 HD
ENDBRANCH  17  20
BRANCH  15  22
ATOM     22  O   UNL     1      44.303 -31.670  11.864  1.00  0.00    -0.508 OA
ATOM     23  H   UNL     1      44.473 -32.621  12.171  1.00  0.00     0.293 HD
ENDBRANCH  15  22
TORSDOF 3
ENDMDL
MODEL 7
REMARK VINA RESULT:    -2.111      1.330      5.498
REMARK INTER + INTRA:          -2.297
REMARK INTER:                  -2.297
REMARK INTRA:                   0.000
REMARK UNBOUND:                 0.000
REMARK SMILES Cc1cc(O)c2c(c1)C(=O)c1cc(O)cc(O)c1C2=O
REMARK SMILES IDX 1 1 2 2 8 3 7 4 6 5 4 6 3 7 19 8 20 9 18 10 11 11 9 12 10 13
REMARK SMILES IDX 12 14 13 15 15 16 16 17 5 18 17 20 14 22
REMARK H PARENT 5 19 17 21 14 23
REMARK Flexibility Score: inf
ROOT
ATOM      1  C   UNL     1      37.243 -30.420  11.637  1.00  0.00     0.044 C 
ATOM      2  C   UNL     1      38.673 -30.594  11.217  1.00  0.00    -0.047 A 
ATOM      3  C   UNL     1      39.471 -31.569  11.825  1.00  0.00     0.016 A 
ATOM      4  C   UNL     1      40.818 -31.721  11.459  1.00  0.00     0.038 A 
ATOM      5  C   UNL     1      41.378 -30.884  10.468  1.00  0.00     0.076 A 
ATOM      6  C   UNL     1      40.586 -29.843   9.916  1.00  0.00     0.127 A 
ATOM      7  C   UNL     1      39.242 -29.724  10.281  1.00  0.00     0.050 A 
ATOM      8  C   UNL     1      42.759 -31.171  10.002  1.00  0.00     0.201 C 
ATOM      9  O   UNL     1      43.092 -30.890   8.820  1.00  0.00    -0.288 OA
ATOM     10  C   UNL     1      43.681 -31.953  10.865  1.00  0.00     0.076 A 
ATOM     11  C   UNL     1      43.119 -32.787  11.858  1.00  0.00     0.041 A 
ATOM     12  C   UNL     1      41.659 -32.751  12.113  1.00  0.00     0.194 C 
ATOM     13  O   UNL     1      41.137 -33.582  12.907  1.00  0.00    -0.289 OA
ATOM     14  C   UNL     1      43.948 -33.644  12.601  1.00  0.00     0.059 A 
ATOM     15  C   UNL     1      45.325 -33.669  12.379  1.00  0.00     0.120 A 
ATOM     16  C   UNL     1      45.890 -32.816  11.428  1.00  0.00     0.093 A 
ATOM     17  C   UNL     1      45.089 -31.939  10.689  1.00  0.00     0.131 A 
ENDROOT
BRANCH   6  18
ATOM     18  O   UNL     1      41.102 -28.888   9.036  1.00  0.00    -0.507 OA
ATOM     19  H   UNL     1      42.035 -28.509   9.109  1.00  0.00     0.293 HD
ENDBRANCH   6  18
BRANCH  17  20
ATOM     20  O   UNL     1      45.734 -31.053   9.822  1.00  0.00    -0.507 OA
ATOM     21  H   UNL     1      46.374 -30.335  10.131  1.00  0.00     0.293 HD
ENDBRANCH  17  20
BRANCH  15  22
ATOM     22  O   UNL     1      46.125 -34.537  13.119  1.00  0.00    -0.508 OA
ATOM     23  H   UNL     1      46.700 -34.205  13.885  1.00  0.00     0.293 HD
ENDBRANCH  15  22
TORSDOF 3
ENDMDL
MODEL 8
REMARK VINA RESULT:    -1.803      2.544      7.179
REMARK INTER + INTRA:          -1.961
REMARK INTER:                  -1.961
REMARK INTRA:                   0.000
REMARK UNBOUND:                 0.000
REMARK SMILES Cc1cc(O)c2c(c1)C(=O)c1cc(O)cc(O)c1C2=O
REMARK SMILES IDX 1 1 2 2 8 3 7 4 6 5 4 6 3 7 19 8 20 9 18 10 11 11 9 12 10 13
REMARK SMILES IDX 12 14 13 15 15 16 16 17 5 18 17 20 14 22
REMARK H PARENT 5 19 17 21 14 23
REMARK Flexibility Score: inf
ROOT
ATOM      1  C   UNL     1      33.524 -29.751   8.600  1.00  0.00     0.044 C 
ATOM      2  C   UNL     1      34.743 -29.961   9.450  1.00  0.00    -0.047 A 
ATOM      3  C   UNL     1      36.010 -29.625   8.957  1.00  0.00     0.016 A 
ATOM      4  C   UNL     1      37.159 -29.843   9.734  1.00  0.00     0.038 A 
ATOM      5  C   UNL     1      37.042 -30.408  11.023  1.00  0.00     0.076 A 
ATOM      6  C   UNL     1      35.765 -30.823  11.482  1.00  0.00     0.127 A 
ATOM      7  C   UNL     1      34.632 -30.577  10.700  1.00  0.00     0.050 A 
ATOM      8  C   UNL     1      38.260 -30.486  11.870  1.00  0.00     0.201 C 
ATOM      9  O   UNL     1      38.156 -30.421  13.125  1.00  0.00    -0.288 OA
ATOM     10  C   UNL     1      39.602 -30.452  11.237  1.00  0.00     0.076 A 
ATOM     11  C   UNL     1      39.717 -29.891   9.945  1.00  0.00     0.041 A 
ATOM     12  C   UNL     1      38.497 -29.492   9.203  1.00  0.00     0.194 C 
ATOM     13  O   UNL     1      38.600 -28.876   8.105  1.00  0.00    -0.289 OA
ATOM     14  C   UNL     1      40.986 -29.716   9.369  1.00  0.00     0.059 A 
ATOM     15  C   UNL     1      42.137 -30.107  10.054  1.00  0.00     0.120 A 
ATOM     16  C   UNL     1      42.026 -30.700  11.314  1.00  0.00     0.093 A 
ATOM     17  C   UNL     1      40.773 -30.904  11.901  1.00  0.00     0.131 A 
ENDROOT
BRANCH   6  18
ATOM     18  O   UNL     1      35.582 -31.513  12.683  1.00  0.00    -0.507 OA
ATOM     19  H   UNL     1      36.122 -31.335  13.517  1.00  0.00     0.293 HD
ENDBRANCH   6  18
BRANCH  17  20
ATOM     20  O   UNL     1      40.735 -31.585  13.120  1.00  0.00    -0.507 OA
ATOM     21  H   UNL     1      41.045 -32.540  13.237  1.00  0.00     0.293 HD
ENDBRANCH  17  20
BRANCH  15  22
ATOM     22  O   UNL     1      43.386 -29.911   9.469  1.00  0.00    -0.508 OA
ATOM     23  H   UNL     1      43.581 -29.098   8.897  1.00  0.00     0.293 HD
ENDBRANCH  15  22
TORSDOF 3
ENDMDL
