MODEL 1
REMARK VINA RESULT:    -3.761      0.000      0.000
REMARK INTER + INTRA:          -5.731
REMARK INTER:                  -5.739
REMARK INTRA:                   0.008
REMARK UNBOUND:                 0.008
REMARK SMILES CC1=CCC[C@H](C)C(=O)C[C@H](C(C)C)C(=O)C1
REMARK SMILES IDX 8 1 9 2 6 3 7 4 5 5 4 6 3 7 2 8 1 9 10 11 11 12 15 13 16 14
REMARK SMILES IDX 17 15 12 17 13 18 14 19
REMARK H PARENT
REMARK Flexibility Score: 70.00
ROOT
ATOM      1  C   UNL     1      -8.534  -5.409  19.286  1.00  0.00     0.136 C 
ATOM      2  O   UNL     1      -7.950  -5.604  20.342  1.00  0.00    -0.299 OA
ENDROOT
BRANCH   1   3
ATOM      3  C   UNL     1      -9.848  -4.644  19.275  1.00  0.00     0.053 C 
ATOM      4  C   UNL     1      -9.724  -3.360  18.442  1.00  0.00     0.016 C 
BRANCH   3   5
ATOM      5  C   UNL     1     -10.998  -5.535  18.745  1.00  0.00     0.015 C 
BRANCH   5   6
ATOM      6  C   UNL     1     -11.330  -5.251  17.266  1.00  0.00     0.028 C 
BRANCH   6   7
ATOM      7  C   UNL     1     -11.713  -6.514  16.536  1.00  0.00    -0.028 C 
ATOM      8  C   UNL     1     -10.848  -7.305  15.858  1.00  0.00    -0.070 CG0
ATOM      9  C   UNL     1     -11.403  -8.508  15.138  1.00  0.00     0.039 C 
ATOM     10  G   UNL     1      -9.351  -7.034  15.796  1.00  0.00     0.000 G0
ENDBRANCH   6   7
ENDBRANCH   5   6
ENDBRANCH   3   5
ENDBRANCH   1   3
BRANCH   1  11
ATOM     11  C   UNL     1      -7.922  -5.919  18.001  1.00  0.00     0.087 C 
BRANCH  11  12
ATOM     12  C   UNL     1      -7.837  -7.471  17.909  1.00  0.00     0.066 C 
BRANCH  12  13
ATOM     13  C   UNL     1      -8.541  -7.969  16.653  1.00  0.00     0.140 C 
ATOM     14  O   UNL     1      -8.497  -9.158  16.364  1.00  0.00    -0.299 OA
BRANCH  13  15
ATOM     15  C   UNL     1      -9.347  -7.027  15.796  1.00  0.00     0.106 CG0
ATOM     16  G   UNL     1     -10.841  -7.310  15.877  1.00  0.00     0.000 G0
ENDBRANCH  13  15
ENDBRANCH  12  13
BRANCH  12  17
ATOM     17  C   UNL     1      -6.387  -8.051  18.021  1.00  0.00    -0.006 C 
ATOM     18  C   UNL     1      -5.314  -6.953  18.135  1.00  0.00     0.008 C 
ATOM     19  C   UNL     1      -6.267  -8.987  19.239  1.00  0.00     0.008 C 
ENDBRANCH  12  17
ENDBRANCH  11  12
ENDBRANCH   1  11
TORSDOF 1
ENDMDL
MODEL 2
REMARK VINA RESULT:    -3.752      1.834      3.946
REMARK INTER + INTRA:          -5.718
REMARK INTER:                  -5.408
REMARK INTRA:                  -0.310
REMARK UNBOUND:                 0.008
REMARK SMILES CC1=CCC[C@H](C)C(=O)C[C@H](C(C)C)C(=O)C1
REMARK SMILES IDX 8 1 9 2 6 3 7 4 5 5 4 6 3 7 2 8 1 9 10 11 11 12 15 13 16 14
REMARK SMILES IDX 17 15 12 17 13 18 14 19
REMARK H PARENT
REMARK Flexibility Score: 70.00
ROOT
ATOM      1  C   UNL     1     -10.566  -4.697  17.012  1.00  0.00     0.136 C 
ATOM      2  O   UNL     1     -11.208  -3.796  16.491  1.00  0.00    -0.299 OA
ENDROOT
BRANCH   1   3
ATOM      3  C   UNL     1     -11.091  -6.124  16.974  1.00  0.00     0.053 C 
ATOM      4  C   UNL     1     -12.572  -6.170  17.377  1.00  0.00     0.016 C 
BRANCH   3   5
ATOM      5  C   UNL     1     -10.882  -6.749  15.572  1.00  0.00     0.015 C 
BRANCH   5   6
ATOM      6  C   UNL     1      -9.405  -7.103  15.300  1.00  0.00     0.028 C 
BRANCH   6   7
ATOM      7  C   UNL     1      -8.911  -8.168  16.246  1.00  0.00    -0.028 C 
ATOM      8  C   UNL     1      -7.977  -7.973  17.206  1.00  0.00    -0.070 CG0
ATOM      9  C   UNL     1      -7.555  -9.159  18.036  1.00  0.00     0.039 C 
ATOM     10  G   UNL     1      -7.342  -6.617  17.481  1.00  0.00     0.000 G0
ENDBRANCH   6   7
ENDBRANCH   5   6
ENDBRANCH   3   5
ENDBRANCH   1   3
BRANCH   1  11
ATOM     11  C   UNL     1      -9.244  -4.374  17.670  1.00  0.00     0.087 C 
BRANCH  11  12
ATOM     12  C   UNL     1      -8.967  -5.182  18.971  1.00  0.00     0.066 C 
BRANCH  12  13
ATOM     13  C   UNL     1      -7.711  -6.028  18.815  1.00  0.00     0.140 C 
ATOM     14  O   UNL     1      -7.023  -6.280  19.796  1.00  0.00    -0.299 OA
BRANCH  13  15
ATOM     15  C   UNL     1      -7.337  -6.614  17.477  1.00  0.00     0.106 CG0
ATOM     16  G   UNL     1      -7.992  -7.967  17.238  1.00  0.00     0.000 G0
ENDBRANCH  13  15
ENDBRANCH  12  13
BRANCH  12  17
ATOM     17  C   UNL     1      -8.917  -4.318  20.277  1.00  0.00    -0.006 C 
ATOM     18  C   UNL     1      -9.208  -2.829  20.016  1.00  0.00     0.008 C 
ATOM     19  C   UNL     1      -9.925  -4.843  21.317  1.00  0.00     0.008 C 
ENDBRANCH  12  17
ENDBRANCH  11  12
ENDBRANCH   1  11
TORSDOF 1
ENDMDL
MODEL 3
REMARK VINA RESULT:    -3.737      1.614      3.933
REMARK INTER + INTRA:          -5.694
REMARK INTER:                  -5.725
REMARK INTRA:                   0.031
REMARK UNBOUND:                 0.008
REMARK SMILES CC1=CCC[C@H](C)C(=O)C[C@H](C(C)C)C(=O)C1
REMARK SMILES IDX 8 1 9 2 6 3 7 4 5 5 4 6 3 7 2 8 1 9 10 11 11 12 15 13 16 14
REMARK SMILES IDX 17 15 12 17 13 18 14 19
REMARK H PARENT
REMARK Flexibility Score: 70.00
ROOT
ATOM      1  C   UNL     1      -6.986  -6.779  18.410  1.00  0.00     0.136 C 
ATOM      2  O   UNL     1      -6.304  -5.792  18.176  1.00  0.00    -0.299 OA
ENDROOT
BRANCH   1   3
ATOM      3  C   UNL     1      -6.347  -8.159  18.420  1.00  0.00     0.053 C 
ATOM      4  C   UNL     1      -5.903  -8.542  19.840  1.00  0.00     0.016 C 
BRANCH   3   5
ATOM      5  C   UNL     1      -7.317  -9.218  17.842  1.00  0.00     0.015 C 
BRANCH   5   6
ATOM      6  C   UNL     1      -7.557  -9.034  16.329  1.00  0.00     0.028 C 
BRANCH   6   7
ATOM      7  C   UNL     1      -9.021  -9.156  15.986  1.00  0.00    -0.028 C 
ATOM      8  C   UNL     1      -9.843  -8.109  15.735  1.00  0.00    -0.070 CG0
ATOM      9  C   UNL     1     -11.296  -8.401  15.457  1.00  0.00     0.039 C 
ATOM     10  G   UNL     1      -9.365  -6.664  15.722  1.00  0.00     0.000 G0
ENDBRANCH   6   7
ENDBRANCH   5   6
ENDBRANCH   3   5
ENDBRANCH   1   3
BRANCH   1  11
ATOM     11  C   UNL     1      -8.458  -6.604  18.704  1.00  0.00     0.087 C 
BRANCH  11  12
ATOM     12  C   UNL     1      -9.106  -5.373  18.004  1.00  0.00     0.066 C 
BRANCH  12  13
ATOM     13  C   UNL     1      -9.966  -5.821  16.830  1.00  0.00     0.140 C 
ATOM     14  O   UNL     1     -11.132  -5.455  16.757  1.00  0.00    -0.299 OA
BRANCH  13  15
ATOM     15  C   UNL     1      -9.381  -6.657  15.719  1.00  0.00     0.106 CG0
ATOM     16  G   UNL     1      -9.866  -8.099  15.767  1.00  0.00     0.000 G0
ENDBRANCH  13  15
ENDBRANCH  12  13
BRANCH  12  17
ATOM     17  C   UNL     1      -9.896  -4.420  18.962  1.00  0.00    -0.006 C 
ATOM     18  C   UNL     1      -9.812  -4.854  20.436  1.00  0.00     0.008 C 
ATOM     19  C   UNL     1      -9.377  -2.974  18.843  1.00  0.00     0.008 C 
ENDBRANCH  12  17
ENDBRANCH  11  12
ENDBRANCH   1  11
TORSDOF 1
ENDMDL
MODEL 4
REMARK VINA RESULT:    -3.679      1.888      4.874
REMARK INTER + INTRA:          -5.606
REMARK INTER:                  -5.326
REMARK INTRA:                  -0.280
REMARK UNBOUND:                 0.008
REMARK SMILES CC1=CCC[C@H](C)C(=O)C[C@H](C(C)C)C(=O)C1
REMARK SMILES IDX 8 1 9 2 6 3 7 4 5 5 4 6 3 7 2 8 1 9 10 11 11 12 15 13 16 14
REMARK SMILES IDX 17 15 12 17 13 18 14 19
REMARK H PARENT
REMARK Flexibility Score: 70.00
ROOT
ATOM      1  C   UNL     1     -10.163  -6.786  15.054  1.00  0.00     0.136 C 
ATOM      2  O   UNL     1     -10.632  -6.301  14.035  1.00  0.00    -0.299 OA
ENDROOT
BRANCH   1   3
ATOM      3  C   UNL     1     -10.405  -8.252  15.378  1.00  0.00     0.053 C 
ATOM      4  C   UNL     1     -11.844  -8.657  15.027  1.00  0.00     0.016 C 
BRANCH   3   5
ATOM      5  C   UNL     1      -9.384  -9.154  14.641  1.00  0.00     0.015 C 
BRANCH   5   6
ATOM      6  C   UNL     1      -7.929  -8.867  15.066  1.00  0.00     0.028 C 
BRANCH   6   7
ATOM      7  C   UNL     1      -7.641  -9.411  16.443  1.00  0.00    -0.028 C 
ATOM      8  C   UNL     1      -7.200  -8.670  17.488  1.00  0.00    -0.070 CG0
ATOM      9  C   UNL     1      -6.911  -9.379  18.787  1.00  0.00     0.039 C 
ATOM     10  G   UNL     1      -6.987  -7.165  17.405  1.00  0.00     0.000 G0
ENDBRANCH   6   7
ENDBRANCH   5   6
ENDBRANCH   3   5
ENDBRANCH   1   3
BRANCH   1  11
ATOM     11  C   UNL     1      -9.329  -5.917  15.967  1.00  0.00     0.087 C 
BRANCH  11  12
ATOM     12  C   UNL     1      -9.472  -6.261  17.479  1.00  0.00     0.066 C 
BRANCH  12  13
ATOM     13  C   UNL     1      -8.101  -6.401  18.125  1.00  0.00     0.140 C 
ATOM     14  O   UNL     1      -7.908  -5.944  19.245  1.00  0.00    -0.299 OA
BRANCH  13  15
ATOM     15  C   UNL     1      -6.993  -7.153  17.431  1.00  0.00     0.106 CG0
ATOM     16  G   UNL     1      -7.198  -8.661  17.488  1.00  0.00     0.000 G0
ENDBRANCH  13  15
ENDBRANCH  12  13
BRANCH  12  17
ATOM     17  C   UNL     1     -10.388  -5.281  18.286  1.00  0.00    -0.006 C 
ATOM     18  C   UNL     1     -10.246  -3.819  17.827  1.00  0.00     0.008 C 
ATOM     19  C   UNL     1     -11.868  -5.694  18.167  1.00  0.00     0.008 C 
ENDBRANCH  12  17
ENDBRANCH  11  12
ENDBRANCH   1  11
TORSDOF 1
ENDMDL
MODEL 5
REMARK VINA RESULT:    -3.643      1.232      1.707
REMARK INTER + INTRA:          -5.552
REMARK INTER:                  -5.577
REMARK INTRA:                   0.025
REMARK UNBOUND:                 0.008
REMARK SMILES CC1=CCC[C@H](C)C(=O)C[C@H](C(C)C)C(=O)C1
REMARK SMILES IDX 8 1 9 2 6 3 7 4 5 5 4 6 3 7 2 8 1 9 10 11 11 12 15 13 16 14
REMARK SMILES IDX 17 15 12 17 13 18 14 19
REMARK H PARENT
REMARK Flexibility Score: 70.00
ROOT
ATOM      1  C   UNL     1      -8.440  -5.484  19.078  1.00  0.00     0.136 C 
ATOM      2  O   UNL     1      -7.591  -5.623  19.946  1.00  0.00    -0.299 OA
ENDROOT
BRANCH   1   3
ATOM      3  C   UNL     1      -9.795  -4.888  19.430  1.00  0.00     0.053 C 
ATOM      4  C   UNL     1      -9.999  -4.863  20.952  1.00  0.00     0.016 C 
BRANCH   3   5
ATOM      5  C   UNL     1      -9.943  -3.468  18.830  1.00  0.00     0.015 C 
BRANCH   5   6
ATOM      6  C   UNL     1     -10.711  -3.470  17.493  1.00  0.00     0.028 C 
BRANCH   6   7
ATOM      7  C   UNL     1     -11.697  -4.610  17.427  1.00  0.00    -0.028 C 
ATOM      8  C   UNL     1     -11.547  -5.715  16.658  1.00  0.00    -0.070 CG0
ATOM      9  C   UNL     1     -12.652  -6.741  16.668  1.00  0.00     0.039 C 
ATOM     10  G   UNL     1     -10.319  -5.962  15.793  1.00  0.00     0.000 G0
ENDBRANCH   6   7
ENDBRANCH   5   6
ENDBRANCH   3   5
ENDBRANCH   1   3
BRANCH   1  11
ATOM     11  C   UNL     1      -8.117  -5.891  17.659  1.00  0.00     0.087 C 
BRANCH  11  12
ATOM     12  C   UNL     1      -8.613  -7.317  17.277  1.00  0.00     0.066 C 
BRANCH  12  13
ATOM     13  C   UNL     1      -9.605  -7.244  16.124  1.00  0.00     0.140 C 
ATOM     14  O   UNL     1      -9.871  -8.256  15.488  1.00  0.00    -0.299 OA
BRANCH  13  15
ATOM     15  C   UNL     1     -10.315  -5.955  15.796  1.00  0.00     0.106 CG0
ATOM     16  G   UNL     1     -11.548  -5.740  16.662  1.00  0.00     0.000 G0
ENDBRANCH  13  15
ENDBRANCH  12  13
BRANCH  12  17
ATOM     17  C   UNL     1      -7.472  -8.348  16.986  1.00  0.00    -0.006 C 
ATOM     18  C   UNL     1      -6.106  -7.675  16.760  1.00  0.00     0.008 C 
ATOM     19  C   UNL     1      -7.339  -9.356  18.144  1.00  0.00     0.008 C 
ENDBRANCH  12  17
ENDBRANCH  11  12
ENDBRANCH   1  11
TORSDOF 1
ENDMDL
MODEL 6
REMARK VINA RESULT:    -3.562      1.590      3.954
REMARK INTER + INTRA:          -5.428
REMARK INTER:                  -4.990
REMARK INTRA:                  -0.439
REMARK UNBOUND:                 0.008
REMARK SMILES CC1=CCC[C@H](C)C(=O)C[C@H](C(C)C)C(=O)C1
REMARK SMILES IDX 8 1 9 2 6 3 7 4 5 5 4 6 3 7 2 8 1 9 10 11 11 12 15 13 16 14
REMARK SMILES IDX 17 15 12 17 13 18 14 19
REMARK H PARENT
REMARK Flexibility Score: 70.00
ROOT
ATOM      1  C   UNL     1      -7.667  -8.443  16.618  1.00  0.00     0.136 C 
ATOM      2  O   UNL     1      -7.994  -9.531  16.166  1.00  0.00    -0.299 OA
ENDROOT
BRANCH   1   3
ATOM      3  C   UNL     1      -7.279  -7.315  15.675  1.00  0.00     0.053 C 
ATOM      4  C   UNL     1      -6.149  -7.756  14.734  1.00  0.00     0.016 C 
BRANCH   3   5
ATOM      5  C   UNL     1      -8.508  -6.826  14.869  1.00  0.00     0.015 C 
BRANCH   5   6
ATOM      6  C   UNL     1      -9.760  -6.648  15.753  1.00  0.00     0.028 C 
BRANCH   6   7
ATOM      7  C   UNL     1      -9.837  -5.255  16.324  1.00  0.00    -0.028 C 
ATOM      8  C   UNL     1      -9.784  -4.959  17.645  1.00  0.00    -0.070 CG0
ATOM      9  C   UNL     1      -9.927  -3.515  18.054  1.00  0.00     0.039 C 
ATOM     10  G   UNL     1      -9.587  -6.015  18.723  1.00  0.00     0.000 G0
ENDBRANCH   6   7
ENDBRANCH   5   6
ENDBRANCH   3   5
ENDBRANCH   1   3
BRANCH   1  11
ATOM     11  C   UNL     1      -7.674  -8.235  18.116  1.00  0.00     0.087 C 
BRANCH  11  12
ATOM     12  C   UNL     1      -7.097  -6.863  18.570  1.00  0.00     0.066 C 
BRANCH  12  13
ATOM     13  C   UNL     1      -8.169  -6.041  19.273  1.00  0.00     0.140 C 
ATOM     14  O   UNL     1      -7.870  -5.355  20.242  1.00  0.00    -0.299 OA
BRANCH  13  15
ATOM     15  C   UNL     1      -9.583  -6.009  18.751  1.00  0.00     0.106 CG0
ATOM     16  G   UNL     1      -9.764  -4.984  17.641  1.00  0.00     0.000 G0
ENDBRANCH  13  15
ENDBRANCH  12  13
BRANCH  12  17
ATOM     17  C   UNL     1      -5.792  -6.956  19.430  1.00  0.00    -0.006 C 
ATOM     18  C   UNL     1      -5.712  -8.257  20.250  1.00  0.00     0.008 C 
ATOM     19  C   UNL     1      -4.541  -6.860  18.536  1.00  0.00     0.008 C 
ENDBRANCH  12  17
ENDBRANCH  11  12
ENDBRANCH   1  11
TORSDOF 1
ENDMDL
MODEL 7
REMARK VINA RESULT:    -3.523      1.741      3.030
REMARK INTER + INTRA:          -5.368
REMARK INTER:                  -4.952
REMARK INTRA:                  -0.416
REMARK UNBOUND:                 0.008
REMARK SMILES CC1=CCC[C@H](C)C(=O)C[C@H](C(C)C)C(=O)C1
REMARK SMILES IDX 8 1 9 2 6 3 7 4 5 5 4 6 3 7 2 8 1 9 10 11 11 12 15 13 16 14
REMARK SMILES IDX 17 15 12 17 13 18 14 19
REMARK H PARENT
REMARK Flexibility Score: 70.00
ROOT
ATOM      1  C   UNL     1      -7.316  -6.118  17.248  1.00  0.00     0.136 C 
ATOM      2  O   UNL     1      -6.363  -5.363  17.127  1.00  0.00    -0.299 OA
ENDROOT
BRANCH   1   3
ATOM      3  C   UNL     1      -7.839  -6.465  18.634  1.00  0.00     0.053 C 
ATOM      4  C   UNL     1      -6.723  -7.066  19.501  1.00  0.00     0.016 C 
BRANCH   3   5
ATOM      5  C   UNL     1      -8.457  -5.219  19.315  1.00  0.00     0.015 C 
BRANCH   5   6
ATOM      6  C   UNL     1      -9.453  -4.479  18.399  1.00  0.00     0.028 C 
BRANCH   6   7
ATOM      7  C   UNL     1     -10.833  -5.081  18.486  1.00  0.00    -0.028 C 
ATOM      8  C   UNL     1     -11.500  -5.634  17.445  1.00  0.00    -0.070 CG0
ATOM      9  C   UNL     1     -12.897  -6.146  17.690  1.00  0.00     0.039 C 
ATOM     10  G   UNL     1     -10.902  -5.758  16.050  1.00  0.00     0.000 G0
ENDBRANCH   6   7
ENDBRANCH   5   6
ENDBRANCH   3   5
ENDBRANCH   1   3
BRANCH   1  11
ATOM     11  C   UNL     1      -7.973  -6.680  16.008  1.00  0.00     0.087 C 
BRANCH  11  12
ATOM     12  C   UNL     1      -9.118  -7.694  16.299  1.00  0.00     0.066 C 
BRANCH  12  13
ATOM     13  C   UNL     1     -10.441  -7.173  15.753  1.00  0.00     0.140 C 
ATOM     14  O   UNL     1     -11.170  -7.921  15.113  1.00  0.00    -0.299 OA
BRANCH  13  15
ATOM     15  C   UNL     1     -10.896  -5.766  16.045  1.00  0.00     0.106 CG0
ATOM     16  G   UNL     1     -11.488  -5.631  17.441  1.00  0.00     0.000 G0
ENDBRANCH  13  15
ENDBRANCH  12  13
BRANCH  12  17
ATOM     17  C   UNL     1      -8.834  -9.155  15.813  1.00  0.00    -0.006 C 
ATOM     18  C   UNL     1      -7.953  -9.202  14.552  1.00  0.00     0.008 C 
ATOM     19  C   UNL     1      -8.150  -9.976  16.923  1.00  0.00     0.008 C 
ENDBRANCH  12  17
ENDBRANCH  11  12
ENDBRANCH   1  11
TORSDOF 1
ENDMDL
MODEL 8
REMARK VINA RESULT:    -3.444      1.894      3.731
REMARK INTER + INTRA:          -5.248
REMARK INTER:                  -4.985
REMARK INTRA:                  -0.262
REMARK UNBOUND:                 0.008
REMARK SMILES CC1=CCC[C@H](C)C(=O)C[C@H](C(C)C)C(=O)C1
REMARK SMILES IDX 8 1 9 2 6 3 7 4 5 5 4 6 3 7 2 8 1 9 10 11 11 12 15 13 16 14
REMARK SMILES IDX 17 15 12 17 13 18 14 19
REMARK H PARENT
REMARK Flexibility Score: 70.00
ROOT
ATOM      1  C   UNL     1      -7.094  -5.950  18.070  1.00  0.00     0.136 C 
ATOM      2  O   UNL     1      -6.134  -6.133  18.804  1.00  0.00    -0.299 OA
ENDROOT
BRANCH   1   3
ATOM      3  C   UNL     1      -6.877  -5.494  16.635  1.00  0.00     0.053 C 
ATOM      4  C   UNL     1      -5.387  -5.243  16.363  1.00  0.00     0.016 C 
BRANCH   3   5
ATOM      5  C   UNL     1      -7.453  -6.529  15.637  1.00  0.00     0.015 C 
BRANCH   5   6
ATOM      6  C   UNL     1      -8.608  -5.953  14.792  1.00  0.00     0.028 C 
BRANCH   6   7
ATOM      7  C   UNL     1      -9.843  -6.814  14.890  1.00  0.00    -0.028 C 
ATOM      8  C   UNL     1     -10.937  -6.511  15.628  1.00  0.00    -0.070 CG0
ATOM      9  C   UNL     1     -12.069  -7.506  15.658  1.00  0.00     0.039 C 
ATOM     10  G   UNL     1     -11.070  -5.218  16.420  1.00  0.00     0.000 G0
ENDBRANCH   6   7
ENDBRANCH   5   6
ENDBRANCH   3   5
ENDBRANCH   1   3
BRANCH   1  11
ATOM     11  C   UNL     1      -8.487  -6.200  18.602  1.00  0.00     0.087 C 
BRANCH  11  12
ATOM     12  C   UNL     1      -9.443  -4.978  18.483  1.00  0.00     0.066 C 
BRANCH  12  13
ATOM     13  C   UNL     1     -10.783  -5.406  17.898  1.00  0.00     0.140 C 
ATOM     14  O   UNL     1     -11.649  -5.861  18.635  1.00  0.00    -0.299 OA
BRANCH  13  15
ATOM     15  C   UNL     1     -11.082  -5.216  16.433  1.00  0.00     0.106 CG0
ATOM     16  G   UNL     1     -10.934  -6.508  15.642  1.00  0.00     0.000 G0
ENDBRANCH  13  15
ENDBRANCH  12  13
BRANCH  12  17
ATOM     17  C   UNL     1      -9.630  -4.165  19.807  1.00  0.00    -0.006 C 
ATOM     18  C   UNL     1      -8.818  -4.744  20.980  1.00  0.00     0.008 C 
ATOM     19  C   UNL     1      -9.224  -2.692  19.606  1.00  0.00     0.008 C 
ENDBRANCH  12  17
ENDBRANCH  11  12
ENDBRANCH   1  11
TORSDOF 1
ENDMDL
MODEL 9
REMARK VINA RESULT:    -3.322      1.732      4.173
REMARK INTER + INTRA:          -5.062
REMARK INTER:                  -4.674
REMARK INTRA:                  -0.388
REMARK UNBOUND:                 0.008
REMARK SMILES CC1=CCC[C@H](C)C(=O)C[C@H](C(C)C)C(=O)C1
REMARK SMILES IDX 8 1 9 2 6 3 7 4 5 5 4 6 3 7 2 8 1 9 10 11 11 12 15 13 16 14
REMARK SMILES IDX 17 15 12 17 13 18 14 19
REMARK H PARENT
REMARK Flexibility Score: 70.00
ROOT
ATOM      1  C   UNL     1     -10.394  -5.060  18.904  1.00  0.00     0.136 C 
ATOM      2  O   UNL     1     -10.420  -5.352  20.091  1.00  0.00    -0.299 OA
ENDROOT
BRANCH   1   3
ATOM      3  C   UNL     1      -9.226  -4.263  18.343  1.00  0.00     0.053 C 
ATOM      4  C   UNL     1      -9.074  -2.926  19.084  1.00  0.00     0.016 C 
BRANCH   3   5
ATOM      5  C   UNL     1      -7.916  -5.086  18.415  1.00  0.00     0.015 C 
BRANCH   5   6
ATOM      6  C   UNL     1      -7.479  -5.618  17.035  1.00  0.00     0.028 C 
BRANCH   6   7
ATOM      7  C   UNL     1      -7.696  -7.107  16.926  1.00  0.00    -0.028 C 
ATOM      8  C   UNL     1      -8.631  -7.694  16.142  1.00  0.00    -0.070 CG0
ATOM      9  C   UNL     1      -8.751  -9.196  16.187  1.00  0.00     0.039 C 
ATOM     10  G   UNL     1      -9.555  -6.907  15.224  1.00  0.00     0.000 G0
ENDBRANCH   6   7
ENDBRANCH   5   6
ENDBRANCH   3   5
ENDBRANCH   1   3
BRANCH   1  11
ATOM     11  C   UNL     1     -11.523  -5.516  18.008  1.00  0.00     0.087 C 
BRANCH  11  12
ATOM     12  C   UNL     1     -11.244  -5.330  16.488  1.00  0.00     0.066 C 
BRANCH  12  13
ATOM     13  C   UNL     1     -10.915  -6.668  15.840  1.00  0.00     0.140 C 
ATOM     14  O   UNL     1     -11.775  -7.537  15.773  1.00  0.00    -0.299 OA
BRANCH  13  15
ATOM     15  C   UNL     1      -9.564  -6.913  15.218  1.00  0.00     0.106 CG0
ATOM     16  G   UNL     1      -8.640  -7.698  16.139  1.00  0.00     0.000 G0
ENDBRANCH  13  15
ENDBRANCH  12  13
BRANCH  12  17
ATOM     17  C   UNL     1     -12.372  -4.576  15.706  1.00  0.00    -0.006 C 
ATOM     18  C   UNL     1     -12.723  -3.215  16.334  1.00  0.00     0.008 C 
ATOM     19  C   UNL     1     -11.961  -4.351  14.238  1.00  0.00     0.008 C 
ENDBRANCH  12  17
ENDBRANCH  11  12
ENDBRANCH   1  11
TORSDOF 1
ENDMDL
