MODEL 1
REMARK VINA RESULT:    -5.585      0.000      0.000
REMARK INTER + INTRA:          -5.585
REMARK INTER:                  -5.585
REMARK INTRA:                   0.000
REMARK UNBOUND:                 0.000
REMARK SMILES CC1=CC[C@@H]2[C@@H](C1)C2(C)C
REMARK SMILES IDX 1 1 2 2 3 3 4 4 5 5 6 6 7 7 8 8 9 9 10 10
REMARK H PARENT
REMARK Flexibility Score: inf
ROOT
ATOM      1  C   UNL     1      -1.807  14.305   6.095  1.00  0.00     0.039 C 
ATOM      2  C   UNL     1      -0.419  13.895   5.693  1.00  0.00    -0.077 C 
ATOM      3  C   UNL     1       0.510  13.632   6.659  1.00  0.00    -0.028 C 
ATOM      4  C   UNL     1       1.944  13.236   6.314  1.00  0.00     0.031 C 
ATOM      5  C   UNL     1       2.248  13.749   4.903  1.00  0.00     0.003 C 
ATOM      6  C   UNL     1       1.189  12.951   4.054  1.00  0.00     0.003 C 
ATOM      7  C   UNL     1      -0.050  13.841   4.206  1.00  0.00     0.034 C 
ATOM      8  C   UNL     1       2.611  13.132   3.570  1.00  0.00    -0.029 C 
ATOM      9  C   UNL     1       2.791  14.087   2.388  1.00  0.00     0.012 C 
ATOM     10  C   UNL     1       3.527  11.907   3.637  1.00  0.00     0.012 C 
ENDROOT
TORSDOF 0
ENDMDL
MODEL 2
REMARK VINA RESULT:    -5.448      1.185      4.090
REMARK INTER + INTRA:          -5.448
REMARK INTER:                  -5.448
REMARK INTRA:                   0.000
REMARK UNBOUND:                 0.000
REMARK SMILES CC1=CC[C@@H]2[C@@H](C1)C2(C)C
REMARK SMILES IDX 1 1 2 2 3 3 4 4 5 5 6 6 7 7 8 8 9 9 10 10
REMARK H PARENT
REMARK Flexibility Score: inf
ROOT
ATOM      1  C   UNL     1       4.004  12.266   3.506  1.00  0.00     0.039 C 
ATOM      2  C   UNL     1       2.914  12.677   4.455  1.00  0.00    -0.077 C 
ATOM      3  C   UNL     1       3.229  13.417   5.559  1.00  0.00    -0.028 C 
ATOM      4  C   UNL     1       2.170  13.844   6.574  1.00  0.00     0.031 C 
ATOM      5  C   UNL     1       0.990  12.874   6.459  1.00  0.00     0.003 C 
ATOM      6  C   UNL     1       0.529  13.128   4.976  1.00  0.00     0.003 C 
ATOM      7  C   UNL     1       1.477  12.204   4.203  1.00  0.00     0.034 C 
ATOM      8  C   UNL     1      -0.475  12.974   6.096  1.00  0.00    -0.029 C 
ATOM      9  C   UNL     1      -1.279  11.671   6.089  1.00  0.00     0.012 C 
ATOM     10  C   UNL     1      -1.188  14.244   6.569  1.00  0.00     0.012 C 
ENDROOT
TORSDOF 0
ENDMDL
MODEL 3
REMARK VINA RESULT:    -5.378      1.367      3.696
REMARK INTER + INTRA:          -5.378
REMARK INTER:                  -5.378
REMARK INTRA:                   0.000
REMARK UNBOUND:                 0.000
REMARK SMILES CC1=CC[C@@H]2[C@@H](C1)C2(C)C
REMARK SMILES IDX 1 1 2 2 3 3 4 4 5 5 6 6 7 7 8 8 9 9 10 10
REMARK H PARENT
REMARK Flexibility Score: inf
ROOT
ATOM      1  C   UNL     1       1.601  15.065   0.970  1.00  0.00     0.039 C 
ATOM      2  C   UNL     1       1.717  14.412   2.318  1.00  0.00    -0.077 C 
ATOM      3  C   UNL     1       2.946  14.033   2.777  1.00  0.00    -0.028 C 
ATOM      4  C   UNL     1       3.127  13.342   4.127  1.00  0.00     0.031 C 
ATOM      5  C   UNL     1       1.795  12.682   4.500  1.00  0.00     0.003 C 
ATOM      6  C   UNL     1       0.849  13.936   4.596  1.00  0.00     0.003 C 
ATOM      7  C   UNL     1       0.447  14.122   3.127  1.00  0.00     0.034 C 
ATOM      8  C   UNL     1       0.782  12.820   5.614  1.00  0.00    -0.029 C 
ATOM      9  C   UNL     1      -0.461  11.930   5.537  1.00  0.00     0.012 C 
ATOM     10  C   UNL     1       1.359  13.111   7.002  1.00  0.00     0.012 C 
ENDROOT
TORSDOF 0
ENDMDL
MODEL 4
REMARK VINA RESULT:    -5.301      1.019      2.176
REMARK INTER + INTRA:          -5.301
REMARK INTER:                  -5.301
REMARK INTRA:                   0.000
REMARK UNBOUND:                 0.000
REMARK SMILES CC1=CC[C@@H]2[C@@H](C1)C2(C)C
REMARK SMILES IDX 1 1 2 2 3 3 4 4 5 5 6 6 7 7 8 8 9 9 10 10
REMARK H PARENT
REMARK Flexibility Score: inf
ROOT
ATOM      1  C   UNL     1      -1.588  13.110   6.065  1.00  0.00     0.039 C 
ATOM      2  C   UNL     1      -0.397  13.319   5.173  1.00  0.00    -0.077 C 
ATOM      3  C   UNL     1      -0.539  14.042   4.023  1.00  0.00    -0.028 C 
ATOM      4  C   UNL     1       0.626  14.267   3.062  1.00  0.00     0.031 C 
ATOM      5  C   UNL     1       1.647  13.147   3.289  1.00  0.00     0.003 C 
ATOM      6  C   UNL     1       2.054  13.405   4.788  1.00  0.00     0.003 C 
ATOM      7  C   UNL     1       0.939  12.661   5.534  1.00  0.00     0.034 C 
ATOM      8  C   UNL     1       3.088  13.058   3.740  1.00  0.00    -0.029 C 
ATOM      9  C   UNL     1       3.696  11.657   3.851  1.00  0.00     0.012 C 
ATOM     10  C   UNL     1       4.002  14.191   3.265  1.00  0.00     0.012 C 
ENDROOT
TORSDOF 0
ENDMDL
MODEL 5
REMARK VINA RESULT:    -5.231      1.344      3.854
REMARK INTER + INTRA:          -5.231
REMARK INTER:                  -5.231
REMARK INTRA:                   0.000
REMARK UNBOUND:                 0.000
REMARK SMILES CC1=CC[C@@H]2[C@@H](C1)C2(C)C
REMARK SMILES IDX 1 1 2 2 3 3 4 4 5 5 6 6 7 7 8 8 9 9 10 10
REMARK H PARENT
REMARK Flexibility Score: inf
ROOT
ATOM      1  C   UNL     1       1.868  14.419   1.073  1.00  0.00     0.039 C 
ATOM      2  C   UNL     1       1.202  14.077   2.375  1.00  0.00    -0.077 C 
ATOM      3  C   UNL     1      -0.115  14.388   2.557  1.00  0.00    -0.028 C 
ATOM      4  C   UNL     1      -0.842  14.090   3.867  1.00  0.00     0.031 C 
ATOM      5  C   UNL     1       0.210  13.986   4.976  1.00  0.00     0.003 C 
ATOM      6  C   UNL     1       1.061  12.760   4.475  1.00  0.00     0.003 C 
ATOM      7  C   UNL     1       2.028  13.444   3.501  1.00  0.00     0.034 C 
ATOM      8  C   UNL     1       0.688  12.916   5.933  1.00  0.00    -0.029 C 
ATOM      9  C   UNL     1       1.836  13.287   6.874  1.00  0.00     0.012 C 
ATOM     10  C   UNL     1      -0.397  11.981   6.474  1.00  0.00     0.012 C 
ENDROOT
TORSDOF 0
ENDMDL
MODEL 6
REMARK VINA RESULT:    -5.182      1.292      1.733
REMARK INTER + INTRA:          -5.182
REMARK INTER:                  -5.182
REMARK INTRA:                   0.000
REMARK UNBOUND:                 0.000
REMARK SMILES CC1=CC[C@@H]2[C@@H](C1)C2(C)C
REMARK SMILES IDX 1 1 2 2 3 3 4 4 5 5 6 6 7 7 8 8 9 9 10 10
REMARK H PARENT
REMARK Flexibility Score: inf
ROOT
ATOM      1  C   UNL     1      -1.746  14.876   3.120  1.00  0.00     0.039 C 
ATOM      2  C   UNL     1      -0.489  14.173   3.548  1.00  0.00    -0.077 C 
ATOM      3  C   UNL     1      -0.507  13.388   4.666  1.00  0.00    -0.028 C 
ATOM      4  C   UNL     1       0.744  12.669   5.167  1.00  0.00     0.031 C 
ATOM      5  C   UNL     1       1.966  13.412   4.620  1.00  0.00     0.003 C 
ATOM      6  C   UNL     1       1.760  13.238   3.069  1.00  0.00     0.003 C 
ATOM      7  C   UNL     1       0.806  14.398   2.760  1.00  0.00     0.034 C 
ATOM      8  C   UNL     1       3.125  13.085   3.703  1.00  0.00    -0.029 C 
ATOM      9  C   UNL     1       4.120  14.211   3.412  1.00  0.00     0.012 C 
ATOM     10  C   UNL     1       3.679  11.662   3.821  1.00  0.00     0.012 C 
ENDROOT
TORSDOF 0
ENDMDL
MODEL 7
REMARK VINA RESULT:    -5.179      1.483      2.796
REMARK INTER + INTRA:          -5.179
REMARK INTER:                  -5.179
REMARK INTRA:                   0.000
REMARK UNBOUND:                 0.000
REMARK SMILES CC1=CC[C@@H]2[C@@H](C1)C2(C)C
REMARK SMILES IDX 1 1 2 2 3 3 4 4 5 5 6 6 7 7 8 8 9 9 10 10
REMARK H PARENT
REMARK Flexibility Score: inf
ROOT
ATOM      1  C   UNL     1       1.679  13.291   6.815  1.00  0.00     0.039 C 
ATOM      2  C   UNL     1       1.888  13.404   5.332  1.00  0.00    -0.077 C 
ATOM      3  C   UNL     1       3.130  13.180   4.810  1.00  0.00    -0.028 C 
ATOM      4  C   UNL     1       3.412  13.303   3.314  1.00  0.00     0.031 C 
ATOM      5  C   UNL     1       2.344  14.219   2.708  1.00  0.00     0.003 C 
ATOM      6  C   UNL     1       1.034  13.395   3.000  1.00  0.00     0.003 C 
ATOM      7  C   UNL     1       0.719  13.831   4.436  1.00  0.00     0.034 C 
ATOM      8  C   UNL     1       1.250  14.084   1.671  1.00  0.00    -0.029 C 
ATOM      9  C   UNL     1       0.379  15.317   1.417  1.00  0.00     0.012 C 
ATOM     10  C   UNL     1       1.581  13.191   0.472  1.00  0.00     0.012 C 
ENDROOT
TORSDOF 0
ENDMDL
MODEL 8
REMARK VINA RESULT:    -5.035      2.502      4.587
REMARK INTER + INTRA:          -5.035
REMARK INTER:                  -5.035
REMARK INTRA:                   0.000
REMARK UNBOUND:                 0.000
REMARK SMILES CC1=CC[C@@H]2[C@@H](C1)C2(C)C
REMARK SMILES IDX 1 1 2 2 3 3 4 4 5 5 6 6 7 7 8 8 9 9 10 10
REMARK H PARENT
REMARK Flexibility Score: inf
ROOT
ATOM      1  C   UNL     1       4.372  17.511   1.612  1.00  0.00     0.039 C 
ATOM      2  C   UNL     1       3.808  16.205   2.096  1.00  0.00    -0.077 C 
ATOM      3  C   UNL     1       2.772  15.629   1.417  1.00  0.00    -0.028 C 
ATOM      4  C   UNL     1       2.139  14.316   1.873  1.00  0.00     0.031 C 
ATOM      5  C   UNL     1       2.425  14.150   3.369  1.00  0.00     0.003 C 
ATOM      6  C   UNL     1       3.997  14.085   3.374  1.00  0.00     0.003 C 
ATOM      7  C   UNL     1       4.360  15.576   3.380  1.00  0.00     0.034 C 
ATOM      8  C   UNL     1       3.169  13.159   4.236  1.00  0.00    -0.029 C 
ATOM      9  C   UNL     1       3.208  13.444   5.739  1.00  0.00     0.012 C 
ATOM     10  C   UNL     1       3.079  11.696   3.794  1.00  0.00     0.012 C 
ENDROOT
TORSDOF 0
ENDMDL
