MODEL 1
REMARK VINA RESULT:    -4.083      0.000      0.000
REMARK INTER + INTRA:          -4.202
REMARK INTER:                  -4.202
REMARK INTRA:                   0.000
REMARK UNBOUND:                 0.000
REMARK SMILES CC1(C)[C@@H]2CC[C@@]1(C)[C@@H](O)C2
REMARK SMILES IDX 1 1 2 2 4 3 5 4 6 5 7 6 9 7 11 8 8 9 3 10 10 11
REMARK H PARENT 10 12
REMARK Flexibility Score: inf
ROOT
ATOM      1  C   UNL     1     117.639 118.494 114.605  1.00  0.00     0.012 C 
ATOM      2  C   UNL     1     116.796 118.429 113.293  1.00  0.00    -0.025 C 
ATOM      3  C   UNL     1     115.692 119.495 113.210  1.00  0.00    -0.002 C 
ATOM      4  C   UNL     1     114.752 119.127 114.384  1.00  0.00     0.005 C 
ATOM      5  C   UNL     1     114.811 117.587 114.400  1.00  0.00     0.010 C 
ATOM      6  C   UNL     1     115.771 117.272 113.217  1.00  0.00    -0.001 C 
ATOM      7  C   UNL     1     115.004 117.580 111.895  1.00  0.00     0.121 C 
ATOM      8  C   UNL     1     114.926 119.126 111.914  1.00  0.00     0.036 C 
ATOM      9  C   UNL     1     116.356 115.856 113.268  1.00  0.00     0.015 C 
ATOM     10  C   UNL     1     117.826 118.500 112.123  1.00  0.00     0.012 C 
ENDROOT
BRANCH   7  11
ATOM     11  O   UNL     1     113.726 116.997 111.875  1.00  0.00    -0.393 OA
ATOM     12  H   UNL     1     113.361 117.150 110.964  1.00  0.00     0.210 HD
ENDBRANCH   7  11
TORSDOF 1
ENDMDL
MODEL 2
REMARK VINA RESULT:    -4.081      2.098      3.304
REMARK INTER + INTRA:          -4.201
REMARK INTER:                  -4.201
REMARK INTRA:                   0.000
REMARK UNBOUND:                 0.000
REMARK SMILES CC1(C)[C@@H]2CC[C@@]1(C)[C@@H](O)C2
REMARK SMILES IDX 1 1 2 2 4 3 5 4 6 5 7 6 9 7 11 8 8 9 3 10 10 11
REMARK H PARENT 10 12
REMARK Flexibility Score: inf
ROOT
ATOM      1  C   UNL     1     114.758 117.652 114.471  1.00  0.00     0.012 C 
ATOM      2  C   UNL     1     114.825 116.757 113.195  1.00  0.00    -0.025 C 
ATOM      3  C   UNL     1     113.750 115.659 113.148  1.00  0.00    -0.002 C 
ATOM      4  C   UNL     1     114.101 114.764 114.361  1.00  0.00     0.005 C 
ATOM      5  C   UNL     1     115.642 114.811 114.387  1.00  0.00     0.010 C 
ATOM      6  C   UNL     1     115.973 115.719 113.168  1.00  0.00    -0.001 C 
ATOM      7  C   UNL     1     115.668 114.902 111.876  1.00  0.00     0.121 C 
ATOM      8  C   UNL     1     114.121 114.839 111.887  1.00  0.00     0.036 C 
ATOM      9  C   UNL     1     117.394 116.294 113.206  1.00  0.00     0.015 C 
ATOM     10  C   UNL     1     114.771 117.739 111.983  1.00  0.00     0.012 C 
ENDROOT
BRANCH   7  11
ATOM     11  O   UNL     1     116.240 113.620 111.912  1.00  0.00    -0.393 OA
ATOM     12  H   UNL     1     115.762 113.119 112.625  1.00  0.00     0.210 HD
ENDBRANCH   7  11
TORSDOF 1
ENDMDL
MODEL 3
REMARK VINA RESULT:    -3.991      2.753      4.697
REMARK INTER + INTRA:          -4.108
REMARK INTER:                  -4.108
REMARK INTRA:                   0.000
REMARK UNBOUND:                 0.000
REMARK SMILES CC1(C)[C@@H]2CC[C@@]1(C)[C@@H](O)C2
REMARK SMILES IDX 1 1 2 2 4 3 5 4 6 5 7 6 9 7 11 8 8 9 3 10 10 11
REMARK H PARENT 10 12
REMARK Flexibility Score: inf
ROOT
ATOM      1  C   UNL     1     115.546 114.728 114.484  1.00  0.00     0.012 C 
ATOM      2  C   UNL     1     116.444 114.752 113.208  1.00  0.00    -0.025 C 
ATOM      3  C   UNL     1     117.519 113.653 113.184  1.00  0.00    -0.002 C 
ATOM      4  C   UNL     1     118.420 114.010 114.391  1.00  0.00     0.005 C 
ATOM      5  C   UNL     1     118.405 115.552 114.386  1.00  0.00     0.010 C 
ATOM      6  C   UNL     1     117.504 115.877 113.160  1.00  0.00    -0.001 C 
ATOM      7  C   UNL     1     118.316 115.530 111.875  1.00  0.00     0.121 C 
ATOM      8  C   UNL     1     118.348 113.983 111.917  1.00  0.00     0.036 C 
ATOM      9  C   UNL     1     116.959 117.311 113.169  1.00  0.00     0.015 C 
ATOM     10  C   UNL     1     115.462 114.694 111.997  1.00  0.00     0.012 C 
ENDROOT
BRANCH   7  11
ATOM     11  O   UNL     1     119.610 116.077 111.902  1.00  0.00    -0.393 OA
ATOM     12  H   UNL     1     120.198 115.387 112.308  1.00  0.00     0.210 HD
ENDBRANCH   7  11
TORSDOF 1
ENDMDL
MODEL 4
REMARK VINA RESULT:    -3.979      2.044      3.175
REMARK INTER + INTRA:          -4.095
REMARK INTER:                  -4.095
REMARK INTRA:                   0.000
REMARK UNBOUND:                 0.000
REMARK SMILES CC1(C)[C@@H]2CC[C@@]1(C)[C@@H](O)C2
REMARK SMILES IDX 1 1 2 2 4 3 5 4 6 5 7 6 9 7 11 8 8 9 3 10 10 11
REMARK H PARENT 10 12
REMARK Flexibility Score: inf
ROOT
ATOM      1  C   UNL     1     118.290 115.558 114.607  1.00  0.00     0.012 C 
ATOM      2  C   UNL     1     118.397 116.487 113.358  1.00  0.00    -0.025 C 
ATOM      3  C   UNL     1     119.362 117.669 113.544  1.00  0.00    -0.002 C 
ATOM      4  C   UNL     1     118.705 118.491 114.679  1.00  0.00     0.005 C 
ATOM      5  C   UNL     1     117.199 118.319 114.399  1.00  0.00     0.010 C 
ATOM      6  C   UNL     1     117.192 117.429 113.123  1.00  0.00    -0.001 C 
ATOM      7  C   UNL     1     117.672 118.311 111.931  1.00  0.00     0.121 C 
ATOM      8  C   UNL     1     119.176 118.499 112.248  1.00  0.00     0.036 C 
ATOM      9  C   UNL     1     115.845 116.741 112.870  1.00  0.00     0.015 C 
ATOM     10  C   UNL     1     118.770 115.554 112.165  1.00  0.00     0.012 C 
ENDROOT
BRANCH   7  11
ATOM     11  O   UNL     1     116.996 119.541 111.875  1.00  0.00    -0.393 OA
ATOM     12  H   UNL     1     117.674 120.223 111.626  1.00  0.00     0.210 HD
ENDBRANCH   7  11
TORSDOF 1
ENDMDL
MODEL 5
REMARK VINA RESULT:    -3.964      2.143      3.125
REMARK INTER + INTRA:          -4.080
REMARK INTER:                  -4.080
REMARK INTRA:                   0.000
REMARK UNBOUND:                 0.000
REMARK SMILES CC1(C)[C@@H]2CC[C@@]1(C)[C@@H](O)C2
REMARK SMILES IDX 1 1 2 2 4 3 5 4 6 5 7 6 9 7 11 8 8 9 3 10 10 11
REMARK H PARENT 10 12
REMARK Flexibility Score: inf
ROOT
ATOM      1  C   UNL     1     117.248 116.470 113.029  1.00  0.00     0.012 C 
ATOM      2  C   UNL     1     116.047 115.533 112.691  1.00  0.00    -0.025 C 
ATOM      3  C   UNL     1     114.895 116.238 111.957  1.00  0.00    -0.002 C 
ATOM      4  C   UNL     1     114.396 117.276 112.991  1.00  0.00     0.005 C 
ATOM      5  C   UNL     1     114.573 116.536 114.332  1.00  0.00     0.010 C 
ATOM      6  C   UNL     1     115.138 115.157 113.885  1.00  0.00    -0.001 C 
ATOM      7  C   UNL     1     113.978 114.372 113.201  1.00  0.00     0.121 C 
ATOM      8  C   UNL     1     113.795 115.150 111.875  1.00  0.00     0.036 C 
ATOM      9  C   UNL     1     115.814 114.380 115.022  1.00  0.00     0.015 C 
ATOM     10  C   UNL     1     116.655 114.333 111.898  1.00  0.00     0.012 C 
ENDROOT
BRANCH   7  11
ATOM     11  O   UNL     1     112.805 114.381 113.973  1.00  0.00    -0.393 OA
ATOM     12  H   UNL     1     112.426 115.296 113.899  1.00  0.00     0.210 HD
ENDBRANCH   7  11
TORSDOF 1
ENDMDL
MODEL 6
REMARK VINA RESULT:    -3.947      2.611      4.055
REMARK INTER + INTRA:          -4.063
REMARK INTER:                  -4.063
REMARK INTRA:                   0.000
REMARK UNBOUND:                 0.000
REMARK SMILES CC1(C)[C@@H]2CC[C@@]1(C)[C@@H](O)C2
REMARK SMILES IDX 1 1 2 2 4 3 5 4 6 5 7 6 9 7 11 8 8 9 3 10 10 11
REMARK H PARENT 10 12
REMARK Flexibility Score: inf
ROOT
ATOM      1  C   UNL     1     115.913 116.635 113.081  1.00  0.00     0.012 C 
ATOM      2  C   UNL     1     117.077 117.621 112.752  1.00  0.00    -0.025 C 
ATOM      3  C   UNL     1     118.216 116.989 111.935  1.00  0.00    -0.002 C 
ATOM      4  C   UNL     1     118.780 115.908 112.888  1.00  0.00     0.005 C 
ATOM      5  C   UNL     1     118.638 116.566 114.275  1.00  0.00     0.010 C 
ATOM      6  C   UNL     1     118.023 117.952 113.931  1.00  0.00    -0.001 C 
ATOM      7  C   UNL     1     119.136 118.805 113.250  1.00  0.00     0.121 C 
ATOM      8  C   UNL     1     119.285 118.109 111.875  1.00  0.00     0.036 C 
ATOM      9  C   UNL     1     117.374 118.645 115.135  1.00  0.00     0.015 C 
ATOM     10  C   UNL     1     116.410 118.847 112.054  1.00  0.00     0.012 C 
ENDROOT
BRANCH   7  11
ATOM     11  O   UNL     1     120.339 118.784 113.975  1.00  0.00    -0.393 OA
ATOM     12  H   UNL     1     120.575 117.827 114.099  1.00  0.00     0.210 HD
ENDBRANCH   7  11
TORSDOF 1
ENDMDL
MODEL 7
REMARK VINA RESULT:    -3.849      1.738      3.195
REMARK INTER + INTRA:          -3.961
REMARK INTER:                  -3.961
REMARK INTRA:                   0.000
REMARK UNBOUND:                 0.000
REMARK SMILES CC1(C)[C@@H]2CC[C@@]1(C)[C@@H](O)C2
REMARK SMILES IDX 1 1 2 2 4 3 5 4 6 5 7 6 9 7 11 8 8 9 3 10 10 11
REMARK H PARENT 10 12
REMARK Flexibility Score: inf
ROOT
ATOM      1  C   UNL     1     114.369 116.818 114.880  1.00  0.00     0.012 C 
ATOM      2  C   UNL     1     115.097 117.058 113.521  1.00  0.00    -0.025 C 
ATOM      3  C   UNL     1     116.466 116.364 113.419  1.00  0.00    -0.002 C 
ATOM      4  C   UNL     1     117.301 117.058 114.522  1.00  0.00     0.005 C 
ATOM      5  C   UNL     1     116.785 118.510 114.479  1.00  0.00     0.010 C 
ATOM      6  C   UNL     1     115.726 118.460 113.340  1.00  0.00    -0.001 C 
ATOM      7  C   UNL     1     116.494 118.321 111.990  1.00  0.00     0.121 C 
ATOM      8  C   UNL     1     117.031 116.871 112.068  1.00  0.00     0.036 C 
ATOM      9  C   UNL     1     114.747 119.640 113.367  1.00  0.00     0.015 C 
ATOM     10  C   UNL     1     114.088 116.620 112.415  1.00  0.00     0.012 C 
ENDROOT
BRANCH   7  11
ATOM     11  O   UNL     1     117.537 119.254 111.875  1.00  0.00    -0.393 OA
ATOM     12  H   UNL     1     117.246 120.063 112.373  1.00  0.00     0.210 HD
ENDBRANCH   7  11
TORSDOF 1
ENDMDL
MODEL 8
REMARK VINA RESULT:    -3.814      1.746      2.798
REMARK INTER + INTRA:          -3.926
REMARK INTER:                  -3.926
REMARK INTRA:                   0.000
REMARK UNBOUND:                 0.000
REMARK SMILES CC1(C)[C@@H]2CC[C@@]1(C)[C@@H](O)C2
REMARK SMILES IDX 1 1 2 2 4 3 5 4 6 5 7 6 9 7 11 8 8 9 3 10 10 11
REMARK H PARENT 10 12
REMARK Flexibility Score: inf
ROOT
ATOM      1  C   UNL     1     116.453 114.359 114.777  1.00  0.00     0.012 C 
ATOM      2  C   UNL     1     116.206 115.130 113.444  1.00  0.00    -0.025 C 
ATOM      3  C   UNL     1     116.892 116.505 113.384  1.00  0.00    -0.002 C 
ATOM      4  C   UNL     1     116.196 117.300 114.515  1.00  0.00     0.005 C 
ATOM      5  C   UNL     1     114.747 116.777 114.459  1.00  0.00     0.010 C 
ATOM      6  C   UNL     1     114.799 115.757 113.286  1.00  0.00    -0.001 C 
ATOM      7  C   UNL     1     114.931 116.568 111.962  1.00  0.00     0.121 C 
ATOM      8  C   UNL     1     116.378 117.111 112.053  1.00  0.00     0.036 C 
ATOM      9  C   UNL     1     113.625 114.771 113.285  1.00  0.00     0.015 C 
ATOM     10  C   UNL     1     116.646 114.159 112.304  1.00  0.00     0.012 C 
ENDROOT
BRANCH   7  11
ATOM     11  O   UNL     1     113.991 117.609 111.883  1.00  0.00    -0.393 OA
ATOM     12  H   UNL     1     113.747 117.839 112.818  1.00  0.00     0.210 HD
ENDBRANCH   7  11
TORSDOF 1
ENDMDL
