MODEL 1
REMARK VINA RESULT:    -3.505      0.000      0.000
REMARK INTER + INTRA:          -7.973
REMARK INTER:                  -6.169
REMARK INTRA:                  -1.804
REMARK UNBOUND:                -1.804
REMARK SMILES CCCCCCCCCCCCCCC(=O)[O-]
REMARK SMILES IDX 9 1 10 2 11 3 12 4 13 5 14 6 15 7 16 8 17 9 8 10 7 11 6 12
REMARK SMILES IDX 5 13 4 14 3 15 2 16 1 17
REMARK H PARENT
REMARK Flexibility Score: inf
ROOT
ATOM      1  C   UNL     1      34.220 -48.481  -0.958  1.00  0.00     0.000 C 
ENDROOT
BRANCH   1   2
ATOM      2  C   UNL     1      34.703 -49.138   0.348  1.00  0.00     0.000 C 
BRANCH   2   3
ATOM      3  C   UNL     1      33.568 -49.798   1.145  1.00  0.00     0.000 C 
BRANCH   3   4
ATOM      4  C   UNL     1      34.112 -50.499   2.398  1.00  0.00     0.000 C 
BRANCH   4   5
ATOM      5  C   UNL     1      35.629 -50.301   2.581  1.00  0.00     0.006 C 
BRANCH   5   6
ATOM      6  C   UNL     1      36.027 -49.680   3.929  1.00  0.00     0.053 C 
BRANCH   6   7
ATOM      7  C   UNL     1      36.736 -50.662   4.811  1.00  0.00     0.041 C 
ATOM      8  O   UNL     1      37.815 -50.342   5.377  1.00  0.00    -0.550 OA
ATOM      9  O   UNL     1      36.222 -51.941   4.981  1.00  0.00    -0.550 OA
ENDBRANCH   6   7
ENDBRANCH   5   6
ENDBRANCH   4   5
ENDBRANCH   3   4
ENDBRANCH   2   3
ENDBRANCH   1   2
BRANCH   1  10
ATOM     10  C   UNL     1      34.471 -46.966  -1.063  1.00  0.00     0.000 C 
BRANCH  10  11
ATOM     11  C   UNL     1      33.218 -46.127  -0.759  1.00  0.00    -0.000 C 
BRANCH  11  12
ATOM     12  C   UNL     1      33.506 -44.616  -0.690  1.00  0.00    -0.000 C 
BRANCH  12  13
ATOM     13  C   UNL     1      33.015 -43.904   0.585  1.00  0.00    -0.000 C 
BRANCH  13  14
ATOM     14  C   UNL     1      32.818 -44.863   1.772  1.00  0.00    -0.000 C 
BRANCH  14  15
ATOM     15  C   UNL     1      34.037 -44.910   2.712  1.00  0.00    -0.000 C 
BRANCH  15  16
ATOM     16  C   UNL     1      34.751 -46.272   2.788  1.00  0.00    -0.003 C 
ATOM     17  C   UNL     1      36.176 -46.234   2.241  1.00  0.00     0.004 C 
ENDBRANCH  15  16
ENDBRANCH  14  15
ENDBRANCH  13  14
ENDBRANCH  12  13
ENDBRANCH  11  12
ENDBRANCH  10  11
ENDBRANCH   1  10
TORSDOF 13
ENDMDL
MODEL 2
REMARK VINA RESULT:    -3.491      2.406      4.286
REMARK INTER + INTRA:          -7.947
REMARK INTER:                  -5.433
REMARK INTRA:                  -2.514
REMARK UNBOUND:                -1.804
REMARK SMILES CCCCCCCCCCCCCCC(=O)[O-]
REMARK SMILES IDX 9 1 10 2 11 3 12 4 13 5 14 6 15 7 16 8 17 9 8 10 7 11 6 12
REMARK SMILES IDX 5 13 4 14 3 15 2 16 1 17
REMARK H PARENT
REMARK Flexibility Score: inf
ROOT
ATOM      1  C   UNL     1      37.074 -45.310  -0.379  1.00  0.00     0.000 C 
ENDROOT
BRANCH   1   2
ATOM      2  C   UNL     1      36.283 -45.846  -1.586  1.00  0.00     0.000 C 
BRANCH   2   3
ATOM      3  C   UNL     1      35.648 -47.220  -1.326  1.00  0.00     0.000 C 
BRANCH   3   4
ATOM      4  C   UNL     1      34.151 -47.206  -1.671  1.00  0.00     0.000 C 
BRANCH   4   5
ATOM      5  C   UNL     1      33.341 -48.232  -0.856  1.00  0.00     0.006 C 
BRANCH   5   6
ATOM      6  C   UNL     1      34.199 -49.255  -0.095  1.00  0.00     0.053 C 
BRANCH   6   7
ATOM      7  C   UNL     1      33.500 -49.778   1.123  1.00  0.00     0.041 C 
ATOM      8  O   UNL     1      32.371 -50.326   1.020  1.00  0.00    -0.550 OA
ATOM      9  O   UNL     1      34.081 -49.627   2.375  1.00  0.00    -0.550 OA
ENDBRANCH   6   7
ENDBRANCH   5   6
ENDBRANCH   4   5
ENDBRANCH   3   4
ENDBRANCH   2   3
ENDBRANCH   1   2
BRANCH   1  10
ATOM     10  C   UNL     1      36.900 -46.106   0.928  1.00  0.00     0.000 C 
BRANCH  10  11
ATOM     11  C   UNL     1      36.108 -45.338   1.999  1.00  0.00    -0.000 C 
BRANCH  11  12
ATOM     12  C   UNL     1      34.911 -46.134   2.552  1.00  0.00    -0.000 C 
BRANCH  12  13
ATOM     13  C   UNL     1      33.577 -45.929   1.808  1.00  0.00    -0.000 C 
BRANCH  13  14
ATOM     14  C   UNL     1      33.234 -44.445   1.586  1.00  0.00    -0.000 C 
BRANCH  14  15
ATOM     15  C   UNL     1      32.590 -44.179   0.214  1.00  0.00    -0.000 C 
BRANCH  15  16
ATOM     16  C   UNL     1      33.534 -43.584  -0.846  1.00  0.00    -0.003 C 
ATOM     17  C   UNL     1      34.564 -42.620  -0.260  1.00  0.00     0.004 C 
ENDBRANCH  15  16
ENDBRANCH  14  15
ENDBRANCH  13  14
ENDBRANCH  12  13
ENDBRANCH  11  12
ENDBRANCH  10  11
ENDBRANCH   1  10
TORSDOF 13
ENDMDL
MODEL 3
REMARK VINA RESULT:    -3.471      2.140      4.654
REMARK INTER + INTRA:          -7.912
REMARK INTER:                  -6.199
REMARK INTRA:                  -1.713
REMARK UNBOUND:                -1.804
REMARK SMILES CCCCCCCCCCCCCCC(=O)[O-]
REMARK SMILES IDX 9 1 10 2 11 3 12 4 13 5 14 6 15 7 16 8 17 9 8 10 7 11 6 12
REMARK SMILES IDX 5 13 4 14 3 15 2 16 1 17
REMARK H PARENT
REMARK Flexibility Score: inf
ROOT
ATOM      1  C   UNL     1      32.668 -44.046   0.544  1.00  0.00     0.000 C 
ENDROOT
BRANCH   1   2
ATOM      2  C   UNL     1      32.954 -44.983   1.732  1.00  0.00     0.000 C 
BRANCH   2   3
ATOM      3  C   UNL     1      34.377 -45.559   1.715  1.00  0.00     0.000 C 
BRANCH   3   4
ATOM      4  C   UNL     1      34.391 -47.004   2.235  1.00  0.00     0.000 C 
BRANCH   4   5
ATOM      5  C   UNL     1      34.535 -48.043   1.107  1.00  0.00     0.006 C 
BRANCH   5   6
ATOM      6  C   UNL     1      33.408 -49.086   1.059  1.00  0.00     0.053 C 
BRANCH   6   7
ATOM      7  C   UNL     1      33.737 -50.306   1.864  1.00  0.00     0.041 C 
ATOM      8  O   UNL     1      32.848 -51.164   2.109  1.00  0.00    -0.550 OA
ATOM      9  O   UNL     1      35.019 -50.477   2.372  1.00  0.00    -0.550 OA
ENDBRANCH   6   7
ENDBRANCH   5   6
ENDBRANCH   4   5
ENDBRANCH   3   4
ENDBRANCH   2   3
ENDBRANCH   1   2
BRANCH   1  10
ATOM     10  C   UNL     1      33.881 -43.730  -0.351  1.00  0.00     0.000 C 
BRANCH  10  11
ATOM     11  C   UNL     1      33.579 -43.885  -1.850  1.00  0.00    -0.000 C 
BRANCH  11  12
ATOM     12  C   UNL     1      34.486 -44.917  -2.545  1.00  0.00    -0.000 C 
BRANCH  12  13
ATOM     13  C   UNL     1      34.349 -46.367  -2.041  1.00  0.00    -0.000 C 
BRANCH  13  14
ATOM     14  C   UNL     1      32.910 -46.904  -2.139  1.00  0.00    -0.000 C 
BRANCH  14  15
ATOM     15  C   UNL     1      32.848 -48.358  -2.643  1.00  0.00    -0.000 C 
BRANCH  15  16
ATOM     16  C   UNL     1      34.177 -48.923  -3.174  1.00  0.00    -0.003 C 
ATOM     17  C   UNL     1      33.989 -49.985  -4.255  1.00  0.00     0.004 C 
ENDBRANCH  15  16
ENDBRANCH  14  15
ENDBRANCH  13  14
ENDBRANCH  12  13
ENDBRANCH  11  12
ENDBRANCH  10  11
ENDBRANCH   1  10
TORSDOF 13
ENDMDL
MODEL 4
REMARK VINA RESULT:    -3.469      3.381      5.196
REMARK INTER + INTRA:          -7.908
REMARK INTER:                  -5.914
REMARK INTRA:                  -1.995
REMARK UNBOUND:                -1.804
REMARK SMILES CCCCCCCCCCCCCCC(=O)[O-]
REMARK SMILES IDX 9 1 10 2 11 3 12 4 13 5 14 6 15 7 16 8 17 9 8 10 7 11 6 12
REMARK SMILES IDX 5 13 4 14 3 15 2 16 1 17
REMARK H PARENT
REMARK Flexibility Score: inf
ROOT
ATOM      1  C   UNL     1      35.342 -47.458   3.337  1.00  0.00     0.000 C 
ENDROOT
BRANCH   1   2
ATOM      2  C   UNL     1      35.032 -48.907   2.918  1.00  0.00     0.000 C 
BRANCH   2   3
ATOM      3  C   UNL     1      34.830 -49.065   1.404  1.00  0.00     0.000 C 
BRANCH   3   4
ATOM      4  C   UNL     1      33.376 -48.764   1.010  1.00  0.00     0.000 C 
BRANCH   4   5
ATOM      5  C   UNL     1      33.264 -47.673  -0.071  1.00  0.00     0.006 C 
BRANCH   5   6
ATOM      6  C   UNL     1      34.297 -47.794  -1.202  1.00  0.00     0.053 C 
BRANCH   6   7
ATOM      7  C   UNL     1      33.677 -48.271  -2.480  1.00  0.00     0.041 C 
ATOM      8  O   UNL     1      32.590 -47.777  -2.880  1.00  0.00    -0.550 OA
ATOM      9  O   UNL     1      34.284 -49.284  -3.210  1.00  0.00    -0.550 OA
ENDBRANCH   6   7
ENDBRANCH   5   6
ENDBRANCH   4   5
ENDBRANCH   3   4
ENDBRANCH   2   3
ENDBRANCH   1   2
BRANCH   1  10
ATOM     10  C   UNL     1      36.162 -46.642   2.321  1.00  0.00     0.000 C 
BRANCH  10  11
ATOM     11  C   UNL     1      35.575 -45.245   2.060  1.00  0.00    -0.000 C 
BRANCH  11  12
ATOM     12  C   UNL     1      34.206 -45.030   2.732  1.00  0.00    -0.000 C 
BRANCH  12  13
ATOM     13  C   UNL     1      33.026 -44.787   1.771  1.00  0.00    -0.000 C 
BRANCH  13  14
ATOM     14  C   UNL     1      33.378 -43.833   0.616  1.00  0.00    -0.000 C 
BRANCH  14  15
ATOM     15  C   UNL     1      32.202 -43.607  -0.351  1.00  0.00    -0.000 C 
BRANCH  15  16
ATOM     16  C   UNL     1      32.256 -44.433  -1.649  1.00  0.00    -0.003 C 
ATOM     17  C   UNL     1      33.522 -44.185  -2.467  1.00  0.00     0.004 C 
ENDBRANCH  15  16
ENDBRANCH  14  15
ENDBRANCH  13  14
ENDBRANCH  12  13
ENDBRANCH  11  12
ENDBRANCH  10  11
ENDBRANCH   1  10
TORSDOF 13
ENDMDL
MODEL 5
REMARK VINA RESULT:    -3.453      3.655      5.581
REMARK INTER + INTRA:          -7.881
REMARK INTER:                  -6.126
REMARK INTRA:                  -1.755
REMARK UNBOUND:                -1.804
REMARK SMILES CCCCCCCCCCCCCCC(=O)[O-]
REMARK SMILES IDX 9 1 10 2 11 3 12 4 13 5 14 6 15 7 16 8 17 9 8 10 7 11 6 12
REMARK SMILES IDX 5 13 4 14 3 15 2 16 1 17
REMARK H PARENT
REMARK Flexibility Score: inf
ROOT
ATOM      1  C   UNL     1      35.490 -49.856   2.148  1.00  0.00     0.000 C 
ENDROOT
BRANCH   1   2
ATOM      2  C   UNL     1      34.012 -50.285   2.139  1.00  0.00     0.000 C 
BRANCH   2   3
ATOM      3  C   UNL     1      33.200 -49.625   1.015  1.00  0.00     0.000 C 
BRANCH   3   4
ATOM      4  C   UNL     1      34.073 -48.655   0.205  1.00  0.00     0.000 C 
BRANCH   4   5
ATOM      5  C   UNL     1      33.251 -47.566  -0.510  1.00  0.00     0.006 C 
BRANCH   5   6
ATOM      6  C   UNL     1      33.952 -46.941  -1.726  1.00  0.00     0.053 C 
BRANCH   6   7
ATOM      7  C   UNL     1      33.367 -47.422  -3.019  1.00  0.00     0.041 C 
ATOM      8  O   UNL     1      32.225 -47.951  -3.041  1.00  0.00    -0.550 OA
ATOM      9  O   UNL     1      34.101 -47.316  -4.194  1.00  0.00    -0.550 OA
ENDBRANCH   6   7
ENDBRANCH   5   6
ENDBRANCH   4   5
ENDBRANCH   3   4
ENDBRANCH   2   3
ENDBRANCH   1   2
BRANCH   1  10
ATOM     10  C   UNL     1      36.009 -49.315   3.494  1.00  0.00     0.000 C 
BRANCH  10  11
ATOM     11  C   UNL     1      36.341 -47.814   3.450  1.00  0.00    -0.000 C 
BRANCH  11  12
ATOM     12  C   UNL     1      35.089 -46.918   3.498  1.00  0.00    -0.000 C 
BRANCH  12  13
ATOM     13  C   UNL     1      34.984 -45.866   2.377  1.00  0.00    -0.000 C 
BRANCH  13  14
ATOM     14  C   UNL     1      33.689 -45.037   2.449  1.00  0.00    -0.000 C 
BRANCH  14  15
ATOM     15  C   UNL     1      33.367 -44.315   1.128  1.00  0.00    -0.000 C 
BRANCH  15  16
ATOM     16  C   UNL     1      34.591 -43.811   0.344  1.00  0.00    -0.003 C 
ATOM     17  C   UNL     1      34.228 -43.193  -1.005  1.00  0.00     0.004 C 
ENDBRANCH  15  16
ENDBRANCH  14  15
ENDBRANCH  13  14
ENDBRANCH  12  13
ENDBRANCH  11  12
ENDBRANCH  10  11
ENDBRANCH   1  10
TORSDOF 13
ENDMDL
MODEL 6
REMARK VINA RESULT:    -3.451      2.244      4.333
REMARK INTER + INTRA:          -7.878
REMARK INTER:                  -5.816
REMARK INTRA:                  -2.062
REMARK UNBOUND:                -1.804
REMARK SMILES CCCCCCCCCCCCCCC(=O)[O-]
REMARK SMILES IDX 9 1 10 2 11 3 12 4 13 5 14 6 15 7 16 8 17 9 8 10 7 11 6 12
REMARK SMILES IDX 5 13 4 14 3 15 2 16 1 17
REMARK H PARENT
REMARK Flexibility Score: inf
ROOT
ATOM      1  C   UNL     1      35.277 -43.828   0.662  1.00  0.00     0.000 C 
ENDROOT
BRANCH   1   2
ATOM      2  C   UNL     1      34.766 -43.894   2.113  1.00  0.00     0.000 C 
BRANCH   2   3
ATOM      3  C   UNL     1      33.640 -44.919   2.308  1.00  0.00     0.000 C 
BRANCH   3   4
ATOM      4  C   UNL     1      33.911 -46.193   1.493  1.00  0.00     0.000 C 
BRANCH   4   5
ATOM      5  C   UNL     1      34.333 -47.385   2.372  1.00  0.00     0.006 C 
BRANCH   5   6
ATOM      6  C   UNL     1      34.856 -48.597   1.585  1.00  0.00     0.053 C 
BRANCH   6   7
ATOM      7  C   UNL     1      33.917 -49.763   1.661  1.00  0.00     0.041 C 
ATOM      8  O   UNL     1      34.151 -50.715   2.450  1.00  0.00    -0.550 OA
ATOM      9  O   UNL     1      32.802 -49.810   0.834  1.00  0.00    -0.550 OA
ENDBRANCH   6   7
ENDBRANCH   5   6
ENDBRANCH   4   5
ENDBRANCH   3   4
ENDBRANCH   2   3
ENDBRANCH   1   2
BRANCH   1  10
ATOM     10  C   UNL     1      34.566 -42.803  -0.240  1.00  0.00     0.000 C 
BRANCH  10  11
ATOM     11  C   UNL     1      33.828 -43.453  -1.422  1.00  0.00    -0.000 C 
BRANCH  11  12
ATOM     12  C   UNL     1      32.403 -43.913  -1.063  1.00  0.00    -0.000 C 
BRANCH  12  13
ATOM     13  C   UNL     1      31.795 -44.977  -1.997  1.00  0.00    -0.000 C 
BRANCH  13  14
ATOM     14  C   UNL     1      32.853 -45.893  -2.637  1.00  0.00    -0.000 C 
BRANCH  14  15
ATOM     15  C   UNL     1      33.048 -47.211  -1.867  1.00  0.00    -0.000 C 
BRANCH  15  16
ATOM     16  C   UNL     1      34.490 -47.750  -1.848  1.00  0.00    -0.003 C 
ATOM     17  C   UNL     1      35.544 -46.644  -1.867  1.00  0.00     0.004 C 
ENDBRANCH  15  16
ENDBRANCH  14  15
ENDBRANCH  13  14
ENDBRANCH  12  13
ENDBRANCH  11  12
ENDBRANCH  10  11
ENDBRANCH   1  10
TORSDOF 13
ENDMDL
MODEL 7
REMARK VINA RESULT:    -3.431      3.805      5.347
REMARK INTER + INTRA:          -7.842
REMARK INTER:                  -6.126
REMARK INTRA:                  -1.716
REMARK UNBOUND:                -1.804
REMARK SMILES CCCCCCCCCCCCCCC(=O)[O-]
REMARK SMILES IDX 9 1 10 2 11 3 12 4 13 5 14 6 15 7 16 8 17 9 8 10 7 11 6 12
REMARK SMILES IDX 5 13 4 14 3 15 2 16 1 17
REMARK H PARENT
REMARK Flexibility Score: inf
ROOT
ATOM      1  C   UNL     1      35.300 -46.819   3.255  1.00  0.00     0.000 C 
ENDROOT
BRANCH   1   2
ATOM      2  C   UNL     1      34.819 -48.195   2.758  1.00  0.00     0.000 C 
BRANCH   2   3
ATOM      3  C   UNL     1      34.830 -48.318   1.227  1.00  0.00     0.000 C 
BRANCH   3   4
ATOM      4  C   UNL     1      33.404 -48.481   0.680  1.00  0.00     0.000 C 
BRANCH   4   5
ATOM      5  C   UNL     1      33.173 -47.699  -0.627  1.00  0.00     0.006 C 
BRANCH   5   6
ATOM      6  C   UNL     1      34.170 -48.032  -1.748  1.00  0.00     0.053 C 
BRANCH   6   7
ATOM      7  C   UNL     1      33.490 -48.614  -2.949  1.00  0.00     0.041 C 
ATOM      8  O   UNL     1      32.287 -48.979  -2.883  1.00  0.00    -0.550 OA
ATOM      9  O   UNL     1      34.198 -48.784  -4.133  1.00  0.00    -0.550 OA
ENDBRANCH   6   7
ENDBRANCH   5   6
ENDBRANCH   4   5
ENDBRANCH   3   4
ENDBRANCH   2   3
ENDBRANCH   1   2
BRANCH   1  10
ATOM     10  C   UNL     1      35.103 -45.656   2.266  1.00  0.00     0.000 C 
BRANCH  10  11
ATOM     11  C   UNL     1      33.773 -44.912   2.472  1.00  0.00    -0.000 C 
BRANCH  11  12
ATOM     12  C   UNL     1      33.201 -44.326   1.168  1.00  0.00    -0.000 C 
BRANCH  12  13
ATOM     13  C   UNL     1      34.184 -44.260  -0.017  1.00  0.00    -0.000 C 
BRANCH  13  14
ATOM     14  C   UNL     1      34.550 -42.820  -0.417  1.00  0.00    -0.000 C 
BRANCH  14  15
ATOM     15  C   UNL     1      35.854 -42.331   0.239  1.00  0.00    -0.000 C 
BRANCH  15  16
ATOM     16  C   UNL     1      35.701 -41.109   1.163  1.00  0.00    -0.003 C 
ATOM     17  C   UNL     1      35.790 -41.463   2.646  1.00  0.00     0.004 C 
ENDBRANCH  15  16
ENDBRANCH  14  15
ENDBRANCH  13  14
ENDBRANCH  12  13
ENDBRANCH  11  12
ENDBRANCH  10  11
ENDBRANCH   1  10
TORSDOF 13
ENDMDL
MODEL 8
REMARK VINA RESULT:    -3.412      1.315      2.836
REMARK INTER + INTRA:          -7.809
REMARK INTER:                  -5.625
REMARK INTRA:                  -2.184
REMARK UNBOUND:                -1.804
REMARK SMILES CCCCCCCCCCCCCCC(=O)[O-]
REMARK SMILES IDX 9 1 10 2 11 3 12 4 13 5 14 6 15 7 16 8 17 9 8 10 7 11 6 12
REMARK SMILES IDX 5 13 4 14 3 15 2 16 1 17
REMARK H PARENT
REMARK Flexibility Score: inf
ROOT
ATOM      1  C   UNL     1      36.013 -46.491  -0.216  1.00  0.00     0.000 C 
ENDROOT
BRANCH   1   2
ATOM      2  C   UNL     1      35.129 -47.719  -0.504  1.00  0.00     0.000 C 
BRANCH   2   3
ATOM      3  C   UNL     1      34.109 -48.000   0.608  1.00  0.00     0.000 C 
BRANCH   3   4
ATOM      4  C   UNL     1      34.029 -49.504   0.911  1.00  0.00     0.000 C 
BRANCH   4   5
ATOM      5  C   UNL     1      34.363 -49.837   2.377  1.00  0.00     0.006 C 
BRANCH   5   6
ATOM      6  C   UNL     1      35.056 -48.698   3.142  1.00  0.00     0.053 C 
BRANCH   6   7
ATOM      7  C   UNL     1      36.185 -49.199   3.991  1.00  0.00     0.041 C 
ATOM      8  O   UNL     1      36.172 -50.379   4.432  1.00  0.00    -0.550 OA
ATOM      9  O   UNL     1      37.233 -48.350   4.324  1.00  0.00    -0.550 OA
ENDBRANCH   6   7
ENDBRANCH   5   6
ENDBRANCH   4   5
ENDBRANCH   3   4
ENDBRANCH   2   3
ENDBRANCH   1   2
BRANCH   1  10
ATOM     10  C   UNL     1      36.984 -46.644   0.970  1.00  0.00     0.000 C 
BRANCH  10  11
ATOM     11  C   UNL     1      36.774 -45.580   2.059  1.00  0.00    -0.000 C 
BRANCH  11  12
ATOM     12  C   UNL     1      36.260 -44.239   1.502  1.00  0.00    -0.000 C 
BRANCH  12  13
ATOM     13  C   UNL     1      34.963 -43.708   2.141  1.00  0.00    -0.000 C 
BRANCH  13  14
ATOM     14  C   UNL     1      33.976 -44.827   2.519  1.00  0.00    -0.000 C 
BRANCH  14  15
ATOM     15  C   UNL     1      32.680 -44.786   1.689  1.00  0.00    -0.000 C 
BRANCH  15  16
ATOM     16  C   UNL     1      32.758 -43.956   0.396  1.00  0.00    -0.003 C 
ATOM     17  C   UNL     1      32.731 -44.811  -0.869  1.00  0.00     0.004 C 
ENDBRANCH  15  16
ENDBRANCH  14  15
ENDBRANCH  13  14
ENDBRANCH  12  13
ENDBRANCH  11  12
ENDBRANCH  10  11
ENDBRANCH   1  10
TORSDOF 13
ENDMDL
MODEL 9
REMARK VINA RESULT:    -3.408      1.500      3.072
REMARK INTER + INTRA:          -7.802
REMARK INTER:                  -5.406
REMARK INTRA:                  -2.397
REMARK UNBOUND:                -1.804
REMARK SMILES CCCCCCCCCCCCCCC(=O)[O-]
REMARK SMILES IDX 9 1 10 2 11 3 12 4 13 5 14 6 15 7 16 8 17 9 8 10 7 11 6 12
REMARK SMILES IDX 5 13 4 14 3 15 2 16 1 17
REMARK H PARENT
REMARK Flexibility Score: inf
ROOT
ATOM      1  C   UNL     1      37.397 -46.237   1.107  1.00  0.00     0.000 C 
ENDROOT
BRANCH   1   2
ATOM      2  C   UNL     1      37.121 -47.581   1.805  1.00  0.00     0.000 C 
BRANCH   2   3
ATOM      3  C   UNL     1      36.498 -47.418   3.199  1.00  0.00     0.000 C 
BRANCH   3   4
ATOM      4  C   UNL     1      35.216 -48.253   3.328  1.00  0.00     0.000 C 
BRANCH   4   5
ATOM      5  C   UNL     1      35.145 -49.401   2.303  1.00  0.00     0.006 C 
BRANCH   5   6
ATOM      6  C   UNL     1      35.143 -50.806   2.925  1.00  0.00     0.053 C 
BRANCH   6   7
ATOM      7  C   UNL     1      36.410 -51.090   3.673  1.00  0.00     0.041 C 
ATOM      8  O   UNL     1      36.378 -51.315   4.911  1.00  0.00    -0.550 OA
ATOM      9  O   UNL     1      37.629 -51.071   3.006  1.00  0.00    -0.550 OA
ENDBRANCH   6   7
ENDBRANCH   5   6
ENDBRANCH   4   5
ENDBRANCH   3   4
ENDBRANCH   2   3
ENDBRANCH   1   2
BRANCH   1  10
ATOM     10  C   UNL     1      37.102 -44.984   1.952  1.00  0.00     0.000 C 
BRANCH  10  11
ATOM     11  C   UNL     1      36.203 -43.969   1.228  1.00  0.00    -0.000 C 
BRANCH  11  12
ATOM     12  C   UNL     1      34.989 -43.531   2.068  1.00  0.00    -0.000 C 
BRANCH  12  13
ATOM     13  C   UNL     1      34.020 -44.659   2.473  1.00  0.00    -0.000 C 
BRANCH  13  14
ATOM     14  C   UNL     1      33.075 -45.078   1.334  1.00  0.00    -0.000 C 
BRANCH  14  15
ATOM     15  C   UNL     1      33.284 -46.537   0.889  1.00  0.00    -0.000 C 
BRANCH  15  16
ATOM     16  C   UNL     1      34.076 -46.713  -0.419  1.00  0.00    -0.003 C 
ATOM     17  C   UNL     1      33.998 -45.495  -1.337  1.00  0.00     0.004 C 
ENDBRANCH  15  16
ENDBRANCH  14  15
ENDBRANCH  13  14
ENDBRANCH  12  13
ENDBRANCH  11  12
ENDBRANCH  10  11
ENDBRANCH   1  10
TORSDOF 13
ENDMDL
