MODEL 1
REMARK VINA RESULT:    -4.142      0.000      0.000
REMARK INTER + INTRA:          -5.619
REMARK INTER:                  -5.352
REMARK INTRA:                  -0.266
REMARK UNBOUND:                -0.266
REMARK SMILES C=CC(=O)CCCCC
REMARK SMILES IDX 6 1 7 2 8 3 9 4 5 5 3 6 4 7 2 8 1 9
REMARK H PARENT
REMARK Flexibility Score: inf
ROOT
ATOM      1  C   UNL     1      14.697  17.528  24.722  1.00  0.00     0.008 C 
ENDROOT
BRANCH   1   2
ATOM      2  C   UNL     1      15.597  18.436  25.580  1.00  0.00     0.000 C 
BRANCH   2   3
ATOM      3  C   UNL     1      15.437  18.253  27.100  1.00  0.00    -0.003 C 
ATOM      4  C   UNL     1      16.700  18.612  27.882  1.00  0.00     0.004 C 
ENDBRANCH   2   3
ENDBRANCH   1   2
BRANCH   1   5
ATOM      5  C   UNL     1      14.826  16.043  25.085  1.00  0.00     0.080 C 
BRANCH   5   6
ATOM      6  C   UNL     1      13.512  15.503  25.566  1.00  0.00     0.155 C 
ATOM      7  O   UNL     1      13.496  14.656  26.501  1.00  0.00    -0.295 OA
BRANCH   6   8
ATOM      8  C   UNL     1      12.250  16.000  24.982  1.00  0.00     0.039 C 
ATOM      9  C   UNL     1      11.249  15.187  24.648  1.00  0.00     0.012 C 
ENDBRANCH   6   8
ENDBRANCH   5   6
ENDBRANCH   1   5
TORSDOF 5
ENDMDL
MODEL 2
REMARK VINA RESULT:    -4.071      2.094      4.266
REMARK INTER + INTRA:          -5.528
REMARK INTER:                  -5.085
REMARK INTRA:                  -0.443
REMARK UNBOUND:                -0.266
REMARK SMILES C=CC(=O)CCCCC
REMARK SMILES IDX 6 1 7 2 8 3 9 4 5 5 3 6 4 7 2 8 1 9
REMARK H PARENT
REMARK Flexibility Score: inf
ROOT
ATOM      1  C   UNL     1      14.515  15.944  25.113  1.00  0.00     0.008 C 
ENDROOT
BRANCH   1   2
ATOM      2  C   UNL     1      13.366  15.290  25.903  1.00  0.00     0.000 C 
BRANCH   2   3
ATOM      3  C   UNL     1      13.814  14.409  27.083  1.00  0.00    -0.003 C 
ATOM      4  C   UNL     1      15.333  14.341  27.236  1.00  0.00     0.004 C 
ENDBRANCH   2   3
ENDBRANCH   1   2
BRANCH   1   5
ATOM      5  C   UNL     1      14.316  17.451  24.907  1.00  0.00     0.080 C 
BRANCH   5   6
ATOM      6  C   UNL     1      15.350  18.227  25.668  1.00  0.00     0.155 C 
ATOM      7  O   UNL     1      16.165  18.955  25.038  1.00  0.00    -0.295 OA
BRANCH   6   8
ATOM      8  C   UNL     1      15.375  18.172  27.143  1.00  0.00     0.039 C 
ATOM      9  C   UNL     1      16.466  18.463  27.850  1.00  0.00     0.012 C 
ENDBRANCH   6   8
ENDBRANCH   5   6
ENDBRANCH   1   5
TORSDOF 5
ENDMDL
MODEL 3
REMARK VINA RESULT:    -4.067      1.988      3.314
REMARK INTER + INTRA:          -5.522
REMARK INTER:                  -4.970
REMARK INTRA:                  -0.552
REMARK UNBOUND:                -0.266
REMARK SMILES C=CC(=O)CCCCC
REMARK SMILES IDX 6 1 7 2 8 3 9 4 5 5 3 6 4 7 2 8 1 9
REMARK H PARENT
REMARK Flexibility Score: inf
ROOT
ATOM      1  C   UNL     1      15.691  18.607  26.984  1.00  0.00     0.008 C 
ENDROOT
BRANCH   1   2
ATOM      2  C   UNL     1      16.023  18.269  25.519  1.00  0.00     0.000 C 
BRANCH   2   3
ATOM      3  C   UNL     1      14.802  18.163  24.588  1.00  0.00    -0.003 C 
ATOM      4  C   UNL     1      14.372  16.720  24.329  1.00  0.00     0.004 C 
ENDBRANCH   2   3
ENDBRANCH   1   2
BRANCH   1   5
ATOM      5  C   UNL     1      15.683  17.374  27.896  1.00  0.00     0.080 C 
BRANCH   5   6
ATOM      6  C   UNL     1      14.319  16.750  27.926  1.00  0.00     0.155 C 
ATOM      7  O   UNL     1      13.301  17.494  27.969  1.00  0.00    -0.295 OA
BRANCH   6   8
ATOM      8  C   UNL     1      14.176  15.282  27.857  1.00  0.00     0.039 C 
ATOM      9  C   UNL     1      15.086  14.503  27.275  1.00  0.00     0.012 C 
ENDBRANCH   6   8
ENDBRANCH   5   6
ENDBRANCH   1   5
TORSDOF 5
ENDMDL
MODEL 4
REMARK VINA RESULT:    -4.046      1.458      2.599
REMARK INTER + INTRA:          -5.496
REMARK INTER:                  -4.953
REMARK INTRA:                  -0.543
REMARK UNBOUND:                -0.266
REMARK SMILES C=CC(=O)CCCCC
REMARK SMILES IDX 6 1 7 2 8 3 9 4 5 5 3 6 4 7 2 8 1 9
REMARK H PARENT
REMARK Flexibility Score: inf
ROOT
ATOM      1  C   UNL     1      13.286  16.048  27.644  1.00  0.00     0.008 C 
ENDROOT
BRANCH   1   2
ATOM      2  C   UNL     1      14.030  17.329  28.063  1.00  0.00     0.000 C 
BRANCH   2   3
ATOM      3  C   UNL     1      15.565  17.232  28.002  1.00  0.00    -0.003 C 
ATOM      4  C   UNL     1      16.246  18.594  27.868  1.00  0.00     0.004 C 
ENDBRANCH   2   3
ENDBRANCH   1   2
BRANCH   1   5
ATOM      5  C   UNL     1      13.918  15.359  26.428  1.00  0.00     0.080 C 
BRANCH   5   6
ATOM      6  C   UNL     1      13.484  16.031  25.159  1.00  0.00     0.155 C 
ATOM      7  O   UNL     1      12.264  16.018  24.838  1.00  0.00    -0.295 OA
BRANCH   6   8
ATOM      8  C   UNL     1      14.473  16.739  24.322  1.00  0.00     0.039 C 
ATOM      9  C   UNL     1      14.785  18.020  24.515  1.00  0.00     0.012 C 
ENDBRANCH   6   8
ENDBRANCH   5   6
ENDBRANCH   1   5
TORSDOF 5
ENDMDL
MODEL 5
REMARK VINA RESULT:    -4.038      1.822      4.738
REMARK INTER + INTRA:          -5.485
REMARK INTER:                  -5.178
REMARK INTRA:                  -0.307
REMARK UNBOUND:                -0.266
REMARK SMILES C=CC(=O)CCCCC
REMARK SMILES IDX 6 1 7 2 8 3 9 4 5 5 3 6 4 7 2 8 1 9
REMARK H PARENT
REMARK Flexibility Score: inf
ROOT
ATOM      1  C   UNL     1      14.658  15.811  25.455  1.00  0.00     0.008 C 
ENDROOT
BRANCH   1   2
ATOM      2  C   UNL     1      13.249  15.297  25.806  1.00  0.00     0.000 C 
BRANCH   2   3
ATOM      3  C   UNL     1      12.114  15.892  24.954  1.00  0.00    -0.003 C 
ATOM      4  C   UNL     1      11.016  14.880  24.631  1.00  0.00     0.004 C 
ENDBRANCH   2   3
ENDBRANCH   1   2
BRANCH   1   5
ATOM      5  C   UNL     1      14.635  17.136  24.682  1.00  0.00     0.080 C 
BRANCH   5   6
ATOM      6  C   UNL     1      15.388  18.195  25.431  1.00  0.00     0.155 C 
ATOM      7  O   UNL     1      16.071  19.039  24.789  1.00  0.00    -0.295 OA
BRANCH   6   8
ATOM      8  C   UNL     1      15.288  18.272  26.902  1.00  0.00     0.039 C 
ATOM      9  C   UNL     1      16.349  18.482  27.680  1.00  0.00     0.012 C 
ENDBRANCH   6   8
ENDBRANCH   5   6
ENDBRANCH   1   5
TORSDOF 5
ENDMDL
MODEL 6
REMARK VINA RESULT:    -4.011      2.418      3.814
REMARK INTER + INTRA:          -5.451
REMARK INTER:                  -4.983
REMARK INTRA:                  -0.468
REMARK UNBOUND:                -0.266
REMARK SMILES C=CC(=O)CCCCC
REMARK SMILES IDX 6 1 7 2 8 3 9 4 5 5 3 6 4 7 2 8 1 9
REMARK H PARENT
REMARK Flexibility Score: inf
ROOT
ATOM      1  C   UNL     1      15.439  16.617  27.898  1.00  0.00     0.008 C 
ENDROOT
BRANCH   1   2
ATOM      2  C   UNL     1      14.192  15.734  28.086  1.00  0.00     0.000 C 
BRANCH   2   3
ATOM      3  C   UNL     1      14.242  14.383  27.350  1.00  0.00    -0.003 C 
ATOM      4  C   UNL     1      15.645  13.781  27.298  1.00  0.00     0.004 C 
ENDBRANCH   2   3
ENDBRANCH   1   2
BRANCH   1   5
ATOM      5  C   UNL     1      15.101  18.038  27.430  1.00  0.00     0.080 C 
BRANCH   5   6
ATOM      6  C   UNL     1      15.262  18.155  25.943  1.00  0.00     0.155 C 
ATOM      7  O   UNL     1      16.335  18.621  25.472  1.00  0.00    -0.295 OA
BRANCH   6   8
ATOM      8  C   UNL     1      14.190  17.681  25.045  1.00  0.00     0.039 C 
ATOM      9  C   UNL     1      14.309  16.573  24.314  1.00  0.00     0.012 C 
ENDBRANCH   6   8
ENDBRANCH   5   6
ENDBRANCH   1   5
TORSDOF 5
ENDMDL
MODEL 7
REMARK VINA RESULT:    -4.003      1.315      2.061
REMARK INTER + INTRA:          -5.440
REMARK INTER:                  -5.027
REMARK INTRA:                  -0.413
REMARK UNBOUND:                -0.266
REMARK SMILES C=CC(=O)CCCCC
REMARK SMILES IDX 6 1 7 2 8 3 9 4 5 5 3 6 4 7 2 8 1 9
REMARK H PARENT
REMARK Flexibility Score: inf
ROOT
ATOM      1  C   UNL     1      14.030  17.703  25.539  1.00  0.00     0.008 C 
ENDROOT
BRANCH   1   2
ATOM      2  C   UNL     1      15.311  18.361  26.084  1.00  0.00     0.000 C 
BRANCH   2   3
ATOM      3  C   UNL     1      15.560  18.140  27.587  1.00  0.00    -0.003 C 
ATOM      4  C   UNL     1      16.909  18.682  28.056  1.00  0.00     0.004 C 
ENDBRANCH   2   3
ENDBRANCH   1   2
BRANCH   1   5
ATOM      5  C   UNL     1      14.258  16.268  25.047  1.00  0.00     0.080 C 
BRANCH   5   6
ATOM      6  C   UNL     1      13.513  15.292  25.908  1.00  0.00     0.155 C 
ATOM      7  O   UNL     1      12.386  14.869  25.531  1.00  0.00    -0.295 OA
BRANCH   6   8
ATOM      8  C   UNL     1      14.120  14.799  27.160  1.00  0.00     0.039 C 
ATOM      9  C   UNL     1      15.316  14.211  27.191  1.00  0.00     0.012 C 
ENDBRANCH   6   8
ENDBRANCH   5   6
ENDBRANCH   1   5
TORSDOF 5
ENDMDL
MODEL 8
REMARK VINA RESULT:    -3.976      2.084      4.353
REMARK INTER + INTRA:          -5.405
REMARK INTER:                  -4.933
REMARK INTRA:                  -0.472
REMARK UNBOUND:                -0.266
REMARK SMILES C=CC(=O)CCCCC
REMARK SMILES IDX 6 1 7 2 8 3 9 4 5 5 3 6 4 7 2 8 1 9
REMARK H PARENT
REMARK Flexibility Score: inf
ROOT
ATOM      1  C   UNL     1      14.939  16.010  27.739  1.00  0.00     0.008 C 
ENDROOT
BRANCH   1   2
ATOM      2  C   UNL     1      14.412  15.081  26.630  1.00  0.00     0.000 C 
BRANCH   2   3
ATOM      3  C   UNL     1      12.879  15.029  26.506  1.00  0.00    -0.003 C 
ATOM      4  C   UNL     1      12.369  15.542  25.160  1.00  0.00     0.004 C 
ENDBRANCH   2   3
ENDBRANCH   1   2
BRANCH   1   5
ATOM      5  C   UNL     1      14.556  17.480  27.520  1.00  0.00     0.080 C 
BRANCH   5   6
ATOM      6  C   UNL     1      15.732  18.259  27.012  1.00  0.00     0.155 C 
ATOM      7  O   UNL     1      16.631  18.620  27.821  1.00  0.00    -0.295 OA
BRANCH   6   8
ATOM      8  C   UNL     1      15.855  18.556  25.571  1.00  0.00     0.039 C 
ATOM      9  C   UNL     1      14.925  18.198  24.686  1.00  0.00     0.012 C 
ENDBRANCH   6   8
ENDBRANCH   5   6
ENDBRANCH   1   5
TORSDOF 5
ENDMDL
MODEL 9
REMARK VINA RESULT:    -3.975      1.514      2.149
REMARK INTER + INTRA:          -5.403
REMARK INTER:                  -4.849
REMARK INTRA:                  -0.555
REMARK UNBOUND:                -0.266
REMARK SMILES C=CC(=O)CCCCC
REMARK SMILES IDX 6 1 7 2 8 3 9 4 5 5 3 6 4 7 2 8 1 9
REMARK H PARENT
REMARK Flexibility Score: inf
ROOT
ATOM      1  C   UNL     1      14.710  16.378  24.770  1.00  0.00     0.008 C 
ENDROOT
BRANCH   1   2
ATOM      2  C   UNL     1      14.619  17.898  24.998  1.00  0.00     0.000 C 
BRANCH   2   3
ATOM      3  C   UNL     1      15.888  18.539  25.585  1.00  0.00    -0.003 C 
ATOM      4  C   UNL     1      15.992  18.380  27.102  1.00  0.00     0.004 C 
ENDBRANCH   2   3
ENDBRANCH   1   2
BRANCH   1   5
ATOM      5  C   UNL     1      13.596  15.598  25.481  1.00  0.00     0.080 C 
BRANCH   5   6
ATOM      6  C   UNL     1      14.051  15.149  26.837  1.00  0.00     0.155 C 
ATOM      7  O   UNL     1      15.041  14.373  26.931  1.00  0.00    -0.295 OA
BRANCH   6   8
ATOM      8  C   UNL     1      13.374  15.653  28.048  1.00  0.00     0.039 C 
ATOM      9  C   UNL     1      12.866  16.883  28.123  1.00  0.00     0.012 C 
ENDBRANCH   6   8
ENDBRANCH   5   6
ENDBRANCH   1   5
TORSDOF 5
ENDMDL
