MODEL 1
REMARK VINA RESULT:    -4.883      0.000      0.000
REMARK INTER + INTRA:          -7.358
REMARK INTER:                  -6.881
REMARK INTRA:                  -0.476
REMARK UNBOUND:                -0.476
REMARK SMILES CCCCCCCCC(=O)[O-]
REMARK SMILES IDX 6 1 7 2 8 3 9 4 10 5 11 6 5 7 4 8 3 9 2 10 1 11
REMARK H PARENT
REMARK Flexibility Score: inf
ROOT
ATOM      1  C   UNL     1       9.410 -17.817 -26.693  1.00  0.00     0.000 C 
ENDROOT
BRANCH   1   2
ATOM      2  C   UNL     1       8.184 -17.727 -27.608  1.00  0.00     0.006 C 
BRANCH   2   3
ATOM      3  C   UNL     1       8.136 -16.379 -28.334  1.00  0.00     0.053 C 
BRANCH   3   4
ATOM      4  C   UNL     1       8.030 -16.583 -29.812  1.00  0.00     0.041 C 
ATOM      5  O   UNL     1       8.541 -17.600 -30.350  1.00  0.00    -0.550 OA
ATOM      6  O   UNL     1       7.322 -15.675 -30.590  1.00  0.00    -0.550 OA
ENDBRANCH   3   4
ENDBRANCH   2   3
ENDBRANCH   1   2
BRANCH   1   7
ATOM      7  C   UNL     1      10.709 -17.800 -27.509  1.00  0.00     0.000 C 
BRANCH   7   8
ATOM      8  C   UNL     1      11.330 -19.200 -27.584  1.00  0.00    -0.000 C 
BRANCH   8   9
ATOM      9  C   UNL     1      11.770 -19.683 -26.197  1.00  0.00    -0.000 C 
BRANCH   9  10
ATOM     10  C   UNL     1      12.895 -18.804 -25.640  1.00  0.00    -0.003 C 
ATOM     11  C   UNL     1      12.563 -18.306 -24.237  1.00  0.00     0.004 C 
ENDBRANCH   9  10
ENDBRANCH   8   9
ENDBRANCH   7   8
ENDBRANCH   1   7
TORSDOF 7
ENDMDL
MODEL 2
REMARK VINA RESULT:    -4.770      1.786      2.694
REMARK INTER + INTRA:          -7.198
REMARK INTER:                  -6.689
REMARK INTRA:                  -0.509
REMARK UNBOUND:                -0.476
REMARK SMILES CCCCCCCCC(=O)[O-]
REMARK SMILES IDX 6 1 7 2 8 3 9 4 10 5 11 6 5 7 4 8 3 9 2 10 1 11
REMARK H PARENT
REMARK Flexibility Score: inf
ROOT
ATOM      1  C   UNL     1      10.639 -18.636 -25.655  1.00  0.00     0.000 C 
ENDROOT
BRANCH   1   2
ATOM      2  C   UNL     1      10.350 -17.444 -26.574  1.00  0.00     0.006 C 
BRANCH   2   3
ATOM      3  C   UNL     1       9.110 -17.702 -27.436  1.00  0.00     0.053 C 
BRANCH   3   4
ATOM      4  C   UNL     1       9.481 -17.756 -28.884  1.00  0.00     0.041 C 
ATOM      5  O   UNL     1      10.691 -17.831 -29.227  1.00  0.00    -0.550 OA
ATOM      6  O   UNL     1       8.489 -17.773 -29.856  1.00  0.00    -0.550 OA
ENDBRANCH   3   4
ENDBRANCH   2   3
ENDBRANCH   1   2
BRANCH   1   7
ATOM      7  C   UNL     1      12.145 -18.789 -25.409  1.00  0.00     0.000 C 
BRANCH   7   8
ATOM      8  C   UNL     1      12.856 -19.315 -26.661  1.00  0.00    -0.000 C 
BRANCH   8   9
ATOM      9  C   UNL     1      12.116 -20.522 -27.250  1.00  0.00    -0.000 C 
BRANCH   9  10
ATOM     10  C   UNL     1      12.918 -21.812 -27.048  1.00  0.00    -0.003 C 
ATOM     11  C   UNL     1      12.029 -22.941 -26.535  1.00  0.00     0.004 C 
ENDBRANCH   9  10
ENDBRANCH   8   9
ENDBRANCH   7   8
ENDBRANCH   1   7
TORSDOF 7
ENDMDL
MODEL 3
REMARK VINA RESULT:    -4.647      1.860      2.320
REMARK INTER + INTRA:          -7.025
REMARK INTER:                  -6.570
REMARK INTRA:                  -0.455
REMARK UNBOUND:                -0.476
REMARK SMILES CCCCCCCCC(=O)[O-]
REMARK SMILES IDX 6 1 7 2 8 3 9 4 10 5 11 6 5 7 4 8 3 9 2 10 1 11
REMARK H PARENT
REMARK Flexibility Score: inf
ROOT
ATOM      1  C   UNL     1      11.339 -18.259 -28.441  1.00  0.00     0.000 C 
ENDROOT
BRANCH   1   2
ATOM      2  C   UNL     1       9.817 -18.092 -28.352  1.00  0.00     0.006 C 
BRANCH   2   3
ATOM      3  C   UNL     1       9.409 -17.479 -27.009  1.00  0.00     0.053 C 
BRANCH   3   4
ATOM      4  C   UNL     1       7.986 -17.021 -27.053  1.00  0.00     0.041 C 
ATOM      5  O   UNL     1       7.064 -17.779 -26.649  1.00  0.00    -0.550 OA
ATOM      6  O   UNL     1       7.680 -15.739 -27.493  1.00  0.00    -0.550 OA
ENDBRANCH   3   4
ENDBRANCH   2   3
ENDBRANCH   1   2
BRANCH   1   7
ATOM      7  C   UNL     1      11.724 -19.739 -28.561  1.00  0.00     0.000 C 
BRANCH   7   8
ATOM      8  C   UNL     1      12.339 -20.255 -27.255  1.00  0.00    -0.000 C 
BRANCH   8   9
ATOM      9  C   UNL     1      12.848 -19.096 -26.389  1.00  0.00    -0.000 C 
BRANCH   9  10
ATOM     10  C   UNL     1      12.078 -19.018 -25.066  1.00  0.00    -0.003 C 
ATOM     11  C   UNL     1      12.850 -18.211 -24.026  1.00  0.00     0.004 C 
ENDBRANCH   9  10
ENDBRANCH   8   9
ENDBRANCH   7   8
ENDBRANCH   1   7
TORSDOF 7
ENDMDL
MODEL 4
REMARK VINA RESULT:    -4.614      1.179      2.054
REMARK INTER + INTRA:          -6.978
REMARK INTER:                  -6.441
REMARK INTRA:                  -0.536
REMARK UNBOUND:                -0.476
REMARK SMILES CCCCCCCCC(=O)[O-]
REMARK SMILES IDX 6 1 7 2 8 3 9 4 10 5 11 6 5 7 4 8 3 9 2 10 1 11
REMARK H PARENT
REMARK Flexibility Score: inf
ROOT
ATOM      1  C   UNL     1       8.583 -17.729 -26.832  1.00  0.00     0.000 C 
ENDROOT
BRANCH   1   2
ATOM      2  C   UNL     1       8.064 -17.737 -28.275  1.00  0.00     0.006 C 
BRANCH   2   3
ATOM      3  C   UNL     1       9.133 -17.229 -29.246  1.00  0.00     0.053 C 
BRANCH   3   4
ATOM      4  C   UNL     1       8.498 -16.669 -30.479  1.00  0.00     0.041 C 
ATOM      5  O   UNL     1       8.070 -15.485 -30.490  1.00  0.00    -0.550 OA
ATOM      6  O   UNL     1       8.422 -17.438 -31.634  1.00  0.00    -0.550 OA
ENDBRANCH   3   4
ENDBRANCH   2   3
ENDBRANCH   1   2
BRANCH   1   7
ATOM      7  C   UNL     1      10.112 -17.615 -26.797  1.00  0.00     0.000 C 
BRANCH   7   8
ATOM      8  C   UNL     1      10.693 -18.376 -25.600  1.00  0.00    -0.000 C 
BRANCH   8   9
ATOM      9  C   UNL     1      11.606 -19.517 -26.063  1.00  0.00    -0.000 C 
BRANCH   9  10
ATOM     10  C   UNL     1      12.210 -19.216 -27.438  1.00  0.00    -0.003 C 
ATOM     11  C   UNL     1      11.973 -20.368 -28.410  1.00  0.00     0.004 C 
ENDBRANCH   9  10
ENDBRANCH   8   9
ENDBRANCH   7   8
ENDBRANCH   1   7
TORSDOF 7
ENDMDL
MODEL 5
REMARK VINA RESULT:    -4.611      2.743      4.111
REMARK INTER + INTRA:          -6.974
REMARK INTER:                  -6.561
REMARK INTRA:                  -0.413
REMARK UNBOUND:                -0.476
REMARK SMILES CCCCCCCCC(=O)[O-]
REMARK SMILES IDX 6 1 7 2 8 3 9 4 10 5 11 6 5 7 4 8 3 9 2 10 1 11
REMARK H PARENT
REMARK Flexibility Score: inf
ROOT
ATOM      1  C   UNL     1      11.844 -20.117 -26.138  1.00  0.00     0.000 C 
ENDROOT
BRANCH   1   2
ATOM      2  C   UNL     1      11.514 -18.631 -26.320  1.00  0.00     0.006 C 
BRANCH   2   3
ATOM      3  C   UNL     1      11.347 -18.282 -27.802  1.00  0.00     0.053 C 
BRANCH   3   4
ATOM      4  C   UNL     1       9.928 -17.913 -28.097  1.00  0.00     0.041 C 
ATOM      5  O   UNL     1       9.446 -18.113 -29.243  1.00  0.00    -0.550 OA
ATOM      6  O   UNL     1       9.121 -17.393 -27.092  1.00  0.00    -0.550 OA
ENDBRANCH   3   4
ENDBRANCH   2   3
ENDBRANCH   1   2
BRANCH   1   7
ATOM      7  C   UNL     1      12.401 -20.720 -27.433  1.00  0.00     0.000 C 
BRANCH   7   8
ATOM      8  C   UNL     1      13.046 -22.086 -27.171  1.00  0.00    -0.000 C 
BRANCH   8   9
ATOM      9  C   UNL     1      12.137 -22.968 -26.307  1.00  0.00    -0.000 C 
BRANCH   9  10
ATOM     10  C   UNL     1      11.159 -23.766 -27.175  1.00  0.00    -0.003 C 
ATOM     11  C   UNL     1      11.833 -24.268 -28.449  1.00  0.00     0.004 C 
ENDBRANCH   9  10
ENDBRANCH   8   9
ENDBRANCH   7   8
ENDBRANCH   1   7
TORSDOF 7
ENDMDL
MODEL 6
REMARK VINA RESULT:    -4.555      4.249      5.640
REMARK INTER + INTRA:          -6.896
REMARK INTER:                  -6.490
REMARK INTRA:                  -0.405
REMARK UNBOUND:                -0.476
REMARK SMILES CCCCCCCCC(=O)[O-]
REMARK SMILES IDX 6 1 7 2 8 3 9 4 10 5 11 6 5 7 4 8 3 9 2 10 1 11
REMARK H PARENT
REMARK Flexibility Score: inf
ROOT
ATOM      1  C   UNL     1      12.028 -21.013 -28.346  1.00  0.00     0.000 C 
ENDROOT
BRANCH   1   2
ATOM      2  C   UNL     1      12.734 -21.776 -27.219  1.00  0.00     0.006 C 
BRANCH   2   3
ATOM      3  C   UNL     1      11.861 -22.921 -26.699  1.00  0.00     0.053 C 
BRANCH   3   4
ATOM      4  C   UNL     1      11.410 -23.791 -27.828  1.00  0.00     0.041 C 
ATOM      5  O   UNL     1      10.184 -23.892 -28.100  1.00  0.00    -0.550 OA
ATOM      6  O   UNL     1      12.346 -24.454 -28.612  1.00  0.00    -0.550 OA
ENDBRANCH   3   4
ENDBRANCH   2   3
ENDBRANCH   1   2
BRANCH   1   7
ATOM      7  C   UNL     1      11.997 -19.507 -28.056  1.00  0.00     0.000 C 
BRANCH   7   8
ATOM      8  C   UNL     1      12.305 -19.224 -26.581  1.00  0.00    -0.000 C 
BRANCH   8   9
ATOM      9  C   UNL     1      11.133 -18.507 -25.901  1.00  0.00    -0.000 C 
BRANCH   9  10
ATOM     10  C   UNL     1      11.520 -18.029 -24.498  1.00  0.00    -0.003 C 
ATOM     11  C   UNL     1      12.984 -18.333 -24.195  1.00  0.00     0.004 C 
ENDBRANCH   9  10
ENDBRANCH   8   9
ENDBRANCH   7   8
ENDBRANCH   1   7
TORSDOF 7
ENDMDL
MODEL 7
REMARK VINA RESULT:    -4.486      2.930      4.671
REMARK INTER + INTRA:          -6.798
REMARK INTER:                  -6.335
REMARK INTRA:                  -0.463
REMARK UNBOUND:                -0.476
REMARK SMILES CCCCCCCCC(=O)[O-]
REMARK SMILES IDX 6 1 7 2 8 3 9 4 10 5 11 6 5 7 4 8 3 9 2 10 1 11
REMARK H PARENT
REMARK Flexibility Score: inf
ROOT
ATOM      1  C   UNL     1      11.801 -20.552 -26.358  1.00  0.00     0.000 C 
ENDROOT
BRANCH   1   2
ATOM      2  C   UNL     1      12.523 -19.243 -26.695  1.00  0.00     0.006 C 
BRANCH   2   3
ATOM      3  C   UNL     1      12.071 -18.699 -28.053  1.00  0.00     0.053 C 
BRANCH   3   4
ATOM      4  C   UNL     1      10.650 -18.236 -27.986  1.00  0.00     0.041 C 
ATOM      5  O   UNL     1       9.844 -18.531 -28.907  1.00  0.00    -0.550 OA
ATOM      6  O   UNL     1      10.203 -17.521 -26.883  1.00  0.00    -0.550 OA
ENDBRANCH   3   4
ENDBRANCH   2   3
ENDBRANCH   1   2
BRANCH   1   7
ATOM      7  C   UNL     1      12.612 -21.766 -26.828  1.00  0.00     0.000 C 
BRANCH   7   8
ATOM      8  C   UNL     1      11.733 -23.020 -26.903  1.00  0.00    -0.000 C 
BRANCH   8   9
ATOM      9  C   UNL     1      11.821 -23.672 -28.288  1.00  0.00    -0.000 C 
BRANCH   9  10
ATOM     10  C   UNL     1      11.327 -22.717 -29.379  1.00  0.00    -0.003 C 
ATOM     11  C   UNL     1      12.450 -22.353 -30.346  1.00  0.00     0.004 C 
ENDBRANCH   9  10
ENDBRANCH   8   9
ENDBRANCH   7   8
ENDBRANCH   1   7
TORSDOF 7
ENDMDL
MODEL 8
REMARK VINA RESULT:    -4.470      2.586      3.814
REMARK INTER + INTRA:          -6.775
REMARK INTER:                  -6.275
REMARK INTRA:                  -0.500
REMARK UNBOUND:                -0.476
REMARK SMILES CCCCCCCCC(=O)[O-]
REMARK SMILES IDX 6 1 7 2 8 3 9 4 10 5 11 6 5 7 4 8 3 9 2 10 1 11
REMARK H PARENT
REMARK Flexibility Score: inf
ROOT
ATOM      1  C   UNL     1      12.843 -19.282 -26.593  1.00  0.00     0.000 C 
ENDROOT
BRANCH   1   2
ATOM      2  C   UNL     1      12.082 -18.170 -27.322  1.00  0.00     0.006 C 
BRANCH   2   3
ATOM      3  C   UNL     1      10.716 -17.923 -26.676  1.00  0.00     0.053 C 
BRANCH   3   4
ATOM      4  C   UNL     1       9.661 -17.760 -27.724  1.00  0.00     0.041 C 
ATOM      5  O   UNL     1       8.691 -16.980 -27.530  1.00  0.00    -0.550 OA
ATOM      6  O   UNL     1       9.775 -18.429 -28.935  1.00  0.00    -0.550 OA
ENDBRANCH   3   4
ENDBRANCH   2   3
ENDBRANCH   1   2
BRANCH   1   7
ATOM      7  C   UNL     1      12.170 -20.643 -26.808  1.00  0.00     0.000 C 
BRANCH   7   8
ATOM      8  C   UNL     1      12.143 -21.015 -28.295  1.00  0.00    -0.000 C 
BRANCH   8   9
ATOM      9  C   UNL     1      12.974 -22.276 -28.564  1.00  0.00    -0.000 C 
BRANCH   9  10
ATOM     10  C   UNL     1      13.605 -22.804 -27.271  1.00  0.00    -0.003 C 
ATOM     11  C   UNL     1      15.123 -22.899 -27.397  1.00  0.00     0.004 C 
ENDBRANCH   9  10
ENDBRANCH   8   9
ENDBRANCH   7   8
ENDBRANCH   1   7
TORSDOF 7
ENDMDL
MODEL 9
REMARK VINA RESULT:    -4.469      4.126      5.616
REMARK INTER + INTRA:          -6.774
REMARK INTER:                  -6.233
REMARK INTRA:                  -0.541
REMARK UNBOUND:                -0.476
REMARK SMILES CCCCCCCCC(=O)[O-]
REMARK SMILES IDX 6 1 7 2 8 3 9 4 10 5 11 6 5 7 4 8 3 9 2 10 1 11
REMARK H PARENT
REMARK Flexibility Score: inf
ROOT
ATOM      1  C   UNL     1      12.119 -20.703 -27.856  1.00  0.00     0.000 C 
ENDROOT
BRANCH   1   2
ATOM      2  C   UNL     1      12.033 -19.266 -27.330  1.00  0.00     0.006 C 
BRANCH   2   3
ATOM      3  C   UNL     1      13.010 -19.044 -26.172  1.00  0.00     0.053 C 
BRANCH   3   4
ATOM      4  C   UNL     1      12.312 -18.410 -25.011  1.00  0.00     0.041 C 
ATOM      5  O   UNL     1      12.972 -18.014 -24.014  1.00  0.00    -0.550 OA
ATOM      6  O   UNL     1      10.938 -18.209 -25.050  1.00  0.00    -0.550 OA
ENDBRANCH   3   4
ENDBRANCH   2   3
ENDBRANCH   1   2
BRANCH   1   7
ATOM      7  C   UNL     1      12.076 -21.714 -26.703  1.00  0.00     0.000 C 
BRANCH   7   8
ATOM      8  C   UNL     1      12.881 -22.973 -27.046  1.00  0.00    -0.000 C 
BRANCH   8   9
ATOM      9  C   UNL     1      13.494 -22.871 -28.447  1.00  0.00    -0.000 C 
BRANCH   9  10
ATOM     10  C   UNL     1      14.993 -23.189 -28.416  1.00  0.00    -0.003 C 
ATOM     11  C   UNL     1      15.597 -22.869 -27.052  1.00  0.00     0.004 C 
ENDBRANCH   9  10
ENDBRANCH   8   9
ENDBRANCH   7   8
ENDBRANCH   1   7
TORSDOF 7
ENDMDL
