MODEL 1
REMARK VINA RESULT:    -2.035      0.000      0.000
REMARK INTER + INTRA:          -2.095
REMARK INTER:                  -2.095
REMARK INTRA:                   0.000
REMARK UNBOUND:                 0.000
REMARK SMILES CC1(C)[C@@H]2CC[C@@](C)(C2)[C@@H]1O
REMARK SMILES IDX 1 1 2 2 4 3 5 4 6 5 7 6 9 7 10 8 8 9 3 10 11 11
REMARK H PARENT 11 12
REMARK Flexibility Score: inf
ROOT
ATOM      1  C   UNL     1     124.353 110.771 132.492  1.00  0.00     0.014 C 
ATOM      2  C   UNL     1     124.581 110.228 133.927  1.00  0.00    -0.006 C 
ATOM      3  C   UNL     1     125.977 110.621 134.525  1.00  0.00    -0.002 C 
ATOM      4  C   UNL     1     127.118 110.309 133.534  1.00  0.00     0.005 C 
ATOM      5  C   UNL     1     127.125 108.773 133.495  1.00  0.00     0.010 C 
ATOM      6  C   UNL     1     126.060 108.400 134.554  1.00  0.00    -0.006 C 
ATOM      7  C   UNL     1     126.217 109.526 135.551  1.00  0.00     0.013 C 
ATOM      8  C   UNL     1     124.633 108.666 134.003  1.00  0.00     0.126 C 
ATOM      9  C   UNL     1     126.250 107.006 135.161  1.00  0.00     0.014 C 
ATOM     10  C   UNL     1     123.444 110.789 134.816  1.00  0.00     0.014 C 
ENDROOT
BRANCH   8  11
ATOM     11  O   UNL     1     124.426 108.051 132.754  1.00  0.00    -0.392 OA
ATOM     12  H   UNL     1     124.036 107.156 132.938  1.00  0.00     0.211 HD
ENDBRANCH   8  11
TORSDOF 1
ENDMDL
MODEL 2
REMARK VINA RESULT:    -2.015      1.402      3.023
REMARK INTER + INTRA:          -2.074
REMARK INTER:                  -2.074
REMARK INTRA:                   0.000
REMARK UNBOUND:                 0.000
REMARK SMILES CC1(C)[C@@H]2CC[C@@](C)(C2)[C@@H]1O
REMARK SMILES IDX 1 1 2 2 4 3 5 4 6 5 7 6 9 7 10 8 8 9 3 10 11 11
REMARK H PARENT 11 12
REMARK Flexibility Score: inf
ROOT
ATOM      1  C   UNL     1     123.429 107.773 134.089  1.00  0.00     0.014 C 
ATOM      2  C   UNL     1     124.789 108.037 133.390  1.00  0.00    -0.006 C 
ATOM      3  C   UNL     1     126.025 107.651 134.274  1.00  0.00    -0.002 C 
ATOM      4  C   UNL     1     125.908 108.250 135.691  1.00  0.00     0.005 C 
ATOM      5  C   UNL     1     126.060 109.758 135.438  1.00  0.00     0.010 C 
ATOM      6  C   UNL     1     126.356 109.821 133.921  1.00  0.00    -0.006 C 
ATOM      7  C   UNL     1     127.125 108.535 133.708  1.00  0.00     0.013 C 
ATOM      8  C   UNL     1     125.062 109.551 133.106  1.00  0.00     0.126 C 
ATOM      9  C   UNL     1     127.121 111.076 133.489  1.00  0.00     0.014 C 
ATOM     10  C   UNL     1     124.796 107.215 132.077  1.00  0.00     0.014 C 
ENDROOT
BRANCH   8  11
ATOM     11  O   UNL     1     124.002 110.383 133.508  1.00  0.00    -0.392 OA
ATOM     12  H   UNL     1     123.651 110.816 132.686  1.00  0.00     0.211 HD
ENDBRANCH   8  11
TORSDOF 1
ENDMDL
MODEL 3
REMARK VINA RESULT:    -1.994      1.358      2.958
REMARK INTER + INTRA:          -2.052
REMARK INTER:                  -2.052
REMARK INTRA:                   0.000
REMARK UNBOUND:                 0.000
REMARK SMILES CC1(C)[C@@H]2CC[C@@](C)(C2)[C@@H]1O
REMARK SMILES IDX 1 1 2 2 4 3 5 4 6 5 7 6 9 7 10 8 8 9 3 10 11 11
REMARK H PARENT 11 12
REMARK Flexibility Score: inf
ROOT
ATOM      1  C   UNL     1     125.925 109.538 136.048  1.00  0.00     0.014 C 
ATOM      2  C   UNL     1     125.933 108.567 134.839  1.00  0.00    -0.006 C 
ATOM      3  C   UNL     1     127.082 108.864 133.814  1.00  0.00    -0.002 C 
ATOM      4  C   UNL     1     127.121 110.359 133.434  1.00  0.00     0.005 C 
ATOM      5  C   UNL     1     125.822 110.541 132.633  1.00  0.00     0.010 C 
ATOM      6  C   UNL     1     125.261 109.101 132.562  1.00  0.00    -0.006 C 
ATOM      7  C   UNL     1     126.532 108.281 132.523  1.00  0.00     0.013 C 
ATOM      8  C   UNL     1     124.663 108.685 133.934  1.00  0.00     0.126 C 
ATOM      9  C   UNL     1     124.330 108.855 131.370  1.00  0.00     0.014 C 
ATOM     10  C   UNL     1     126.081 107.132 135.404  1.00  0.00     0.014 C 
ENDROOT
BRANCH   8  11
ATOM     11  O   UNL     1     123.736 109.629 134.413  1.00  0.00    -0.392 OA
ATOM     12  H   UNL     1     122.894 109.485 133.905  1.00  0.00     0.211 HD
ENDBRANCH   8  11
TORSDOF 1
ENDMDL
MODEL 4
REMARK VINA RESULT:    -1.962      1.770      2.992
REMARK INTER + INTRA:          -2.020
REMARK INTER:                  -2.020
REMARK INTRA:                   0.000
REMARK UNBOUND:                 0.000
REMARK SMILES CC1(C)[C@@H]2CC[C@@](C)(C2)[C@@H]1O
REMARK SMILES IDX 1 1 2 2 4 3 5 4 6 5 7 6 9 7 10 8 8 9 3 10 11 11
REMARK H PARENT 11 12
REMARK Flexibility Score: inf
ROOT
ATOM      1  C   UNL     1     124.245 110.853 137.142  1.00  0.00     0.014 C 
ATOM      2  C   UNL     1     125.678 110.841 136.548  1.00  0.00    -0.006 C 
ATOM      3  C   UNL     1     125.891 111.909 135.420  1.00  0.00    -0.002 C 
ATOM      4  C   UNL     1     124.763 111.845 134.369  1.00  0.00     0.005 C 
ATOM      5  C   UNL     1     125.012 110.493 133.683  1.00  0.00     0.010 C 
ATOM      6  C   UNL     1     126.319 110.006 134.354  1.00  0.00    -0.006 C 
ATOM      7  C   UNL     1     127.033 111.315 134.613  1.00  0.00     0.013 C 
ATOM      8  C   UNL     1     126.033 109.514 135.800  1.00  0.00     0.126 C 
ATOM      9  C   UNL     1     127.125 109.020 133.503  1.00  0.00     0.014 C 
ATOM     10  C   UNL     1     126.661 111.100 137.718  1.00  0.00     0.014 C 
ENDROOT
BRANCH   8  11
ATOM     11  O   UNL     1     124.993 108.569 135.839  1.00  0.00    -0.392 OA
ATOM     12  H   UNL     1     125.284 107.801 135.281  1.00  0.00     0.211 HD
ENDBRANCH   8  11
TORSDOF 1
ENDMDL
MODEL 5
REMARK VINA RESULT:    -1.951      0.952      1.042
REMARK INTER + INTRA:          -2.008
REMARK INTER:                  -2.008
REMARK INTRA:                   0.000
REMARK UNBOUND:                 0.000
REMARK SMILES CC1(C)[C@@H]2CC[C@@](C)(C2)[C@@H]1O
REMARK SMILES IDX 1 1 2 2 4 3 5 4 6 5 7 6 9 7 10 8 8 9 3 10 11 11
REMARK H PARENT 11 12
REMARK Flexibility Score: inf
ROOT
ATOM      1  C   UNL     1     123.923 111.529 133.451  1.00  0.00     0.014 C 
ATOM      2  C   UNL     1     124.276 110.325 134.363  1.00  0.00    -0.006 C 
ATOM      3  C   UNL     1     125.505 110.596 135.298  1.00  0.00    -0.002 C 
ATOM      4  C   UNL     1     126.698 111.169 134.504  1.00  0.00     0.005 C 
ATOM      5  C   UNL     1     127.125 109.982 133.627  1.00  0.00     0.010 C 
ATOM      6  C   UNL     1     126.193 108.846 134.113  1.00  0.00    -0.006 C 
ATOM      7  C   UNL     1     126.025 109.195 135.575  1.00  0.00     0.013 C 
ATOM      8  C   UNL     1     124.752 109.061 133.573  1.00  0.00     0.126 C 
ATOM      9  C   UNL     1     126.750 107.439 133.873  1.00  0.00     0.014 C 
ATOM     10  C   UNL     1     123.020 110.009 135.212  1.00  0.00     0.014 C 
ENDROOT
BRANCH   8  11
ATOM     11  O   UNL     1     124.734 109.249 132.179  1.00  0.00    -0.392 OA
ATOM     12  H   UNL     1     123.850 109.643 131.956  1.00  0.00     0.211 HD
ENDBRANCH   8  11
TORSDOF 1
ENDMDL
MODEL 6
REMARK VINA RESULT:    -1.868      2.532      3.821
REMARK INTER + INTRA:          -1.922
REMARK INTER:                  -1.922
REMARK INTRA:                   0.000
REMARK UNBOUND:                 0.000
REMARK SMILES CC1(C)[C@@H]2CC[C@@](C)(C2)[C@@H]1O
REMARK SMILES IDX 1 1 2 2 4 3 5 4 6 5 7 6 9 7 10 8 8 9 3 10 11 11
REMARK H PARENT 11 12
REMARK Flexibility Score: inf
ROOT
ATOM      1  C   UNL     1     124.676 110.719 134.173  1.00  0.00     0.014 C 
ATOM      2  C   UNL     1     125.700 109.993 135.084  1.00  0.00    -0.006 C 
ATOM      3  C   UNL     1     125.043 108.927 136.029  1.00  0.00    -0.002 C 
ATOM      4  C   UNL     1     123.827 109.516 136.775  1.00  0.00     0.005 C 
ATOM      5  C   UNL     1     124.472 110.538 137.724  1.00  0.00     0.010 C 
ATOM      6  C   UNL     1     125.984 110.326 137.478  1.00  0.00    -0.006 C 
ATOM      7  C   UNL     1     126.037 108.844 137.175  1.00  0.00     0.013 C 
ATOM      8  C   UNL     1     126.402 110.939 136.113  1.00  0.00     0.126 C 
ATOM      9  C   UNL     1     126.871 110.748 138.654  1.00  0.00     0.014 C 
ATOM     10  C   UNL     1     126.738 109.313 134.157  1.00  0.00     0.014 C 
ENDROOT
BRANCH   8  11
ATOM     11  O   UNL     1     125.994 112.279 135.991  1.00  0.00    -0.392 OA
ATOM     12  H   UNL     1     125.430 112.479 136.783  1.00  0.00     0.211 HD
ENDBRANCH   8  11
TORSDOF 1
ENDMDL
MODEL 7
REMARK VINA RESULT:    -1.863      1.246      1.939
REMARK INTER + INTRA:          -1.918
REMARK INTER:                  -1.918
REMARK INTRA:                   0.000
REMARK UNBOUND:                 0.000
REMARK SMILES CC1(C)[C@@H]2CC[C@@](C)(C2)[C@@H]1O
REMARK SMILES IDX 1 1 2 2 4 3 5 4 6 5 7 6 9 7 10 8 8 9 3 10 11 11
REMARK H PARENT 11 12
REMARK Flexibility Score: inf
ROOT
ATOM      1  C   UNL     1     123.241 111.142 134.865  1.00  0.00     0.014 C 
ATOM      2  C   UNL     1     123.981 109.794 135.067  1.00  0.00    -0.006 C 
ATOM      3  C   UNL     1     125.147 109.878 136.112  1.00  0.00    -0.002 C 
ATOM      4  C   UNL     1     126.072 111.079 135.823  1.00  0.00     0.005 C 
ATOM      5  C   UNL     1     126.753 110.676 134.506  1.00  0.00     0.010 C 
ATOM      6  C   UNL     1     126.213 109.246 134.267  1.00  0.00    -0.006 C 
ATOM      7  C   UNL     1     126.058 108.739 135.684  1.00  0.00     0.013 C 
ATOM      8  C   UNL     1     124.736 109.298 133.789  1.00  0.00     0.126 C 
ATOM      9  C   UNL     1     127.124 108.375 133.395  1.00  0.00     0.014 C 
ATOM     10  C   UNL     1     122.927 108.756 135.528  1.00  0.00     0.014 C 
ENDROOT
BRANCH   8  11
ATOM     11  O   UNL     1     124.568 110.156 132.687  1.00  0.00    -0.392 OA
ATOM     12  H   UNL     1     124.288 109.586 131.923  1.00  0.00     0.211 HD
ENDBRANCH   8  11
TORSDOF 1
ENDMDL
MODEL 8
REMARK VINA RESULT:    -1.762      3.265      3.915
REMARK INTER + INTRA:          -1.813
REMARK INTER:                  -1.813
REMARK INTRA:                   0.000
REMARK UNBOUND:                 0.000
REMARK SMILES CC1(C)[C@@H]2CC[C@@](C)(C2)[C@@H]1O
REMARK SMILES IDX 1 1 2 2 4 3 5 4 6 5 7 6 9 7 10 8 8 9 3 10 11 11
REMARK H PARENT 11 12
REMARK Flexibility Score: inf
ROOT
ATOM      1  C   UNL     1     124.610 113.838 135.882  1.00  0.00     0.014 C 
ATOM      2  C   UNL     1     125.331 113.096 137.038  1.00  0.00    -0.006 C 
ATOM      3  C   UNL     1     126.841 112.799 136.738  1.00  0.00    -0.002 C 
ATOM      4  C   UNL     1     127.018 112.147 135.350  1.00  0.00     0.005 C 
ATOM      5  C   UNL     1     126.375 110.764 135.539  1.00  0.00     0.010 C 
ATOM      6  C   UNL     1     126.011 110.759 137.042  1.00  0.00    -0.006 C 
ATOM      7  C   UNL     1     127.125 111.599 137.627  1.00  0.00     0.013 C 
ATOM      8  C   UNL     1     124.771 111.659 137.302  1.00  0.00     0.126 C 
ATOM      9  C   UNL     1     125.909 109.357 137.652  1.00  0.00     0.014 C 
ATOM     10  C   UNL     1     125.204 113.982 138.302  1.00  0.00     0.014 C 
ENDROOT
BRANCH   8  11
ATOM     11  O   UNL     1     123.694 111.328 136.460  1.00  0.00    -0.392 OA
ATOM     12  H   UNL     1     122.942 111.061 137.051  1.00  0.00     0.211 HD
ENDBRANCH   8  11
TORSDOF 1
ENDMDL
