MODEL 1
REMARK VINA RESULT:    -5.553      0.000      0.000
REMARK INTER + INTRA:          -5.979
REMARK INTER:                  -5.877
REMARK INTRA:                  -0.101
REMARK UNBOUND:                -0.101
REMARK SMILES C=C(C)[C@@H]1CC=C(C)C(=O)C1
REMARK SMILES IDX 8 1 7 2 6 3 5 4 4 5 11 6 9 7 10 8 2 9 1 10 3 11
REMARK H PARENT
REMARK Flexibility Score: inf
ROOT
ATOM      1  C   UNL     1      18.796  20.206  32.109  1.00  0.00     0.048 C 
ATOM      2  C   UNL     1      17.719  19.222  31.743  1.00  0.00    -0.012 C 
ATOM      3  C   UNL     1      16.579  19.658  31.180  1.00  0.00    -0.019 C 
ATOM      4  C   UNL     1      15.476  18.715  30.777  1.00  0.00     0.036 C 
ATOM      5  C   UNL     1      15.411  17.501  31.724  1.00  0.00     0.025 C 
ATOM      6  C   UNL     1      16.782  16.802  31.792  1.00  0.00     0.089 C 
ATOM      7  C   UNL     1      17.866  17.793  32.116  1.00  0.00     0.158 C 
ATOM      8  O   UNL     1      18.919  17.390  32.677  1.00  0.00    -0.295 OA
ENDROOT
BRANCH   5   9
ATOM      9  C   UNL     1      14.305  16.535  31.327  1.00  0.00    -0.077 C 
ATOM     10  C   UNL     1      14.280  15.271  31.784  1.00  0.00     0.008 C 
ATOM     11  C   UNL     1      13.225  17.022  30.397  1.00  0.00     0.039 C 
ENDBRANCH   5   9
TORSDOF 1
ENDMDL
MODEL 2
REMARK VINA RESULT:    -5.493      3.506      5.030
REMARK INTER + INTRA:          -5.915
REMARK INTER:                  -5.820
REMARK INTRA:                  -0.095
REMARK UNBOUND:                -0.101
REMARK SMILES C=C(C)[C@@H]1CC=C(C)C(=O)C1
REMARK SMILES IDX 8 1 7 2 6 3 5 4 4 5 11 6 9 7 10 8 2 9 1 10 3 11
REMARK H PARENT
REMARK Flexibility Score: inf
ROOT
ATOM      1  C   UNL     1      16.976  25.459  32.977  1.00  0.00     0.048 C 
ATOM      2  C   UNL     1      17.300  24.032  32.629  1.00  0.00    -0.012 C 
ATOM      3  C   UNL     1      16.982  23.552  31.415  1.00  0.00    -0.019 C 
ATOM      4  C   UNL     1      17.300  22.137  31.008  1.00  0.00     0.036 C 
ATOM      5  C   UNL     1      17.233  21.184  32.217  1.00  0.00     0.025 C 
ATOM      6  C   UNL     1      18.150  21.687  33.346  1.00  0.00     0.089 C 
ATOM      7  C   UNL     1      17.856  23.127  33.666  1.00  0.00     0.158 C 
ATOM      8  O   UNL     1      18.121  23.567  34.816  1.00  0.00    -0.295 OA
ENDROOT
BRANCH   5   9
ATOM      9  C   UNL     1      17.557  19.751  31.824  1.00  0.00    -0.077 C 
ATOM     10  C   UNL     1      18.821  19.290  31.828  1.00  0.00     0.008 C 
ATOM     11  C   UNL     1      16.426  18.842  31.420  1.00  0.00     0.039 C 
ENDBRANCH   5   9
TORSDOF 1
ENDMDL
MODEL 3
REMARK VINA RESULT:    -5.344      3.872      5.667
REMARK INTER + INTRA:          -5.758
REMARK INTER:                  -5.664
REMARK INTRA:                  -0.094
REMARK UNBOUND:                -0.101
REMARK SMILES C=C(C)[C@@H]1CC=C(C)C(=O)C1
REMARK SMILES IDX 8 1 7 2 6 3 5 4 4 5 11 6 9 7 10 8 2 9 1 10 3 11
REMARK H PARENT
REMARK Flexibility Score: inf
ROOT
ATOM      1  C   UNL     1      17.514  25.843  33.155  1.00  0.00     0.048 C 
ATOM      2  C   UNL     1      17.475  24.357  32.928  1.00  0.00    -0.012 C 
ATOM      3  C   UNL     1      18.007  23.528  33.841  1.00  0.00    -0.019 C 
ATOM      4  C   UNL     1      17.979  22.031  33.673  1.00  0.00     0.036 C 
ATOM      5  C   UNL     1      18.063  21.639  32.186  1.00  0.00     0.025 C 
ATOM      6  C   UNL     1      16.950  22.338  31.384  1.00  0.00     0.089 C 
ATOM      7  C   UNL     1      16.961  23.819  31.644  1.00  0.00     0.158 C 
ATOM      8  O   UNL     1      16.495  24.599  30.771  1.00  0.00    -0.295 OA
ENDROOT
BRANCH   5   9
ATOM      9  C   UNL     1      18.030  20.130  31.998  1.00  0.00    -0.077 C 
ATOM     10  C   UNL     1      19.079  19.357  32.331  1.00  0.00     0.008 C 
ATOM     11  C   UNL     1      16.787  19.504  31.421  1.00  0.00     0.039 C 
ENDBRANCH   5   9
TORSDOF 1
ENDMDL
MODEL 4
REMARK VINA RESULT:    -5.198      3.923      5.929
REMARK INTER + INTRA:          -5.603
REMARK INTER:                  -5.510
REMARK INTRA:                  -0.093
REMARK UNBOUND:                -0.101
REMARK SMILES C=C(C)[C@@H]1CC=C(C)C(=O)C1
REMARK SMILES IDX 8 1 7 2 6 3 5 4 4 5 11 6 9 7 10 8 2 9 1 10 3 11
REMARK H PARENT
REMARK Flexibility Score: inf
ROOT
ATOM      1  C   UNL     1      19.098  19.209  32.321  1.00  0.00     0.048 C 
ATOM      2  C   UNL     1      18.363  20.517  32.216  1.00  0.00    -0.012 C 
ATOM      3  C   UNL     1      17.738  20.843  31.072  1.00  0.00    -0.019 C 
ATOM      4  C   UNL     1      16.972  22.131  30.919  1.00  0.00     0.036 C 
ATOM      5  C   UNL     1      17.609  23.257  31.755  1.00  0.00     0.025 C 
ATOM      6  C   UNL     1      17.735  22.824  33.227  1.00  0.00     0.089 C 
ATOM      7  C   UNL     1      18.433  21.495  33.330  1.00  0.00     0.158 C 
ATOM      8  O   UNL     1      19.049  21.205  34.390  1.00  0.00    -0.295 OA
ENDROOT
BRANCH   5   9
ATOM      9  C   UNL     1      16.844  24.564  31.616  1.00  0.00    -0.077 C 
ATOM     10  C   UNL     1      15.563  24.674  32.013  1.00  0.00     0.008 C 
ATOM     11  C   UNL     1      17.550  25.751  31.015  1.00  0.00     0.039 C 
ENDBRANCH   5   9
TORSDOF 1
ENDMDL
MODEL 5
REMARK VINA RESULT:    -5.186      2.718      5.266
REMARK INTER + INTRA:          -5.590
REMARK INTER:                  -5.495
REMARK INTRA:                  -0.095
REMARK UNBOUND:                -0.101
REMARK SMILES C=C(C)[C@@H]1CC=C(C)C(=O)C1
REMARK SMILES IDX 8 1 7 2 6 3 5 4 4 5 11 6 9 7 10 8 2 9 1 10 3 11
REMARK H PARENT
REMARK Flexibility Score: inf
ROOT
ATOM      1  C   UNL     1      18.001  17.254  31.831  1.00  0.00     0.048 C 
ATOM      2  C   UNL     1      17.991  18.750  31.990  1.00  0.00    -0.012 C 
ATOM      3  C   UNL     1      18.916  19.346  32.761  1.00  0.00    -0.019 C 
ATOM      4  C   UNL     1      18.963  20.840  32.940  1.00  0.00     0.036 C 
ATOM      5  C   UNL     1      17.550  21.450  32.885  1.00  0.00     0.025 C 
ATOM      6  C   UNL     1      16.842  21.041  31.580  1.00  0.00     0.089 C 
ATOM      7  C   UNL     1      16.889  19.549  31.398  1.00  0.00     0.158 C 
ATOM      8  O   UNL     1      16.000  18.986  30.705  1.00  0.00    -0.295 OA
ENDROOT
BRANCH   5   9
ATOM      9  C   UNL     1      17.580  22.961  33.059  1.00  0.00    -0.077 C 
ATOM     10  C   UNL     1      17.948  23.527  34.222  1.00  0.00     0.008 C 
ATOM     11  C   UNL     1      17.182  23.827  31.893  1.00  0.00     0.039 C 
ENDBRANCH   5   9
TORSDOF 1
ENDMDL
MODEL 6
REMARK VINA RESULT:    -5.185      3.957      6.277
REMARK INTER + INTRA:          -5.590
REMARK INTER:                  -5.498
REMARK INTRA:                  -0.092
REMARK UNBOUND:                -0.101
REMARK SMILES C=C(C)[C@@H]1CC=C(C)C(=O)C1
REMARK SMILES IDX 8 1 7 2 6 3 5 4 4 5 11 6 9 7 10 8 2 9 1 10 3 11
REMARK H PARENT
REMARK Flexibility Score: inf
ROOT
ATOM      1  C   UNL     1      18.729  19.369  31.759  1.00  0.00     0.048 C 
ATOM      2  C   UNL     1      18.339  20.747  32.218  1.00  0.00    -0.012 C 
ATOM      3  C   UNL     1      18.668  21.157  33.455  1.00  0.00    -0.019 C 
ATOM      4  C   UNL     1      18.318  22.533  33.959  1.00  0.00     0.036 C 
ATOM      5  C   UNL     1      16.992  23.026  33.349  1.00  0.00     0.025 C 
ATOM      6  C   UNL     1      17.057  22.967  31.812  1.00  0.00     0.089 C 
ATOM      7  C   UNL     1      17.488  21.601  31.353  1.00  0.00     0.158 C 
ATOM      8  O   UNL     1      17.148  21.203  30.206  1.00  0.00    -0.295 OA
ENDROOT
BRANCH   5   9
ATOM      9  C   UNL     1      16.628  24.417  33.844  1.00  0.00    -0.077 C 
ATOM     10  C   UNL     1      15.498  24.642  34.539  1.00  0.00     0.008 C 
ATOM     11  C   UNL     1      17.563  25.558  33.538  1.00  0.00     0.039 C 
ENDBRANCH   5   9
TORSDOF 1
ENDMDL
MODEL 7
REMARK VINA RESULT:    -5.000      4.770      6.568
REMARK INTER + INTRA:          -5.393
REMARK INTER:                  -5.295
REMARK INTRA:                  -0.099
REMARK UNBOUND:                -0.101
REMARK SMILES C=C(C)[C@@H]1CC=C(C)C(=O)C1
REMARK SMILES IDX 8 1 7 2 6 3 5 4 4 5 11 6 9 7 10 8 2 9 1 10 3 11
REMARK H PARENT
REMARK Flexibility Score: inf
ROOT
ATOM      1  C   UNL     1      16.221  25.952  35.125  1.00  0.00     0.048 C 
ATOM      2  C   UNL     1      16.626  24.648  34.496  1.00  0.00    -0.012 C 
ATOM      3  C   UNL     1      17.828  24.116  34.774  1.00  0.00    -0.019 C 
ATOM      4  C   UNL     1      18.276  22.804  34.186  1.00  0.00     0.036 C 
ATOM      5  C   UNL     1      17.691  22.600  32.775  1.00  0.00     0.025 C 
ATOM      6  C   UNL     1      16.157  22.731  32.810  1.00  0.00     0.089 C 
ATOM      7  C   UNL     1      15.750  24.016  33.477  1.00  0.00     0.158 C 
ATOM      8  O   UNL     1      14.638  24.532  33.189  1.00  0.00    -0.295 OA
ENDROOT
BRANCH   5   9
ATOM      9  C   UNL     1      18.129  21.276  32.169  1.00  0.00    -0.077 C 
ATOM     10  C   UNL     1      17.880  20.975  30.882  1.00  0.00     0.008 C 
ATOM     11  C   UNL     1      18.855  20.288  33.046  1.00  0.00     0.039 C 
ENDBRANCH   5   9
TORSDOF 1
ENDMDL
MODEL 8
REMARK VINA RESULT:    -4.996      1.982      4.616
REMARK INTER + INTRA:          -5.390
REMARK INTER:                  -5.292
REMARK INTRA:                  -0.098
REMARK UNBOUND:                -0.101
REMARK SMILES C=C(C)[C@@H]1CC=C(C)C(=O)C1
REMARK SMILES IDX 8 1 7 2 6 3 5 4 4 5 11 6 9 7 10 8 2 9 1 10 3 11
REMARK H PARENT
REMARK Flexibility Score: inf
ROOT
ATOM      1  C   UNL     1      14.039  15.264  31.803  1.00  0.00     0.048 C 
ATOM      2  C   UNL     1      15.029  16.375  31.585  1.00  0.00    -0.012 C 
ATOM      3  C   UNL     1      16.200  16.365  32.244  1.00  0.00    -0.019 C 
ATOM      4  C   UNL     1      17.234  17.443  32.050  1.00  0.00     0.036 C 
ATOM      5  C   UNL     1      16.570  18.801  31.751  1.00  0.00     0.025 C 
ATOM      6  C   UNL     1      15.621  18.678  30.544  1.00  0.00     0.089 C 
ATOM      7  C   UNL     1      14.659  17.539  30.742  1.00  0.00     0.158 C 
ATOM      8  O   UNL     1      13.546  17.566  30.152  1.00  0.00    -0.295 OA
ENDROOT
BRANCH   5   9
ATOM      9  C   UNL     1      17.601  19.900  31.547  1.00  0.00    -0.077 C 
ATOM     10  C   UNL     1      18.835  19.813  32.076  1.00  0.00     0.008 C 
ATOM     11  C   UNL     1      17.214  21.108  30.734  1.00  0.00     0.039 C 
ENDBRANCH   5   9
TORSDOF 1
ENDMDL
MODEL 9
REMARK VINA RESULT:    -4.842      3.891      6.442
REMARK INTER + INTRA:          -5.226
REMARK INTER:                  -5.132
REMARK INTRA:                  -0.094
REMARK UNBOUND:                -0.101
REMARK SMILES C=C(C)[C@@H]1CC=C(C)C(=O)C1
REMARK SMILES IDX 8 1 7 2 6 3 5 4 4 5 11 6 9 7 10 8 2 9 1 10 3 11
REMARK H PARENT
REMARK Flexibility Score: inf
ROOT
ATOM      1  C   UNL     1      18.530  19.720  31.449  1.00  0.00     0.048 C 
ATOM      2  C   UNL     1      18.003  21.046  31.927  1.00  0.00    -0.012 C 
ATOM      3  C   UNL     1      17.267  21.809  31.102  1.00  0.00    -0.019 C 
ATOM      4  C   UNL     1      16.700  23.136  31.534  1.00  0.00     0.036 C 
ATOM      5  C   UNL     1      17.630  23.833  32.545  1.00  0.00     0.025 C 
ATOM      6  C   UNL     1      17.915  22.902  33.739  1.00  0.00     0.089 C 
ATOM      7  C   UNL     1      18.401  21.561  33.261  1.00  0.00     0.158 C 
ATOM      8  O   UNL     1      19.121  20.862  34.022  1.00  0.00    -0.295 OA
ENDROOT
BRANCH   5   9
ATOM      9  C   UNL     1      17.069  25.172  32.997  1.00  0.00    -0.077 C 
ATOM     10  C   UNL     1      15.759  25.335  33.253  1.00  0.00     0.008 C 
ATOM     11  C   UNL     1      18.016  26.333  33.152  1.00  0.00     0.039 C 
ENDBRANCH   5   9
TORSDOF 1
ENDMDL
