MODEL 1
REMARK VINA RESULT:    -4.282      0.000      0.000
REMARK INTER + INTRA:          -6.762
REMARK INTER:                  -6.535
REMARK INTRA:                  -0.227
REMARK UNBOUND:                -0.227
REMARK SMILES CC1=CCC[C@H](C)C(=O)C[C@@H](C(C)C)C(=O)C1
REMARK SMILES IDX 8 1 9 2 6 3 7 4 5 5 4 6 3 7 2 8 1 9 10 11 11 12 15 13 16 14
REMARK SMILES IDX 17 15 12 17 13 18 14 19
REMARK H PARENT
REMARK Flexibility Score: 70.00
ROOT
ATOM      1  C   UNL     1      16.033 -34.533  19.891  1.00  0.00     0.136 C 
ATOM      2  O   UNL     1      16.253 -33.845  18.903  1.00  0.00    -0.299 OA
ENDROOT
BRANCH   1   3
ATOM      3  C   UNL     1      16.964 -35.684  20.229  1.00  0.00     0.053 C 
ATOM      4  C   UNL     1      17.106 -36.646  19.039  1.00  0.00     0.016 C 
BRANCH   3   5
ATOM      5  C   UNL     1      18.347 -35.144  20.673  1.00  0.00     0.015 C 
BRANCH   5   6
ATOM      6  C   UNL     1      18.642 -35.442  22.155  1.00  0.00     0.028 C 
BRANCH   6   7
ATOM      7  C   UNL     1      18.697 -34.173  22.968  1.00  0.00    -0.028 C 
ATOM      8  C   UNL     1      17.656 -33.655  23.660  1.00  0.00    -0.070 CG0
ATOM      9  C   UNL     1      17.864 -32.348  24.381  1.00  0.00     0.039 C 
ATOM     10  G   UNL     1      16.297 -34.332  23.744  1.00  0.00     0.000 G0
ENDBRANCH   6   7
ENDBRANCH   5   6
ENDBRANCH   3   5
ENDBRANCH   1   3
BRANCH   1  11
ATOM     11  C   UNL     1      14.851 -34.195  20.768  1.00  0.00     0.087 C 
BRANCH  11  12
ATOM     12  C   UNL     1      15.155 -33.007  21.717  1.00  0.00     0.066 C 
BRANCH  12  13
ATOM     13  C   UNL     1      15.191 -33.428  23.181  1.00  0.00     0.140 C 
ATOM     14  O   UNL     1      14.257 -33.107  23.903  1.00  0.00    -0.299 OA
BRANCH  13  15
ATOM     15  C   UNL     1      16.278 -34.309  23.752  1.00  0.00     0.106 CG0
ATOM     16  G   UNL     1      17.653 -33.671  23.647  1.00  0.00     0.000 G0
ENDBRANCH  13  15
ENDBRANCH  12  13
BRANCH  12  17
ATOM     17  C   UNL     1      14.256 -31.748  21.482  1.00  0.00    -0.006 C 
ATOM     18  C   UNL     1      15.102 -30.465  21.418  1.00  0.00     0.008 C 
ATOM     19  C   UNL     1      13.352 -31.825  20.237  1.00  0.00     0.008 C 
ENDBRANCH  12  17
ENDBRANCH  11  12
ENDBRANCH   1  11
TORSDOF 1
ENDMDL
MODEL 2
REMARK VINA RESULT:    -4.200      2.105      5.093
REMARK INTER + INTRA:          -6.636
REMARK INTER:                  -6.425
REMARK INTRA:                  -0.211
REMARK UNBOUND:                -0.227
REMARK SMILES CC1=CCC[C@H](C)C(=O)C[C@@H](C(C)C)C(=O)C1
REMARK SMILES IDX 8 1 9 2 6 3 7 4 5 5 4 6 3 7 2 8 1 9 10 11 11 12 15 13 16 14
REMARK SMILES IDX 17 15 12 17 13 18 14 19
REMARK H PARENT
REMARK Flexibility Score: 70.00
ROOT
ATOM      1  C   UNL     1      16.278 -30.377  22.579  1.00  0.00     0.136 C 
ATOM      2  O   UNL     1      17.010 -29.619  21.957  1.00  0.00    -0.299 OA
ENDROOT
BRANCH   1   3
ATOM      3  C   UNL     1      14.772 -30.201  22.502  1.00  0.00     0.053 C 
ATOM      4  C   UNL     1      14.365 -28.769  22.883  1.00  0.00     0.016 C 
BRANCH   3   5
ATOM      5  C   UNL     1      14.261 -30.565  21.085  1.00  0.00     0.015 C 
BRANCH   5   6
ATOM      6  C   UNL     1      13.515 -31.912  21.062  1.00  0.00     0.028 C 
BRANCH   6   7
ATOM      7  C   UNL     1      14.257 -32.934  20.237  1.00  0.00    -0.028 C 
ATOM      8  C   UNL     1      15.048 -33.908  20.746  1.00  0.00    -0.070 CG0
ATOM      9  C   UNL     1      15.761 -34.818  19.780  1.00  0.00     0.039 C 
ATOM     10  G   UNL     1      15.242 -34.123  22.238  1.00  0.00     0.000 G0
ENDBRANCH   6   7
ENDBRANCH   5   6
ENDBRANCH   3   5
ENDBRANCH   1   3
BRANCH   1  11
ATOM     11  C   UNL     1      16.898 -31.492  23.387  1.00  0.00     0.087 C 
BRANCH  11  12
ATOM     12  C   UNL     1      17.436 -32.632  22.483  1.00  0.00     0.066 C 
BRANCH  12  13
ATOM     13  C   UNL     1      16.679 -33.940  22.685  1.00  0.00     0.140 C 
ATOM     14  O   UNL     1      17.232 -34.844  23.295  1.00  0.00    -0.299 OA
BRANCH  13  15
ATOM     15  C   UNL     1      15.244 -34.127  22.254  1.00  0.00     0.106 CG0
ATOM     16  G   UNL     1      15.060 -33.939  20.757  1.00  0.00     0.000 G0
ENDBRANCH  13  15
ENDBRANCH  12  13
BRANCH  12  17
ATOM     17  C   UNL     1      18.987 -32.827  22.545  1.00  0.00    -0.006 C 
ATOM     18  C   UNL     1      19.650 -32.441  21.211  1.00  0.00     0.008 C 
ATOM     19  C   UNL     1      19.685 -32.078  23.696  1.00  0.00     0.008 C 
ENDBRANCH  12  17
ENDBRANCH  11  12
ENDBRANCH   1  11
TORSDOF 1
ENDMDL
MODEL 3
REMARK VINA RESULT:    -4.144      2.247      3.496
REMARK INTER + INTRA:          -6.552
REMARK INTER:                  -6.366
REMARK INTRA:                  -0.186
REMARK UNBOUND:                -0.227
REMARK SMILES CC1=CCC[C@H](C)C(=O)C[C@@H](C(C)C)C(=O)C1
REMARK SMILES IDX 8 1 9 2 6 3 7 4 5 5 4 6 3 7 2 8 1 9 10 11 11 12 15 13 16 14
REMARK SMILES IDX 17 15 12 17 13 18 14 19
REMARK H PARENT
REMARK Flexibility Score: 70.00
ROOT
ATOM      1  C   UNL     1      17.885 -30.980  21.500  1.00  0.00     0.136 C 
ATOM      2  O   UNL     1      18.273 -29.947  22.028  1.00  0.00    -0.299 OA
ENDROOT
BRANCH   1   3
ATOM      3  C   UNL     1      18.771 -32.213  21.515  1.00  0.00     0.053 C 
ATOM      4  C   UNL     1      20.204 -31.866  21.083  1.00  0.00     0.016 C 
BRANCH   3   5
ATOM      5  C   UNL     1      18.759 -32.866  22.920  1.00  0.00     0.015 C 
BRANCH   5   6
ATOM      6  C   UNL     1      18.201 -34.302  22.892  1.00  0.00     0.028 C 
BRANCH   6   7
ATOM      7  C   UNL     1      17.806 -34.707  21.494  1.00  0.00    -0.028 C 
ATOM      8  C   UNL     1      16.539 -34.698  21.019  1.00  0.00    -0.070 CG0
ATOM      9  C   UNL     1      16.307 -35.183  19.610  1.00  0.00     0.039 C 
ATOM     10  G   UNL     1      15.350 -34.219  21.835  1.00  0.00     0.000 G0
ENDBRANCH   6   7
ENDBRANCH   5   6
ENDBRANCH   3   5
ENDBRANCH   1   3
BRANCH   1  11
ATOM     11  C   UNL     1      16.512 -31.008  20.870  1.00  0.00     0.087 C 
BRANCH  11  12
ATOM     12  C   UNL     1      15.436 -31.542  21.851  1.00  0.00     0.066 C 
BRANCH  12  13
ATOM     13  C   UNL     1      14.824 -32.857  21.382  1.00  0.00     0.140 C 
ATOM     14  O   UNL     1      13.938 -32.818  20.539  1.00  0.00    -0.299 OA
BRANCH  13  15
ATOM     15  C   UNL     1      15.334 -34.204  21.837  1.00  0.00     0.106 CG0
ATOM     16  G   UNL     1      16.530 -34.672  21.025  1.00  0.00     0.000 G0
ENDBRANCH  13  15
ENDBRANCH  12  13
BRANCH  12  17
ATOM     17  C   UNL     1      14.350 -30.489  22.252  1.00  0.00    -0.006 C 
ATOM     18  C   UNL     1      13.579 -30.935  23.506  1.00  0.00     0.008 C 
ATOM     19  C   UNL     1      14.885 -29.061  22.465  1.00  0.00     0.008 C 
ENDBRANCH  12  17
ENDBRANCH  11  12
ENDBRANCH   1  11
TORSDOF 1
ENDMDL
MODEL 4
REMARK VINA RESULT:    -4.144      1.484      2.045
REMARK INTER + INTRA:          -6.552
REMARK INTER:                  -6.429
REMARK INTRA:                  -0.123
REMARK UNBOUND:                -0.227
REMARK SMILES CC1=CCC[C@H](C)C(=O)C[C@@H](C(C)C)C(=O)C1
REMARK SMILES IDX 8 1 9 2 6 3 7 4 5 5 4 6 3 7 2 8 1 9 10 11 11 12 15 13 16 14
REMARK SMILES IDX 17 15 12 17 13 18 14 19
REMARK H PARENT
REMARK Flexibility Score: 70.00
ROOT
ATOM      1  C   UNL     1      15.616 -34.308  20.412  1.00  0.00     0.136 C 
ATOM      2  O   UNL     1      14.782 -34.103  19.542  1.00  0.00    -0.299 OA
ENDROOT
BRANCH   1   3
ATOM      3  C   UNL     1      16.940 -34.956  20.049  1.00  0.00     0.053 C 
ATOM      4  C   UNL     1      16.719 -36.253  19.255  1.00  0.00     0.016 C 
BRANCH   3   5
ATOM      5  C   UNL     1      17.824 -33.963  19.253  1.00  0.00     0.015 C 
BRANCH   5   6
ATOM      6  C   UNL     1      18.897 -33.299  20.136  1.00  0.00     0.028 C 
BRANCH   6   7
ATOM      7  C   UNL     1      19.306 -34.203  21.271  1.00  0.00    -0.028 C 
ATOM      8  C   UNL     1      19.182 -33.896  22.584  1.00  0.00    -0.070 CG0
ATOM      9  C   UNL     1      19.689 -34.893  23.595  1.00  0.00     0.039 C 
ATOM     10  G   UNL     1      18.556 -32.602  23.078  1.00  0.00     0.000 G0
ENDBRANCH   6   7
ENDBRANCH   5   6
ENDBRANCH   3   5
ENDBRANCH   1   3
BRANCH   1  11
ATOM     11  C   UNL     1      15.315 -33.879  21.829  1.00  0.00     0.087 C 
BRANCH  11  12
ATOM     12  C   UNL     1      16.036 -32.558  22.200  1.00  0.00     0.066 C 
BRANCH  12  13
ATOM     13  C   UNL     1      17.072 -32.751  23.302  1.00  0.00     0.140 C 
ATOM     14  O   UNL     1      16.689 -33.123  24.402  1.00  0.00    -0.299 OA
BRANCH  13  15
ATOM     15  C   UNL     1      18.556 -32.603  23.063  1.00  0.00     0.106 CG0
ATOM     16  G   UNL     1      19.197 -33.897  22.589  1.00  0.00     0.000 G0
ENDBRANCH  13  15
ENDBRANCH  12  13
BRANCH  12  17
ATOM     17  C   UNL     1      15.075 -31.358  22.491  1.00  0.00    -0.006 C 
ATOM     18  C   UNL     1      14.592 -30.703  21.185  1.00  0.00     0.008 C 
ATOM     19  C   UNL     1      13.857 -31.705  23.367  1.00  0.00     0.008 C 
ENDBRANCH  12  17
ENDBRANCH  11  12
ENDBRANCH   1  11
TORSDOF 1
ENDMDL
MODEL 5
REMARK VINA RESULT:    -4.081      2.380      3.672
REMARK INTER + INTRA:          -6.455
REMARK INTER:                  -6.189
REMARK INTRA:                  -0.266
REMARK UNBOUND:                -0.227
REMARK SMILES CC1=CCC[C@H](C)C(=O)C[C@@H](C(C)C)C(=O)C1
REMARK SMILES IDX 8 1 9 2 6 3 7 4 5 5 4 6 3 7 2 8 1 9 10 11 11 12 15 13 16 14
REMARK SMILES IDX 17 15 12 17 13 18 14 19
REMARK H PARENT
REMARK Flexibility Score: 70.00
ROOT
ATOM      1  C   UNL     1      15.670 -33.116  23.428  1.00  0.00     0.136 C 
ATOM      2  O   UNL     1      14.573 -33.657  23.423  1.00  0.00    -0.299 OA
ENDROOT
BRANCH   1   3
ATOM      3  C   UNL     1      16.926 -33.961  23.546  1.00  0.00     0.053 C 
ATOM      4  C   UNL     1      16.891 -34.824  24.817  1.00  0.00     0.016 C 
BRANCH   3   5
ATOM      5  C   UNL     1      17.102 -34.841  22.283  1.00  0.00     0.015 C 
BRANCH   5   6
ATOM      6  C   UNL     1      17.813 -34.089  21.142  1.00  0.00     0.028 C 
BRANCH   6   7
ATOM      7  C   UNL     1      18.889 -33.176  21.676  1.00  0.00    -0.028 C 
ATOM      8  C   UNL     1      18.989 -31.856  21.393  1.00  0.00    -0.070 CG0
ATOM      9  C   UNL     1      20.157 -31.096  21.969  1.00  0.00     0.039 C 
ATOM     10  G   UNL     1      17.982 -31.113  20.531  1.00  0.00     0.000 G0
ENDBRANCH   6   7
ENDBRANCH   5   6
ENDBRANCH   3   5
ENDBRANCH   1   3
BRANCH   1  11
ATOM     11  C   UNL     1      15.745 -31.614  23.285  1.00  0.00     0.087 C 
BRANCH  11  12
ATOM     12  C   UNL     1      15.640 -31.168  21.803  1.00  0.00     0.066 C 
BRANCH  12  13
ATOM     13  C   UNL     1      16.891 -30.441  21.325  1.00  0.00     0.140 C 
ATOM     14  O   UNL     1      17.063 -29.283  21.680  1.00  0.00    -0.299 OA
BRANCH  13  15
ATOM     15  C   UNL     1      17.974 -31.121  20.521  1.00  0.00     0.106 CG0
ATOM     16  G   UNL     1      18.991 -31.828  21.403  1.00  0.00     0.000 G0
ENDBRANCH  13  15
ENDBRANCH  12  13
BRANCH  12  17
ATOM     17  C   UNL     1      14.329 -30.387  21.456  1.00  0.00    -0.006 C 
ATOM     18  C   UNL     1      13.277 -31.317  20.828  1.00  0.00     0.008 C 
ATOM     19  C   UNL     1      13.697 -29.630  22.639  1.00  0.00     0.008 C 
ENDBRANCH  12  17
ENDBRANCH  11  12
ENDBRANCH   1  11
TORSDOF 1
ENDMDL
MODEL 6
REMARK VINA RESULT:    -4.073      2.401      4.083
REMARK INTER + INTRA:          -6.443
REMARK INTER:                  -6.185
REMARK INTRA:                  -0.258
REMARK UNBOUND:                -0.227
REMARK SMILES CC1=CCC[C@H](C)C(=O)C[C@@H](C(C)C)C(=O)C1
REMARK SMILES IDX 8 1 9 2 6 3 7 4 5 5 4 6 3 7 2 8 1 9 10 11 11 12 15 13 16 14
REMARK SMILES IDX 17 15 12 17 13 18 14 19
REMARK H PARENT
REMARK Flexibility Score: 70.00
ROOT
ATOM      1  C   UNL     1      16.784 -30.334  21.754  1.00  0.00     0.136 C 
ATOM      2  O   UNL     1      16.730 -29.782  22.844  1.00  0.00    -0.299 OA
ENDROOT
BRANCH   1   3
ATOM      3  C   UNL     1      18.046 -30.225  20.916  1.00  0.00     0.053 C 
ATOM      4  C   UNL     1      18.584 -28.786  20.916  1.00  0.00     0.016 C 
BRANCH   3   5
ATOM      5  C   UNL     1      19.119 -31.218  21.430  1.00  0.00     0.015 C 
BRANCH   5   6
ATOM      6  C   UNL     1      19.500 -32.267  20.368  1.00  0.00     0.028 C 
BRANCH   6   7
ATOM      7  C   UNL     1      19.255 -33.668  20.871  1.00  0.00    -0.028 C 
ATOM      8  C   UNL     1      18.100 -34.354  20.706  1.00  0.00    -0.070 CG0
ATOM      9  C   UNL     1      18.000 -35.729  21.316  1.00  0.00     0.039 C 
ATOM     10  G   UNL     1      16.911 -33.805  19.935  1.00  0.00     0.000 G0
ENDBRANCH   6   7
ENDBRANCH   5   6
ENDBRANCH   3   5
ENDBRANCH   1   3
BRANCH   1  11
ATOM     11  C   UNL     1      15.596 -31.139  21.283  1.00  0.00     0.087 C 
BRANCH  11  12
ATOM     12  C   UNL     1      15.588 -32.567  21.887  1.00  0.00     0.066 C 
BRANCH  12  13
ATOM     13  C   UNL     1      15.681 -33.651  20.820  1.00  0.00     0.140 C 
ATOM     14  O   UNL     1      14.703 -34.360  20.623  1.00  0.00    -0.299 OA
BRANCH  13  15
ATOM     15  C   UNL     1      16.888 -33.817  19.927  1.00  0.00     0.106 CG0
ATOM     16  G   UNL     1      18.096 -34.347  20.683  1.00  0.00     0.000 G0
ENDBRANCH  13  15
ENDBRANCH  12  13
BRANCH  12  17
ATOM     17  C   UNL     1      14.427 -32.830  22.903  1.00  0.00    -0.006 C 
ATOM     18  C   UNL     1      14.955 -33.471  24.198  1.00  0.00     0.008 C 
ATOM     19  C   UNL     1      13.586 -31.589  23.256  1.00  0.00     0.008 C 
ENDBRANCH  12  17
ENDBRANCH  11  12
ENDBRANCH   1  11
TORSDOF 1
ENDMDL
MODEL 7
REMARK VINA RESULT:    -4.041      2.267      3.614
REMARK INTER + INTRA:          -6.394
REMARK INTER:                  -6.855
REMARK INTRA:                   0.461
REMARK UNBOUND:                -0.227
REMARK SMILES CC1=CCC[C@H](C)C(=O)C[C@@H](C(C)C)C(=O)C1
REMARK SMILES IDX 8 1 9 2 6 3 7 4 5 5 4 6 3 7 2 8 1 9 10 11 11 12 15 13 16 14
REMARK SMILES IDX 17 15 12 17 13 18 14 19
REMARK H PARENT
REMARK Flexibility Score: 70.00
ROOT
ATOM      1  C   UNL     1      16.695 -30.241  21.957  1.00  0.00     0.136 C 
ATOM      2  O   UNL     1      16.995 -30.273  23.143  1.00  0.00    -0.299 OA
ENDROOT
BRANCH   1   3
ATOM      3  C   UNL     1      17.786 -30.130  20.907  1.00  0.00     0.053 C 
ATOM      4  C   UNL     1      18.643 -28.875  21.135  1.00  0.00     0.016 C 
BRANCH   3   5
ATOM      5  C   UNL     1      18.662 -31.408  20.906  1.00  0.00     0.015 C 
BRANCH   5   6
ATOM      6  C   UNL     1      17.859 -32.666  20.526  1.00  0.00     0.028 C 
BRANCH   6   7
ATOM      7  C   UNL     1      17.752 -33.618  21.691  1.00  0.00    -0.028 C 
ATOM      8  C   UNL     1      16.606 -33.896  22.356  1.00  0.00    -0.070 CG0
ATOM      9  C   UNL     1      16.681 -34.834  23.534  1.00  0.00     0.039 C 
ATOM     10  G   UNL     1      15.259 -33.311  21.967  1.00  0.00     0.000 G0
ENDBRANCH   6   7
ENDBRANCH   5   6
ENDBRANCH   3   5
ENDBRANCH   1   3
BRANCH   1  11
ATOM     11  C   UNL     1      15.239 -30.345  21.569  1.00  0.00     0.087 C 
BRANCH  11  12
ATOM     12  C   UNL     1      14.371 -30.916  22.721  1.00  0.00     0.066 C 
BRANCH  12  13
ATOM     13  C   UNL     1      14.686 -32.377  23.017  1.00  0.00     0.140 C 
ATOM     14  O   UNL     1      14.407 -32.821  24.122  1.00  0.00    -0.299 OA
BRANCH  13  15
ATOM     15  C   UNL     1      15.232 -33.323  21.973  1.00  0.00     0.106 CG0
ATOM     16  G   UNL     1      16.589 -33.888  22.358  1.00  0.00     0.000 G0
ENDBRANCH  13  15
ENDBRANCH  12  13
BRANCH  12  17
ATOM     17  C   UNL     1      12.836 -30.658  22.560  1.00  0.00    -0.006 C 
ATOM     18  C   UNL     1      12.425 -29.324  23.205  1.00  0.00     0.008 C 
ATOM     19  C   UNL     1      12.324 -30.701  21.108  1.00  0.00     0.008 C 
ENDBRANCH  12  17
ENDBRANCH  11  12
ENDBRANCH   1  11
TORSDOF 1
ENDMDL
MODEL 8
REMARK VINA RESULT:    -3.971      2.648      5.110
REMARK INTER + INTRA:          -6.286
REMARK INTER:                  -6.338
REMARK INTRA:                   0.052
REMARK UNBOUND:                -0.227
REMARK SMILES CC1=CCC[C@H](C)C(=O)C[C@@H](C(C)C)C(=O)C1
REMARK SMILES IDX 8 1 9 2 6 3 7 4 5 5 4 6 3 7 2 8 1 9 10 11 11 12 15 13 16 14
REMARK SMILES IDX 17 15 12 17 13 18 14 19
REMARK H PARENT
REMARK Flexibility Score: 70.00
ROOT
ATOM      1  C   UNL     1      16.239 -31.028  22.664  1.00  0.00     0.136 C 
ATOM      2  O   UNL     1      16.563 -29.862  22.841  1.00  0.00    -0.299 OA
ENDROOT
BRANCH   1   3
ATOM      3  C   UNL     1      14.768 -31.395  22.579  1.00  0.00     0.053 C 
ATOM      4  C   UNL     1      14.023 -30.464  21.610  1.00  0.00     0.016 C 
BRANCH   3   5
ATOM      5  C   UNL     1      14.608 -32.878  22.157  1.00  0.00     0.015 C 
BRANCH   5   6
ATOM      6  C   UNL     1      14.634 -33.056  20.627  1.00  0.00     0.028 C 
BRANCH   6   7
ATOM      7  C   UNL     1      15.124 -34.430  20.245  1.00  0.00    -0.028 C 
ATOM      8  C   UNL     1      16.294 -34.682  19.612  1.00  0.00    -0.070 CG0
ATOM      9  C   UNL     1      16.612 -36.112  19.256  1.00  0.00     0.039 C 
ATOM     10  G   UNL     1      17.293 -33.595  19.252  1.00  0.00     0.000 G0
ENDBRANCH   6   7
ENDBRANCH   5   6
ENDBRANCH   3   5
ENDBRANCH   1   3
BRANCH   1  11
ATOM     11  C   UNL     1      17.319 -32.071  22.502  1.00  0.00     0.087 C 
BRANCH  11  12
ATOM     12  C   UNL     1      18.086 -31.908  21.164  1.00  0.00     0.066 C 
BRANCH  12  13
ATOM     13  C   UNL     1      18.210 -33.223  20.402  1.00  0.00     0.140 C 
ATOM     14  O   UNL     1      19.029 -34.045  20.789  1.00  0.00    -0.299 OA
BRANCH  13  15
ATOM     15  C   UNL     1      17.297 -33.593  19.257  1.00  0.00     0.106 CG0
ATOM     16  G   UNL     1      16.309 -34.684  19.636  1.00  0.00     0.000 G0
ENDBRANCH  13  15
ENDBRANCH  12  13
BRANCH  12  17
ATOM     17  C   UNL     1      19.455 -31.162  21.292  1.00  0.00    -0.006 C 
ATOM     18  C   UNL     1      19.305 -29.665  20.974  1.00  0.00     0.008 C 
ATOM     19  C   UNL     1      20.153 -31.326  22.655  1.00  0.00     0.008 C 
ENDBRANCH  12  17
ENDBRANCH  11  12
ENDBRANCH   1  11
TORSDOF 1
ENDMDL
MODEL 9
REMARK VINA RESULT:    -3.871      2.352      2.818
REMARK INTER + INTRA:          -6.134
REMARK INTER:                  -6.334
REMARK INTRA:                   0.200
REMARK UNBOUND:                -0.227
REMARK SMILES CC1=CCC[C@H](C)C(=O)C[C@@H](C(C)C)C(=O)C1
REMARK SMILES IDX 8 1 9 2 6 3 7 4 5 5 4 6 3 7 2 8 1 9 10 11 11 12 15 13 16 14
REMARK SMILES IDX 17 15 12 17 13 18 14 19
REMARK H PARENT
REMARK Flexibility Score: 70.00
ROOT
ATOM      1  C   UNL     1      15.642 -34.252  21.053  1.00  0.00     0.136 C 
ATOM      2  O   UNL     1      14.670 -34.284  20.310  1.00  0.00    -0.299 OA
ENDROOT
BRANCH   1   3
ATOM      3  C   UNL     1      16.783 -35.231  20.843  1.00  0.00     0.053 C 
ATOM      4  C   UNL     1      17.106 -35.389  19.350  1.00  0.00     0.016 C 
BRANCH   3   5
ATOM      5  C   UNL     1      18.034 -34.777  21.637  1.00  0.00     0.015 C 
BRANCH   5   6
ATOM      6  C   UNL     1      19.043 -34.020  20.752  1.00  0.00     0.028 C 
BRANCH   6   7
ATOM      7  C   UNL     1      19.495 -32.741  21.411  1.00  0.00    -0.028 C 
ATOM      8  C   UNL     1      18.876 -31.545  21.276  1.00  0.00    -0.070 CG0
ATOM      9  C   UNL     1      19.487 -30.349  21.962  1.00  0.00     0.039 C 
ATOM     10  G   UNL     1      17.599 -31.357  20.473  1.00  0.00     0.000 G0
ENDBRANCH   6   7
ENDBRANCH   5   6
ENDBRANCH   3   5
ENDBRANCH   1   3
BRANCH   1  11
ATOM     11  C   UNL     1      15.691 -33.210  22.145  1.00  0.00     0.087 C 
BRANCH  11  12
ATOM     12  C   UNL     1      15.244 -31.815  21.637  1.00  0.00     0.066 C 
BRANCH  12  13
ATOM     13  C   UNL     1      16.425 -30.909  21.311  1.00  0.00     0.140 C 
ATOM     14  O   UNL     1      16.464 -29.798  21.822  1.00  0.00    -0.299 OA
BRANCH  13  15
ATOM     15  C   UNL     1      17.595 -31.362  20.470  1.00  0.00     0.106 CG0
ATOM     16  G   UNL     1      18.859 -31.550  21.292  1.00  0.00     0.000 G0
ENDBRANCH  13  15
ENDBRANCH  12  13
BRANCH  12  17
ATOM     17  C   UNL     1      14.183 -31.108  22.545  1.00  0.00    -0.006 C 
ATOM     18  C   UNL     1      13.063 -30.474  21.702  1.00  0.00     0.008 C 
ATOM     19  C   UNL     1      13.558 -32.008  23.627  1.00  0.00     0.008 C 
ENDBRANCH  12  17
ENDBRANCH  11  12
ENDBRANCH   1  11
TORSDOF 1
ENDMDL
