MODEL 1
REMARK VINA RESULT:    -3.532      0.000      0.000
REMARK INTER + INTRA:          -8.366
REMARK INTER:                  -6.216
REMARK INTRA:                  -2.150
REMARK UNBOUND:                -2.150
REMARK SMILES CCCCCCC=CCCCCCCCC(=O)[O-]
REMARK SMILES IDX 10 1 11 2 12 3 13 4 14 5 15 6 16 7 17 8 18 9 9 10 8 11 7 12
REMARK SMILES IDX 6 13 5 14 4 15 3 16 2 17 1 18
REMARK H PARENT
REMARK Flexibility Score: inf
ROOT
ATOM      1  C   UNL     1      60.767  31.019  61.357  1.00  0.00     0.004 C 
ENDROOT
BRANCH   1   2
ATOM      2  C   UNL     1      61.929  30.219  61.975  1.00  0.00     0.000 C 
BRANCH   2   3
ATOM      3  C   UNL     1      61.997  28.770  61.460  1.00  0.00     0.000 C 
BRANCH   3   4
ATOM      4  C   UNL     1      63.373  28.415  60.874  1.00  0.00     0.000 C 
BRANCH   4   5
ATOM      5  C   UNL     1      64.414  29.525  61.098  1.00  0.00     0.006 C 
BRANCH   5   6
ATOM      6  C   UNL     1      65.436  29.600  59.955  1.00  0.00     0.053 C 
BRANCH   6   7
ATOM      7  C   UNL     1      66.821  29.272  60.422  1.00  0.00     0.041 C 
ATOM      8  O   UNL     1      67.820  29.608  59.730  1.00  0.00    -0.550 OA
ATOM      9  O   UNL     1      67.012  28.619  61.633  1.00  0.00    -0.550 OA
ENDBRANCH   6   7
ENDBRANCH   5   6
ENDBRANCH   4   5
ENDBRANCH   3   4
ENDBRANCH   2   3
ENDBRANCH   1   2
BRANCH   1  10
ATOM     10  C   UNL     1      61.159  32.402  60.808  1.00  0.00     0.027 C 
BRANCH  10  11
ATOM     11  C   UNL     1      61.968  32.299  59.535  1.00  0.00    -0.031 C 
ATOM     12  C   UNL     1      63.264  32.643  59.403  1.00  0.00    -0.031 C 
BRANCH  12  13
ATOM     13  C   UNL     1      64.145  33.162  60.511  1.00  0.00     0.027 C 
BRANCH  13  14
ATOM     14  C   UNL     1      64.374  34.676  60.385  1.00  0.00     0.004 C 
BRANCH  14  15
ATOM     15  C   UNL     1      63.638  35.480  61.468  1.00  0.00     0.000 C 
BRANCH  15  16
ATOM     16  C   UNL     1      62.711  36.555  60.873  1.00  0.00    -0.000 C 
BRANCH  16  17
ATOM     17  C   UNL     1      61.247  36.092  60.799  1.00  0.00    -0.003 C 
ATOM     18  C   UNL     1      60.780  35.835  59.366  1.00  0.00     0.004 C 
ENDBRANCH  16  17
ENDBRANCH  15  16
ENDBRANCH  14  15
ENDBRANCH  13  14
ENDBRANCH  12  13
ENDBRANCH  10  11
ENDBRANCH   1  10
TORSDOF 13
ENDMDL
MODEL 2
REMARK VINA RESULT:    -3.314      2.090      3.813
REMARK INTER + INTRA:          -7.982
REMARK INTER:                  -7.075
REMARK INTRA:                  -0.907
REMARK UNBOUND:                -2.150
REMARK SMILES CCCCCCC=CCCCCCCCC(=O)[O-]
REMARK SMILES IDX 10 1 11 2 12 3 13 4 14 5 15 6 16 7 17 8 18 9 9 10 8 11 7 12
REMARK SMILES IDX 6 13 5 14 4 15 3 16 2 17 1 18
REMARK H PARENT
REMARK Flexibility Score: inf
ROOT
ATOM      1  C   UNL     1      64.424  30.308  60.197  1.00  0.00     0.004 C 
ENDROOT
BRANCH   1   2
ATOM      2  C   UNL     1      65.897  29.880  60.339  1.00  0.00     0.000 C 
BRANCH   2   3
ATOM      3  C   UNL     1      66.061  28.529  61.056  1.00  0.00     0.000 C 
BRANCH   3   4
ATOM      4  C   UNL     1      67.498  27.988  60.978  1.00  0.00     0.000 C 
BRANCH   4   5
ATOM      5  C   UNL     1      68.541  29.015  61.449  1.00  0.00     0.006 C 
BRANCH   5   6
ATOM      6  C   UNL     1      69.651  29.230  60.412  1.00  0.00     0.053 C 
BRANCH   6   7
ATOM      7  C   UNL     1      70.942  29.642  61.052  1.00  0.00     0.041 C 
ATOM      8  O   UNL     1      70.966  30.596  61.874  1.00  0.00    -0.550 OA
ATOM      9  O   UNL     1      72.114  28.955  60.762  1.00  0.00    -0.550 OA
ENDBRANCH   6   7
ENDBRANCH   5   6
ENDBRANCH   4   5
ENDBRANCH   3   4
ENDBRANCH   2   3
ENDBRANCH   1   2
BRANCH   1  10
ATOM     10  C   UNL     1      63.575  30.117  61.465  1.00  0.00     0.027 C 
BRANCH  10  11
ATOM     11  C   UNL     1      62.253  29.444  61.167  1.00  0.00    -0.031 C 
ATOM     12  C   UNL     1      61.042  30.024  61.266  1.00  0.00    -0.031 C 
BRANCH  12  13
ATOM     13  C   UNL     1      60.791  31.457  61.662  1.00  0.00     0.027 C 
BRANCH  13  14
ATOM     14  C   UNL     1      60.981  32.411  60.471  1.00  0.00     0.004 C 
BRANCH  14  15
ATOM     15  C   UNL     1      62.133  33.405  60.684  1.00  0.00     0.000 C 
BRANCH  15  16
ATOM     16  C   UNL     1      61.674  34.869  60.566  1.00  0.00    -0.000 C 
BRANCH  16  17
ATOM     17  C   UNL     1      62.726  35.859  61.092  1.00  0.00    -0.003 C 
ATOM     18  C   UNL     1      64.081  35.200  61.349  1.00  0.00     0.004 C 
ENDBRANCH  16  17
ENDBRANCH  15  16
ENDBRANCH  14  15
ENDBRANCH  13  14
ENDBRANCH  12  13
ENDBRANCH  10  11
ENDBRANCH   1  10
TORSDOF 13
ENDMDL
MODEL 3
REMARK VINA RESULT:    -3.307      2.518      5.707
REMARK INTER + INTRA:          -7.970
REMARK INTER:                  -5.823
REMARK INTRA:                  -2.147
REMARK UNBOUND:                -2.150
REMARK SMILES CCCCCCC=CCCCCCCCC(=O)[O-]
REMARK SMILES IDX 10 1 11 2 12 3 13 4 14 5 15 6 16 7 17 8 18 9 9 10 8 11 7 12
REMARK SMILES IDX 6 13 5 14 4 15 3 16 2 17 1 18
REMARK H PARENT
REMARK Flexibility Score: inf
ROOT
ATOM      1  C   UNL     1      61.507  32.510  60.978  1.00  0.00     0.004 C 
ENDROOT
BRANCH   1   2
ATOM      2  C   UNL     1      61.186  33.006  59.555  1.00  0.00     0.000 C 
BRANCH   2   3
ATOM      3  C   UNL     1      61.373  34.525  59.396  1.00  0.00     0.000 C 
BRANCH   3   4
ATOM      4  C   UNL     1      61.065  35.298  60.688  1.00  0.00     0.000 C 
BRANCH   4   5
ATOM      5  C   UNL     1      62.053  36.451  60.935  1.00  0.00     0.006 C 
BRANCH   5   6
ATOM      6  C   UNL     1      63.455  36.137  60.396  1.00  0.00     0.053 C 
BRANCH   6   7
ATOM      7  C   UNL     1      64.329  35.515  61.442  1.00  0.00     0.041 C 
ATOM      8  O   UNL     1      64.964  36.241  62.252  1.00  0.00    -0.550 OA
ATOM      9  O   UNL     1      64.422  34.133  61.540  1.00  0.00    -0.550 OA
ENDBRANCH   6   7
ENDBRANCH   5   6
ENDBRANCH   4   5
ENDBRANCH   3   4
ENDBRANCH   2   3
ENDBRANCH   1   2
BRANCH   1  10
ATOM     10  C   UNL     1      60.559  31.419  61.507  1.00  0.00     0.027 C 
BRANCH  10  11
ATOM     11  C   UNL     1      60.329  30.324  60.490  1.00  0.00    -0.031 C 
ATOM     12  C   UNL     1      60.943  29.125  60.482  1.00  0.00    -0.031 C 
BRANCH  12  13
ATOM     13  C   UNL     1      61.946  28.652  61.504  1.00  0.00     0.027 C 
BRANCH  13  14
ATOM     14  C   UNL     1      63.382  28.740  60.965  1.00  0.00     0.004 C 
BRANCH  14  15
ATOM     15  C   UNL     1      64.083  30.051  61.353  1.00  0.00     0.000 C 
BRANCH  15  16
ATOM     16  C   UNL     1      64.704  30.767  60.141  1.00  0.00    -0.000 C 
BRANCH  16  17
ATOM     17  C   UNL     1      64.104  30.291  58.808  1.00  0.00    -0.003 C 
ATOM     18  C   UNL     1      63.936  31.425  57.797  1.00  0.00     0.004 C 
ENDBRANCH  16  17
ENDBRANCH  15  16
ENDBRANCH  14  15
ENDBRANCH  13  14
ENDBRANCH  12  13
ENDBRANCH  10  11
ENDBRANCH   1  10
TORSDOF 13
ENDMDL
MODEL 4
REMARK VINA RESULT:    -3.302      2.628      4.094
REMARK INTER + INTRA:          -7.961
REMARK INTER:                  -5.572
REMARK INTRA:                  -2.389
REMARK UNBOUND:                -2.150
REMARK SMILES CCCCCCC=CCCCCCCCC(=O)[O-]
REMARK SMILES IDX 10 1 11 2 12 3 13 4 14 5 15 6 16 7 17 8 18 9 9 10 8 11 7 12
REMARK SMILES IDX 6 13 5 14 4 15 3 16 2 17 1 18
REMARK H PARENT
REMARK Flexibility Score: inf
ROOT
ATOM      1  C   UNL     1      60.714  33.298  59.299  1.00  0.00     0.004 C 
ENDROOT
BRANCH   1   2
ATOM      2  C   UNL     1      60.922  32.724  60.713  1.00  0.00     0.000 C 
BRANCH   2   3
ATOM      3  C   UNL     1      60.817  31.190  60.757  1.00  0.00     0.000 C 
BRANCH   3   4
ATOM      4  C   UNL     1      61.624  30.574  61.912  1.00  0.00     0.000 C 
BRANCH   4   5
ATOM      5  C   UNL     1      62.457  29.359  61.468  1.00  0.00     0.006 C 
BRANCH   5   6
ATOM      6  C   UNL     1      62.010  28.819  60.102  1.00  0.00     0.053 C 
BRANCH   6   7
ATOM      7  C   UNL     1      61.300  27.506  60.227  1.00  0.00     0.041 C 
ATOM      8  O   UNL     1      61.579  26.557  59.446  1.00  0.00    -0.550 OA
ATOM      9  O   UNL     1      60.348  27.320  61.221  1.00  0.00    -0.550 OA
ENDBRANCH   6   7
ENDBRANCH   5   6
ENDBRANCH   4   5
ENDBRANCH   3   4
ENDBRANCH   2   3
ENDBRANCH   1   2
BRANCH   1  10
ATOM     10  C   UNL     1      61.119  34.773  59.137  1.00  0.00     0.027 C 
BRANCH  10  11
ATOM     11  C   UNL     1      60.975  35.546  60.429  1.00  0.00    -0.031 C 
ATOM     12  C   UNL     1      61.970  36.193  61.066  1.00  0.00    -0.031 C 
BRANCH  12  13
ATOM     13  C   UNL     1      63.397  36.286  60.588  1.00  0.00     0.027 C 
BRANCH  13  14
ATOM     14  C   UNL     1      64.356  35.546  61.534  1.00  0.00     0.004 C 
BRANCH  14  15
ATOM     15  C   UNL     1      64.285  34.019  61.376  1.00  0.00     0.000 C 
BRANCH  15  16
ATOM     16  C   UNL     1      64.454  33.571  59.914  1.00  0.00    -0.000 C 
BRANCH  16  17
ATOM     17  C   UNL     1      64.475  32.041  59.767  1.00  0.00    -0.003 C 
ATOM     18  C   UNL     1      63.879  31.565  58.442  1.00  0.00     0.004 C 
ENDBRANCH  16  17
ENDBRANCH  15  16
ENDBRANCH  14  15
ENDBRANCH  13  14
ENDBRANCH  12  13
ENDBRANCH  10  11
ENDBRANCH   1  10
TORSDOF 13
ENDMDL
MODEL 5
REMARK VINA RESULT:    -3.273      3.962      5.441
REMARK INTER + INTRA:          -7.911
REMARK INTER:                  -6.220
REMARK INTRA:                  -1.690
REMARK UNBOUND:                -2.150
REMARK SMILES CCCCCCC=CCCCCCCCC(=O)[O-]
REMARK SMILES IDX 10 1 11 2 12 3 13 4 14 5 15 6 16 7 17 8 18 9 9 10 8 11 7 12
REMARK SMILES IDX 6 13 5 14 4 15 3 16 2 17 1 18
REMARK H PARENT
REMARK Flexibility Score: inf
ROOT
ATOM      1  C   UNL     1      62.929  28.720  60.977  1.00  0.00     0.004 C 
ENDROOT
BRANCH   1   2
ATOM      2  C   UNL     1      62.004  27.779  61.771  1.00  0.00     0.000 C 
BRANCH   2   3
ATOM      3  C   UNL     1      60.942  27.100  60.889  1.00  0.00     0.000 C 
BRANCH   3   4
ATOM      4  C   UNL     1      60.614  27.912  59.626  1.00  0.00     0.000 C 
BRANCH   4   5
ATOM      5  C   UNL     1      59.171  28.445  59.626  1.00  0.00     0.006 C 
BRANCH   5   6
ATOM      6  C   UNL     1      58.560  28.462  61.033  1.00  0.00     0.053 C 
BRANCH   6   7
ATOM      7  C   UNL     1      57.346  27.588  61.126  1.00  0.00     0.041 C 
ATOM      8  O   UNL     1      56.678  27.541  62.193  1.00  0.00    -0.550 OA
ATOM      9  O   UNL     1      56.936  26.846  60.026  1.00  0.00    -0.550 OA
ENDBRANCH   6   7
ENDBRANCH   5   6
ENDBRANCH   4   5
ENDBRANCH   3   4
ENDBRANCH   2   3
ENDBRANCH   1   2
BRANCH   1  10
ATOM     10  C   UNL     1      62.890  30.191  61.427  1.00  0.00     0.027 C 
BRANCH  10  11
ATOM     11  C   UNL     1      61.539  30.578  61.987  1.00  0.00    -0.031 C 
ATOM     12  C   UNL     1      60.714  31.505  61.466  1.00  0.00    -0.031 C 
BRANCH  12  13
ATOM     13  C   UNL     1      60.978  32.301  60.212  1.00  0.00     0.027 C 
BRANCH  13  14
ATOM     14  C   UNL     1      61.408  33.739  60.539  1.00  0.00     0.004 C 
BRANCH  14  15
ATOM     15  C   UNL     1      62.817  34.070  60.021  1.00  0.00     0.000 C 
BRANCH  15  16
ATOM     16  C   UNL     1      63.900  33.870  61.095  1.00  0.00    -0.000 C 
BRANCH  16  17
ATOM     17  C   UNL     1      64.520  35.198  61.557  1.00  0.00    -0.003 C 
ATOM     18  C   UNL     1      63.581  36.389  61.364  1.00  0.00     0.004 C 
ENDBRANCH  16  17
ENDBRANCH  15  16
ENDBRANCH  14  15
ENDBRANCH  13  14
ENDBRANCH  12  13
ENDBRANCH  10  11
ENDBRANCH   1  10
TORSDOF 13
ENDMDL
MODEL 6
REMARK VINA RESULT:    -3.241      1.281      3.191
REMARK INTER + INTRA:          -7.854
REMARK INTER:                  -5.677
REMARK INTRA:                  -2.177
REMARK UNBOUND:                -2.150
REMARK SMILES CCCCCCC=CCCCCCCCC(=O)[O-]
REMARK SMILES IDX 10 1 11 2 12 3 13 4 14 5 15 6 16 7 17 8 18 9 9 10 8 11 7 12
REMARK SMILES IDX 6 13 5 14 4 15 3 16 2 17 1 18
REMARK H PARENT
REMARK Flexibility Score: inf
ROOT
ATOM      1  C   UNL     1      64.381  32.059  59.712  1.00  0.00     0.004 C 
ENDROOT
BRANCH   1   2
ATOM      2  C   UNL     1      64.286  31.511  61.148  1.00  0.00     0.000 C 
BRANCH   2   3
ATOM      3  C   UNL     1      63.898  30.023  61.196  1.00  0.00     0.000 C 
BRANCH   3   4
ATOM      4  C   UNL     1      63.695  29.419  59.798  1.00  0.00     0.000 C 
BRANCH   4   5
ATOM      5  C   UNL     1      64.807  28.426  59.417  1.00  0.00     0.006 C 
BRANCH   5   6
ATOM      6  C   UNL     1      65.455  27.782  60.650  1.00  0.00     0.053 C 
BRANCH   6   7
ATOM      7  C   UNL     1      66.923  28.074  60.726  1.00  0.00     0.041 C 
ATOM      8  O   UNL     1      67.324  29.228  61.033  1.00  0.00    -0.550 OA
ATOM      9  O   UNL     1      67.848  27.066  60.486  1.00  0.00    -0.550 OA
ENDBRANCH   6   7
ENDBRANCH   5   6
ENDBRANCH   4   5
ENDBRANCH   3   4
ENDBRANCH   2   3
ENDBRANCH   1   2
BRANCH   1  10
ATOM     10  C   UNL     1      64.508  33.589  59.614  1.00  0.00     0.027 C 
BRANCH  10  11
ATOM     11  C   UNL     1      64.311  34.262  60.954  1.00  0.00    -0.031 C 
ATOM     12  C   UNL     1      63.396  35.212  61.223  1.00  0.00    -0.031 C 
BRANCH  12  13
ATOM     13  C   UNL     1      62.384  35.751  60.244  1.00  0.00     0.027 C 
BRANCH  13  14
ATOM     14  C   UNL     1      61.045  35.003  60.350  1.00  0.00     0.004 C 
BRANCH  14  15
ATOM     15  C   UNL     1      60.802  34.051  59.169  1.00  0.00     0.000 C 
BRANCH  15  16
ATOM     16  C   UNL     1      60.803  32.573  59.596  1.00  0.00    -0.000 C 
BRANCH  16  17
ATOM     17  C   UNL     1      60.925  32.402  61.119  1.00  0.00    -0.003 C 
ATOM     18  C   UNL     1      60.482  31.019  61.596  1.00  0.00     0.004 C 
ENDBRANCH  16  17
ENDBRANCH  15  16
ENDBRANCH  14  15
ENDBRANCH  13  14
ENDBRANCH  12  13
ENDBRANCH  10  11
ENDBRANCH   1  10
TORSDOF 13
ENDMDL
MODEL 7
REMARK VINA RESULT:    -3.206      1.478      2.720
REMARK INTER + INTRA:          -7.793
REMARK INTER:                  -5.519
REMARK INTRA:                  -2.274
REMARK UNBOUND:                -2.150
REMARK SMILES CCCCCCC=CCCCCCCCC(=O)[O-]
REMARK SMILES IDX 10 1 11 2 12 3 13 4 14 5 15 6 16 7 17 8 18 9 9 10 8 11 7 12
REMARK SMILES IDX 6 13 5 14 4 15 3 16 2 17 1 18
REMARK H PARENT
REMARK Flexibility Score: inf
ROOT
ATOM      1  C   UNL     1      61.600  32.518  59.531  1.00  0.00     0.004 C 
ENDROOT
BRANCH   1   2
ATOM      2  C   UNL     1      61.153  32.449  61.004  1.00  0.00     0.000 C 
BRANCH   2   3
ATOM      3  C   UNL     1      60.764  31.027  61.444  1.00  0.00     0.000 C 
BRANCH   3   4
ATOM      4  C   UNL     1      61.976  30.193  61.889  1.00  0.00     0.000 C 
BRANCH   4   5
ATOM      5  C   UNL     1      62.095  28.866  61.119  1.00  0.00     0.006 C 
BRANCH   5   6
ATOM      6  C   UNL     1      63.556  28.442  60.917  1.00  0.00     0.053 C 
BRANCH   6   7
ATOM      7  C   UNL     1      64.306  29.414  60.058  1.00  0.00     0.041 C 
ATOM      8  O   UNL     1      63.930  29.636  58.876  1.00  0.00    -0.550 OA
ATOM      9  O   UNL     1      65.403  30.095  60.569  1.00  0.00    -0.550 OA
ENDBRANCH   6   7
ENDBRANCH   5   6
ENDBRANCH   4   5
ENDBRANCH   3   4
ENDBRANCH   2   3
ENDBRANCH   1   2
BRANCH   1  10
ATOM     10  C   UNL     1      63.058  32.963  59.321  1.00  0.00     0.027 C 
BRANCH  10  11
ATOM     11  C   UNL     1      63.758  33.248  60.631  1.00  0.00    -0.031 C 
ATOM     12  C   UNL     1      63.947  34.469  61.165  1.00  0.00    -0.031 C 
BRANCH  12  13
ATOM     13  C   UNL     1      63.466  35.767  60.567  1.00  0.00     0.027 C 
BRANCH  13  14
ATOM     14  C   UNL     1      62.127  36.206  61.180  1.00  0.00     0.004 C 
BRANCH  14  15
ATOM     15  C   UNL     1      61.063  36.522  60.118  1.00  0.00     0.000 C 
BRANCH  15  16
ATOM     16  C   UNL     1      61.595  36.347  58.684  1.00  0.00    -0.000 C 
BRANCH  16  17
ATOM     17  C   UNL     1      60.595  35.618  57.772  1.00  0.00    -0.003 C 
ATOM     18  C   UNL     1      61.275  34.894  56.609  1.00  0.00     0.004 C 
ENDBRANCH  16  17
ENDBRANCH  15  16
ENDBRANCH  14  15
ENDBRANCH  13  14
ENDBRANCH  12  13
ENDBRANCH  10  11
ENDBRANCH   1  10
TORSDOF 13
ENDMDL
MODEL 8
REMARK VINA RESULT:    -3.187     11.859     13.343
REMARK INTER + INTRA:          -7.759
REMARK INTER:                  -5.371
REMARK INTRA:                  -2.388
REMARK UNBOUND:                -2.150
REMARK SMILES CCCCCCC=CCCCCCCCC(=O)[O-]
REMARK SMILES IDX 10 1 11 2 12 3 13 4 14 5 15 6 16 7 17 8 18 9 9 10 8 11 7 12
REMARK SMILES IDX 6 13 5 14 4 15 3 16 2 17 1 18
REMARK H PARENT
REMARK Flexibility Score: inf
ROOT
ATOM      1  C   UNL     1      57.039  26.919  53.015  1.00  0.00     0.004 C 
ENDROOT
BRANCH   1   2
ATOM      2  C   UNL     1      55.846  26.427  52.175  1.00  0.00     0.000 C 
BRANCH   2   3
ATOM      3  C   UNL     1      56.195  26.251  50.687  1.00  0.00     0.000 C 
BRANCH   3   4
ATOM      4  C   UNL     1      55.020  26.599  49.759  1.00  0.00     0.000 C 
BRANCH   4   5
ATOM      5  C   UNL     1      53.909  27.381  50.480  1.00  0.00     0.006 C 
BRANCH   5   6
ATOM      6  C   UNL     1      53.932  28.875  50.128  1.00  0.00     0.053 C 
BRANCH   6   7
ATOM      7  C   UNL     1      53.770  29.737  51.343  1.00  0.00     0.041 C 
ATOM      8  O   UNL     1      53.661  30.987  51.224  1.00  0.00    -0.550 OA
ATOM      9  O   UNL     1      53.711  29.160  52.604  1.00  0.00    -0.550 OA
ENDBRANCH   6   7
ENDBRANCH   5   6
ENDBRANCH   4   5
ENDBRANCH   3   4
ENDBRANCH   2   3
ENDBRANCH   1   2
BRANCH   1  10
ATOM     10  C   UNL     1      58.268  25.994  52.990  1.00  0.00     0.027 C 
BRANCH  10  11
ATOM     11  C   UNL     1      59.556  26.765  52.809  1.00  0.00    -0.031 C 
ATOM     12  C   UNL     1      60.327  26.750  51.705  1.00  0.00    -0.031 C 
BRANCH  12  13
ATOM     13  C   UNL     1      60.026  25.984  50.442  1.00  0.00     0.027 C 
BRANCH  13  14
ATOM     14  C   UNL     1      59.388  26.888  49.375  1.00  0.00     0.004 C 
BRANCH  14  15
ATOM     15  C   UNL     1      59.966  28.311  49.380  1.00  0.00     0.000 C 
BRANCH  15  16
ATOM     16  C   UNL     1      58.888  29.384  49.151  1.00  0.00    -0.000 C 
BRANCH  16  17
ATOM     17  C   UNL     1      57.746  29.297  50.177  1.00  0.00    -0.003 C 
ATOM     18  C   UNL     1      58.074  30.008  51.490  1.00  0.00     0.004 C 
ENDBRANCH  16  17
ENDBRANCH  15  16
ENDBRANCH  14  15
ENDBRANCH  13  14
ENDBRANCH  12  13
ENDBRANCH  10  11
ENDBRANCH   1  10
TORSDOF 13
ENDMDL
MODEL 9
REMARK VINA RESULT:    -3.108      3.663      5.829
REMARK INTER + INTRA:          -7.620
REMARK INTER:                  -5.001
REMARK INTRA:                  -2.619
REMARK UNBOUND:                -2.150
REMARK SMILES CCCCCCC=CCCCCCCCC(=O)[O-]
REMARK SMILES IDX 10 1 11 2 12 3 13 4 14 5 15 6 16 7 17 8 18 9 9 10 8 11 7 12
REMARK SMILES IDX 6 13 5 14 4 15 3 16 2 17 1 18
REMARK H PARENT
REMARK Flexibility Score: inf
ROOT
ATOM      1  C   UNL     1      63.585  29.997  61.060  1.00  0.00     0.004 C 
ENDROOT
BRANCH   1   2
ATOM      2  C   UNL     1      63.975  31.466  61.309  1.00  0.00     0.000 C 
BRANCH   2   3
ATOM      3  C   UNL     1      64.468  32.177  60.036  1.00  0.00     0.000 C 
BRANCH   3   4
ATOM      4  C   UNL     1      64.142  33.679  60.034  1.00  0.00     0.000 C 
BRANCH   4   5
ATOM      5  C   UNL     1      62.981  34.033  60.980  1.00  0.00     0.006 C 
BRANCH   5   6
ATOM      6  C   UNL     1      61.767  34.587  60.223  1.00  0.00     0.053 C 
BRANCH   6   7
ATOM      7  C   UNL     1      61.439  35.987  60.643  1.00  0.00     0.041 C 
ATOM      8  O   UNL     1      62.248  36.643  61.352  1.00  0.00    -0.550 OA
ATOM      9  O   UNL     1      60.252  36.579  60.230  1.00  0.00    -0.550 OA
ENDBRANCH   6   7
ENDBRANCH   5   6
ENDBRANCH   4   5
ENDBRANCH   3   4
ENDBRANCH   2   3
ENDBRANCH   1   2
BRANCH   1  10
ATOM     10  C   UNL     1      62.252  29.569  61.696  1.00  0.00     0.027 C 
BRANCH  10  11
ATOM     11  C   UNL     1      61.372  30.755  62.023  1.00  0.00    -0.031 C 
ATOM     12  C   UNL     1      60.419  31.265  61.220  1.00  0.00    -0.031 C 
BRANCH  12  13
ATOM     13  C   UNL     1      60.039  30.723  59.865  1.00  0.00     0.027 C 
BRANCH  13  14
ATOM     14  C   UNL     1      60.803  31.438  58.739  1.00  0.00     0.004 C 
BRANCH  14  15
ATOM     15  C   UNL     1      61.649  30.475  57.891  1.00  0.00     0.000 C 
BRANCH  15  16
ATOM     16  C   UNL     1      62.774  31.197  57.129  1.00  0.00    -0.000 C 
BRANCH  16  17
ATOM     17  C   UNL     1      62.246  32.333  56.239  1.00  0.00    -0.003 C 
ATOM     18  C   UNL     1      62.859  33.690  56.584  1.00  0.00     0.004 C 
ENDBRANCH  16  17
ENDBRANCH  15  16
ENDBRANCH  14  15
ENDBRANCH  13  14
ENDBRANCH  12  13
ENDBRANCH  10  11
ENDBRANCH   1  10
TORSDOF 13
ENDMDL
