MODEL 1
REMARK VINA RESULT:    -3.247      0.000      0.000
REMARK INTER + INTRA:          -3.247
REMARK INTER:                  -3.247
REMARK INTRA:                   0.000
REMARK UNBOUND:                 0.000
REMARK SMILES CC1(C)C(=O)[C@@]2(C)CC[C@@H]1C2
REMARK SMILES IDX 1 1 2 2 10 3 9 4 8 5 6 6 11 7 4 8 5 9 7 10 3 11
REMARK H PARENT
REMARK Flexibility Score: inf
ROOT
ATOM      1  C   UNL     1     119.622 119.737 114.945  1.00  0.00     0.020 C 
ATOM      2  C   UNL     1     118.419 119.101 114.218  1.00  0.00     0.027 C 
ATOM      3  C   UNL     1     118.266 119.656 112.756  1.00  0.00     0.003 C 
ATOM      4  C   UNL     1     116.956 119.152 112.100  1.00  0.00     0.005 C 
ATOM      5  C   UNL     1     117.216 117.639 111.918  1.00  0.00     0.015 C 
ATOM      6  C   UNL     1     118.672 117.488 112.397  1.00  0.00     0.027 C 
ATOM      7  C   UNL     1     119.272 118.813 111.972  1.00  0.00     0.019 C 
ATOM      8  C   UNL     1     118.680 117.659 113.892  1.00  0.00     0.144 C 
ATOM      9  O   UNL     1     118.803 116.759 114.709  1.00  0.00    -0.298 OA
ATOM     10  C   UNL     1     119.410 116.254 111.875  1.00  0.00     0.020 C 
ATOM     11  C   UNL     1     117.156 119.263 115.092  1.00  0.00     0.020 C 
ENDROOT
TORSDOF 0
ENDMDL
MODEL 2
REMARK VINA RESULT:    -3.247      1.422      2.352
REMARK INTER + INTRA:          -3.247
REMARK INTER:                  -3.247
REMARK INTRA:                   0.000
REMARK UNBOUND:                 0.000
REMARK SMILES CC1(C)C(=O)[C@@]2(C)CC[C@@H]1C2
REMARK SMILES IDX 1 1 2 2 10 3 9 4 8 5 6 6 11 7 4 8 5 9 7 10 3 11
REMARK H PARENT
REMARK Flexibility Score: inf
ROOT
ATOM      1  C   UNL     1     115.832 119.214 114.386  1.00  0.00     0.020 C 
ATOM      2  C   UNL     1     116.701 118.910 113.148  1.00  0.00     0.027 C 
ATOM      3  C   UNL     1     118.138 119.532 113.282  1.00  0.00     0.003 C 
ATOM      4  C   UNL     1     118.938 119.379 111.963  1.00  0.00     0.005 C 
ATOM      5  C   UNL     1     119.180 117.855 111.875  1.00  0.00     0.015 C 
ATOM      6  C   UNL     1     118.578 117.343 113.198  1.00  0.00     0.027 C 
ATOM      7  C   UNL     1     118.872 118.497 114.134  1.00  0.00     0.019 C 
ATOM      8  C   UNL     1     117.082 117.459 113.092  1.00  0.00     0.144 C 
ATOM      9  O   UNL     1     116.308 116.530 112.915  1.00  0.00    -0.298 OA
ATOM     10  C   UNL     1     119.098 115.985 113.673  1.00  0.00     0.020 C 
ATOM     11  C   UNL     1     115.939 119.343 111.876  1.00  0.00     0.020 C 
ENDROOT
TORSDOF 0
ENDMDL
MODEL 3
REMARK VINA RESULT:    -3.210      2.499      3.927
REMARK INTER + INTRA:          -3.210
REMARK INTER:                  -3.210
REMARK INTRA:                   0.000
REMARK UNBOUND:                 0.000
REMARK SMILES CC1(C)C(=O)[C@@]2(C)CC[C@@H]1C2
REMARK SMILES IDX 1 1 2 2 10 3 9 4 8 5 6 6 11 7 4 8 5 9 7 10 3 11
REMARK H PARENT
REMARK Flexibility Score: inf
ROOT
ATOM      1  C   UNL     1     118.861 117.407 114.443  1.00  0.00     0.020 C 
ATOM      2  C   UNL     1     118.658 116.523 113.195  1.00  0.00     0.027 C 
ATOM      3  C   UNL     1     119.275 115.091 113.392  1.00  0.00     0.003 C 
ATOM      4  C   UNL     1     119.228 114.275 112.075  1.00  0.00     0.005 C 
ATOM      5  C   UNL     1     117.716 114.023 111.875  1.00  0.00     0.015 C 
ATOM      6  C   UNL     1     117.101 114.636 113.148  1.00  0.00     0.027 C 
ATOM      7  C   UNL     1     118.182 114.360 114.172  1.00  0.00     0.019 C 
ATOM      8  C   UNL     1     117.217 116.132 113.034  1.00  0.00     0.144 C 
ATOM      9  O   UNL     1     116.300 116.898 112.778  1.00  0.00    -0.298 OA
ATOM     10  C   UNL     1     115.714 114.113 113.524  1.00  0.00     0.020 C 
ATOM     11  C   UNL     1     119.182 117.273 111.951  1.00  0.00     0.020 C 
ENDROOT
TORSDOF 0
ENDMDL
MODEL 4
REMARK VINA RESULT:    -3.205      4.322      5.750
REMARK INTER + INTRA:          -3.205
REMARK INTER:                  -3.205
REMARK INTRA:                   0.000
REMARK UNBOUND:                 0.000
REMARK SMILES CC1(C)C(=O)[C@@]2(C)CC[C@@H]1C2
REMARK SMILES IDX 1 1 2 2 10 3 9 4 8 5 6 6 11 7 4 8 5 9 7 10 3 11
REMARK H PARENT
REMARK Flexibility Score: inf
ROOT
ATOM      1  C   UNL     1     113.543 113.443 114.847  1.00  0.00     0.020 C 
ATOM      2  C   UNL     1     114.743 114.157 114.190  1.00  0.00     0.027 C 
ATOM      3  C   UNL     1     114.987 113.650 112.723  1.00  0.00     0.003 C 
ATOM      4  C   UNL     1     116.298 114.236 112.140  1.00  0.00     0.005 C 
ATOM      5  C   UNL     1     115.970 115.738 111.983  1.00  0.00     0.015 C 
ATOM      6  C   UNL     1     114.488 115.804 112.400  1.00  0.00     0.027 C 
ATOM      7  C   UNL     1     113.976 114.463 111.916  1.00  0.00     0.019 C 
ATOM      8  C   UNL     1     114.424 115.592 113.888  1.00  0.00     0.144 C 
ATOM      9  O   UNL     1     114.219 116.463 114.721  1.00  0.00    -0.298 OA
ATOM     10  C   UNL     1     113.712 117.013 111.876  1.00  0.00     0.020 C 
ATOM     11  C   UNL     1     115.973 114.035 115.116  1.00  0.00     0.020 C 
ENDROOT
TORSDOF 0
ENDMDL
MODEL 5
REMARK VINA RESULT:    -3.166      1.431      2.595
REMARK INTER + INTRA:          -3.166
REMARK INTER:                  -3.166
REMARK INTRA:                   0.000
REMARK UNBOUND:                 0.000
REMARK SMILES CC1(C)C(=O)[C@@]2(C)CC[C@@H]1C2
REMARK SMILES IDX 1 1 2 2 10 3 9 4 8 5 6 6 11 7 4 8 5 9 7 10 3 11
REMARK H PARENT
REMARK Flexibility Score: inf
ROOT
ATOM      1  C   UNL     1     118.843 117.335 115.215  1.00  0.00     0.020 C 
ATOM      2  C   UNL     1     118.735 118.555 114.278  1.00  0.00     0.027 C 
ATOM      3  C   UNL     1     119.023 118.166 112.783  1.00  0.00     0.003 C 
ATOM      4  C   UNL     1     119.092 119.424 111.880  1.00  0.00     0.005 C 
ATOM      5  C   UNL     1     117.632 119.930 111.875  1.00  0.00     0.015 C 
ATOM      6  C   UNL     1     116.897 118.848 112.689  1.00  0.00     0.027 C 
ATOM      7  C   UNL     1     117.680 117.605 112.318  1.00  0.00     0.019 C 
ATOM      8  C   UNL     1     117.309 119.002 114.128  1.00  0.00     0.144 C 
ATOM      9  O   UNL     1     116.621 119.483 115.016  1.00  0.00    -0.298 OA
ATOM     10  C   UNL     1     115.390 118.753 112.445  1.00  0.00     0.020 C 
ATOM     11  C   UNL     1     119.629 119.692 114.820  1.00  0.00     0.020 C 
ENDROOT
TORSDOF 0
ENDMDL
MODEL 6
REMARK VINA RESULT:    -3.109      2.863      4.343
REMARK INTER + INTRA:          -3.109
REMARK INTER:                  -3.109
REMARK INTRA:                   0.000
REMARK UNBOUND:                 0.000
REMARK SMILES CC1(C)C(=O)[C@@]2(C)CC[C@@H]1C2
REMARK SMILES IDX 1 1 2 2 10 3 9 4 8 5 6 6 11 7 4 8 5 9 7 10 3 11
REMARK H PARENT
REMARK Flexibility Score: inf
ROOT
ATOM      1  C   UNL     1     114.506 115.695 114.367  1.00  0.00     0.020 C 
ATOM      2  C   UNL     1     114.526 116.639 113.146  1.00  0.00     0.027 C 
ATOM      3  C   UNL     1     113.761 117.980 113.438  1.00  0.00     0.003 C 
ATOM      4  C   UNL     1     113.630 118.839 112.155  1.00  0.00     0.005 C 
ATOM      5  C   UNL     1     115.087 119.275 111.875  1.00  0.00     0.015 C 
ATOM      6  C   UNL     1     115.848 118.696 113.083  1.00  0.00     0.027 C 
ATOM      7  C   UNL     1     114.810 118.808 114.181  1.00  0.00     0.019 C 
ATOM      8  C   UNL     1     115.899 117.201 112.916  1.00  0.00     0.144 C 
ATOM      9  O   UNL     1     116.880 116.558 112.574  1.00  0.00    -0.298 OA
ATOM     10  C   UNL     1     117.187 119.366 113.398  1.00  0.00     0.020 C 
ATOM     11  C   UNL     1     114.013 115.874 111.906  1.00  0.00     0.020 C 
ENDROOT
TORSDOF 0
ENDMDL
MODEL 7
REMARK VINA RESULT:    -3.014      3.696      5.180
REMARK INTER + INTRA:          -3.014
REMARK INTER:                  -3.014
REMARK INTRA:                   0.000
REMARK UNBOUND:                 0.000
REMARK SMILES CC1(C)C(=O)[C@@]2(C)CC[C@@H]1C2
REMARK SMILES IDX 1 1 2 2 10 3 9 4 8 5 6 6 11 7 4 8 5 9 7 10 3 11
REMARK H PARENT
REMARK Flexibility Score: inf
ROOT
ATOM      1  C   UNL     1     117.702 114.884 114.288  1.00  0.00     0.020 C 
ATOM      2  C   UNL     1     116.713 114.706 113.117  1.00  0.00     0.027 C 
ATOM      3  C   UNL     1     115.388 113.999 113.581  1.00  0.00     0.003 C 
ATOM      4  C   UNL     1     114.481 113.662 112.370  1.00  0.00     0.005 C 
ATOM      5  C   UNL     1     114.027 115.054 111.875  1.00  0.00     0.015 C 
ATOM      6  C   UNL     1     114.647 116.001 112.921  1.00  0.00     0.027 C 
ATOM      7  C   UNL     1     114.583 115.154 114.175  1.00  0.00     0.019 C 
ATOM      8  C   UNL     1     116.133 116.024 112.690  1.00  0.00     0.144 C 
ATOM      9  O   UNL     1     116.757 116.936 112.169  1.00  0.00    -0.298 OA
ATOM     10  C   UNL     1     113.982 117.373 113.040  1.00  0.00     0.020 C 
ATOM     11  C   UNL     1     117.433 113.999 111.948  1.00  0.00     0.020 C 
ENDROOT
TORSDOF 0
ENDMDL
