MODEL 1
REMARK VINA RESULT:    -4.342      0.000      0.000
REMARK INTER + INTRA:          -6.751
REMARK INTER:                  -6.119
REMARK INTRA:                  -0.631
REMARK UNBOUND:                -0.631
REMARK SMILES CCCCCCCCC(=O)[O-]
REMARK SMILES IDX 6 1 7 2 8 3 9 4 10 5 11 6 5 7 4 8 3 9 2 10 1 11
REMARK H PARENT
REMARK Flexibility Score: inf
ROOT
ATOM      1  C   UNL     1      18.936  54.262  13.624  1.00  0.00     0.000 C 
ENDROOT
BRANCH   1   2
ATOM      2  C   UNL     1      20.235  54.133  14.439  1.00  0.00     0.006 C 
BRANCH   2   3
ATOM      3  C   UNL     1      20.121  53.074  15.543  1.00  0.00     0.053 C 
BRANCH   3   4
ATOM      4  C   UNL     1      21.050  53.356  16.685  1.00  0.00     0.041 C 
ATOM      5  O   UNL     1      22.230  53.735  16.463  1.00  0.00    -0.550 OA
ATOM      6  O   UNL     1      20.602  53.231  17.994  1.00  0.00    -0.550 OA
ENDBRANCH   3   4
ENDBRANCH   2   3
ENDBRANCH   1   2
BRANCH   1   7
ATOM      7  C   UNL     1      18.017  55.378  14.147  1.00  0.00     0.000 C 
BRANCH   7   8
ATOM      8  C   UNL     1      18.759  56.393  15.028  1.00  0.00    -0.000 C 
BRANCH   8   9
ATOM      9  C   UNL     1      17.918  56.768  16.259  1.00  0.00    -0.000 C 
BRANCH   9  10
ATOM     10  C   UNL     1      18.601  56.380  17.581  1.00  0.00    -0.003 C 
ATOM     11  C   UNL     1      19.993  56.993  17.730  1.00  0.00     0.004 C 
ENDBRANCH   9  10
ENDBRANCH   8   9
ENDBRANCH   7   8
ENDBRANCH   1   7
TORSDOF 7
ENDMDL
MODEL 2
REMARK VINA RESULT:    -4.234      1.660      3.667
REMARK INTER + INTRA:          -6.598
REMARK INTER:                  -5.893
REMARK INTRA:                  -0.706
REMARK UNBOUND:                -0.631
REMARK SMILES CCCCCCCCC(=O)[O-]
REMARK SMILES IDX 6 1 7 2 8 3 9 4 10 5 11 6 5 7 4 8 3 9 2 10 1 11
REMARK H PARENT
REMARK Flexibility Score: inf
ROOT
ATOM      1  C   UNL     1      16.948  55.141  14.930  1.00  0.00     0.000 C 
ENDROOT
BRANCH   1   2
ATOM      2  C   UNL     1      16.925  56.229  16.018  1.00  0.00     0.006 C 
BRANCH   2   3
ATOM      3  C   UNL     1      18.280  56.936  16.156  1.00  0.00     0.053 C 
BRANCH   3   4
ATOM      4  C   UNL     1      18.985  56.547  17.420  1.00  0.00     0.041 C 
ATOM      5  O   UNL     1      18.795  55.411  17.929  1.00  0.00    -0.550 OA
ATOM      6  O   UNL     1      19.877  57.428  18.018  1.00  0.00    -0.550 OA
ENDBRANCH   3   4
ENDBRANCH   2   3
ENDBRANCH   1   2
BRANCH   1   7
ATOM      7  C   UNL     1      17.963  55.439  13.815  1.00  0.00     0.000 C 
BRANCH   7   8
ATOM      8  C   UNL     1      18.854  54.234  13.484  1.00  0.00    -0.000 C 
BRANCH   8   9
ATOM      9  C   UNL     1      20.186  54.311  14.247  1.00  0.00    -0.000 C 
BRANCH   9  10
ATOM     10  C   UNL     1      20.258  53.312  15.413  1.00  0.00    -0.003 C 
ATOM     11  C   UNL     1      21.450  53.565  16.336  1.00  0.00     0.004 C 
ENDBRANCH   9  10
ENDBRANCH   8   9
ENDBRANCH   7   8
ENDBRANCH   1   7
TORSDOF 7
ENDMDL
MODEL 3
REMARK VINA RESULT:    -4.173      1.732      2.565
REMARK INTER + INTRA:          -6.512
REMARK INTER:                  -5.798
REMARK INTRA:                  -0.713
REMARK UNBOUND:                -0.631
REMARK SMILES CCCCCCCCC(=O)[O-]
REMARK SMILES IDX 6 1 7 2 8 3 9 4 10 5 11 6 5 7 4 8 3 9 2 10 1 11
REMARK H PARENT
REMARK Flexibility Score: inf
ROOT
ATOM      1  C   UNL     1      19.807  53.195  15.127  1.00  0.00     0.000 C 
ENDROOT
BRANCH   1   2
ATOM      2  C   UNL     1      21.061  53.668  15.883  1.00  0.00     0.006 C 
BRANCH   2   3
ATOM      3  C   UNL     1      20.715  54.611  17.043  1.00  0.00     0.053 C 
BRANCH   3   4
ATOM      4  C   UNL     1      21.203  56.006  16.793  1.00  0.00     0.041 C 
ATOM      5  O   UNL     1      22.091  56.221  15.926  1.00  0.00    -0.550 OA
ATOM      6  O   UNL     1      20.653  57.072  17.494  1.00  0.00    -0.550 OA
ENDBRANCH   3   4
ENDBRANCH   2   3
ENDBRANCH   1   2
BRANCH   1   7
ATOM      7  C   UNL     1      19.702  53.801  13.718  1.00  0.00     0.000 C 
BRANCH   7   8
ATOM      8  C   UNL     1      18.403  54.591  13.506  1.00  0.00    -0.000 C 
BRANCH   8   9
ATOM      9  C   UNL     1      18.409  55.888  14.330  1.00  0.00    -0.000 C 
BRANCH   9  10
ATOM     10  C   UNL     1      17.326  55.901  15.420  1.00  0.00    -0.003 C 
ATOM     11  C   UNL     1      17.337  57.184  16.251  1.00  0.00     0.004 C 
ENDBRANCH   9  10
ENDBRANCH   8   9
ENDBRANCH   7   8
ENDBRANCH   1   7
TORSDOF 7
ENDMDL
MODEL 4
REMARK VINA RESULT:    -4.161      2.272      3.548
REMARK INTER + INTRA:          -6.495
REMARK INTER:                  -5.651
REMARK INTRA:                  -0.844
REMARK UNBOUND:                -0.631
REMARK SMILES CCCCCCCCC(=O)[O-]
REMARK SMILES IDX 6 1 7 2 8 3 9 4 10 5 11 6 5 7 4 8 3 9 2 10 1 11
REMARK H PARENT
REMARK Flexibility Score: inf
ROOT
ATOM      1  C   UNL     1      19.129  54.100  13.704  1.00  0.00     0.000 C 
ENDROOT
BRANCH   1   2
ATOM      2  C   UNL     1      18.096  55.240  13.683  1.00  0.00     0.006 C 
BRANCH   2   3
ATOM      3  C   UNL     1      16.938  54.990  14.658  1.00  0.00     0.053 C 
BRANCH   3   4
ATOM      4  C   UNL     1      17.111  55.751  15.937  1.00  0.00     0.041 C 
ATOM      5  O   UNL     1      17.302  55.136  17.020  1.00  0.00    -0.550 OA
ATOM      6  O   UNL     1      17.091  57.140  15.929  1.00  0.00    -0.550 OA
ENDBRANCH   3   4
ENDBRANCH   2   3
ENDBRANCH   1   2
BRANCH   1   7
ATOM      7  C   UNL     1      20.413  54.478  14.460  1.00  0.00     0.000 C 
BRANCH   7   8
ATOM      8  C   UNL     1      20.540  53.759  15.811  1.00  0.00    -0.000 C 
BRANCH   8   9
ATOM      9  C   UNL     1      20.942  54.743  16.920  1.00  0.00    -0.000 C 
BRANCH   9  10
ATOM     10  C   UNL     1      20.801  56.211  16.488  1.00  0.00    -0.003 C 
ATOM     11  C   UNL     1      20.222  57.100  17.589  1.00  0.00     0.004 C 
ENDBRANCH   9  10
ENDBRANCH   8   9
ENDBRANCH   7   8
ENDBRANCH   1   7
TORSDOF 7
ENDMDL
MODEL 5
REMARK VINA RESULT:    -4.098      1.842      3.792
REMARK INTER + INTRA:          -6.407
REMARK INTER:                  -5.754
REMARK INTRA:                  -0.653
REMARK UNBOUND:                -0.631
REMARK SMILES CCCCCCCCC(=O)[O-]
REMARK SMILES IDX 6 1 7 2 8 3 9 4 10 5 11 6 5 7 4 8 3 9 2 10 1 11
REMARK H PARENT
REMARK Flexibility Score: inf
ROOT
ATOM      1  C   UNL     1      18.116  55.596  14.068  1.00  0.00     0.000 C 
ENDROOT
BRANCH   1   2
ATOM      2  C   UNL     1      18.746  56.367  15.241  1.00  0.00     0.006 C 
BRANCH   2   3
ATOM      3  C   UNL     1      17.689  56.899  16.218  1.00  0.00     0.053 C 
BRANCH   3   4
ATOM      4  C   UNL     1      17.590  56.051  17.450  1.00  0.00     0.041 C 
ATOM      5  O   UNL     1      16.687  56.271  18.299  1.00  0.00    -0.550 OA
ATOM      6  O   UNL     1      18.477  54.999  17.644  1.00  0.00    -0.550 OA
ENDBRANCH   3   4
ENDBRANCH   2   3
ENDBRANCH   1   2
BRANCH   1   7
ATOM      7  C   UNL     1      18.854  54.284  13.757  1.00  0.00     0.000 C 
BRANCH   7   8
ATOM      8  C   UNL     1      20.274  54.250  14.339  1.00  0.00    -0.000 C 
BRANCH   8   9
ATOM      9  C   UNL     1      20.428  53.096  15.343  1.00  0.00    -0.000 C 
BRANCH   9  10
ATOM     10  C   UNL     1      21.417  53.424  16.473  1.00  0.00    -0.003 C 
ATOM     11  C   UNL     1      22.005  54.830  16.356  1.00  0.00     0.004 C 
ENDBRANCH   9  10
ENDBRANCH   8   9
ENDBRANCH   7   8
ENDBRANCH   1   7
TORSDOF 7
ENDMDL
MODEL 6
REMARK VINA RESULT:    -4.038      2.775      4.226
REMARK INTER + INTRA:          -6.321
REMARK INTER:                  -5.495
REMARK INTRA:                  -0.827
REMARK UNBOUND:                -0.631
REMARK SMILES CCCCCCCCC(=O)[O-]
REMARK SMILES IDX 6 1 7 2 8 3 9 4 10 5 11 6 5 7 4 8 3 9 2 10 1 11
REMARK H PARENT
REMARK Flexibility Score: inf
ROOT
ATOM      1  C   UNL     1      19.652  53.847  13.586  1.00  0.00     0.000 C 
ENDROOT
BRANCH   1   2
ATOM      2  C   UNL     1      18.356  54.622  13.291  1.00  0.00     0.006 C 
BRANCH   2   3
ATOM      3  C   UNL     1      18.134  55.774  14.279  1.00  0.00     0.053 C 
BRANCH   3   4
ATOM      4  C   UNL     1      16.970  55.513  15.187  1.00  0.00     0.041 C 
ATOM      5  O   UNL     1      15.913  55.003  14.732  1.00  0.00    -0.550 OA
ATOM      6  O   UNL     1      17.066  55.806  16.542  1.00  0.00    -0.550 OA
ENDBRANCH   3   4
ENDBRANCH   2   3
ENDBRANCH   1   2
BRANCH   1   7
ATOM      7  C   UNL     1      20.536  54.547  14.631  1.00  0.00     0.000 C 
BRANCH   7   8
ATOM      8  C   UNL     1      20.929  53.622  15.792  1.00  0.00    -0.000 C 
BRANCH   8   9
ATOM      9  C   UNL     1      19.969  52.426  15.890  1.00  0.00    -0.000 C 
BRANCH   9  10
ATOM     10  C   UNL     1      18.958  52.574  17.038  1.00  0.00    -0.003 C 
ATOM     11  C   UNL     1      17.534  52.203  16.624  1.00  0.00     0.004 C 
ENDBRANCH   9  10
ENDBRANCH   8   9
ENDBRANCH   7   8
ENDBRANCH   1   7
TORSDOF 7
ENDMDL
MODEL 7
REMARK VINA RESULT:    -4.000      1.503      2.139
REMARK INTER + INTRA:          -6.268
REMARK INTER:                  -5.432
REMARK INTRA:                  -0.836
REMARK UNBOUND:                -0.631
REMARK SMILES CCCCCCCCC(=O)[O-]
REMARK SMILES IDX 6 1 7 2 8 3 9 4 10 5 11 6 5 7 4 8 3 9 2 10 1 11
REMARK H PARENT
REMARK Flexibility Score: inf
ROOT
ATOM      1  C   UNL     1      19.262  53.892  14.337  1.00  0.00     0.000 C 
ENDROOT
BRANCH   1   2
ATOM      2  C   UNL     1      20.632  54.502  14.681  1.00  0.00     0.006 C 
BRANCH   2   3
ATOM      3  C   UNL     1      20.572  55.392  15.929  1.00  0.00     0.053 C 
BRANCH   3   4
ATOM      4  C   UNL     1      20.364  54.589  17.178  1.00  0.00     0.041 C 
ATOM      5  O   UNL     1      19.546  54.978  18.053  1.00  0.00    -0.550 OA
ATOM      6  O   UNL     1      21.050  53.395  17.360  1.00  0.00    -0.550 OA
ENDBRANCH   3   4
ENDBRANCH   2   3
ENDBRANCH   1   2
BRANCH   1   7
ATOM      7  C   UNL     1      18.363  54.861  13.551  1.00  0.00     0.000 C 
BRANCH   7   8
ATOM      8  C   UNL     1      16.926  54.905  14.088  1.00  0.00    -0.000 C 
BRANCH   8   9
ATOM      9  C   UNL     1      16.900  54.672  15.606  1.00  0.00    -0.000 C 
BRANCH   9  10
ATOM     10  C   UNL     1      16.359  55.884  16.381  1.00  0.00    -0.003 C 
ATOM     11  C   UNL     1      17.264  57.111  16.268  1.00  0.00     0.004 C 
ENDBRANCH   9  10
ENDBRANCH   8   9
ENDBRANCH   7   8
ENDBRANCH   1   7
TORSDOF 7
ENDMDL
MODEL 8
REMARK VINA RESULT:    -3.928      2.136      3.807
REMARK INTER + INTRA:          -6.166
REMARK INTER:                  -5.320
REMARK INTRA:                  -0.847
REMARK UNBOUND:                -0.631
REMARK SMILES CCCCCCCCC(=O)[O-]
REMARK SMILES IDX 6 1 7 2 8 3 9 4 10 5 11 6 5 7 4 8 3 9 2 10 1 11
REMARK H PARENT
REMARK Flexibility Score: inf
ROOT
ATOM      1  C   UNL     1      18.868  56.368  15.129  1.00  0.00     0.000 C 
ENDROOT
BRANCH   1   2
ATOM      2  C   UNL     1      18.050  56.548  16.420  1.00  0.00     0.006 C 
BRANCH   2   3
ATOM      3  C   UNL     1      16.781  55.686  16.426  1.00  0.00     0.053 C 
BRANCH   3   4
ATOM      4  C   UNL     1      16.950  54.449  17.254  1.00  0.00     0.041 C 
ATOM      5  O   UNL     1      17.275  54.537  18.468  1.00  0.00    -0.550 OA
ATOM      6  O   UNL     1      16.719  53.199  16.694  1.00  0.00    -0.550 OA
ENDBRANCH   3   4
ENDBRANCH   2   3
ENDBRANCH   1   2
BRANCH   1   7
ATOM      7  C   UNL     1      18.093  55.609  14.039  1.00  0.00     0.000 C 
BRANCH   7   8
ATOM      8  C   UNL     1      18.817  54.338  13.573  1.00  0.00    -0.000 C 
BRANCH   8   9
ATOM      9  C   UNL     1      20.104  54.111  14.381  1.00  0.00    -0.000 C 
BRANCH   9  10
ATOM     10  C   UNL     1      19.978  52.948  15.378  1.00  0.00    -0.003 C 
ATOM     11  C   UNL     1      20.502  53.301  16.769  1.00  0.00     0.004 C 
ENDBRANCH   9  10
ENDBRANCH   8   9
ENDBRANCH   7   8
ENDBRANCH   1   7
TORSDOF 7
ENDMDL
MODEL 9
REMARK VINA RESULT:    -3.927     12.307     13.352
REMARK INTER + INTRA:          -6.166
REMARK INTER:                  -5.783
REMARK INTRA:                  -0.382
REMARK UNBOUND:                -0.631
REMARK SMILES CCCCCCCCC(=O)[O-]
REMARK SMILES IDX 6 1 7 2 8 3 9 4 10 5 11 6 5 7 4 8 3 9 2 10 1 11
REMARK H PARENT
REMARK Flexibility Score: inf
ROOT
ATOM      1  C   UNL     1      26.548  63.412   7.736  1.00  0.00     0.000 C 
ENDROOT
BRANCH   1   2
ATOM      2  C   UNL     1      25.406  64.252   7.138  1.00  0.00     0.006 C 
BRANCH   2   3
ATOM      3  C   UNL     1      24.079  64.031   7.875  1.00  0.00     0.053 C 
BRANCH   3   4
ATOM      4  C   UNL     1      22.977  63.641   6.936  1.00  0.00     0.041 C 
ATOM      5  O   UNL     1      22.411  64.513   6.226  1.00  0.00    -0.550 OA
ATOM      6  O   UNL     1      22.598  62.309   6.824  1.00  0.00    -0.550 OA
ENDBRANCH   3   4
ENDBRANCH   2   3
ENDBRANCH   1   2
BRANCH   1   7
ATOM      7  C   UNL     1      26.502  61.943   7.284  1.00  0.00     0.000 C 
BRANCH   7   8
ATOM      8  C   UNL     1      27.332  61.018   8.186  1.00  0.00    -0.000 C 
BRANCH   8   9
ATOM      9  C   UNL     1      28.195  61.833   9.162  1.00  0.00    -0.000 C 
BRANCH   9  10
ATOM     10  C   UNL     1      28.098  61.320  10.607  1.00  0.00    -0.003 C 
ATOM     11  C   UNL     1      28.054  59.794  10.691  1.00  0.00     0.004 C 
ENDBRANCH   9  10
ENDBRANCH   8   9
ENDBRANCH   7   8
ENDBRANCH   1   7
TORSDOF 7
ENDMDL
