MODEL 1
REMARK VINA RESULT:    -3.143      0.000      0.000
REMARK INTER + INTRA:          -5.439
REMARK INTER:                  -4.797
REMARK INTRA:                  -0.642
REMARK UNBOUND:                -0.642
REMARK SMILES CC1=CCC[C@H](C)C(=O)C[C@H](C(C)C)C(=O)C1
REMARK SMILES IDX 8 1 9 2 6 3 7 4 5 5 4 6 3 7 2 8 1 9 10 11 11 12 15 13 16 14
REMARK SMILES IDX 17 15 12 17 13 18 14 19
REMARK H PARENT
REMARK Flexibility Score: 70.00
ROOT
ATOM      1  C   UNL     1      13.636   8.630  25.599  1.00  0.00     0.136 C 
ATOM      2  O   UNL     1      12.962   7.708  25.165  1.00  0.00    -0.299 OA
ENDROOT
BRANCH   1   3
ATOM      3  C   UNL     1      15.084   8.378  25.974  1.00  0.00     0.053 C 
ATOM      4  C   UNL     1      15.300   6.875  26.187  1.00  0.00     0.016 C 
BRANCH   3   5
ATOM      5  C   UNL     1      16.067   8.911  24.909  1.00  0.00     0.015 C 
BRANCH   5   6
ATOM      6  C   UNL     1      16.984  10.048  25.392  1.00  0.00     0.028 C 
BRANCH   6   7
ATOM      7  C   UNL     1      16.669  11.395  24.781  1.00  0.00    -0.028 C 
ATOM      8  C   UNL     1      15.911  12.398  25.301  1.00  0.00    -0.070 CG0
ATOM      9  C   UNL     1      15.672  13.594  24.411  1.00  0.00     0.039 C 
ATOM     10  G   UNL     1      15.370  12.461  26.726  1.00  0.00     0.000 G0
ENDBRANCH   6   7
ENDBRANCH   5   6
ENDBRANCH   3   5
ENDBRANCH   1   3
BRANCH   1  11
ATOM     11  C   UNL     1      12.987   9.973  25.856  1.00  0.00     0.087 C 
BRANCH  11  12
ATOM     12  C   UNL     1      13.453  10.717  27.143  1.00  0.00     0.066 C 
BRANCH  12  13
ATOM     13  C   UNL     1      13.894  12.159  26.895  1.00  0.00     0.140 C 
ATOM     14  O   UNL     1      13.097  13.083  26.968  1.00  0.00    -0.299 OA
BRANCH  13  15
ATOM     15  C   UNL     1      15.359  12.470  26.724  1.00  0.00     0.106 CG0
ATOM     16  G   UNL     1      15.895  12.398  25.297  1.00  0.00     0.000 G0
ENDBRANCH  13  15
ENDBRANCH  12  13
BRANCH  12  17
ATOM     17  C   UNL     1      12.501  10.495  28.367  1.00  0.00    -0.006 C 
ATOM     18  C   UNL     1      11.070  10.129  27.931  1.00  0.00     0.008 C 
ATOM     19  C   UNL     1      13.024   9.493  29.409  1.00  0.00     0.008 C 
ENDBRANCH  12  17
ENDBRANCH  11  12
ENDBRANCH   1  11
TORSDOF 1
ENDMDL
MODEL 2
REMARK VINA RESULT:    -3.085      1.838      4.281
REMARK INTER + INTRA:          -5.350
REMARK INTER:                  -4.831
REMARK INTRA:                  -0.518
REMARK UNBOUND:                -0.642
REMARK SMILES CC1=CCC[C@H](C)C(=O)C[C@H](C(C)C)C(=O)C1
REMARK SMILES IDX 8 1 9 2 6 3 7 4 5 5 4 6 3 7 2 8 1 9 10 11 11 12 15 13 16 14
REMARK SMILES IDX 17 15 12 17 13 18 14 19
REMARK H PARENT
REMARK Flexibility Score: 70.00
ROOT
ATOM      1  C   UNL     1      15.603   8.826  25.454  1.00  0.00     0.136 C 
ATOM      2  O   UNL     1      16.270   7.856  25.779  1.00  0.00    -0.299 OA
ENDROOT
BRANCH   1   3
ATOM      3  C   UNL     1      14.267   8.613  24.767  1.00  0.00     0.053 C 
ATOM      4  C   UNL     1      14.446   7.631  23.604  1.00  0.00     0.016 C 
BRANCH   3   5
ATOM      5  C   UNL     1      13.184   8.095  25.739  1.00  0.00     0.015 C 
BRANCH   5   6
ATOM      6  C   UNL     1      12.122   9.136  26.131  1.00  0.00     0.028 C 
BRANCH   6   7
ATOM      7  C   UNL     1      12.011   9.373  27.620  1.00  0.00    -0.028 C 
ATOM      8  C   UNL     1      12.583  10.360  28.360  1.00  0.00    -0.070 CG0
ATOM      9  C   UNL     1      12.390  10.280  29.856  1.00  0.00     0.039 C 
ATOM     10  G   UNL     1      13.310  11.582  27.807  1.00  0.00     0.000 G0
ENDBRANCH   6   7
ENDBRANCH   5   6
ENDBRANCH   3   5
ENDBRANCH   1   3
BRANCH   1  11
ATOM     11  C   UNL     1      16.167  10.218  25.644  1.00  0.00     0.087 C 
BRANCH  11  12
ATOM     12  C   UNL     1      15.127  11.338  25.945  1.00  0.00     0.066 C 
BRANCH  12  13
ATOM     13  C   UNL     1      14.745  11.442  27.421  1.00  0.00     0.140 C 
ATOM     14  O   UNL     1      15.602  11.530  28.289  1.00  0.00    -0.299 OA
BRANCH  13  15
ATOM     15  C   UNL     1      13.298  11.611  27.806  1.00  0.00     0.106 CG0
ATOM     16  G   UNL     1      12.603  10.367  28.353  1.00  0.00     0.000 G0
ENDBRANCH  13  15
ENDBRANCH  12  13
BRANCH  12  17
ATOM     17  C   UNL     1      15.445  12.691  25.224  1.00  0.00    -0.006 C 
ATOM     18  C   UNL     1      16.711  12.600  24.351  1.00  0.00     0.008 C 
ATOM     19  C   UNL     1      14.273  13.278  24.422  1.00  0.00     0.008 C 
ENDBRANCH  12  17
ENDBRANCH  11  12
ENDBRANCH   1  11
TORSDOF 1
ENDMDL
MODEL 3
REMARK VINA RESULT:    -3.025      2.062      3.946
REMARK INTER + INTRA:          -5.258
REMARK INTER:                  -5.009
REMARK INTRA:                  -0.250
REMARK UNBOUND:                -0.642
REMARK SMILES CC1=CCC[C@H](C)C(=O)C[C@H](C(C)C)C(=O)C1
REMARK SMILES IDX 8 1 9 2 6 3 7 4 5 5 4 6 3 7 2 8 1 9 10 11 11 12 15 13 16 14
REMARK SMILES IDX 17 15 12 17 13 18 14 19
REMARK H PARENT
REMARK Flexibility Score: 70.00
ROOT
ATOM      1  C   UNL     1      16.423  10.387  25.113  1.00  0.00     0.136 C 
ATOM      2  O   UNL     1      16.632  11.220  24.245  1.00  0.00    -0.299 OA
ENDROOT
BRANCH   1   3
ATOM      3  C   UNL     1      16.707   8.925  24.823  1.00  0.00     0.053 C 
ATOM      4  C   UNL     1      17.188   8.237  26.105  1.00  0.00     0.016 C 
BRANCH   3   5
ATOM      5  C   UNL     1      15.473   8.190  24.255  1.00  0.00     0.015 C 
BRANCH   5   6
ATOM      6  C   UNL     1      14.358   7.919  25.279  1.00  0.00     0.028 C 
BRANCH   6   7
ATOM      7  C   UNL     1      13.064   8.645  24.988  1.00  0.00    -0.028 C 
ATOM      8  C   UNL     1      12.413   9.547  25.769  1.00  0.00    -0.070 CG0
ATOM      9  C   UNL     1      11.070  10.027  25.270  1.00  0.00     0.039 C 
ATOM     10  G   UNL     1      12.960  10.186  27.043  1.00  0.00     0.000 G0
ENDBRANCH   6   7
ENDBRANCH   5   6
ENDBRANCH   3   5
ENDBRANCH   1   3
BRANCH   1  11
ATOM     11  C   UNL     1      15.786  10.812  26.419  1.00  0.00     0.087 C 
BRANCH  11  12
ATOM     12  C   UNL     1      14.752  11.973  26.325  1.00  0.00     0.066 C 
BRANCH  12  13
ATOM     13  C   UNL     1      13.392  11.636  26.936  1.00  0.00     0.140 C 
ATOM     14  O   UNL     1      12.588  12.516  27.208  1.00  0.00    -0.299 OA
BRANCH  13  15
ATOM     15  C   UNL     1      12.963  10.196  27.050  1.00  0.00     0.106 CG0
ATOM     16  G   UNL     1      12.434   9.554  25.771  1.00  0.00     0.000 G0
ENDBRANCH  13  15
ENDBRANCH  12  13
BRANCH  12  17
ATOM     17  C   UNL     1      15.349  13.368  26.712  1.00  0.00    -0.006 C 
ATOM     18  C   UNL     1      16.504  13.246  27.724  1.00  0.00     0.008 C 
ATOM     19  C   UNL     1      15.765  14.238  25.515  1.00  0.00     0.008 C 
ENDBRANCH  12  17
ENDBRANCH  11  12
ENDBRANCH   1  11
TORSDOF 1
ENDMDL
MODEL 4
REMARK VINA RESULT:    -3.012      1.291      2.002
REMARK INTER + INTRA:          -5.238
REMARK INTER:                  -5.243
REMARK INTRA:                   0.005
REMARK UNBOUND:                -0.642
REMARK SMILES CC1=CCC[C@H](C)C(=O)C[C@H](C(C)C)C(=O)C1
REMARK SMILES IDX 8 1 9 2 6 3 7 4 5 5 4 6 3 7 2 8 1 9 10 11 11 12 15 13 16 14
REMARK SMILES IDX 17 15 12 17 13 18 14 19
REMARK H PARENT
REMARK Flexibility Score: 70.00
ROOT
ATOM      1  C   UNL     1      15.037   8.605  25.342  1.00  0.00     0.136 C 
ATOM      2  O   UNL     1      14.808   8.004  24.304  1.00  0.00    -0.299 OA
ENDROOT
BRANCH   1   3
ATOM      3  C   UNL     1      16.376   9.296  25.519  1.00  0.00     0.053 C 
ATOM      4  C   UNL     1      17.465   8.242  25.749  1.00  0.00     0.016 C 
BRANCH   3   5
ATOM      5  C   UNL     1      16.743  10.184  24.310  1.00  0.00     0.015 C 
BRANCH   5   6
ATOM      6  C   UNL     1      16.651  11.697  24.571  1.00  0.00     0.028 C 
BRANCH   6   7
ATOM      7  C   UNL     1      16.538  12.064  26.033  1.00  0.00    -0.028 C 
ATOM      8  C   UNL     1      15.426  12.436  26.723  1.00  0.00    -0.070 CG0
ATOM      9  C   UNL     1      15.633  12.861  28.158  1.00  0.00     0.039 C 
ATOM     10  G   UNL     1      13.992  12.368  26.209  1.00  0.00     0.000 G0
ENDBRANCH   6   7
ENDBRANCH   5   6
ENDBRANCH   3   5
ENDBRANCH   1   3
BRANCH   1  11
ATOM     11  C   UNL     1      14.029   8.560  26.471  1.00  0.00     0.087 C 
BRANCH  11  12
ATOM     12  C   UNL     1      13.658   9.933  27.106  1.00  0.00     0.066 C 
BRANCH  12  13
ATOM     13  C   UNL     1      13.345  11.021  26.078  1.00  0.00     0.140 C 
ATOM     14  O   UNL     1      12.491  10.851  25.221  1.00  0.00    -0.299 OA
BRANCH  13  15
ATOM     15  C   UNL     1      13.973  12.384  26.222  1.00  0.00     0.106 CG0
ATOM     16  G   UNL     1      15.412  12.406  26.727  1.00  0.00     0.000 G0
ENDBRANCH  13  15
ENDBRANCH  12  13
BRANCH  12  17
ATOM     17  C   UNL     1      12.653   9.813  28.301  1.00  0.00    -0.006 C 
ATOM     18  C   UNL     1      13.374   9.674  29.655  1.00  0.00     0.008 C 
ATOM     19  C   UNL     1      11.595  10.926  28.360  1.00  0.00     0.008 C 
ENDBRANCH  12  17
ENDBRANCH  11  12
ENDBRANCH   1  11
TORSDOF 1
ENDMDL
MODEL 5
REMARK VINA RESULT:    -3.006      9.215     11.364
REMARK INTER + INTRA:          -5.230
REMARK INTER:                  -4.964
REMARK INTRA:                  -0.266
REMARK UNBOUND:                -0.642
REMARK SMILES CC1=CCC[C@H](C)C(=O)C[C@H](C(C)C)C(=O)C1
REMARK SMILES IDX 8 1 9 2 6 3 7 4 5 5 4 6 3 7 2 8 1 9 10 11 11 12 15 13 16 14
REMARK SMILES IDX 17 15 12 17 13 18 14 19
REMARK H PARENT
REMARK Flexibility Score: 70.00
ROOT
ATOM      1  C   UNL     1      16.737   1.728  18.949  1.00  0.00     0.136 C 
ATOM      2  O   UNL     1      17.429   1.793  19.953  1.00  0.00    -0.299 OA
ENDROOT
BRANCH   1   3
ATOM      3  C   UNL     1      17.121   2.544  17.729  1.00  0.00     0.053 C 
ATOM      4  C   UNL     1      16.409   1.979  16.495  1.00  0.00     0.016 C 
BRANCH   3   5
ATOM      5  C   UNL     1      16.786   4.042  17.897  1.00  0.00     0.015 C 
BRANCH   5   6
ATOM      6  C   UNL     1      15.364   4.436  17.461  1.00  0.00     0.028 C 
BRANCH   6   7
ATOM      7  C   UNL     1      14.473   4.884  18.597  1.00  0.00    -0.028 C 
ATOM      8  C   UNL     1      13.468   4.195  19.200  1.00  0.00    -0.070 CG0
ATOM      9  C   UNL     1      12.665   4.942  20.239  1.00  0.00     0.039 C 
ATOM     10  G   UNL     1      13.149   2.717  18.992  1.00  0.00     0.000 G0
ENDBRANCH   6   7
ENDBRANCH   5   6
ENDBRANCH   3   5
ENDBRANCH   1   3
BRANCH   1  11
ATOM     11  C   UNL     1      15.456   0.922  18.975  1.00  0.00     0.087 C 
BRANCH  11  12
ATOM     12  C   UNL     1      14.638   0.988  20.300  1.00  0.00     0.066 C 
BRANCH  12  13
ATOM     13  C   UNL     1      13.361   1.820  20.193  1.00  0.00     0.140 C 
ATOM     14  O   UNL     1      12.564   1.873  21.119  1.00  0.00    -0.299 OA
BRANCH  13  15
ATOM     15  C   UNL     1      13.158   2.722  19.003  1.00  0.00     0.106 CG0
ATOM     16  G   UNL     1      13.466   4.200  19.226  1.00  0.00     0.000 G0
ENDBRANCH  13  15
ENDBRANCH  12  13
BRANCH  12  17
ATOM     17  C   UNL     1      14.493  -0.401  21.008  1.00  0.00    -0.006 C 
ATOM     18  C   UNL     1      13.837  -1.454  20.094  1.00  0.00     0.008 C 
ATOM     19  C   UNL     1      15.795  -0.946  21.617  1.00  0.00     0.008 C 
ENDBRANCH  12  17
ENDBRANCH  11  12
ENDBRANCH   1  11
TORSDOF 1
ENDMDL
MODEL 6
REMARK VINA RESULT:    -2.973     10.852     12.347
REMARK INTER + INTRA:          -5.179
REMARK INTER:                  -4.723
REMARK INTRA:                  -0.455
REMARK UNBOUND:                -0.642
REMARK SMILES CC1=CCC[C@H](C)C(=O)C[C@H](C(C)C)C(=O)C1
REMARK SMILES IDX 8 1 9 2 6 3 7 4 5 5 4 6 3 7 2 8 1 9 10 11 11 12 15 13 16 14
REMARK SMILES IDX 17 15 12 17 13 18 14 19
REMARK H PARENT
REMARK Flexibility Score: 70.00
ROOT
ATOM      1  C   UNL     1      15.659   0.018  19.723  1.00  0.00     0.136 C 
ATOM      2  O   UNL     1      16.258  -0.550  18.824  1.00  0.00    -0.299 OA
ENDROOT
BRANCH   1   3
ATOM      3  C   UNL     1      15.129  -0.793  20.890  1.00  0.00     0.053 C 
ATOM      4  C   UNL     1      16.258  -1.032  21.898  1.00  0.00     0.016 C 
BRANCH   3   5
ATOM      5  C   UNL     1      13.932  -0.108  21.585  1.00  0.00     0.015 C 
BRANCH   5   6
ATOM      6  C   UNL     1      12.568  -0.367  20.922  1.00  0.00     0.028 C 
BRANCH   6   7
ATOM      7  C   UNL     1      11.633   0.821  20.951  1.00  0.00    -0.028 C 
ATOM      8  C   UNL     1      11.495   1.806  20.024  1.00  0.00    -0.070 CG0
ATOM      9  C   UNL     1      10.557   2.937  20.376  1.00  0.00     0.039 C 
ATOM     10  G   UNL     1      12.122   1.818  18.634  1.00  0.00     0.000 G0
ENDBRANCH   6   7
ENDBRANCH   5   6
ENDBRANCH   3   5
ENDBRANCH   1   3
BRANCH   1  11
ATOM     11  C   UNL     1      15.364   1.499  19.606  1.00  0.00     0.087 C 
BRANCH  11  12
ATOM     12  C   UNL     1      14.719   1.959  18.265  1.00  0.00     0.066 C 
BRANCH  12  13
ATOM     13  C   UNL     1      13.369   2.654  18.439  1.00  0.00     0.140 C 
ATOM     14  O   UNL     1      13.261   3.864  18.304  1.00  0.00    -0.299 OA
BRANCH  13  15
ATOM     15  C   UNL     1      12.121   1.825  18.611  1.00  0.00     0.106 CG0
ATOM     16  G   UNL     1      11.525   1.802  20.015  1.00  0.00     0.000 G0
ENDBRANCH  13  15
ENDBRANCH  12  13
BRANCH  12  17
ATOM     17  C   UNL     1      15.731   2.662  17.299  1.00  0.00    -0.006 C 
ATOM     18  C   UNL     1      17.065   2.990  17.994  1.00  0.00     0.008 C 
ATOM     19  C   UNL     1      15.975   1.916  15.978  1.00  0.00     0.008 C 
ENDBRANCH  12  17
ENDBRANCH  11  12
ENDBRANCH   1  11
TORSDOF 1
ENDMDL
MODEL 7
REMARK VINA RESULT:    -2.816      2.284      4.197
REMARK INTER + INTRA:          -4.939
REMARK INTER:                  -5.032
REMARK INTRA:                   0.093
REMARK UNBOUND:                -0.642
REMARK SMILES CC1=CCC[C@H](C)C(=O)C[C@H](C(C)C)C(=O)C1
REMARK SMILES IDX 8 1 9 2 6 3 7 4 5 5 4 6 3 7 2 8 1 9 10 11 11 12 15 13 16 14
REMARK SMILES IDX 17 15 12 17 13 18 14 19
REMARK H PARENT
REMARK Flexibility Score: 70.00
ROOT
ATOM      1  C   UNL     1      15.716  10.306  25.498  1.00  0.00     0.136 C 
ATOM      2  O   UNL     1      16.754  10.284  24.856  1.00  0.00    -0.299 OA
ENDROOT
BRANCH   1   3
ATOM      3  C   UNL     1      14.740   9.152  25.370  1.00  0.00     0.053 C 
ATOM      4  C   UNL     1      15.465   7.936  24.783  1.00  0.00     0.016 C 
BRANCH   3   5
ATOM      5  C   UNL     1      14.088   8.782  26.720  1.00  0.00     0.015 C 
BRANCH   5   6
ATOM      6  C   UNL     1      12.627   9.235  26.875  1.00  0.00     0.028 C 
BRANCH   6   7
ATOM      7  C   UNL     1      12.002   9.749  25.598  1.00  0.00    -0.028 C 
ATOM      8  C   UNL     1      11.876  11.038  25.183  1.00  0.00    -0.070 CG0
ATOM      9  C   UNL     1      11.099  11.264  23.908  1.00  0.00     0.039 C 
ATOM     10  G   UNL     1      12.528  12.254  25.835  1.00  0.00     0.000 G0
ENDBRANCH   6   7
ENDBRANCH   5   6
ENDBRANCH   3   5
ENDBRANCH   1   3
BRANCH   1  11
ATOM     11  C   UNL     1      15.372  11.529  26.323  1.00  0.00     0.087 C 
BRANCH  11  12
ATOM     12  C   UNL     1      15.077  12.830  25.518  1.00  0.00     0.066 C 
BRANCH  12  13
ATOM     13  C   UNL     1      13.628  12.945  25.046  1.00  0.00     0.140 C 
ATOM     14  O   UNL     1      13.355  13.453  23.968  1.00  0.00    -0.299 OA
BRANCH  13  15
ATOM     15  C   UNL     1      12.532  12.275  25.834  1.00  0.00     0.106 CG0
ATOM     16  G   UNL     1      11.889  11.055  25.180  1.00  0.00     0.000 G0
ENDBRANCH  13  15
ENDBRANCH  12  13
BRANCH  12  17
ATOM     17  C   UNL     1      15.687  14.115  26.172  1.00  0.00    -0.006 C 
ATOM     18  C   UNL     1      17.078  14.453  25.603  1.00  0.00     0.008 C 
ATOM     19  C   UNL     1      14.769  15.348  26.133  1.00  0.00     0.008 C 
ENDBRANCH  12  17
ENDBRANCH  11  12
ENDBRANCH   1  11
TORSDOF 1
ENDMDL
MODEL 8
REMARK VINA RESULT:    -2.791     11.176     12.587
REMARK INTER + INTRA:          -4.901
REMARK INTER:                  -4.207
REMARK INTRA:                  -0.695
REMARK UNBOUND:                -0.642
REMARK SMILES CC1=CCC[C@H](C)C(=O)C[C@H](C(C)C)C(=O)C1
REMARK SMILES IDX 8 1 9 2 6 3 7 4 5 5 4 6 3 7 2 8 1 9 10 11 11 12 15 13 16 14
REMARK SMILES IDX 17 15 12 17 13 18 14 19
REMARK H PARENT
REMARK Flexibility Score: 70.00
ROOT
ATOM      1  C   UNL     1      13.983   2.902  18.656  1.00  0.00     0.136 C 
ATOM      2  O   UNL     1      14.118   4.063  19.008  1.00  0.00    -0.299 OA
ENDROOT
BRANCH   1   3
ATOM      3  C   UNL     1      14.195   2.540  17.198  1.00  0.00     0.053 C 
ATOM      4  C   UNL     1      13.105   3.200  16.346  1.00  0.00     0.016 C 
BRANCH   3   5
ATOM      5  C   UNL     1      15.593   2.955  16.688  1.00  0.00     0.015 C 
BRANCH   5   6
ATOM      6  C   UNL     1      16.675   1.870  16.824  1.00  0.00     0.028 C 
BRANCH   6   7
ATOM      7  C   UNL     1      17.397   1.882  18.152  1.00  0.00    -0.028 C 
ATOM      8  C   UNL     1      17.221   1.049  19.212  1.00  0.00    -0.070 CG0
ATOM      9  C   UNL     1      18.006   1.371  20.462  1.00  0.00     0.039 C 
ATOM     10  G   UNL     1      16.384  -0.227  19.216  1.00  0.00     0.000 G0
ENDBRANCH   6   7
ENDBRANCH   5   6
ENDBRANCH   3   5
ENDBRANCH   1   3
BRANCH   1  11
ATOM     11  C   UNL     1      13.502   1.869  19.652  1.00  0.00     0.087 C 
BRANCH  11  12
ATOM     12  C   UNL     1      13.830   0.386  19.305  1.00  0.00     0.066 C 
BRANCH  12  13
ATOM     13  C   UNL     1      15.081  -0.147  20.002  1.00  0.00     0.140 C 
ATOM     14  O   UNL     1      15.017  -0.642  21.119  1.00  0.00    -0.299 OA
BRANCH  13  15
ATOM     15  C   UNL     1      16.381  -0.222  19.244  1.00  0.00     0.106 CG0
ATOM     16  G   UNL     1      17.217   1.054  19.225  1.00  0.00     0.000 G0
ENDBRANCH  13  15
ENDBRANCH  12  13
BRANCH  12  17
ATOM     17  C   UNL     1      12.575  -0.551  19.341  1.00  0.00    -0.006 C 
ATOM     18  C   UNL     1      11.281   0.196  18.965  1.00  0.00     0.008 C 
ATOM     19  C   UNL     1      12.718  -1.840  18.516  1.00  0.00     0.008 C 
ENDBRANCH  12  17
ENDBRANCH  11  12
ENDBRANCH   1  11
TORSDOF 1
ENDMDL
MODEL 9
REMARK VINA RESULT:    -2.742     10.523     12.659
REMARK INTER + INTRA:          -4.826
REMARK INTER:                  -4.192
REMARK INTRA:                  -0.634
REMARK UNBOUND:                -0.642
REMARK SMILES CC1=CCC[C@H](C)C(=O)C[C@H](C(C)C)C(=O)C1
REMARK SMILES IDX 8 1 9 2 6 3 7 4 5 5 4 6 3 7 2 8 1 9 10 11 11 12 15 13 16 14
REMARK SMILES IDX 17 15 12 17 13 18 14 19
REMARK H PARENT
REMARK Flexibility Score: 70.00
ROOT
ATOM      1  C   UNL     1      15.138   3.694  16.684  1.00  0.00     0.136 C 
ATOM      2  O   UNL     1      14.782   4.201  15.632  1.00  0.00    -0.299 OA
ENDROOT
BRANCH   1   3
ATOM      3  C   UNL     1      15.075   4.512  17.961  1.00  0.00     0.053 C 
ATOM      4  C   UNL     1      16.040   5.698  17.852  1.00  0.00     0.016 C 
BRANCH   3   5
ATOM      5  C   UNL     1      13.647   5.013  18.266  1.00  0.00     0.015 C 
BRANCH   5   6
ATOM      6  C   UNL     1      12.849   4.129  19.240  1.00  0.00     0.028 C 
BRANCH   6   7
ATOM      7  C   UNL     1      11.972   3.102  18.561  1.00  0.00    -0.028 C 
ATOM      8  C   UNL     1      12.207   1.773  18.396  1.00  0.00    -0.070 CG0
ATOM      9  C   UNL     1      11.200   1.006  17.571  1.00  0.00     0.039 C 
ATOM     10  G   UNL     1      13.335   0.978  19.048  1.00  0.00     0.000 G0
ENDBRANCH   6   7
ENDBRANCH   5   6
ENDBRANCH   3   5
ENDBRANCH   1   3
BRANCH   1  11
ATOM     11  C   UNL     1      15.735   2.303  16.679  1.00  0.00     0.087 C 
BRANCH  11  12
ATOM     12  C   UNL     1      15.682   1.536  18.035  1.00  0.00     0.066 C 
BRANCH  12  13
ATOM     13  C   UNL     1      14.484   0.596  18.162  1.00  0.00     0.140 C 
ATOM     14  O   UNL     1      14.500  -0.517  17.654  1.00  0.00    -0.299 OA
BRANCH  13  15
ATOM     15  C   UNL     1      13.337   0.970  19.064  1.00  0.00     0.106 CG0
ATOM     16  G   UNL     1      12.206   1.760  18.413  1.00  0.00     0.000 G0
ENDBRANCH  13  15
ENDBRANCH  12  13
BRANCH  12  17
ATOM     17  C   UNL     1      17.066   0.944  18.467  1.00  0.00    -0.006 C 
ATOM     18  C   UNL     1      18.177   1.261  17.449  1.00  0.00     0.008 C 
ATOM     19  C   UNL     1      17.507   1.325  19.889  1.00  0.00     0.008 C 
ENDBRANCH  12  17
ENDBRANCH  11  12
ENDBRANCH   1  11
TORSDOF 1
ENDMDL
