MODEL 1
REMARK VINA RESULT:    -4.574      0.000      0.000
REMARK INTER + INTRA:         -10.467
REMARK INTER:                  -8.318
REMARK INTRA:                  -2.149
REMARK UNBOUND:                -2.149
REMARK SMILES CCCCCCCCCCCCCC[C@@H](C)C(=O)[O-]
REMARK SMILES IDX 9 1 10 2 11 3 12 4 13 5 14 6 15 7 16 8 17 9 18 10 19 11 8 12
REMARK SMILES IDX 7 13 6 14 5 15 4 16 3 17 2 18 1 19
REMARK H PARENT
REMARK Flexibility Score: inf
ROOT
ATOM      1  C   UNL     1      51.070 -39.407  -5.162  1.00  0.00     0.000 C 
ENDROOT
BRANCH   1   2
ATOM      2  C   UNL     1      51.132 -37.966  -4.630  1.00  0.00     0.000 C 
BRANCH   2   3
ATOM      3  C   UNL     1      50.612 -37.835  -3.187  1.00  0.00     0.000 C 
BRANCH   3   4
ATOM      4  C   UNL     1      49.604 -36.690  -2.942  1.00  0.00     0.000 C 
BRANCH   4   5
ATOM      5  C   UNL     1      48.237 -37.129  -2.379  1.00  0.00     0.001 C 
BRANCH   5   6
ATOM      6  C   UNL     1      48.133 -38.647  -2.104  1.00  0.00     0.009 C 
BRANCH   6   7
ATOM      7  C   UNL     1      46.677 -39.160  -2.016  1.00  0.00     0.032 C 
ATOM      8  C   UNL     1      46.362 -40.210  -3.089  1.00  0.00     0.014 C 
BRANCH   7   9
ATOM      9  C   UNL     1      46.415 -39.732  -0.649  1.00  0.00     0.044 C 
ATOM     10  O   UNL     1      47.150 -39.421   0.326  1.00  0.00    -0.550 OA
ATOM     11  O   UNL     1      45.358 -40.611  -0.456  1.00  0.00    -0.550 OA
ENDBRANCH   7   9
ENDBRANCH   6   7
ENDBRANCH   5   6
ENDBRANCH   4   5
ENDBRANCH   3   4
ENDBRANCH   2   3
ENDBRANCH   1   2
BRANCH   1  12
ATOM     12  C   UNL     1      49.645 -39.984  -5.137  1.00  0.00     0.000 C 
BRANCH  12  13
ATOM     13  C   UNL     1      49.568 -41.344  -4.420  1.00  0.00    -0.000 C 
BRANCH  13  14
ATOM     14  C   UNL     1      50.404 -41.376  -3.130  1.00  0.00    -0.000 C 
BRANCH  14  15
ATOM     15  C   UNL     1      51.464 -42.489  -3.143  1.00  0.00    -0.000 C 
BRANCH  15  16
ATOM     16  C   UNL     1      52.727 -42.119  -2.347  1.00  0.00    -0.000 C 
BRANCH  16  17
ATOM     17  C   UNL     1      52.919 -40.599  -2.162  1.00  0.00    -0.000 C 
BRANCH  17  18
ATOM     18  C   UNL     1      54.387 -40.226  -1.909  1.00  0.00    -0.003 C 
ATOM     19  C   UNL     1      54.658 -38.772  -2.288  1.00  0.00     0.004 C 
ENDBRANCH  17  18
ENDBRANCH  16  17
ENDBRANCH  15  16
ENDBRANCH  14  15
ENDBRANCH  13  14
ENDBRANCH  12  13
ENDBRANCH   1  12
TORSDOF 14
ENDMDL
MODEL 2
REMARK VINA RESULT:    -4.405      1.930      4.094
REMARK INTER + INTRA:         -10.160
REMARK INTER:                  -7.331
REMARK INTRA:                  -2.829
REMARK UNBOUND:                -2.149
REMARK SMILES CCCCCCCCCCCCCC[C@@H](C)C(=O)[O-]
REMARK SMILES IDX 9 1 10 2 11 3 12 4 13 5 14 6 15 7 16 8 17 9 18 10 19 11 8 12
REMARK SMILES IDX 7 13 6 14 5 15 4 16 3 17 2 18 1 19
REMARK H PARENT
REMARK Flexibility Score: inf
ROOT
ATOM      1  C   UNL     1      48.832 -41.036  -4.893  1.00  0.00     0.000 C 
ENDROOT
BRANCH   1   2
ATOM      2  C   UNL     1      47.597 -40.216  -4.482  1.00  0.00     0.000 C 
BRANCH   2   3
ATOM      3  C   UNL     1      47.340 -40.236  -2.964  1.00  0.00     0.000 C 
BRANCH   3   4
ATOM      4  C   UNL     1      47.701 -38.938  -2.208  1.00  0.00     0.000 C 
BRANCH   4   5
ATOM      5  C   UNL     1      46.657 -37.808  -2.312  1.00  0.00     0.001 C 
BRANCH   5   6
ATOM      6  C   UNL     1      47.010 -36.553  -1.479  1.00  0.00     0.009 C 
BRANCH   6   7
ATOM      7  C   UNL     1      48.355 -36.670  -0.726  1.00  0.00     0.032 C 
ATOM      8  C   UNL     1      49.340 -35.562  -1.116  1.00  0.00     0.014 C 
BRANCH   7   9
ATOM      9  C   UNL     1      48.118 -36.643   0.759  1.00  0.00     0.044 C 
ATOM     10  O   UNL     1      48.193 -35.560   1.399  1.00  0.00    -0.550 OA
ATOM     11  O   UNL     1      47.815 -37.818   1.436  1.00  0.00    -0.550 OA
ENDBRANCH   7   9
ENDBRANCH   6   7
ENDBRANCH   5   6
ENDBRANCH   4   5
ENDBRANCH   3   4
ENDBRANCH   2   3
ENDBRANCH   1   2
BRANCH   1  12
ATOM     12  C   UNL     1      49.350 -41.931  -3.755  1.00  0.00     0.000 C 
BRANCH  12  13
ATOM     13  C   UNL     1      50.857 -41.754  -3.501  1.00  0.00    -0.000 C 
BRANCH  13  14
ATOM     14  C   UNL     1      51.168 -40.509  -2.654  1.00  0.00    -0.000 C 
BRANCH  14  15
ATOM     15  C   UNL     1      51.823 -39.387  -3.475  1.00  0.00    -0.000 C 
BRANCH  15  16
ATOM     16  C   UNL     1      51.031 -38.069  -3.423  1.00  0.00    -0.000 C 
BRANCH  16  17
ATOM     17  C   UNL     1      50.353 -37.703  -4.760  1.00  0.00    -0.000 C 
BRANCH  17  18
ATOM     18  C   UNL     1      49.478 -36.446  -4.642  1.00  0.00    -0.003 C 
ATOM     19  C   UNL     1      48.147 -36.632  -5.365  1.00  0.00     0.004 C 
ENDBRANCH  17  18
ENDBRANCH  16  17
ENDBRANCH  15  16
ENDBRANCH  14  15
ENDBRANCH  13  14
ENDBRANCH  12  13
ENDBRANCH   1  12
TORSDOF 14
ENDMDL
MODEL 3
REMARK VINA RESULT:    -4.387      2.850      5.972
REMARK INTER + INTRA:         -10.127
REMARK INTER:                  -7.638
REMARK INTRA:                  -2.489
REMARK UNBOUND:                -2.149
REMARK SMILES CCCCCCCCCCCCCC[C@@H](C)C(=O)[O-]
REMARK SMILES IDX 9 1 10 2 11 3 12 4 13 5 14 6 15 7 16 8 17 9 18 10 19 11 8 12
REMARK SMILES IDX 7 13 6 14 5 15 4 16 3 17 2 18 1 19
REMARK H PARENT
REMARK Flexibility Score: inf
ROOT
ATOM      1  C   UNL     1      44.270 -39.387  -3.411  1.00  0.00     0.000 C 
ENDROOT
BRANCH   1   2
ATOM      2  C   UNL     1      45.502 -40.303  -3.501  1.00  0.00     0.000 C 
BRANCH   2   3
ATOM      3  C   UNL     1      46.475 -40.119  -2.322  1.00  0.00     0.000 C 
BRANCH   3   4
ATOM      4  C   UNL     1      47.959 -40.416  -2.629  1.00  0.00     0.000 C 
BRANCH   4   5
ATOM      5  C   UNL     1      48.278 -40.701  -4.111  1.00  0.00     0.001 C 
BRANCH   5   6
ATOM      6  C   UNL     1      49.737 -40.379  -4.509  1.00  0.00     0.009 C 
BRANCH   6   7
ATOM      7  C   UNL     1      50.692 -40.244  -3.301  1.00  0.00     0.032 C 
ATOM      8  C   UNL     1      51.320 -41.584  -2.901  1.00  0.00     0.014 C 
BRANCH   7   9
ATOM      9  C   UNL     1      51.773 -39.245  -3.609  1.00  0.00     0.044 C 
ATOM     10  O   UNL     1      51.625 -38.407  -4.539  1.00  0.00    -0.550 OA
ATOM     11  O   UNL     1      52.948 -39.243  -2.868  1.00  0.00    -0.550 OA
ENDBRANCH   7   9
ENDBRANCH   6   7
ENDBRANCH   5   6
ENDBRANCH   4   5
ENDBRANCH   3   4
ENDBRANCH   2   3
ENDBRANCH   1   2
BRANCH   1  12
ATOM     12  C   UNL     1      44.148 -38.444  -4.619  1.00  0.00     0.000 C 
BRANCH  12  13
ATOM     13  C   UNL     1      45.455 -38.339  -5.424  1.00  0.00    -0.000 C 
BRANCH  13  14
ATOM     14  C   UNL     1      46.128 -36.964  -5.275  1.00  0.00    -0.000 C 
BRANCH  14  15
ATOM     15  C   UNL     1      46.855 -36.807  -3.930  1.00  0.00    -0.000 C 
BRANCH  15  16
ATOM     16  C   UNL     1      48.383 -36.940  -4.059  1.00  0.00    -0.000 C 
BRANCH  16  17
ATOM     17  C   UNL     1      49.128 -36.837  -2.711  1.00  0.00    -0.000 C 
BRANCH  17  18
ATOM     18  C   UNL     1      48.165 -36.817  -1.515  1.00  0.00    -0.003 C 
ATOM     19  C   UNL     1      48.780 -36.085  -0.325  1.00  0.00     0.004 C 
ENDBRANCH  17  18
ENDBRANCH  16  17
ENDBRANCH  15  16
ENDBRANCH  14  15
ENDBRANCH  13  14
ENDBRANCH  12  13
ENDBRANCH   1  12
TORSDOF 14
ENDMDL
MODEL 4
REMARK VINA RESULT:    -4.376      2.765      5.565
REMARK INTER + INTRA:         -10.106
REMARK INTER:                  -7.549
REMARK INTRA:                  -2.557
REMARK UNBOUND:                -2.149
REMARK SMILES CCCCCCCCCCCCCC[C@@H](C)C(=O)[O-]
REMARK SMILES IDX 9 1 10 2 11 3 12 4 13 5 14 6 15 7 16 8 17 9 18 10 19 11 8 12
REMARK SMILES IDX 7 13 6 14 5 15 4 16 3 17 2 18 1 19
REMARK H PARENT
REMARK Flexibility Score: inf
ROOT
ATOM      1  C   UNL     1      46.455 -38.487  -5.069  1.00  0.00     0.000 C 
ENDROOT
BRANCH   1   2
ATOM      2  C   UNL     1      46.875 -37.065  -4.663  1.00  0.00     0.000 C 
BRANCH   2   3
ATOM      3  C   UNL     1      48.399 -36.907  -4.514  1.00  0.00     0.000 C 
BRANCH   3   4
ATOM      4  C   UNL     1      49.216 -38.215  -4.595  1.00  0.00     0.000 C 
BRANCH   4   5
ATOM      5  C   UNL     1      50.312 -38.372  -3.522  1.00  0.00     0.001 C 
BRANCH   5   6
ATOM      6  C   UNL     1      51.320 -39.508  -3.819  1.00  0.00     0.009 C 
BRANCH   6   7
ATOM      7  C   UNL     1      51.263 -40.666  -2.797  1.00  0.00     0.032 C 
ATOM      8  C   UNL     1      50.659 -41.943  -3.394  1.00  0.00     0.014 C 
BRANCH   7   9
ATOM      9  C   UNL     1      52.641 -40.953  -2.267  1.00  0.00     0.044 C 
ATOM     10  O   UNL     1      52.954 -42.115  -1.893  1.00  0.00    -0.550 OA
ATOM     11  O   UNL     1      53.580 -39.933  -2.185  1.00  0.00    -0.550 OA
ENDBRANCH   7   9
ENDBRANCH   6   7
ENDBRANCH   5   6
ENDBRANCH   4   5
ENDBRANCH   3   4
ENDBRANCH   2   3
ENDBRANCH   1   2
BRANCH   1  12
ATOM     12  C   UNL     1      45.165 -38.943  -4.368  1.00  0.00     0.000 C 
BRANCH  12  13
ATOM     13  C   UNL     1      45.420 -40.023  -3.301  1.00  0.00    -0.000 C 
BRANCH  13  14
ATOM     14  C   UNL     1      46.846 -40.593  -3.371  1.00  0.00    -0.000 C 
BRANCH  14  15
ATOM     15  C   UNL     1      47.600 -40.462  -2.038  1.00  0.00    -0.000 C 
BRANCH  15  16
ATOM     16  C   UNL     1      46.951 -39.444  -1.084  1.00  0.00    -0.000 C 
BRANCH  16  17
ATOM     17  C   UNL     1      47.657 -38.072  -1.072  1.00  0.00    -0.000 C 
BRANCH  17  18
ATOM     18  C   UNL     1      46.666 -36.910  -0.911  1.00  0.00    -0.003 C 
ATOM     19  C   UNL     1      46.169 -36.806   0.529  1.00  0.00     0.004 C 
ENDBRANCH  17  18
ENDBRANCH  16  17
ENDBRANCH  15  16
ENDBRANCH  14  15
ENDBRANCH  13  14
ENDBRANCH  12  13
ENDBRANCH   1  12
TORSDOF 14
ENDMDL
MODEL 5
REMARK VINA RESULT:    -4.365      1.903      4.304
REMARK INTER + INTRA:         -10.086
REMARK INTER:                  -7.681
REMARK INTRA:                  -2.405
REMARK UNBOUND:                -2.149
REMARK SMILES CCCCCCCCCCCCCC[C@@H](C)C(=O)[O-]
REMARK SMILES IDX 9 1 10 2 11 3 12 4 13 5 14 6 15 7 16 8 17 9 18 10 19 11 8 12
REMARK SMILES IDX 7 13 6 14 5 15 4 16 3 17 2 18 1 19
REMARK H PARENT
REMARK Flexibility Score: inf
ROOT
ATOM      1  C   UNL     1      51.304 -40.102  -3.021  1.00  0.00     0.000 C 
ENDROOT
BRANCH   1   2
ATOM      2  C   UNL     1      50.499 -41.190  -3.751  1.00  0.00     0.000 C 
BRANCH   2   3
ATOM      3  C   UNL     1      49.034 -41.271  -3.282  1.00  0.00     0.000 C 
BRANCH   3   4
ATOM      4  C   UNL     1      47.977 -40.819  -4.314  1.00  0.00     0.000 C 
BRANCH   4   5
ATOM      5  C   UNL     1      46.583 -40.509  -3.731  1.00  0.00     0.001 C 
BRANCH   5   6
ATOM      6  C   UNL     1      46.587 -40.250  -2.207  1.00  0.00     0.009 C 
BRANCH   6   7
ATOM      7  C   UNL     1      45.186 -39.941  -1.630  1.00  0.00     0.032 C 
ATOM      8  C   UNL     1      45.002 -40.500  -0.214  1.00  0.00     0.014 C 
BRANCH   7   9
ATOM      9  C   UNL     1      44.947 -38.456  -1.628  1.00  0.00     0.044 C 
ATOM     10  O   UNL     1      45.075 -37.789  -0.567  1.00  0.00    -0.550 OA
ATOM     11  O   UNL     1      44.579 -37.810  -2.801  1.00  0.00    -0.550 OA
ENDBRANCH   7   9
ENDBRANCH   6   7
ENDBRANCH   5   6
ENDBRANCH   4   5
ENDBRANCH   3   4
ENDBRANCH   2   3
ENDBRANCH   1   2
BRANCH   1  12
ATOM     12  C   UNL     1      51.830 -39.019  -3.976  1.00  0.00     0.000 C 
BRANCH  12  13
ATOM     13  C   UNL     1      50.954 -38.857  -5.231  1.00  0.00    -0.000 C 
BRANCH  13  14
ATOM     14  C   UNL     1      51.005 -37.430  -5.803  1.00  0.00    -0.000 C 
BRANCH  14  15
ATOM     15  C   UNL     1      49.822 -36.566  -5.338  1.00  0.00    -0.000 C 
BRANCH  15  16
ATOM     16  C   UNL     1      48.607 -37.404  -4.900  1.00  0.00    -0.000 C 
BRANCH  16  17
ATOM     17  C   UNL     1      48.011 -36.966  -3.545  1.00  0.00    -0.000 C 
BRANCH  17  18
ATOM     18  C   UNL     1      48.904 -37.366  -2.361  1.00  0.00    -0.003 C 
ATOM     19  C   UNL     1      49.497 -36.136  -1.680  1.00  0.00     0.004 C 
ENDBRANCH  17  18
ENDBRANCH  16  17
ENDBRANCH  15  16
ENDBRANCH  14  15
ENDBRANCH  13  14
ENDBRANCH  12  13
ENDBRANCH   1  12
TORSDOF 14
ENDMDL
MODEL 6
REMARK VINA RESULT:    -4.333      2.387      4.302
REMARK INTER + INTRA:         -10.029
REMARK INTER:                  -7.539
REMARK INTRA:                  -2.490
REMARK UNBOUND:                -2.149
REMARK SMILES CCCCCCCCCCCCCC[C@@H](C)C(=O)[O-]
REMARK SMILES IDX 9 1 10 2 11 3 12 4 13 5 14 6 15 7 16 8 17 9 18 10 19 11 8 12
REMARK SMILES IDX 7 13 6 14 5 15 4 16 3 17 2 18 1 19
REMARK H PARENT
REMARK Flexibility Score: inf
ROOT
ATOM      1  C   UNL     1      46.519 -40.018  -1.991  1.00  0.00     0.000 C 
ENDROOT
BRANCH   1   2
ATOM      2  C   UNL     1      45.503 -40.252  -3.120  1.00  0.00     0.000 C 
BRANCH   2   3
ATOM      3  C   UNL     1      44.987 -38.944  -3.747  1.00  0.00     0.000 C 
BRANCH   3   4
ATOM      4  C   UNL     1      45.548 -38.607  -5.146  1.00  0.00     0.000 C 
BRANCH   4   5
ATOM      5  C   UNL     1      46.232 -37.231  -5.265  1.00  0.00     0.001 C 
BRANCH   5   6
ATOM      6  C   UNL     1      46.912 -36.756  -3.960  1.00  0.00     0.009 C 
BRANCH   6   7
ATOM      7  C   UNL     1      48.452 -36.880  -3.985  1.00  0.00     0.032 C 
ATOM      8  C   UNL     1      49.048 -36.480  -5.341  1.00  0.00     0.014 C 
BRANCH   7   9
ATOM      9  C   UNL     1      49.055 -36.036  -2.895  1.00  0.00     0.044 C 
ATOM     10  O   UNL     1      49.826 -36.550  -2.041  1.00  0.00    -0.550 OA
ATOM     11  O   UNL     1      48.760 -34.681  -2.823  1.00  0.00    -0.550 OA
ENDBRANCH   7   9
ENDBRANCH   6   7
ENDBRANCH   5   6
ENDBRANCH   4   5
ENDBRANCH   3   4
ENDBRANCH   2   3
ENDBRANCH   1   2
BRANCH   1  12
ATOM     12  C   UNL     1      47.972 -40.216  -2.454  1.00  0.00     0.000 C 
BRANCH  12  13
ATOM     13  C   UNL     1      48.074 -41.051  -3.743  1.00  0.00    -0.000 C 
BRANCH  13  14
ATOM     14  C   UNL     1      48.749 -40.280  -4.890  1.00  0.00    -0.000 C 
BRANCH  14  15
ATOM     15  C   UNL     1      50.254 -40.575  -4.992  1.00  0.00    -0.000 C 
BRANCH  15  16
ATOM     16  C   UNL     1      51.125 -39.424  -4.461  1.00  0.00    -0.000 C 
BRANCH  16  17
ATOM     17  C   UNL     1      51.690 -39.677  -3.048  1.00  0.00    -0.000 C 
BRANCH  17  18
ATOM     18  C   UNL     1      51.742 -41.172  -2.703  1.00  0.00    -0.003 C 
ATOM     19  C   UNL     1      53.008 -41.513  -1.922  1.00  0.00     0.004 C 
ENDBRANCH  17  18
ENDBRANCH  16  17
ENDBRANCH  15  16
ENDBRANCH  14  15
ENDBRANCH  13  14
ENDBRANCH  12  13
ENDBRANCH   1  12
TORSDOF 14
ENDMDL
MODEL 7
REMARK VINA RESULT:    -4.331      2.898      6.501
REMARK INTER + INTRA:         -10.024
REMARK INTER:                  -7.520
REMARK INTRA:                  -2.504
REMARK UNBOUND:                -2.149
REMARK SMILES CCCCCCCCCCCCCC[C@@H](C)C(=O)[O-]
REMARK SMILES IDX 9 1 10 2 11 3 12 4 13 5 14 6 15 7 16 8 17 9 18 10 19 11 8 12
REMARK SMILES IDX 7 13 6 14 5 15 4 16 3 17 2 18 1 19
REMARK H PARENT
REMARK Flexibility Score: inf
ROOT
ATOM      1  C   UNL     1      46.236 -40.252  -2.669  1.00  0.00     0.000 C 
ENDROOT
BRANCH   1   2
ATOM      2  C   UNL     1      47.628 -39.604  -2.758  1.00  0.00     0.000 C 
BRANCH   2   3
ATOM      3  C   UNL     1      48.775 -40.624  -2.634  1.00  0.00     0.000 C 
BRANCH   3   4
ATOM      4  C   UNL     1      49.169 -41.347  -3.941  1.00  0.00     0.000 C 
BRANCH   4   5
ATOM      5  C   UNL     1      49.224 -40.452  -5.195  1.00  0.00     0.001 C 
BRANCH   5   6
ATOM      6  C   UNL     1      50.624 -39.856  -5.476  1.00  0.00     0.009 C 
BRANCH   6   7
ATOM      7  C   UNL     1      50.748 -38.365  -5.091  1.00  0.00     0.032 C 
ATOM      8  C   UNL     1      49.408 -37.624  -5.185  1.00  0.00     0.014 C 
BRANCH   7   9
ATOM      9  C   UNL     1      51.305 -38.237  -3.699  1.00  0.00     0.044 C 
ATOM     10  O   UNL     1      50.788 -37.436  -2.874  1.00  0.00    -0.550 OA
ATOM     11  O   UNL     1      52.398 -39.003  -3.316  1.00  0.00    -0.550 OA
ENDBRANCH   7   9
ENDBRANCH   6   7
ENDBRANCH   5   6
ENDBRANCH   4   5
ENDBRANCH   3   4
ENDBRANCH   2   3
ENDBRANCH   1   2
BRANCH   1  12
ATOM     12  C   UNL     1      45.268 -39.717  -3.736  1.00  0.00     0.000 C 
BRANCH  12  13
ATOM     13  C   UNL     1      45.996 -39.053  -4.918  1.00  0.00    -0.000 C 
BRANCH  13  14
ATOM     14  C   UNL     1      45.028 -38.356  -5.888  1.00  0.00    -0.000 C 
BRANCH  14  15
ATOM     15  C   UNL     1      44.582 -36.974  -5.384  1.00  0.00    -0.000 C 
BRANCH  15  16
ATOM     16  C   UNL     1      45.701 -35.921  -5.460  1.00  0.00    -0.000 C 
BRANCH  16  17
ATOM     17  C   UNL     1      45.882 -35.116  -4.157  1.00  0.00    -0.000 C 
BRANCH  17  18
ATOM     18  C   UNL     1      46.735 -35.866  -3.123  1.00  0.00    -0.003 C 
ATOM     19  C   UNL     1      45.870 -36.421  -1.995  1.00  0.00     0.004 C 
ENDBRANCH  17  18
ENDBRANCH  16  17
ENDBRANCH  15  16
ENDBRANCH  14  15
ENDBRANCH  13  14
ENDBRANCH  12  13
ENDBRANCH   1  12
TORSDOF 14
ENDMDL
MODEL 8
REMARK VINA RESULT:    -4.307     10.653     12.690
REMARK INTER + INTRA:          -9.980
REMARK INTER:                  -7.939
REMARK INTRA:                  -2.041
REMARK UNBOUND:                -2.149
REMARK SMILES CCCCCCCCCCCCCC[C@@H](C)C(=O)[O-]
REMARK SMILES IDX 9 1 10 2 11 3 12 4 13 5 14 6 15 7 16 8 17 9 18 10 19 11 8 12
REMARK SMILES IDX 7 13 6 14 5 15 4 16 3 17 2 18 1 19
REMARK H PARENT
REMARK Flexibility Score: inf
ROOT
ATOM      1  C   UNL     1      50.110 -40.468   7.868  1.00  0.00     0.000 C 
ENDROOT
BRANCH   1   2
ATOM      2  C   UNL     1      49.187 -41.025   8.964  1.00  0.00     0.000 C 
BRANCH   2   3
ATOM      3  C   UNL     1      49.454 -40.404  10.347  1.00  0.00     0.000 C 
BRANCH   3   4
ATOM      4  C   UNL     1      48.354 -39.460  10.879  1.00  0.00     0.000 C 
BRANCH   4   5
ATOM      5  C   UNL     1      46.977 -39.610  10.202  1.00  0.00     0.001 C 
BRANCH   5   6
ATOM      6  C   UNL     1      46.537 -38.365   9.397  1.00  0.00     0.009 C 
BRANCH   6   7
ATOM      7  C   UNL     1      46.682 -38.536   7.868  1.00  0.00     0.032 C 
ATOM      8  C   UNL     1      45.673 -39.539   7.294  1.00  0.00     0.014 C 
BRANCH   7   9
ATOM      9  C   UNL     1      46.524 -37.205   7.184  1.00  0.00     0.044 C 
ATOM     10  O   UNL     1      46.465 -37.135   5.927  1.00  0.00    -0.550 OA
ATOM     11  O   UNL     1      46.446 -36.042   7.938  1.00  0.00    -0.550 OA
ENDBRANCH   7   9
ENDBRANCH   6   7
ENDBRANCH   5   6
ENDBRANCH   4   5
ENDBRANCH   3   4
ENDBRANCH   2   3
ENDBRANCH   1   2
BRANCH   1  12
ATOM     12  C   UNL     1      50.069 -38.934   7.785  1.00  0.00     0.000 C 
BRANCH  12  13
ATOM     13  C   UNL     1      51.393 -38.280   8.221  1.00  0.00    -0.000 C 
BRANCH  13  14
ATOM     14  C   UNL     1      51.179 -37.124   9.211  1.00  0.00    -0.000 C 
BRANCH  14  15
ATOM     15  C   UNL     1      49.817 -36.435   9.027  1.00  0.00    -0.000 C 
BRANCH  15  16
ATOM     16  C   UNL     1      49.769 -35.032   9.656  1.00  0.00    -0.000 C 
BRANCH  16  17
ATOM     17  C   UNL     1      51.099 -34.601  10.309  1.00  0.00    -0.000 C 
BRANCH  17  18
ATOM     18  C   UNL     1      50.918 -33.412  11.265  1.00  0.00    -0.003 C 
ATOM     19  C   UNL     1      50.220 -33.843  12.552  1.00  0.00     0.004 C 
ENDBRANCH  17  18
ENDBRANCH  16  17
ENDBRANCH  15  16
ENDBRANCH  14  15
ENDBRANCH  13  14
ENDBRANCH  12  13
ENDBRANCH   1  12
TORSDOF 14
ENDMDL
MODEL 9
REMARK VINA RESULT:    -4.245      3.137      6.493
REMARK INTER + INTRA:          -9.868
REMARK INTER:                  -7.446
REMARK INTRA:                  -2.422
REMARK UNBOUND:                -2.149
REMARK SMILES CCCCCCCCCCCCCC[C@@H](C)C(=O)[O-]
REMARK SMILES IDX 9 1 10 2 11 3 12 4 13 5 14 6 15 7 16 8 17 9 18 10 19 11 8 12
REMARK SMILES IDX 7 13 6 14 5 15 4 16 3 17 2 18 1 19
REMARK H PARENT
REMARK Flexibility Score: inf
ROOT
ATOM      1  C   UNL     1      46.211 -40.258  -3.406  1.00  0.00     0.000 C 
ENDROOT
BRANCH   1   2
ATOM      2  C   UNL     1      46.865 -40.263  -2.014  1.00  0.00     0.000 C 
BRANCH   2   3
ATOM      3  C   UNL     1      47.907 -39.144  -1.835  1.00  0.00     0.000 C 
BRANCH   3   4
ATOM      4  C   UNL     1      47.844 -38.001  -2.873  1.00  0.00     0.000 C 
BRANCH   4   5
ATOM      5  C   UNL     1      49.131 -37.790  -3.695  1.00  0.00     0.001 C 
BRANCH   5   6
ATOM      6  C   UNL     1      49.394 -38.900  -4.740  1.00  0.00     0.009 C 
BRANCH   6   7
ATOM      7  C   UNL     1      50.710 -39.674  -4.501  1.00  0.00     0.032 C 
ATOM      8  C   UNL     1      51.733 -38.853  -3.705  1.00  0.00     0.014 C 
BRANCH   7   9
ATOM      9  C   UNL     1      50.426 -40.966  -3.786  1.00  0.00     0.044 C 
ATOM     10  O   UNL     1      49.424 -41.664  -4.100  1.00  0.00    -0.550 OA
ATOM     11  O   UNL     1      51.269 -41.398  -2.771  1.00  0.00    -0.550 OA
ENDBRANCH   7   9
ENDBRANCH   6   7
ENDBRANCH   5   6
ENDBRANCH   4   5
ENDBRANCH   3   4
ENDBRANCH   2   3
ENDBRANCH   1   2
BRANCH   1  12
ATOM     12  C   UNL     1      44.713 -39.917  -3.352  1.00  0.00     0.000 C 
BRANCH  12  13
ATOM     13  C   UNL     1      44.351 -38.691  -4.209  1.00  0.00    -0.000 C 
BRANCH  13  14
ATOM     14  C   UNL     1      45.215 -38.586  -5.477  1.00  0.00    -0.000 C 
BRANCH  14  15
ATOM     15  C   UNL     1      44.564 -37.715  -6.563  1.00  0.00    -0.000 C 
BRANCH  15  16
ATOM     16  C   UNL     1      45.424 -36.499  -6.949  1.00  0.00    -0.000 C 
BRANCH  16  17
ATOM     17  C   UNL     1      46.621 -36.264  -6.003  1.00  0.00    -0.000 C 
BRANCH  17  18
ATOM     18  C   UNL     1      46.488 -34.953  -5.214  1.00  0.00    -0.003 C 
ATOM     19  C   UNL     1      45.540 -35.117  -4.029  1.00  0.00     0.004 C 
ENDBRANCH  17  18
ENDBRANCH  16  17
ENDBRANCH  15  16
ENDBRANCH  14  15
ENDBRANCH  13  14
ENDBRANCH  12  13
ENDBRANCH   1  12
TORSDOF 14
ENDMDL
