MODEL 1
REMARK VINA RESULT:    -4.571      0.000      0.000
REMARK INTER + INTRA:          -7.593
REMARK INTER:                  -6.576
REMARK INTRA:                  -1.017
REMARK UNBOUND:                -1.017
REMARK SMILES CC(C)=CCCC(C)=CCCC(C)=CCO
REMARK SMILES IDX 10 1 9 2 7 3 8 4 6 5 5 6 4 7 1 8 2 9 3 10 11 11 12 12 14 13
REMARK SMILES IDX 13 14 15 15 16 16
REMARK H PARENT 16 17
REMARK Flexibility Score: inf
ROOT
ATOM      1  C   UNL     1       2.830  -5.442  26.807  1.00  0.00     0.032 C 
ENDROOT
BRANCH   1   2
ATOM      2  C   UNL     1       3.120  -6.527  27.812  1.00  0.00    -0.028 C 
ATOM      3  C   UNL     1       2.919  -7.847  27.594  1.00  0.00    -0.077 C 
ATOM      4  C   UNL     1       2.441  -8.370  26.259  1.00  0.00     0.039 C 
BRANCH   3   5
ATOM      5  C   UNL     1       3.203  -8.826  28.711  1.00  0.00     0.034 C 
BRANCH   5   6
ATOM      6  C   UNL     1       4.133  -9.946  28.228  1.00  0.00     0.032 C 
BRANCH   6   7
ATOM      7  C   UNL     1       5.478  -9.853  28.904  1.00  0.00    -0.028 C 
ATOM      8  C   UNL     1       7.836  -9.212  29.170  1.00  0.00     0.039 C 
ATOM      9  C   UNL     1       6.540  -9.188  28.399  1.00  0.00    -0.080 C 
ATOM     10  C   UNL     1       6.459  -8.414  27.104  1.00  0.00     0.039 C 
ENDBRANCH   6   7
ENDBRANCH   5   6
ENDBRANCH   3   5
ENDBRANCH   1   2
BRANCH   1  11
ATOM     11  C   UNL     1       3.892  -4.342  26.879  1.00  0.00     0.034 C 
BRANCH  11  12
ATOM     12  C   UNL     1       3.314  -3.080  27.490  1.00  0.00    -0.075 C 
ATOM     13  C   UNL     1       3.578  -2.690  28.757  1.00  0.00    -0.000 C 
ATOM     14  C   UNL     1       2.463  -2.185  26.625  1.00  0.00     0.039 C 
BRANCH  13  15
ATOM     15  C   UNL     1       4.422  -3.470  29.727  1.00  0.00     0.183 C 
BRANCH  15  16
ATOM     16  O   UNL     1       3.796  -3.503  30.979  1.00  0.00    -0.392 OA
ATOM     17  H   UNL     1       3.845  -4.444  31.287  1.00  0.00     0.210 HD
ENDBRANCH  15  16
ENDBRANCH  13  15
ENDBRANCH  11  12
ENDBRANCH   1  11
TORSDOF 8
ENDMDL
MODEL 2
REMARK VINA RESULT:    -4.429      3.942      6.355
REMARK INTER + INTRA:          -7.387
REMARK INTER:                  -6.170
REMARK INTRA:                  -1.217
REMARK UNBOUND:                -1.017
REMARK SMILES CC(C)=CCCC(C)=CCCC(C)=CCO
REMARK SMILES IDX 10 1 9 2 7 3 8 4 6 5 5 6 4 7 1 8 2 9 3 10 11 11 12 12 14 13
REMARK SMILES IDX 13 14 15 15 16 16
REMARK H PARENT 16 17
REMARK Flexibility Score: inf
ROOT
ATOM      1  C   UNL     1       6.266  -7.614  27.869  1.00  0.00     0.032 C 
ENDROOT
BRANCH   1   2
ATOM      2  C   UNL     1       7.537  -7.682  27.063  1.00  0.00    -0.028 C 
ATOM      3  C   UNL     1       8.652  -8.346  27.446  1.00  0.00    -0.077 C 
ATOM      4  C   UNL     1       8.696  -9.162  28.717  1.00  0.00     0.039 C 
BRANCH   3   5
ATOM      5  C   UNL     1       9.879  -8.289  26.564  1.00  0.00     0.034 C 
BRANCH   5   6
ATOM      6  C   UNL     1      10.376  -6.845  26.417  1.00  0.00     0.032 C 
BRANCH   6   7
ATOM      7  C   UNL     1      10.984  -6.356  27.707  1.00  0.00    -0.028 C 
ATOM      8  C   UNL     1      11.255  -4.903  29.672  1.00  0.00     0.039 C 
ATOM      9  C   UNL     1      10.523  -5.302  28.416  1.00  0.00    -0.080 C 
ATOM     10  C   UNL     1       9.292  -4.532  27.996  1.00  0.00     0.039 C 
ENDBRANCH   6   7
ENDBRANCH   5   6
ENDBRANCH   3   5
ENDBRANCH   1   2
BRANCH   1  11
ATOM     11  C   UNL     1       5.105  -8.251  27.099  1.00  0.00     0.034 C 
BRANCH  11  12
ATOM     12  C   UNL     1       4.385  -9.268  27.963  1.00  0.00    -0.075 C 
ATOM     13  C   UNL     1       3.161  -9.754  27.659  1.00  0.00    -0.000 C 
ATOM     14  C   UNL     1       5.094  -9.814  29.176  1.00  0.00     0.039 C 
BRANCH  13  15
ATOM     15  C   UNL     1       2.343  -9.317  26.474  1.00  0.00     0.183 C 
BRANCH  15  16
ATOM     16  O   UNL     1       1.101  -9.963  26.491  1.00  0.00    -0.392 OA
ATOM     17  H   UNL     1       0.586  -9.590  25.731  1.00  0.00     0.210 HD
ENDBRANCH  15  16
ENDBRANCH  13  15
ENDBRANCH  11  12
ENDBRANCH   1  11
TORSDOF 8
ENDMDL
MODEL 3
REMARK VINA RESULT:    -4.306      2.333      5.968
REMARK INTER + INTRA:          -7.211
REMARK INTER:                  -5.876
REMARK INTRA:                  -1.335
REMARK UNBOUND:                -1.017
REMARK SMILES CC(C)=CCCC(C)=CCCC(C)=CCO
REMARK SMILES IDX 10 1 9 2 7 3 8 4 6 5 5 6 4 7 1 8 2 9 3 10 11 11 12 12 14 13
REMARK SMILES IDX 13 14 15 15 16 16
REMARK H PARENT 16 17
REMARK Flexibility Score: inf
ROOT
ATOM      1  C   UNL     1       5.392  -8.160  26.332  1.00  0.00     0.032 C 
ENDROOT
BRANCH   1   2
ATOM      2  C   UNL     1       4.593  -6.898  26.128  1.00  0.00    -0.028 C 
ATOM      3  C   UNL     1       3.483  -6.573  26.829  1.00  0.00    -0.077 C 
ATOM      4  C   UNL     1       2.974  -7.436  27.961  1.00  0.00     0.039 C 
BRANCH   3   5
ATOM      5  C   UNL     1       2.746  -5.298  26.485  1.00  0.00     0.034 C 
BRANCH   5   6
ATOM      6  C   UNL     1       3.665  -4.080  26.637  1.00  0.00     0.032 C 
BRANCH   6   7
ATOM      7  C   UNL     1       3.485  -3.440  27.989  1.00  0.00    -0.028 C 
ATOM      8  C   UNL     1       3.968  -2.973  30.354  1.00  0.00     0.039 C 
ATOM      9  C   UNL     1       4.293  -3.657  29.050  1.00  0.00    -0.080 C 
ATOM     10  C   UNL     1       5.512  -4.545  28.959  1.00  0.00     0.039 C 
ENDBRANCH   6   7
ENDBRANCH   5   6
ENDBRANCH   3   5
ENDBRANCH   1   2
BRANCH   1  11
ATOM     11  C   UNL     1       6.645  -7.875  27.167  1.00  0.00     0.034 C 
BRANCH  11  12
ATOM     12  C   UNL     1       6.932  -9.029  28.109  1.00  0.00    -0.075 C 
ATOM     13  C   UNL     1       8.185  -9.405  28.447  1.00  0.00    -0.000 C 
ATOM     14  C   UNL     1       5.770  -9.742  28.751  1.00  0.00     0.039 C 
BRANCH  13  15
ATOM     15  C   UNL     1       9.438  -8.776  27.901  1.00  0.00     0.183 C 
BRANCH  15  16
ATOM     16  O   UNL     1      10.211  -8.269  28.953  1.00  0.00    -0.392 OA
ATOM     17  H   UNL     1      11.144  -8.550  28.769  1.00  0.00     0.210 HD
ENDBRANCH  15  16
ENDBRANCH  13  15
ENDBRANCH  11  12
ENDBRANCH   1  11
TORSDOF 8
ENDMDL
MODEL 4
REMARK VINA RESULT:    -4.170      2.146      4.865
REMARK INTER + INTRA:          -7.015
REMARK INTER:                  -5.755
REMARK INTRA:                  -1.260
REMARK UNBOUND:                -1.017
REMARK SMILES CC(C)=CCCC(C)=CCCC(C)=CCO
REMARK SMILES IDX 10 1 9 2 7 3 8 4 6 5 5 6 4 7 1 8 2 9 3 10 11 11 12 12 14 13
REMARK SMILES IDX 13 14 15 15 16 16
REMARK H PARENT 16 17
REMARK Flexibility Score: inf
ROOT
ATOM      1  C   UNL     1       5.227  -9.353  28.610  1.00  0.00     0.032 C 
ENDROOT
BRANCH   1   2
ATOM      2  C   UNL     1       6.709  -9.622  28.573  1.00  0.00    -0.028 C 
ATOM      3  C   UNL     1       7.653  -8.775  29.043  1.00  0.00    -0.077 C 
ATOM      4  C   UNL     1       7.290  -7.481  29.734  1.00  0.00     0.039 C 
BRANCH   3   5
ATOM      5  C   UNL     1       9.112  -9.147  28.895  1.00  0.00     0.034 C 
BRANCH   5   6
ATOM      6  C   UNL     1       9.521  -9.162  27.417  1.00  0.00     0.032 C 
BRANCH   6   7
ATOM      7  C   UNL     1      10.019  -7.806  26.986  1.00  0.00    -0.028 C 
ATOM      8  C   UNL     1       9.934  -5.612  25.880  1.00  0.00     0.039 C 
ATOM      9  C   UNL     1       9.292  -6.918  26.272  1.00  0.00    -0.080 C 
ATOM     10  C   UNL     1       7.860  -7.192  25.875  1.00  0.00     0.039 C 
ENDBRANCH   6   7
ENDBRANCH   5   6
ENDBRANCH   3   5
ENDBRANCH   1   2
BRANCH   1  11
ATOM     11  C   UNL     1       4.775  -8.643  27.330  1.00  0.00     0.034 C 
BRANCH  11  12
ATOM     12  C   UNL     1       3.366  -8.104  27.487  1.00  0.00    -0.075 C 
ATOM     13  C   UNL     1       3.101  -6.796  27.700  1.00  0.00    -0.000 C 
ATOM     14  C   UNL     1       2.209  -9.056  27.328  1.00  0.00     0.039 C 
BRANCH  13  15
ATOM     15  C   UNL     1       4.150  -5.731  27.862  1.00  0.00     0.183 C 
BRANCH  15  16
ATOM     16  O   UNL     1       3.872  -4.959  28.996  1.00  0.00    -0.392 OA
ATOM     17  H   UNL     1       3.855  -5.589  29.761  1.00  0.00     0.210 HD
ENDBRANCH  15  16
ENDBRANCH  13  15
ENDBRANCH  11  12
ENDBRANCH   1  11
TORSDOF 8
ENDMDL
MODEL 5
REMARK VINA RESULT:    -4.073      2.544      6.695
REMARK INTER + INTRA:          -6.875
REMARK INTER:                  -6.128
REMARK INTRA:                  -0.747
REMARK UNBOUND:                -1.017
REMARK SMILES CC(C)=CCCC(C)=CCCC(C)=CCO
REMARK SMILES IDX 10 1 9 2 7 3 8 4 6 5 5 6 4 7 1 8 2 9 3 10 11 11 12 12 14 13
REMARK SMILES IDX 13 14 15 15 16 16
REMARK H PARENT 16 17
REMARK Flexibility Score: inf
ROOT
ATOM      1  C   UNL     1       5.089  -8.307  26.222  1.00  0.00     0.032 C 
ENDROOT
BRANCH   1   2
ATOM      2  C   UNL     1       4.477  -6.972  25.883  1.00  0.00    -0.028 C 
ATOM      3  C   UNL     1       3.454  -6.405  26.561  1.00  0.00    -0.077 C 
ATOM      4  C   UNL     1       2.866  -7.044  27.798  1.00  0.00     0.039 C 
BRANCH   3   5
ATOM      5  C   UNL     1       2.899  -5.082  26.081  1.00  0.00     0.034 C 
BRANCH   5   6
ATOM      6  C   UNL     1       2.991  -4.021  27.184  1.00  0.00     0.032 C 
BRANCH   6   7
ATOM      7  C   UNL     1       2.180  -2.802  26.822  1.00  0.00    -0.028 C 
ATOM      8  C   UNL     1       1.771  -0.452  26.230  1.00  0.00     0.039 C 
ATOM      9  C   UNL     1       2.708  -1.591  26.540  1.00  0.00    -0.080 C 
ATOM     10  C   UNL     1       4.201  -1.356  26.509  1.00  0.00     0.039 C 
ENDBRANCH   6   7
ENDBRANCH   5   6
ENDBRANCH   3   5
ENDBRANCH   1   2
BRANCH   1  11
ATOM     11  C   UNL     1       6.404  -8.119  26.985  1.00  0.00     0.034 C 
BRANCH  11  12
ATOM     12  C   UNL     1       6.445  -9.016  28.208  1.00  0.00    -0.075 C 
ATOM     13  C   UNL     1       7.538  -9.136  28.993  1.00  0.00    -0.000 C 
ATOM     14  C   UNL     1       5.191  -9.751  28.604  1.00  0.00     0.039 C 
BRANCH  13  15
ATOM     15  C   UNL     1       8.851  -8.451  28.732  1.00  0.00     0.183 C 
BRANCH  15  16
ATOM     16  O   UNL     1       9.904  -9.354  28.925  1.00  0.00    -0.392 OA
ATOM     17  H   UNL     1       9.621  -9.952  29.663  1.00  0.00     0.210 HD
ENDBRANCH  15  16
ENDBRANCH  13  15
ENDBRANCH  11  12
ENDBRANCH   1  11
TORSDOF 8
ENDMDL
MODEL 6
REMARK VINA RESULT:    -3.998      2.376      4.230
REMARK INTER + INTRA:          -6.768
REMARK INTER:                  -5.427
REMARK INTRA:                  -1.341
REMARK UNBOUND:                -1.017
REMARK SMILES CC(C)=CCCC(C)=CCCC(C)=CCO
REMARK SMILES IDX 10 1 9 2 7 3 8 4 6 5 5 6 4 7 1 8 2 9 3 10 11 11 12 12 14 13
REMARK SMILES IDX 13 14 15 15 16 16
REMARK H PARENT 16 17
REMARK Flexibility Score: inf
ROOT
ATOM      1  C   UNL     1       7.027  -5.204  28.154  1.00  0.00     0.032 C 
ENDROOT
BRANCH   1   2
ATOM      2  C   UNL     1       8.201  -6.142  28.268  1.00  0.00    -0.028 C 
ATOM      3  C   UNL     1       8.506  -7.100  27.363  1.00  0.00    -0.077 C 
ATOM      4  C   UNL     1       7.717  -7.269  26.085  1.00  0.00     0.039 C 
BRANCH   3   5
ATOM      5  C   UNL     1       9.684  -8.010  27.628  1.00  0.00     0.034 C 
BRANCH   5   6
ATOM      6  C   UNL     1       9.210  -9.404  28.055  1.00  0.00     0.032 C 
BRANCH   6   7
ATOM      7  C   UNL     1       8.770  -9.401  29.497  1.00  0.00    -0.028 C 
ATOM      8  C   UNL     1       7.189  -9.424  31.380  1.00  0.00     0.039 C 
ATOM      9  C   UNL     1       7.483  -9.475  29.902  1.00  0.00    -0.080 C 
ATOM     10  C   UNL     1       6.343  -9.626  28.922  1.00  0.00     0.039 C 
ENDBRANCH   6   7
ENDBRANCH   5   6
ENDBRANCH   3   5
ENDBRANCH   1   2
BRANCH   1  11
ATOM     11  C   UNL     1       5.768  -5.838  28.754  1.00  0.00     0.034 C 
BRANCH  11  12
ATOM     12  C   UNL     1       4.523  -5.297  28.078  1.00  0.00    -0.075 C 
ATOM     13  C   UNL     1       3.465  -6.075  27.761  1.00  0.00    -0.000 C 
ATOM     14  C   UNL     1       4.433  -3.817  27.813  1.00  0.00     0.039 C 
BRANCH  13  15
ATOM     15  C   UNL     1       3.406  -7.562  27.982  1.00  0.00     0.183 C 
BRANCH  15  16
ATOM     16  O   UNL     1       2.182  -7.905  28.570  1.00  0.00    -0.392 OA
ATOM     17  H   UNL     1       1.487  -7.399  28.075  1.00  0.00     0.210 HD
ENDBRANCH  15  16
ENDBRANCH  13  15
ENDBRANCH  11  12
ENDBRANCH   1  11
TORSDOF 8
ENDMDL
MODEL 7
REMARK VINA RESULT:    -3.951      2.338      4.347
REMARK INTER + INTRA:          -6.701
REMARK INTER:                  -5.368
REMARK INTRA:                  -1.333
REMARK UNBOUND:                -1.017
REMARK SMILES CC(C)=CCCC(C)=CCCC(C)=CCO
REMARK SMILES IDX 10 1 9 2 7 3 8 4 6 5 5 6 4 7 1 8 2 9 3 10 11 11 12 12 14 13
REMARK SMILES IDX 13 14 15 15 16 16
REMARK H PARENT 16 17
REMARK Flexibility Score: inf
ROOT
ATOM      1  C   UNL     1       7.040  -4.993  27.694  1.00  0.00     0.032 C 
ENDROOT
BRANCH   1   2
ATOM      2  C   UNL     1       8.043  -6.055  27.326  1.00  0.00    -0.028 C 
ATOM      3  C   UNL     1       9.240  -6.221  27.935  1.00  0.00    -0.077 C 
ATOM      4  C   UNL     1       9.656  -5.378  29.118  1.00  0.00     0.039 C 
BRANCH   3   5
ATOM      5  C   UNL     1      10.176  -7.296  27.430  1.00  0.00     0.034 C 
BRANCH   5   6
ATOM      6  C   UNL     1       9.491  -8.668  27.451  1.00  0.00     0.032 C 
BRANCH   6   7
ATOM      7  C   UNL     1       9.191  -9.094  28.866  1.00  0.00    -0.028 C 
ATOM      8  C   UNL     1       7.801  -9.742  30.787  1.00  0.00     0.039 C 
ATOM      9  C   UNL     1       7.953  -9.360  29.337  1.00  0.00    -0.080 C 
ATOM     10  C   UNL     1       6.730  -9.303  28.450  1.00  0.00     0.039 C 
ENDBRANCH   6   7
ENDBRANCH   5   6
ENDBRANCH   3   5
ENDBRANCH   1   2
BRANCH   1  11
ATOM     11  C   UNL     1       6.091  -5.501  28.785  1.00  0.00     0.034 C 
BRANCH  11  12
ATOM     12  C   UNL     1       4.646  -5.346  28.351  1.00  0.00    -0.075 C 
ATOM     13  C   UNL     1       3.865  -4.320  28.756  1.00  0.00    -0.000 C 
ATOM     14  C   UNL     1       4.078  -6.338  27.370  1.00  0.00     0.039 C 
BRANCH  13  15
ATOM     15  C   UNL     1       4.301  -3.247  29.716  1.00  0.00     0.183 C 
BRANCH  15  16
ATOM     16  O   UNL     1       3.708  -3.461  30.966  1.00  0.00    -0.392 OA
ATOM     17  H   UNL     1       3.310  -4.368  30.931  1.00  0.00     0.210 HD
ENDBRANCH  15  16
ENDBRANCH  13  15
ENDBRANCH  11  12
ENDBRANCH   1  11
TORSDOF 8
ENDMDL
MODEL 8
REMARK VINA RESULT:    -3.951     12.935     14.261
REMARK INTER + INTRA:          -6.701
REMARK INTER:                  -4.869
REMARK INTRA:                  -1.832
REMARK UNBOUND:                -1.017
REMARK SMILES CC(C)=CCCC(C)=CCCC(C)=CCO
REMARK SMILES IDX 10 1 9 2 7 3 8 4 6 5 5 6 4 7 1 8 2 9 3 10 11 11 12 12 14 13
REMARK SMILES IDX 13 14 15 15 16 16
REMARK H PARENT 16 17
REMARK Flexibility Score: inf
ROOT
ATOM      1  C   UNL     1       3.863  -9.420  40.244  1.00  0.00     0.032 C 
ENDROOT
BRANCH   1   2
ATOM      2  C   UNL     1       3.640  -9.872  41.665  1.00  0.00    -0.028 C 
ATOM      3  C   UNL     1       2.893  -9.204  42.572  1.00  0.00    -0.077 C 
ATOM      4  C   UNL     1       2.135  -7.947  42.211  1.00  0.00     0.039 C 
BRANCH   3   5
ATOM      5  C   UNL     1       2.795  -9.743  43.982  1.00  0.00     0.034 C 
BRANCH   5   6
ATOM      6  C   UNL     1       4.191  -9.962  44.578  1.00  0.00     0.032 C 
BRANCH   6   7
ATOM      7  C   UNL     1       4.922  -8.651  44.723  1.00  0.00    -0.028 C 
ATOM      8  C   UNL     1       6.777  -7.057  44.479  1.00  0.00     0.039 C 
ATOM      9  C   UNL     1       6.154  -8.406  44.225  1.00  0.00    -0.080 C 
ATOM     10  C   UNL     1       6.908  -9.434  43.414  1.00  0.00     0.039 C 
ENDBRANCH   6   7
ENDBRANCH   5   6
ENDBRANCH   3   5
ENDBRANCH   1   2
BRANCH   1  11
ATOM     11  C   UNL     1       5.330  -9.039  40.023  1.00  0.00     0.034 C 
BRANCH  11  12
ATOM     12  C   UNL     1       5.466  -7.544  39.807  1.00  0.00    -0.075 C 
ATOM     13  C   UNL     1       5.484  -6.980  38.578  1.00  0.00    -0.000 C 
ATOM     14  C   UNL     1       5.512  -6.642  41.013  1.00  0.00     0.039 C 
BRANCH  13  15
ATOM     15  C   UNL     1       5.428  -7.750  37.288  1.00  0.00     0.183 C 
BRANCH  15  16
ATOM     16  O   UNL     1       4.094  -8.002  36.944  1.00  0.00    -0.392 OA
ATOM     17  H   UNL     1       4.032  -8.977  36.778  1.00  0.00     0.210 HD
ENDBRANCH  15  16
ENDBRANCH  13  15
ENDBRANCH  11  12
ENDBRANCH   1  11
TORSDOF 8
ENDMDL
MODEL 9
REMARK VINA RESULT:    -3.890      3.002      4.646
REMARK INTER + INTRA:          -6.613
REMARK INTER:                  -5.159
REMARK INTRA:                  -1.454
REMARK UNBOUND:                -1.017
REMARK SMILES CC(C)=CCCC(C)=CCCC(C)=CCO
REMARK SMILES IDX 10 1 9 2 7 3 8 4 6 5 5 6 4 7 1 8 2 9 3 10 11 11 12 12 14 13
REMARK SMILES IDX 13 14 15 15 16 16
REMARK H PARENT 16 17
REMARK Flexibility Score: inf
ROOT
ATOM      1  C   UNL     1       5.218  -5.716  28.284  1.00  0.00     0.032 C 
ENDROOT
BRANCH   1   2
ATOM      2  C   UNL     1       6.152  -6.890  28.431  1.00  0.00    -0.028 C 
ATOM      3  C   UNL     1       6.924  -7.383  27.436  1.00  0.00    -0.077 C 
ATOM      4  C   UNL     1       6.973  -6.737  26.071  1.00  0.00     0.039 C 
BRANCH   3   5
ATOM      5  C   UNL     1       7.779  -8.601  27.706  1.00  0.00     0.034 C 
BRANCH   5   6
ATOM      6  C   UNL     1       8.823  -8.303  28.789  1.00  0.00     0.032 C 
BRANCH   6   7
ATOM      7  C   UNL     1       9.964  -7.497  28.224  1.00  0.00    -0.028 C 
ATOM      8  C   UNL     1      11.357  -5.508  27.841  1.00  0.00     0.039 C 
ATOM      9  C   UNL     1      10.196  -6.197  28.511  1.00  0.00    -0.080 C 
ATOM     10  C   UNL     1       9.338  -5.429  29.490  1.00  0.00     0.039 C 
ENDBRANCH   6   7
ENDBRANCH   5   6
ENDBRANCH   3   5
ENDBRANCH   1   2
BRANCH   1  11
ATOM     11  C   UNL     1       3.781  -6.196  28.054  1.00  0.00     0.034 C 
BRANCH  11  12
ATOM     12  C   UNL     1       3.396  -6.047  26.595  1.00  0.00    -0.075 C 
ATOM     13  C   UNL     1       2.850  -7.053  25.875  1.00  0.00    -0.000 C 
ATOM     14  C   UNL     1       3.563  -4.701  25.939  1.00  0.00     0.039 C 
BRANCH  13  15
ATOM     15  C   UNL     1       2.609  -8.441  26.400  1.00  0.00     0.183 C 
BRANCH  15  16
ATOM     16  O   UNL     1       1.235  -8.652  26.567  1.00  0.00    -0.392 OA
ATOM     17  H   UNL     1       0.926  -9.114  25.746  1.00  0.00     0.210 HD
ENDBRANCH  15  16
ENDBRANCH  13  15
ENDBRANCH  11  12
ENDBRANCH   1  11
TORSDOF 8
ENDMDL
