MODEL 1
REMARK VINA RESULT:    -6.445      0.000      0.000
REMARK INTER + INTRA:          -7.949
REMARK INTER:                  -7.764
REMARK INTRA:                  -0.185
REMARK UNBOUND:                -0.185
REMARK SMILES Oc1cc(O)c2c(c1)O[C@H](c1ccc(O)c(O)c1)[C@H](O)C2
REMARK SMILES IDX 21 1 19 2 10 3 9 4 7 5 8 6 2 7 3 8 4 9 6 10 20 11 11 13
REMARK SMILES IDX 18 14 12 15 16 16 13 17 14 18 17 19 15 21 5 23 1 25
REMARK H PARENT 20 12 17 20 15 22 5 24 1 26
REMARK Flexibility Score: inf
ROOT
ATOM      1  C   UNL     1      25.783   4.492  -2.727  1.00  0.00     0.079 C 
ATOM      2  C   UNL     1      25.454   4.733  -1.239  1.00  0.00     0.164 C 
ATOM      3  C   UNL     1      23.969   4.424  -0.963  1.00  0.00     0.232 C 
ATOM      4  O   UNL     1      23.135   5.188  -1.833  1.00  0.00    -0.482 OA
ATOM      5  C   UNL     1      23.464   5.405  -3.176  1.00  0.00     0.131 A 
ATOM      6  C   UNL     1      22.508   5.971  -4.024  1.00  0.00     0.093 A 
ATOM      7  C   UNL     1      22.800   6.188  -5.371  1.00  0.00     0.122 A 
ATOM      8  C   UNL     1      24.054   5.829  -5.877  1.00  0.00     0.092 A 
ATOM      9  C   UNL     1      25.025   5.262  -5.043  1.00  0.00     0.126 A 
ATOM     10  C   UNL     1      24.748   5.077  -3.668  1.00  0.00     0.039 A 
ENDROOT
BRANCH   2  11
ATOM     11  O   UNL     1      25.794   6.045  -0.854  1.00  0.00    -0.389 OA
ATOM     12  H   UNL     1      26.784   6.118  -0.856  1.00  0.00     0.211 HD
ENDBRANCH   2  11
BRANCH   3  13
ATOM     13  C   UNL     1      23.608   4.682   0.483  1.00  0.00    -0.001 A 
ATOM     14  C   UNL     1      23.761   3.660   1.435  1.00  0.00     0.057 A 
ATOM     15  C   UNL     1      23.177   5.951   0.905  1.00  0.00     0.012 A 
ATOM     16  C   UNL     1      23.463   3.894   2.786  1.00  0.00     0.157 A 
ATOM     17  C   UNL     1      22.880   6.185   2.250  1.00  0.00     0.050 A 
ATOM     18  C   UNL     1      23.019   5.162   3.193  1.00  0.00     0.157 A 
BRANCH  16  19
ATOM     19  O   UNL     1      23.611   2.872   3.721  1.00  0.00    -0.504 OA
ATOM     20  H   UNL     1      22.821   2.511   4.244  1.00  0.00     0.293 HD
ENDBRANCH  16  19
BRANCH  18  21
ATOM     21  O   UNL     1      22.714   5.425   4.528  1.00  0.00    -0.504 OA
ATOM     22  H   UNL     1      21.880   5.062   4.972  1.00  0.00     0.293 HD
ENDBRANCH  18  21
ENDBRANCH   3  13
BRANCH   9  23
ATOM     23  O   UNL     1      26.243   4.885  -5.614  1.00  0.00    -0.507 OA
ATOM     24  H   UNL     1      26.439   4.957  -6.603  1.00  0.00     0.293 HD
ENDBRANCH   9  23
BRANCH   7  25
ATOM     25  O   UNL     1      21.835   6.756  -6.200  1.00  0.00    -0.508 OA
ATOM     26  H   UNL     1      21.070   6.206  -6.575  1.00  0.00     0.293 HD
ENDBRANCH   7  25
TORSDOF 6
ENDMDL
MODEL 2
REMARK VINA RESULT:    -6.360      0.644      1.483
REMARK INTER + INTRA:          -7.846
REMARK INTER:                  -7.620
REMARK INTRA:                  -0.226
REMARK UNBOUND:                -0.185
REMARK SMILES Oc1cc(O)c2c(c1)O[C@H](c1ccc(O)c(O)c1)[C@H](O)C2
REMARK SMILES IDX 21 1 19 2 10 3 9 4 7 5 8 6 2 7 3 8 4 9 6 10 20 11 11 13
REMARK SMILES IDX 18 14 12 15 16 16 13 17 14 18 17 19 15 21 5 23 1 25
REMARK H PARENT 20 12 17 20 15 22 5 24 1 26
REMARK Flexibility Score: inf
ROOT
ATOM      1  C   UNL     1      25.869   4.412  -2.921  1.00  0.00     0.079 C 
ATOM      2  C   UNL     1      25.551   4.612  -1.424  1.00  0.00     0.164 C 
ATOM      3  C   UNL     1      24.081   4.246  -1.136  1.00  0.00     0.232 C 
ATOM      4  O   UNL     1      23.210   4.998  -1.981  1.00  0.00    -0.482 OA
ATOM      5  C   UNL     1      23.514   5.253  -3.323  1.00  0.00     0.131 A 
ATOM      6  C   UNL     1      22.529   5.803  -4.148  1.00  0.00     0.093 A 
ATOM      7  C   UNL     1      22.796   6.057  -5.493  1.00  0.00     0.122 A 
ATOM      8  C   UNL     1      24.056   5.752  -6.022  1.00  0.00     0.092 A 
ATOM      9  C   UNL     1      25.056   5.202  -5.211  1.00  0.00     0.126 A 
ATOM     10  C   UNL     1      24.802   4.979  -3.836  1.00  0.00     0.039 A 
ENDROOT
BRANCH   2  11
ATOM     11  O   UNL     1      25.850   5.927  -1.016  1.00  0.00    -0.389 OA
ATOM     12  H   UNL     1      25.935   6.488  -1.830  1.00  0.00     0.211 HD
ENDBRANCH   2  11
BRANCH   3  13
ATOM     13  C   UNL     1      23.729   4.462   0.318  1.00  0.00    -0.001 A 
ATOM     14  C   UNL     1      23.178   5.687   0.731  1.00  0.00     0.057 A 
ATOM     15  C   UNL     1      23.886   3.431   1.261  1.00  0.00     0.012 A 
ATOM     16  C   UNL     1      22.814   5.890   2.070  1.00  0.00     0.157 A 
ATOM     17  C   UNL     1      23.525   3.633   2.595  1.00  0.00     0.050 A 
ATOM     18  C   UNL     1      22.992   4.858   3.006  1.00  0.00     0.157 A 
BRANCH  16  19
ATOM     19  O   UNL     1      22.276   7.112   2.471  1.00  0.00    -0.504 OA
ATOM     20  H   UNL     1      22.721   7.992   2.234  1.00  0.00     0.293 HD
ENDBRANCH  16  19
BRANCH  18  21
ATOM     21  O   UNL     1      22.641   5.031   4.345  1.00  0.00    -0.504 OA
ATOM     22  H   UNL     1      21.690   5.225   4.631  1.00  0.00     0.293 HD
ENDBRANCH  18  21
ENDBRANCH   3  13
BRANCH   9  23
ATOM     23  O   UNL     1      26.279   4.879  -5.804  1.00  0.00    -0.507 OA
ATOM     24  H   UNL     1      27.126   5.411  -5.657  1.00  0.00     0.293 HD
ENDBRANCH   9  23
BRANCH   7  25
ATOM     25  O   UNL     1      21.802   6.607  -6.299  1.00  0.00    -0.508 OA
ATOM     26  H   UNL     1      21.137   6.023  -6.793  1.00  0.00     0.293 HD
ENDBRANCH   7  25
TORSDOF 6
ENDMDL
MODEL 3
REMARK VINA RESULT:    -6.079      1.919      7.258
REMARK INTER + INTRA:          -7.508
REMARK INTER:                  -7.168
REMARK INTRA:                  -0.340
REMARK UNBOUND:                -0.185
REMARK SMILES Oc1cc(O)c2c(c1)O[C@H](c1ccc(O)c(O)c1)[C@H](O)C2
REMARK SMILES IDX 21 1 19 2 10 3 9 4 7 5 8 6 2 7 3 8 4 9 6 10 20 11 11 13
REMARK SMILES IDX 18 14 12 15 16 16 13 17 14 18 17 19 15 21 5 23 1 25
REMARK H PARENT 20 12 17 20 15 22 5 24 1 26
REMARK Flexibility Score: inf
ROOT
ATOM      1  C   UNL     1      22.907   5.261  -0.826  1.00  0.00     0.079 C 
ATOM      2  C   UNL     1      22.858   5.875  -2.242  1.00  0.00     0.164 C 
ATOM      3  C   UNL     1      23.379   4.862  -3.282  1.00  0.00     0.232 C 
ATOM      4  O   UNL     1      24.688   4.419  -2.927  1.00  0.00    -0.482 OA
ATOM      5  C   UNL     1      25.051   4.159  -1.601  1.00  0.00     0.131 A 
ATOM      6  C   UNL     1      26.270   3.525  -1.345  1.00  0.00     0.093 A 
ATOM      7  C   UNL     1      26.656   3.240  -0.035  1.00  0.00     0.122 A 
ATOM      8  C   UNL     1      25.813   3.583   1.028  1.00  0.00     0.092 A 
ATOM      9  C   UNL     1      24.588   4.219   0.791  1.00  0.00     0.126 A 
ATOM     10  C   UNL     1      24.212   4.547  -0.533  1.00  0.00     0.039 A 
ENDROOT
BRANCH   2  11
ATOM     11  O   UNL     1      23.574   7.087  -2.290  1.00  0.00    -0.389 OA
ATOM     12  H   UNL     1      24.473   6.928  -1.902  1.00  0.00     0.211 HD
ENDBRANCH   2  11
BRANCH   3  13
ATOM     13  C   UNL     1      23.373   5.446  -4.676  1.00  0.00    -0.001 A 
ATOM     14  C   UNL     1      22.154   5.635  -5.350  1.00  0.00     0.057 A 
ATOM     15  C   UNL     1      24.566   5.864  -5.291  1.00  0.00     0.012 A 
ATOM     16  C   UNL     1      22.129   6.208  -6.631  1.00  0.00     0.157 A 
ATOM     17  C   UNL     1      24.542   6.434  -6.566  1.00  0.00     0.050 A 
ATOM     18  C   UNL     1      23.330   6.606  -7.241  1.00  0.00     0.157 A 
BRANCH  16  19
ATOM     19  O   UNL     1      20.917   6.384  -7.294  1.00  0.00    -0.504 OA
ATOM     20  H   UNL     1      20.039   6.082  -6.887  1.00  0.00     0.293 HD
ENDBRANCH  16  19
BRANCH  18  21
ATOM     21  O   UNL     1      23.338   7.178  -8.513  1.00  0.00    -0.504 OA
ATOM     22  H   UNL     1      24.187   7.518  -8.945  1.00  0.00     0.293 HD
ENDBRANCH  18  21
ENDBRANCH   3  13
BRANCH   9  23
ATOM     23  O   UNL     1      23.770   4.499   1.889  1.00  0.00    -0.507 OA
ATOM     24  H   UNL     1      23.306   5.386   2.024  1.00  0.00     0.293 HD
ENDBRANCH   9  23
BRANCH   7  25
ATOM     25  O   UNL     1      27.875   2.609   0.200  1.00  0.00    -0.508 OA
ATOM     26  H   UNL     1      28.718   3.140   0.390  1.00  0.00     0.293 HD
ENDBRANCH   7  25
TORSDOF 6
ENDMDL
MODEL 4
REMARK VINA RESULT:    -6.066      3.920      9.238
REMARK INTER + INTRA:          -7.492
REMARK INTER:                  -7.173
REMARK INTRA:                  -0.320
REMARK UNBOUND:                -0.185
REMARK SMILES Oc1cc(O)c2c(c1)O[C@H](c1ccc(O)c(O)c1)[C@H](O)C2
REMARK SMILES IDX 21 1 19 2 10 3 9 4 7 5 8 6 2 7 3 8 4 9 6 10 20 11 11 13
REMARK SMILES IDX 18 14 12 15 16 16 13 17 14 18 17 19 15 21 5 23 1 25
REMARK H PARENT 20 12 17 20 15 22 5 24 1 26
REMARK Flexibility Score: inf
ROOT
ATOM      1  C   UNL     1      23.352   6.421   6.352  1.00  0.00     0.079 C 
ATOM      2  C   UNL     1      23.352   6.048   4.855  1.00  0.00     0.164 C 
ATOM      3  C   UNL     1      24.117   4.728   4.633  1.00  0.00     0.232 C 
ATOM      4  O   UNL     1      25.436   4.826   5.168  1.00  0.00    -0.482 OA
ATOM      5  C   UNL     1      25.702   5.478   6.378  1.00  0.00     0.131 A 
ATOM      6  C   UNL     1      26.970   5.351   6.951  1.00  0.00     0.093 A 
ATOM      7  C   UNL     1      27.262   5.978   8.163  1.00  0.00     0.122 A 
ATOM      8  C   UNL     1      26.276   6.731   8.812  1.00  0.00     0.092 A 
ATOM      9  C   UNL     1      25.000   6.870   8.252  1.00  0.00     0.126 A 
ATOM     10  C   UNL     1      24.712   6.269   7.004  1.00  0.00     0.039 A 
ENDROOT
BRANCH   2  11
ATOM     11  O   UNL     1      23.881   7.095   4.075  1.00  0.00    -0.389 OA
ATOM     12  H   UNL     1      24.404   7.689   4.674  1.00  0.00     0.211 HD
ENDBRANCH   2  11
BRANCH   3  13
ATOM     13  C   UNL     1      24.162   4.352   3.169  1.00  0.00    -0.001 A 
ATOM     14  C   UNL     1      23.018   3.828   2.546  1.00  0.00     0.057 A 
ATOM     15  C   UNL     1      25.317   4.577   2.400  1.00  0.00     0.012 A 
ATOM     16  C   UNL     1      23.033   3.506   1.180  1.00  0.00     0.157 A 
ATOM     17  C   UNL     1      25.334   4.257   1.041  1.00  0.00     0.050 A 
ATOM     18  C   UNL     1      24.199   3.721   0.426  1.00  0.00     0.157 A 
BRANCH  16  19
ATOM     19  O   UNL     1      21.895   2.979   0.573  1.00  0.00    -0.504 OA
ATOM     20  H   UNL     1      21.651   1.999   0.662  1.00  0.00     0.293 HD
ENDBRANCH  16  19
BRANCH  18  21
ATOM     21  O   UNL     1      24.245   3.411  -0.933  1.00  0.00    -0.504 OA
ATOM     22  H   UNL     1      24.010   4.087  -1.648  1.00  0.00     0.293 HD
ENDBRANCH  18  21
ENDBRANCH   3  13
BRANCH   9  23
ATOM     23  O   UNL     1      24.046   7.597   8.967  1.00  0.00    -0.507 OA
ATOM     24  H   UNL     1      24.276   8.212   9.736  1.00  0.00     0.293 HD
ENDBRANCH   9  23
BRANCH   7  25
ATOM     25  O   UNL     1      28.532   5.842   8.718  1.00  0.00    -0.508 OA
ATOM     26  H   UNL     1      29.088   5.007   8.570  1.00  0.00     0.293 HD
ENDBRANCH   7  25
TORSDOF 6
ENDMDL
MODEL 5
REMARK VINA RESULT:    -5.986      1.496      6.944
REMARK INTER + INTRA:          -7.396
REMARK INTER:                  -7.070
REMARK INTRA:                  -0.326
REMARK UNBOUND:                -0.185
REMARK SMILES Oc1cc(O)c2c(c1)O[C@H](c1ccc(O)c(O)c1)[C@H](O)C2
REMARK SMILES IDX 21 1 19 2 10 3 9 4 7 5 8 6 2 7 3 8 4 9 6 10 20 11 11 13
REMARK SMILES IDX 18 14 12 15 16 16 13 17 14 18 17 19 15 21 5 23 1 25
REMARK H PARENT 20 12 17 20 15 22 5 24 1 26
REMARK Flexibility Score: inf
ROOT
ATOM      1  C   UNL     1      25.387   3.805  -0.344  1.00  0.00     0.079 C 
ATOM      2  C   UNL     1      25.212   3.992  -1.866  1.00  0.00     0.164 C 
ATOM      3  C   UNL     1      25.237   5.490  -2.228  1.00  0.00     0.232 C 
ATOM      4  O   UNL     1      24.250   6.196  -1.477  1.00  0.00    -0.482 OA
ATOM      5  C   UNL     1      23.991   5.907  -0.132  1.00  0.00     0.131 A 
ATOM      6  C   UNL     1      23.174   6.772   0.601  1.00  0.00     0.093 A 
ATOM      7  C   UNL     1      22.907   6.519   1.947  1.00  0.00     0.122 A 
ATOM      8  C   UNL     1      23.467   5.397   2.568  1.00  0.00     0.092 A 
ATOM      9  C   UNL     1      24.287   4.518   1.849  1.00  0.00     0.126 A 
ATOM     10  C   UNL     1      24.528   4.749   0.474  1.00  0.00     0.039 A 
ENDROOT
BRANCH   2  11
ATOM     11  O   UNL     1      24.033   3.366  -2.317  1.00  0.00    -0.389 OA
ATOM     12  H   UNL     1      24.285   2.694  -3.002  1.00  0.00     0.211 HD
ENDBRANCH   2  11
BRANCH   3  13
ATOM     13  C   UNL     1      25.035   5.707  -3.710  1.00  0.00    -0.001 A 
ATOM     14  C   UNL     1      25.811   4.988  -4.635  1.00  0.00     0.057 A 
ATOM     15  C   UNL     1      24.036   6.575  -4.185  1.00  0.00     0.012 A 
ATOM     16  C   UNL     1      25.611   5.152  -6.013  1.00  0.00     0.157 A 
ATOM     17  C   UNL     1      23.837   6.740  -5.557  1.00  0.00     0.050 A 
ATOM     18  C   UNL     1      24.621   6.034  -6.475  1.00  0.00     0.157 A 
BRANCH  16  19
ATOM     19  O   UNL     1      26.391   4.440  -6.922  1.00  0.00    -0.504 OA
ATOM     20  H   UNL     1      26.067   3.574  -7.337  1.00  0.00     0.293 HD
ENDBRANCH  16  19
BRANCH  18  21
ATOM     21  O   UNL     1      24.400   6.220  -7.840  1.00  0.00    -0.504 OA
ATOM     22  H   UNL     1      23.535   6.604  -8.197  1.00  0.00     0.293 HD
ENDBRANCH  18  21
ENDBRANCH   3  13
BRANCH   9  23
ATOM     23  O   UNL     1      24.852   3.439   2.533  1.00  0.00    -0.507 OA
ATOM     24  H   UNL     1      24.420   2.527   2.587  1.00  0.00     0.293 HD
ENDBRANCH   9  23
BRANCH   7  25
ATOM     25  O   UNL     1      22.089   7.391   2.661  1.00  0.00    -0.508 OA
ATOM     26  H   UNL     1      22.402   8.321   2.917  1.00  0.00     0.293 HD
ENDBRANCH   7  25
TORSDOF 6
ENDMDL
MODEL 6
REMARK VINA RESULT:    -5.981      1.926      2.780
REMARK INTER + INTRA:          -7.389
REMARK INTER:                  -7.131
REMARK INTRA:                  -0.258
REMARK UNBOUND:                -0.185
REMARK SMILES Oc1cc(O)c2c(c1)O[C@H](c1ccc(O)c(O)c1)[C@H](O)C2
REMARK SMILES IDX 21 1 19 2 10 3 9 4 7 5 8 6 2 7 3 8 4 9 6 10 20 11 11 13
REMARK SMILES IDX 18 14 12 15 16 16 13 17 14 18 17 19 15 21 5 23 1 25
REMARK H PARENT 20 12 17 20 15 22 5 24 1 26
REMARK Flexibility Score: inf
ROOT
ATOM      1  C   UNL     1      25.232   6.639  -4.821  1.00  0.00     0.079 C 
ATOM      2  C   UNL     1      25.167   6.200  -3.342  1.00  0.00     0.164 C 
ATOM      3  C   UNL     1      24.525   4.803  -3.226  1.00  0.00     0.232 C 
ATOM      4  O   UNL     1      23.242   4.796  -3.851  1.00  0.00    -0.482 OA
ATOM      5  C   UNL     1      22.995   5.473  -5.051  1.00  0.00     0.131 A 
ATOM      6  C   UNL     1      21.788   5.249  -5.718  1.00  0.00     0.093 A 
ATOM      7  C   UNL     1      21.517   5.898  -6.923  1.00  0.00     0.122 A 
ATOM      8  C   UNL     1      22.464   6.772  -7.470  1.00  0.00     0.092 A 
ATOM      9  C   UNL     1      23.679   7.009  -6.816  1.00  0.00     0.126 A 
ATOM     10  C   UNL     1      23.940   6.384  -5.573  1.00  0.00     0.039 A 
ENDROOT
BRANCH   2  11
ATOM     11  O   UNL     1      24.484   7.155  -2.564  1.00  0.00    -0.389 OA
ATOM     12  H   UNL     1      25.044   7.973  -2.520  1.00  0.00     0.211 HD
ENDBRANCH   2  11
BRANCH   3  13
ATOM     13  C   UNL     1      24.419   4.359  -1.785  1.00  0.00    -0.001 A 
ATOM     14  C   UNL     1      25.532   3.790  -1.144  1.00  0.00     0.057 A 
ATOM     15  C   UNL     1      23.238   4.564  -1.050  1.00  0.00     0.012 A 
ATOM     16  C   UNL     1      25.460   3.405   0.203  1.00  0.00     0.157 A 
ATOM     17  C   UNL     1      23.165   4.180   0.291  1.00  0.00     0.050 A 
ATOM     18  C   UNL     1      24.269   3.599   0.921  1.00  0.00     0.157 A 
BRANCH  16  19
ATOM     19  O   UNL     1      26.568   2.834   0.827  1.00  0.00    -0.504 OA
ATOM     20  H   UNL     1      26.859   1.884   0.627  1.00  0.00     0.293 HD
ENDBRANCH  16  19
BRANCH  18  21
ATOM     21  O   UNL     1      24.167   3.226   2.261  1.00  0.00    -0.504 OA
ATOM     22  H   UNL     1      24.786   3.595   2.972  1.00  0.00     0.293 HD
ENDBRANCH  18  21
ENDBRANCH   3  13
BRANCH   9  23
ATOM     23  O   UNL     1      24.601   7.858  -7.431  1.00  0.00    -0.507 OA
ATOM     24  H   UNL     1      24.976   7.695  -8.356  1.00  0.00     0.293 HD
ENDBRANCH   9  23
BRANCH   7  25
ATOM     25  O   UNL     1      20.308   5.664  -7.573  1.00  0.00    -0.508 OA
ATOM     26  H   UNL     1      20.276   5.370  -8.543  1.00  0.00     0.293 HD
ENDBRANCH   7  25
TORSDOF 6
ENDMDL
MODEL 7
REMARK VINA RESULT:    -5.852      1.218      7.217
REMARK INTER + INTRA:          -7.234
REMARK INTER:                  -6.857
REMARK INTRA:                  -0.377
REMARK UNBOUND:                -0.185
REMARK SMILES Oc1cc(O)c2c(c1)O[C@H](c1ccc(O)c(O)c1)[C@H](O)C2
REMARK SMILES IDX 21 1 19 2 10 3 9 4 7 5 8 6 2 7 3 8 4 9 6 10 20 11 11 13
REMARK SMILES IDX 18 14 12 15 16 16 13 17 14 18 17 19 15 21 5 23 1 25
REMARK H PARENT 20 12 17 20 15 22 5 24 1 26
REMARK Flexibility Score: inf
ROOT
ATOM      1  C   UNL     1      23.014   7.235   0.443  1.00  0.00     0.079 C 
ATOM      2  C   UNL     1      23.744   7.025  -0.900  1.00  0.00     0.164 C 
ATOM      3  C   UNL     1      23.473   5.607  -1.441  1.00  0.00     0.232 C 
ATOM      4  O   UNL     1      23.837   4.629  -0.467  1.00  0.00    -0.482 OA
ATOM      5  C   UNL     1      23.586   4.810   0.898  1.00  0.00     0.131 A 
ATOM      6  C   UNL     1      23.767   3.732   1.768  1.00  0.00     0.093 A 
ATOM      7  C   UNL     1      23.513   3.876   3.133  1.00  0.00     0.122 A 
ATOM      8  C   UNL     1      23.067   5.105   3.631  1.00  0.00     0.092 A 
ATOM      9  C   UNL     1      22.881   6.197   2.774  1.00  0.00     0.126 A 
ATOM     10  C   UNL     1      23.176   6.067   1.397  1.00  0.00     0.039 A 
ENDROOT
BRANCH   2  11
ATOM     11  O   UNL     1      25.123   7.278  -0.769  1.00  0.00    -0.389 OA
ATOM     12  H   UNL     1      25.568   6.430  -0.509  1.00  0.00     0.211 HD
ENDBRANCH   2  11
BRANCH   3  13
ATOM     13  C   UNL     1      24.201   5.360  -2.742  1.00  0.00    -0.001 A 
ATOM     14  C   UNL     1      23.880   6.120  -3.879  1.00  0.00     0.057 A 
ATOM     15  C   UNL     1      25.245   4.421  -2.820  1.00  0.00     0.012 A 
ATOM     16  C   UNL     1      24.570   5.926  -5.085  1.00  0.00     0.157 A 
ATOM     17  C   UNL     1      25.933   4.228  -4.020  1.00  0.00     0.050 A 
ATOM     18  C   UNL     1      25.600   4.974  -5.154  1.00  0.00     0.157 A 
BRANCH  16  19
ATOM     19  O   UNL     1      24.238   6.679  -6.209  1.00  0.00    -0.504 OA
ATOM     20  H   UNL     1      23.427   6.458  -6.776  1.00  0.00     0.293 HD
ENDBRANCH  16  19
BRANCH  18  21
ATOM     21  O   UNL     1      26.304   4.758  -6.339  1.00  0.00    -0.504 OA
ATOM     22  H   UNL     1      25.996   4.091  -7.034  1.00  0.00     0.293 HD
ENDBRANCH  18  21
ENDBRANCH   3  13
BRANCH   9  23
ATOM     23  O   UNL     1      22.394   7.386   3.323  1.00  0.00    -0.507 OA
ATOM     24  H   UNL     1      21.714   7.975   2.860  1.00  0.00     0.293 HD
ENDBRANCH   9  23
BRANCH   7  25
ATOM     25  O   UNL     1      23.702   2.790   3.985  1.00  0.00    -0.508 OA
ATOM     26  H   UNL     1      23.763   2.910   4.990  1.00  0.00     0.293 HD
ENDBRANCH   7  25
TORSDOF 6
ENDMDL
MODEL 8
REMARK VINA RESULT:    -5.806      1.891      7.328
REMARK INTER + INTRA:          -7.179
REMARK INTER:                  -7.059
REMARK INTRA:                  -0.120
REMARK UNBOUND:                -0.185
REMARK SMILES Oc1cc(O)c2c(c1)O[C@H](c1ccc(O)c(O)c1)[C@H](O)C2
REMARK SMILES IDX 21 1 19 2 10 3 9 4 7 5 8 6 2 7 3 8 4 9 6 10 20 11 11 13
REMARK SMILES IDX 18 14 12 15 16 16 13 17 14 18 17 19 15 21 5 23 1 25
REMARK H PARENT 20 12 17 20 15 22 5 24 1 26
REMARK Flexibility Score: inf
ROOT
ATOM      1  C   UNL     1      23.883   3.324   1.206  1.00  0.00     0.079 C 
ATOM      2  C   UNL     1      23.908   3.976  -0.193  1.00  0.00     0.164 C 
ATOM      3  C   UNL     1      25.319   4.509  -0.510  1.00  0.00     0.232 C 
ATOM      4  O   UNL     1      25.749   5.406   0.514  1.00  0.00    -0.482 OA
ATOM      5  C   UNL     1      25.486   5.169   1.868  1.00  0.00     0.131 A 
ATOM      6  C   UNL     1      26.117   5.964   2.829  1.00  0.00     0.093 A 
ATOM      7  C   UNL     1      25.886   5.745   4.188  1.00  0.00     0.122 A 
ATOM      8  C   UNL     1      25.024   4.719   4.590  1.00  0.00     0.092 A 
ATOM      9  C   UNL     1      24.383   3.913   3.641  1.00  0.00     0.126 A 
ATOM     10  C   UNL     1      24.583   4.157   2.262  1.00  0.00     0.039 A 
ENDROOT
BRANCH   2  11
ATOM     11  O   UNL     1      22.933   4.987  -0.295  1.00  0.00    -0.389 OA
ATOM     12  H   UNL     1      22.274   4.711  -0.983  1.00  0.00     0.211 HD
ENDBRANCH   2  11
BRANCH   3  13
ATOM     13  C   UNL     1      25.367   5.183  -1.862  1.00  0.00    -0.001 A 
ATOM     14  C   UNL     1      25.747   4.447  -2.998  1.00  0.00     0.057 A 
ATOM     15  C   UNL     1      24.977   6.524  -2.017  1.00  0.00     0.012 A 
ATOM     16  C   UNL     1      25.764   5.048  -4.265  1.00  0.00     0.157 A 
ATOM     17  C   UNL     1      24.993   7.124  -3.278  1.00  0.00     0.050 A 
ATOM     18  C   UNL     1      25.387   6.394  -4.404  1.00  0.00     0.157 A 
BRANCH  16  19
ATOM     19  O   UNL     1      26.150   4.312  -5.383  1.00  0.00    -0.504 OA
ATOM     20  H   UNL     1      26.131   3.298  -5.384  1.00  0.00     0.293 HD
ENDBRANCH  16  19
BRANCH  18  21
ATOM     21  O   UNL     1      25.394   7.020  -5.650  1.00  0.00    -0.504 OA
ATOM     22  H   UNL     1      25.261   8.018  -5.752  1.00  0.00     0.293 HD
ENDBRANCH  18  21
ENDBRANCH   3  13
BRANCH   9  23
ATOM     23  O   UNL     1      23.568   2.877   4.104  1.00  0.00    -0.507 OA
ATOM     24  H   UNL     1      22.592   3.000   4.340  1.00  0.00     0.293 HD
ENDBRANCH   9  23
BRANCH   7  25
ATOM     25  O   UNL     1      26.522   6.549   5.131  1.00  0.00    -0.508 OA
ATOM     26  H   UNL     1      26.761   6.198   6.051  1.00  0.00     0.293 HD
ENDBRANCH   7  25
TORSDOF 6
ENDMDL
MODEL 9
REMARK VINA RESULT:    -5.723      3.433      8.745
REMARK INTER + INTRA:          -7.079
REMARK INTER:                  -6.772
REMARK INTRA:                  -0.306
REMARK UNBOUND:                -0.185
REMARK SMILES Oc1cc(O)c2c(c1)O[C@H](c1ccc(O)c(O)c1)[C@H](O)C2
REMARK SMILES IDX 21 1 19 2 10 3 9 4 7 5 8 6 2 7 3 8 4 9 6 10 20 11 11 13
REMARK SMILES IDX 18 14 12 15 16 16 13 17 14 18 17 19 15 21 5 23 1 25
REMARK H PARENT 20 12 17 20 15 22 5 24 1 26
REMARK Flexibility Score: inf
ROOT
ATOM      1  C   UNL     1      23.266   6.329   5.325  1.00  0.00     0.079 C 
ATOM      2  C   UNL     1      23.420   6.045   3.816  1.00  0.00     0.164 C 
ATOM      3  C   UNL     1      24.164   4.712   3.596  1.00  0.00     0.232 C 
ATOM      4  O   UNL     1      25.418   4.728   4.276  1.00  0.00    -0.482 OA
ATOM      5  C   UNL     1      25.568   5.297   5.546  1.00  0.00     0.131 A 
ATOM      6  C   UNL     1      26.760   5.089   6.245  1.00  0.00     0.093 A 
ATOM      7  C   UNL     1      26.936   5.632   7.518  1.00  0.00     0.122 A 
ATOM      8  C   UNL     1      25.909   6.382   8.101  1.00  0.00     0.092 A 
ATOM      9  C   UNL     1      24.708   6.602   7.416  1.00  0.00     0.126 A 
ATOM     10  C   UNL     1      24.541   6.087   6.109  1.00  0.00     0.039 A 
ENDROOT
BRANCH   2  11
ATOM     11  O   UNL     1      24.065   7.115   3.165  1.00  0.00    -0.389 OA
ATOM     12  H   UNL     1      23.664   7.961   3.494  1.00  0.00     0.211 HD
ENDBRANCH   2  11
BRANCH   3  13
ATOM     13  C   UNL     1      24.359   4.421   2.125  1.00  0.00    -0.001 A 
ATOM     14  C   UNL     1      25.598   3.947   1.664  1.00  0.00     0.057 A 
ATOM     15  C   UNL     1      23.297   4.556   1.214  1.00  0.00     0.012 A 
ATOM     16  C   UNL     1      25.785   3.640   0.308  1.00  0.00     0.157 A 
ATOM     17  C   UNL     1      23.481   4.251  -0.136  1.00  0.00     0.050 A 
ATOM     18  C   UNL     1      24.721   3.795  -0.596  1.00  0.00     0.157 A 
BRANCH  16  19
ATOM     19  O   UNL     1      27.021   3.179  -0.141  1.00  0.00    -0.504 OA
ATOM     20  H   UNL     1      27.874   3.702   0.022  1.00  0.00     0.293 HD
ENDBRANCH  16  19
BRANCH  18  21
ATOM     21  O   UNL     1      24.875   3.499  -1.949  1.00  0.00    -0.504 OA
ATOM     22  H   UNL     1      25.730   3.103  -2.319  1.00  0.00     0.293 HD
ENDBRANCH  18  21
ENDBRANCH   3  13
BRANCH   9  23
ATOM     23  O   UNL     1      23.704   7.323   8.067  1.00  0.00    -0.507 OA
ATOM     24  H   UNL     1      22.782   7.467   7.678  1.00  0.00     0.293 HD
ENDBRANCH   9  23
BRANCH   7  25
ATOM     25  O   UNL     1      28.133   5.415   8.197  1.00  0.00    -0.508 OA
ATOM     26  H   UNL     1      28.462   4.478   8.404  1.00  0.00     0.293 HD
ENDBRANCH   7  25
TORSDOF 6
ENDMDL
