MODEL 1
REMARK VINA RESULT:    -3.816      0.000      0.000
REMARK INTER + INTRA:          -5.158
REMARK INTER:                  -4.931
REMARK INTRA:                  -0.227
REMARK UNBOUND:                -0.227
REMARK SMILES C=CC(=O)CCCCC
REMARK SMILES IDX 6 1 7 2 8 3 9 4 5 5 3 6 4 7 2 8 1 9
REMARK H PARENT
REMARK Flexibility Score: inf
ROOT
ATOM      1  C   UNL     1       5.731 -14.169  21.830  1.00  0.00     0.008 C 
ENDROOT
BRANCH   1   2
ATOM      2  C   UNL     1       6.306 -14.478  20.438  1.00  0.00     0.000 C 
BRANCH   2   3
ATOM      3  C   UNL     1       6.014 -13.368  19.418  1.00  0.00    -0.003 C 
ATOM      4  C   UNL     1       6.605 -13.707  18.052  1.00  0.00     0.004 C 
ENDBRANCH   2   3
ENDBRANCH   1   2
BRANCH   1   5
ATOM      5  C   UNL     1       6.808 -13.703  22.826  1.00  0.00     0.080 C 
BRANCH   5   6
ATOM      6  C   UNL     1       7.051 -14.696  23.939  1.00  0.00     0.155 C 
ATOM      7  O   UNL     1       8.054 -14.567  24.692  1.00  0.00    -0.295 OA
BRANCH   6   8
ATOM      8  C   UNL     1       6.148 -15.842  24.172  1.00  0.00     0.039 C 
ATOM      9  C   UNL     1       6.545 -17.113  24.138  1.00  0.00     0.012 C 
ENDBRANCH   6   8
ENDBRANCH   5   6
ENDBRANCH   1   5
TORSDOF 5
ENDMDL
MODEL 2
REMARK VINA RESULT:    -3.696      1.761      2.597
REMARK INTER + INTRA:          -5.004
REMARK INTER:                  -4.733
REMARK INTRA:                  -0.271
REMARK UNBOUND:                -0.227
REMARK SMILES C=CC(=O)CCCCC
REMARK SMILES IDX 6 1 7 2 8 3 9 4 5 5 3 6 4 7 2 8 1 9
REMARK H PARENT
REMARK Flexibility Score: inf
ROOT
ATOM      1  C   UNL     1       7.081 -15.387  22.716  1.00  0.00     0.008 C 
ENDROOT
BRANCH   1   2
ATOM      2  C   UNL     1       6.146 -14.225  22.342  1.00  0.00     0.000 C 
BRANCH   2   3
ATOM      3  C   UNL     1       5.997 -14.049  20.824  1.00  0.00    -0.003 C 
ATOM      4  C   UNL     1       6.739 -15.147  20.068  1.00  0.00     0.004 C 
ENDBRANCH   2   3
ENDBRANCH   1   2
BRANCH   1   5
ATOM      5  C   UNL     1       7.090 -15.678  24.227  1.00  0.00     0.080 C 
BRANCH   5   6
ATOM      6  C   UNL     1       8.267 -15.053  24.940  1.00  0.00     0.155 C 
ATOM      7  O   UNL     1       8.303 -15.032  26.201  1.00  0.00    -0.295 OA
BRANCH   6   8
ATOM      8  C   UNL     1       9.390 -14.441  24.201  1.00  0.00     0.039 C 
ATOM      9  C   UNL     1      10.583 -15.016  24.060  1.00  0.00     0.012 C 
ENDBRANCH   6   8
ENDBRANCH   5   6
ENDBRANCH   1   5
TORSDOF 5
ENDMDL
MODEL 3
REMARK VINA RESULT:    -3.672      2.968      4.265
REMARK INTER + INTRA:          -4.972
REMARK INTER:                  -4.430
REMARK INTRA:                  -0.543
REMARK UNBOUND:                -0.227
REMARK SMILES C=CC(=O)CCCCC
REMARK SMILES IDX 6 1 7 2 8 3 9 4 5 5 3 6 4 7 2 8 1 9
REMARK H PARENT
REMARK Flexibility Score: inf
ROOT
ATOM      1  C   UNL     1       7.375 -14.674  23.569  1.00  0.00     0.008 C 
ENDROOT
BRANCH   1   2
ATOM      2  C   UNL     1       6.111 -15.458  23.957  1.00  0.00     0.000 C 
BRANCH   2   3
ATOM      3  C   UNL     1       6.428 -16.757  24.712  1.00  0.00    -0.003 C 
ATOM      4  C   UNL     1       6.989 -17.818  23.769  1.00  0.00     0.004 C 
ENDBRANCH   2   3
ENDBRANCH   1   2
BRANCH   1   5
ATOM      5  C   UNL     1       8.297 -14.404  24.771  1.00  0.00     0.080 C 
BRANCH   5   6
ATOM      6  C   UNL     1       9.712 -14.887  24.549  1.00  0.00     0.155 C 
ATOM      7  O   UNL     1      10.483 -14.252  23.779  1.00  0.00    -0.295 OA
BRANCH   6   8
ATOM      8  C   UNL     1      10.229 -16.109  25.199  1.00  0.00     0.039 C 
ATOM      9  C   UNL     1       9.844 -16.523  26.406  1.00  0.00     0.012 C 
ENDBRANCH   6   8
ENDBRANCH   5   6
ENDBRANCH   1   5
TORSDOF 5
ENDMDL
MODEL 4
REMARK VINA RESULT:    -3.623      3.130      5.187
REMARK INTER + INTRA:          -4.909
REMARK INTER:                  -4.397
REMARK INTRA:                  -0.512
REMARK UNBOUND:                -0.227
REMARK SMILES C=CC(=O)CCCCC
REMARK SMILES IDX 6 1 7 2 8 3 9 4 5 5 3 6 4 7 2 8 1 9
REMARK H PARENT
REMARK Flexibility Score: inf
ROOT
ATOM      1  C   UNL     1       9.667 -14.737  24.232  1.00  0.00     0.008 C 
ENDROOT
BRANCH   1   2
ATOM      2  C   UNL     1      10.313 -15.998  24.830  1.00  0.00     0.000 C 
BRANCH   2   3
ATOM      3  C   UNL     1       9.856 -16.271  26.270  1.00  0.00    -0.003 C 
ATOM      4  C   UNL     1       9.983 -17.752  26.616  1.00  0.00     0.004 C 
ENDBRANCH   2   3
ENDBRANCH   1   2
BRANCH   1   5
ATOM      5  C   UNL     1       8.320 -14.392  24.891  1.00  0.00     0.080 C 
BRANCH   5   6
ATOM      6  C   UNL     1       7.135 -14.693  24.002  1.00  0.00     0.155 C 
ATOM      7  O   UNL     1       6.857 -13.927  23.040  1.00  0.00    -0.295 OA
BRANCH   6   8
ATOM      8  C   UNL     1       6.264 -15.863  24.235  1.00  0.00     0.039 C 
ATOM      9  C   UNL     1       6.672 -17.125  24.104  1.00  0.00     0.012 C 
ENDBRANCH   6   8
ENDBRANCH   5   6
ENDBRANCH   1   5
TORSDOF 5
ENDMDL
MODEL 5
REMARK VINA RESULT:    -3.573      2.214      2.999
REMARK INTER + INTRA:          -4.845
REMARK INTER:                  -4.644
REMARK INTRA:                  -0.201
REMARK UNBOUND:                -0.227
REMARK SMILES C=CC(=O)CCCCC
REMARK SMILES IDX 6 1 7 2 8 3 9 4 5 5 3 6 4 7 2 8 1 9
REMARK H PARENT
REMARK Flexibility Score: inf
ROOT
ATOM      1  C   UNL     1       6.460 -15.123  24.042  1.00  0.00     0.008 C 
ENDROOT
BRANCH   1   2
ATOM      2  C   UNL     1       6.806 -15.030  22.547  1.00  0.00     0.000 C 
BRANCH   2   3
ATOM      3  C   UNL     1       6.022 -13.924  21.826  1.00  0.00    -0.003 C 
ATOM      4  C   UNL     1       6.011 -14.153  20.317  1.00  0.00     0.004 C 
ENDBRANCH   2   3
ENDBRANCH   1   2
BRANCH   1   5
ATOM      5  C   UNL     1       6.370 -16.576  24.540  1.00  0.00     0.080 C 
BRANCH   5   6
ATOM      6  C   UNL     1       7.190 -16.825  25.785  1.00  0.00     0.155 C 
ATOM      7  O   UNL     1       6.977 -17.850  26.488  1.00  0.00    -0.295 OA
BRANCH   6   8
ATOM      8  C   UNL     1       8.240 -15.884  26.227  1.00  0.00     0.039 C 
ATOM      9  C   UNL     1       9.514 -16.229  26.403  1.00  0.00     0.012 C 
ENDBRANCH   6   8
ENDBRANCH   5   6
ENDBRANCH   1   5
TORSDOF 5
ENDMDL
MODEL 6
REMARK VINA RESULT:    -3.565      1.482      2.177
REMARK INTER + INTRA:          -4.834
REMARK INTER:                  -4.486
REMARK INTRA:                  -0.348
REMARK UNBOUND:                -0.227
REMARK SMILES C=CC(=O)CCCCC
REMARK SMILES IDX 6 1 7 2 8 3 9 4 5 5 3 6 4 7 2 8 1 9
REMARK H PARENT
REMARK Flexibility Score: inf
ROOT
ATOM      1  C   UNL     1       6.828 -14.410  23.203  1.00  0.00     0.008 C 
ENDROOT
BRANCH   1   2
ATOM      2  C   UNL     1       6.035 -13.800  22.036  1.00  0.00     0.000 C 
BRANCH   2   3
ATOM      3  C   UNL     1       6.285 -14.526  20.706  1.00  0.00    -0.003 C 
ATOM      4  C   UNL     1       6.138 -13.573  19.524  1.00  0.00     0.004 C 
ENDBRANCH   2   3
ENDBRANCH   1   2
BRANCH   1   5
ATOM      5  C   UNL     1       6.037 -15.495  23.955  1.00  0.00     0.080 C 
BRANCH   5   6
ATOM      6  C   UNL     1       6.838 -16.756  24.185  1.00  0.00     0.155 C 
ATOM      7  O   UNL     1       6.695 -17.408  25.255  1.00  0.00    -0.295 OA
BRANCH   6   8
ATOM      8  C   UNL     1       7.812 -17.252  23.192  1.00  0.00     0.039 C 
ATOM      9  C   UNL     1       7.521 -18.157  22.260  1.00  0.00     0.012 C 
ENDBRANCH   6   8
ENDBRANCH   5   6
ENDBRANCH   1   5
TORSDOF 5
ENDMDL
MODEL 7
REMARK VINA RESULT:    -3.558      3.588      4.971
REMARK INTER + INTRA:          -4.825
REMARK INTER:                  -4.219
REMARK INTRA:                  -0.605
REMARK UNBOUND:                -0.227
REMARK SMILES C=CC(=O)CCCCC
REMARK SMILES IDX 6 1 7 2 8 3 9 4 5 5 3 6 4 7 2 8 1 9
REMARK H PARENT
REMARK Flexibility Score: inf
ROOT
ATOM      1  C   UNL     1       8.204 -15.666  26.291  1.00  0.00     0.008 C 
ENDROOT
BRANCH   1   2
ATOM      2  C   UNL     1       9.613 -16.278  26.218  1.00  0.00     0.000 C 
BRANCH   2   3
ATOM      3  C   UNL     1      10.365 -15.881  24.939  1.00  0.00    -0.003 C 
ATOM      4  C   UNL     1       9.707 -14.682  24.263  1.00  0.00     0.004 C 
ENDBRANCH   2   3
ENDBRANCH   1   2
BRANCH   1   5
ATOM      5  C   UNL     1       7.092 -16.715  26.112  1.00  0.00     0.080 C 
BRANCH   5   6
ATOM      6  C   UNL     1       6.552 -16.766  24.702  1.00  0.00     0.155 C 
ATOM      7  O   UNL     1       5.590 -16.022  24.367  1.00  0.00    -0.295 OA
BRANCH   6   8
ATOM      8  C   UNL     1       7.108 -17.684  23.687  1.00  0.00     0.039 C 
ATOM      9  C   UNL     1       7.637 -17.278  22.534  1.00  0.00     0.012 C 
ENDBRANCH   6   8
ENDBRANCH   5   6
ENDBRANCH   1   5
TORSDOF 5
ENDMDL
MODEL 8
REMARK VINA RESULT:    -3.499      3.136      4.610
REMARK INTER + INTRA:          -4.748
REMARK INTER:                  -4.350
REMARK INTRA:                  -0.398
REMARK UNBOUND:                -0.227
REMARK SMILES C=CC(=O)CCCCC
REMARK SMILES IDX 6 1 7 2 8 3 9 4 5 5 3 6 4 7 2 8 1 9
REMARK H PARENT
REMARK Flexibility Score: inf
ROOT
ATOM      1  C   UNL     1       6.734 -16.808  25.297  1.00  0.00     0.008 C 
ENDROOT
BRANCH   1   2
ATOM      2  C   UNL     1       7.358 -18.140  24.848  1.00  0.00     0.000 C 
BRANCH   2   3
ATOM      3  C   UNL     1       7.229 -18.374  23.335  1.00  0.00    -0.003 C 
ATOM      4  C   UNL     1       6.705 -19.775  23.038  1.00  0.00     0.004 C 
ENDBRANCH   2   3
ENDBRANCH   1   2
BRANCH   1   5
ATOM      5  C   UNL     1       6.317 -15.920  24.112  1.00  0.00     0.080 C 
BRANCH   5   6
ATOM      6  C   UNL     1       7.186 -14.693  23.960  1.00  0.00     0.155 C 
ATOM      7  O   UNL     1       6.873 -13.796  23.130  1.00  0.00    -0.295 OA
BRANCH   6   8
ATOM      8  C   UNL     1       8.420 -14.510  24.751  1.00  0.00     0.039 C 
ATOM      9  C   UNL     1       9.643 -14.739  24.275  1.00  0.00     0.012 C 
ENDBRANCH   6   8
ENDBRANCH   5   6
ENDBRANCH   1   5
TORSDOF 5
ENDMDL
MODEL 9
REMARK VINA RESULT:    -3.487      2.963      4.239
REMARK INTER + INTRA:          -4.734
REMARK INTER:                  -4.252
REMARK INTRA:                  -0.482
REMARK UNBOUND:                -0.227
REMARK SMILES C=CC(=O)CCCCC
REMARK SMILES IDX 6 1 7 2 8 3 9 4 5 5 3 6 4 7 2 8 1 9
REMARK H PARENT
REMARK Flexibility Score: inf
ROOT
ATOM      1  C   UNL     1       7.205 -14.560  23.582  1.00  0.00     0.008 C 
ENDROOT
BRANCH   1   2
ATOM      2  C   UNL     1       8.240 -14.356  24.700  1.00  0.00     0.000 C 
BRANCH   2   3
ATOM      3  C   UNL     1       9.661 -14.746  24.269  1.00  0.00    -0.003 C 
ATOM      4  C   UNL     1      10.188 -15.911  25.102  1.00  0.00     0.004 C 
ENDBRANCH   2   3
ENDBRANCH   1   2
BRANCH   1   5
ATOM      5  C   UNL     1       6.036 -15.463  24.015  1.00  0.00     0.080 C 
BRANCH   5   6
ATOM      6  C   UNL     1       6.494 -16.787  24.583  1.00  0.00     0.155 C 
ATOM      7  O   UNL     1       6.614 -16.931  25.831  1.00  0.00    -0.295 OA
BRANCH   6   8
ATOM      8  C   UNL     1       6.829 -17.934  23.715  1.00  0.00     0.039 C 
ATOM      9  C   UNL     1       7.944 -18.010  22.989  1.00  0.00     0.012 C 
ENDBRANCH   6   8
ENDBRANCH   5   6
ENDBRANCH   1   5
TORSDOF 5
ENDMDL
