MODEL 1
REMARK VINA RESULT:    -4.681      0.000      0.000
REMARK INTER + INTRA:          -7.725
REMARK INTER:                  -6.322
REMARK INTRA:                  -1.402
REMARK UNBOUND:                -1.402
REMARK SMILES CC(=O)CCC=C(C)CCC=C(C)C
REMARK SMILES IDX 7 1 6 2 8 3 9 4 10 5 11 6 13 7 12 8 14 9 5 10 4 11 2 12 3 13
REMARK SMILES IDX 1 14
REMARK H PARENT
REMARK Flexibility Score: inf
ROOT
ATOM      1  C   UNL     1      17.789 -24.438 -25.622  1.00  0.00    -0.077 C 
ATOM      2  C   UNL     1      18.027 -23.437 -26.500  1.00  0.00    -0.028 C 
ATOM      3  C   UNL     1      16.424 -25.068 -25.479  1.00  0.00     0.039 C 
ENDROOT
BRANCH   1   4
ATOM      4  C   UNL     1      18.924 -24.931 -24.751  1.00  0.00     0.034 C 
BRANCH   4   5
ATOM      5  C   UNL     1      19.725 -23.756 -24.179  1.00  0.00     0.032 C 
BRANCH   5   6
ATOM      6  C   UNL     1      18.954 -23.070 -23.079  1.00  0.00    -0.028 C 
ATOM      7  C   UNL     1      18.943 -20.855 -24.251  1.00  0.00     0.039 C 
ATOM      8  C   UNL     1      18.617 -21.761 -23.085  1.00  0.00    -0.080 C 
ATOM      9  C   UNL     1      17.877 -21.204 -21.897  1.00  0.00     0.039 C 
ENDBRANCH   5   6
ENDBRANCH   4   5
ENDBRANCH   1   4
BRANCH   2  10
ATOM     10  C   UNL     1      17.002 -22.873 -27.456  1.00  0.00     0.035 C 
BRANCH  10  11
ATOM     11  C   UNL     1      16.431 -21.535 -26.966  1.00  0.00     0.079 C 
BRANCH  11  12
ATOM     12  C   UNL     1      15.261 -21.736 -26.034  1.00  0.00     0.130 C 
ATOM     13  O   UNL     1      14.291 -22.375 -26.412  1.00  0.00    -0.300 OA
ATOM     14  C   UNL     1      15.271 -21.179 -24.641  1.00  0.00     0.087 C 
ENDBRANCH  11  12
ENDBRANCH  10  11
ENDBRANCH   2  10
TORSDOF 6
ENDMDL
MODEL 2
REMARK VINA RESULT:    -4.559      1.942      3.040
REMARK INTER + INTRA:          -7.561
REMARK INTER:                  -6.287
REMARK INTRA:                  -1.273
REMARK UNBOUND:                -1.402
REMARK SMILES CC(=O)CCC=C(C)CCC=C(C)C
REMARK SMILES IDX 7 1 6 2 8 3 9 4 10 5 11 6 13 7 12 8 14 9 5 10 4 11 2 12 3 13
REMARK SMILES IDX 1 14
REMARK H PARENT
REMARK Flexibility Score: inf
ROOT
ATOM      1  C   UNL     1      19.202 -23.393 -25.187  1.00  0.00    -0.077 C 
ATOM      2  C   UNL     1      18.147 -23.918 -25.849  1.00  0.00    -0.028 C 
ATOM      3  C   UNL     1      19.858 -24.112 -24.031  1.00  0.00     0.039 C 
ENDROOT
BRANCH   1   4
ATOM      4  C   UNL     1      19.732 -22.040 -25.611  1.00  0.00     0.034 C 
BRANCH   4   5
ATOM      5  C   UNL     1      18.764 -20.923 -25.207  1.00  0.00     0.032 C 
BRANCH   5   6
ATOM      6  C   UNL     1      19.009 -20.491 -23.783  1.00  0.00    -0.028 C 
ATOM      7  C   UNL     1      16.965 -21.648 -22.912  1.00  0.00     0.039 C 
ATOM      8  C   UNL     1      18.197 -20.788 -22.744  1.00  0.00    -0.080 C 
ATOM      9  C   UNL     1      18.552 -20.256 -21.380  1.00  0.00     0.039 C 
ENDBRANCH   5   6
ENDBRANCH   4   5
ENDBRANCH   1   4
BRANCH   2  10
ATOM     10  C   UNL     1      17.540 -25.271 -25.561  1.00  0.00     0.035 C 
BRANCH  10  11
ATOM     11  C   UNL     1      16.013 -25.200 -25.419  1.00  0.00     0.079 C 
BRANCH  11  12
ATOM     12  C   UNL     1      15.596 -24.970 -23.988  1.00  0.00     0.130 C 
ATOM     13  O   UNL     1      14.550 -24.387 -23.750  1.00  0.00    -0.300 OA
ATOM     14  C   UNL     1      16.435 -25.459 -22.843  1.00  0.00     0.087 C 
ENDBRANCH  11  12
ENDBRANCH  10  11
ENDBRANCH   2  10
TORSDOF 6
ENDMDL
MODEL 3
REMARK VINA RESULT:    -4.484      1.426      2.053
REMARK INTER + INTRA:          -7.460
REMARK INTER:                  -6.132
REMARK INTRA:                  -1.327
REMARK UNBOUND:                -1.402
REMARK SMILES CC(=O)CCC=C(C)CCC=C(C)C
REMARK SMILES IDX 7 1 6 2 8 3 9 4 10 5 11 6 13 7 12 8 14 9 5 10 4 11 2 12 3 13
REMARK SMILES IDX 1 14
REMARK H PARENT
REMARK Flexibility Score: inf
ROOT
ATOM      1  C   UNL     1      19.203 -23.592 -24.912  1.00  0.00    -0.077 C 
ATOM      2  C   UNL     1      18.122 -24.209 -25.439  1.00  0.00    -0.028 C 
ATOM      3  C   UNL     1      19.803 -22.355 -25.539  1.00  0.00     0.039 C 
ENDROOT
BRANCH   1   4
ATOM      4  C   UNL     1      19.837 -24.166 -23.663  1.00  0.00     0.034 C 
BRANCH   4   5
ATOM      5  C   UNL     1      18.933 -23.954 -22.444  1.00  0.00     0.032 C 
BRANCH   5   6
ATOM      6  C   UNL     1      19.086 -22.555 -21.902  1.00  0.00    -0.028 C 
ATOM      7  C   UNL     1      16.842 -21.815 -22.736  1.00  0.00     0.039 C 
ATOM      8  C   UNL     1      18.167 -21.575 -22.046  1.00  0.00    -0.080 C 
ATOM      9  C   UNL     1      18.474 -20.212 -21.482  1.00  0.00     0.039 C 
ENDBRANCH   5   6
ENDBRANCH   4   5
ENDBRANCH   1   4
BRANCH   2  10
ATOM     10  C   UNL     1      17.367 -23.726 -26.655  1.00  0.00     0.035 C 
BRANCH  10  11
ATOM     11  C   UNL     1      16.151 -22.868 -26.275  1.00  0.00     0.079 C 
BRANCH  11  12
ATOM     12  C   UNL     1      16.189 -21.519 -26.949  1.00  0.00     0.130 C 
ATOM     13  O   UNL     1      15.865 -21.422 -28.123  1.00  0.00    -0.300 OA
ATOM     14  C   UNL     1      16.601 -20.285 -26.201  1.00  0.00     0.087 C 
ENDBRANCH  11  12
ENDBRANCH  10  11
ENDBRANCH   2  10
TORSDOF 6
ENDMDL
MODEL 4
REMARK VINA RESULT:    -4.403      3.093      4.768
REMARK INTER + INTRA:          -7.350
REMARK INTER:                  -6.013
REMARK INTRA:                  -1.337
REMARK UNBOUND:                -1.402
REMARK SMILES CC(=O)CCC=C(C)CCC=C(C)C
REMARK SMILES IDX 7 1 6 2 8 3 9 4 10 5 11 6 13 7 12 8 14 9 5 10 4 11 2 12 3 13
REMARK SMILES IDX 1 14
REMARK H PARENT
REMARK Flexibility Score: inf
ROOT
ATOM      1  C   UNL     1      19.234 -23.821 -24.999  1.00  0.00    -0.077 C 
ATOM      2  C   UNL     1      20.021 -24.184 -23.960  1.00  0.00    -0.028 C 
ATOM      3  C   UNL     1      18.101 -24.693 -25.486  1.00  0.00     0.039 C 
ENDROOT
BRANCH   1   4
ATOM      4  C   UNL     1      19.508 -22.507 -25.699  1.00  0.00     0.034 C 
BRANCH   4   5
ATOM      5  C   UNL     1      18.453 -21.459 -25.328  1.00  0.00     0.032 C 
BRANCH   5   6
ATOM      6  C   UNL     1      18.846 -20.727 -24.070  1.00  0.00    -0.028 C 
ATOM      7  C   UNL     1      17.206 -21.973 -22.642  1.00  0.00     0.039 C 
ATOM      8  C   UNL     1      18.278 -20.929 -22.860  1.00  0.00    -0.080 C 
ATOM      9  C   UNL     1      18.750 -20.095 -21.697  1.00  0.00     0.039 C 
ENDBRANCH   5   6
ENDBRANCH   4   5
ENDBRANCH   1   4
BRANCH   2  10
ATOM     10  C   UNL     1      19.839 -25.443 -23.146  1.00  0.00     0.035 C 
BRANCH  10  11
ATOM     11  C   UNL     1      19.140 -25.169 -21.808  1.00  0.00     0.079 C 
BRANCH  11  12
ATOM     12  C   UNL     1      20.063 -24.492 -20.824  1.00  0.00     0.130 C 
ATOM     13  O   UNL     1      21.201 -24.910 -20.680  1.00  0.00    -0.300 OA
ATOM     14  C   UNL     1      19.616 -23.302 -20.028  1.00  0.00     0.087 C 
ENDBRANCH  11  12
ENDBRANCH  10  11
ENDBRANCH   2  10
TORSDOF 6
ENDMDL
MODEL 5
REMARK VINA RESULT:    -4.402      3.062      4.982
REMARK INTER + INTRA:          -7.348
REMARK INTER:                  -6.371
REMARK INTRA:                  -0.978
REMARK UNBOUND:                -1.402
REMARK SMILES CC(=O)CCC=C(C)CCC=C(C)C
REMARK SMILES IDX 7 1 6 2 8 3 9 4 10 5 11 6 13 7 12 8 14 9 5 10 4 11 2 12 3 13
REMARK SMILES IDX 1 14
REMARK H PARENT
REMARK Flexibility Score: inf
ROOT
ATOM      1  C   UNL     1      19.048 -23.318 -25.385  1.00  0.00    -0.077 C 
ATOM      2  C   UNL     1      19.669 -24.024 -24.413  1.00  0.00    -0.028 C 
ATOM      3  C   UNL     1      17.932 -23.910 -26.214  1.00  0.00     0.039 C 
ENDROOT
BRANCH   1   4
ATOM      4  C   UNL     1      19.495 -21.897 -25.656  1.00  0.00     0.034 C 
BRANCH   4   5
ATOM      5  C   UNL     1      18.520 -20.890 -25.035  1.00  0.00     0.032 C 
BRANCH   5   6
ATOM      6  C   UNL     1      18.960 -20.509 -23.644  1.00  0.00    -0.028 C 
ATOM      7  C   UNL     1      17.207 -21.911 -22.532  1.00  0.00     0.039 C 
ATOM      8  C   UNL     1      18.365 -20.939 -22.510  1.00  0.00    -0.080 C 
ATOM      9  C   UNL     1      18.893 -20.444 -21.188  1.00  0.00     0.039 C 
ENDBRANCH   5   6
ENDBRANCH   4   5
ENDBRANCH   1   4
BRANCH   2  10
ATOM     10  C   UNL     1      19.303 -25.433 -24.009  1.00  0.00     0.035 C 
BRANCH  10  11
ATOM     11  C   UNL     1      19.446 -25.654 -22.496  1.00  0.00     0.079 C 
BRANCH  11  12
ATOM     12  C   UNL     1      20.733 -26.363 -22.156  1.00  0.00     0.130 C 
ATOM     13  O   UNL     1      20.905 -27.514 -22.526  1.00  0.00    -0.300 OA
ATOM     14  C   UNL     1      21.820 -25.676 -21.381  1.00  0.00     0.087 C 
ENDBRANCH  11  12
ENDBRANCH  10  11
ENDBRANCH   2  10
TORSDOF 6
ENDMDL
MODEL 6
REMARK VINA RESULT:    -4.387      2.100      2.713
REMARK INTER + INTRA:          -7.328
REMARK INTER:                  -6.278
REMARK INTRA:                  -1.050
REMARK UNBOUND:                -1.402
REMARK SMILES CC(=O)CCC=C(C)CCC=C(C)C
REMARK SMILES IDX 7 1 6 2 8 3 9 4 10 5 11 6 13 7 12 8 14 9 5 10 4 11 2 12 3 13
REMARK SMILES IDX 1 14
REMARK H PARENT
REMARK Flexibility Score: inf
ROOT
ATOM      1  C   UNL     1      19.066 -24.438 -24.723  1.00  0.00    -0.077 C 
ATOM      2  C   UNL     1      19.724 -23.264 -24.848  1.00  0.00    -0.028 C 
ATOM      3  C   UNL     1      17.847 -24.763 -25.554  1.00  0.00     0.039 C 
ENDROOT
BRANCH   1   4
ATOM      4  C   UNL     1      19.560 -25.449 -23.710  1.00  0.00     0.034 C 
BRANCH   4   5
ATOM      5  C   UNL     1      20.538 -24.801 -22.724  1.00  0.00     0.032 C 
BRANCH   5   6
ATOM      6  C   UNL     1      20.022 -24.907 -21.311  1.00  0.00    -0.028 C 
ATOM      7  C   UNL     1      18.929 -22.653 -21.374  1.00  0.00     0.039 C 
ATOM      8  C   UNL     1      19.318 -23.940 -20.681  1.00  0.00    -0.080 C 
ATOM      9  C   UNL     1      18.899 -24.171 -19.253  1.00  0.00     0.039 C 
ENDBRANCH   5   6
ENDBRANCH   4   5
ENDBRANCH   1   4
BRANCH   2  10
ATOM     10  C   UNL     1      19.368 -22.182 -25.841  1.00  0.00     0.035 C 
BRANCH  10  11
ATOM     11  C   UNL     1      18.796 -20.934 -25.155  1.00  0.00     0.079 C 
BRANCH  11  12
ATOM     12  C   UNL     1      17.288 -20.959 -25.121  1.00  0.00     0.130 C 
ATOM     13  O   UNL     1      16.713 -21.378 -24.128  1.00  0.00    -0.300 OA
ATOM     14  C   UNL     1      16.474 -20.462 -26.279  1.00  0.00     0.087 C 
ENDBRANCH  11  12
ENDBRANCH  10  11
ENDBRANCH   2  10
TORSDOF 6
ENDMDL
MODEL 7
REMARK VINA RESULT:    -4.327      3.047      5.313
REMARK INTER + INTRA:          -7.247
REMARK INTER:                  -6.094
REMARK INTRA:                  -1.153
REMARK UNBOUND:                -1.402
REMARK SMILES CC(=O)CCC=C(C)CCC=C(C)C
REMARK SMILES IDX 7 1 6 2 8 3 9 4 10 5 11 6 13 7 12 8 14 9 5 10 4 11 2 12 3 13
REMARK SMILES IDX 1 14
REMARK H PARENT
REMARK Flexibility Score: inf
ROOT
ATOM      1  C   UNL     1      18.276 -24.779 -24.192  1.00  0.00    -0.077 C 
ATOM      2  C   UNL     1      19.606 -24.691 -23.966  1.00  0.00    -0.028 C 
ATOM      3  C   UNL     1      17.267 -24.697 -23.070  1.00  0.00     0.039 C 
ENDROOT
BRANCH   1   4
ATOM      4  C   UNL     1      17.786 -24.979 -25.610  1.00  0.00     0.034 C 
BRANCH   4   5
ATOM      5  C   UNL     1      18.332 -23.886 -26.536  1.00  0.00     0.032 C 
BRANCH   5   6
ATOM      6  C   UNL     1      17.375 -22.722 -26.611  1.00  0.00    -0.028 C 
ATOM      7  C   UNL     1      18.850 -21.218 -25.254  1.00  0.00     0.039 C 
ATOM      8  C   UNL     1      17.582 -21.525 -26.019  1.00  0.00    -0.080 C 
ATOM      9  C   UNL     1      16.519 -20.466 -26.150  1.00  0.00     0.039 C 
ENDBRANCH   5   6
ENDBRANCH   4   5
ENDBRANCH   1   4
BRANCH   2  10
ATOM     10  C   UNL     1      20.232 -24.453 -22.612  1.00  0.00     0.035 C 
BRANCH  10  11
ATOM     11  C   UNL     1      21.107 -25.633 -22.166  1.00  0.00     0.079 C 
BRANCH  11  12
ATOM     12  C   UNL     1      20.301 -26.900 -22.018  1.00  0.00     0.130 C 
ATOM     13  O   UNL     1      19.377 -26.938 -21.220  1.00  0.00    -0.300 OA
ATOM     14  C   UNL     1      20.600 -28.115 -22.846  1.00  0.00     0.087 C 
ENDBRANCH  11  12
ENDBRANCH  10  11
ENDBRANCH   2  10
TORSDOF 6
ENDMDL
MODEL 8
REMARK VINA RESULT:    -4.318      1.386      4.104
REMARK INTER + INTRA:          -7.235
REMARK INTER:                  -5.974
REMARK INTRA:                  -1.261
REMARK UNBOUND:                -1.402
REMARK SMILES CC(=O)CCC=C(C)CCC=C(C)C
REMARK SMILES IDX 7 1 6 2 8 3 9 4 10 5 11 6 13 7 12 8 14 9 5 10 4 11 2 12 3 13
REMARK SMILES IDX 1 14
REMARK H PARENT
REMARK Flexibility Score: inf
ROOT
ATOM      1  C   UNL     1      18.774 -22.107 -23.772  1.00  0.00    -0.077 C 
ATOM      2  C   UNL     1      19.241 -23.098 -24.565  1.00  0.00    -0.028 C 
ATOM      3  C   UNL     1      18.125 -22.390 -22.438  1.00  0.00     0.039 C 
ENDROOT
BRANCH   1   4
ATOM      4  C   UNL     1      18.894 -20.674 -24.245  1.00  0.00     0.034 C 
BRANCH   4   5
ATOM      5  C   UNL     1      18.270 -20.502 -25.634  1.00  0.00     0.032 C 
BRANCH   5   6
ATOM      6  C   UNL     1      16.819 -20.912 -25.623  1.00  0.00    -0.028 C 
ATOM      7  C   UNL     1      17.117 -22.600 -27.450  1.00  0.00     0.039 C 
ATOM      8  C   UNL     1      16.280 -21.836 -26.449  1.00  0.00    -0.080 C 
ATOM      9  C   UNL     1      14.804 -22.117 -26.348  1.00  0.00     0.039 C 
ENDBRANCH   5   6
ENDBRANCH   4   5
ENDBRANCH   1   4
BRANCH   2  10
ATOM     10  C   UNL     1      19.223 -24.565 -24.205  1.00  0.00     0.035 C 
BRANCH  10  11
ATOM     11  C   UNL     1      18.363 -25.386 -25.176  1.00  0.00     0.079 C 
BRANCH  11  12
ATOM     12  C   UNL     1      16.899 -25.316 -24.821  1.00  0.00     0.130 C 
ATOM     13  O   UNL     1      16.061 -25.316 -25.710  1.00  0.00    -0.300 OA
ATOM     14  C   UNL     1      16.445 -25.261 -23.392  1.00  0.00     0.087 C 
ENDBRANCH  11  12
ENDBRANCH  10  11
ENDBRANCH   2  10
TORSDOF 6
ENDMDL
MODEL 9
REMARK VINA RESULT:    -4.311      2.783      5.097
REMARK INTER + INTRA:          -7.226
REMARK INTER:                  -6.037
REMARK INTRA:                  -1.188
REMARK UNBOUND:                -1.402
REMARK SMILES CC(=O)CCC=C(C)CCC=C(C)C
REMARK SMILES IDX 7 1 6 2 8 3 9 4 10 5 11 6 13 7 12 8 14 9 5 10 4 11 2 12 3 13
REMARK SMILES IDX 1 14
REMARK H PARENT
REMARK Flexibility Score: inf
ROOT
ATOM      1  C   UNL     1      18.186 -20.916 -23.921  1.00  0.00    -0.077 C 
ATOM      2  C   UNL     1      18.869 -20.515 -22.825  1.00  0.00    -0.028 C 
ATOM      3  C   UNL     1      16.744 -21.362 -23.845  1.00  0.00     0.039 C 
ENDROOT
BRANCH   1   4
ATOM      4  C   UNL     1      18.893 -20.929 -25.259  1.00  0.00     0.034 C 
BRANCH   4   5
ATOM      5  C   UNL     1      18.995 -22.355 -25.810  1.00  0.00     0.032 C 
BRANCH   5   6
ATOM      6  C   UNL     1      19.664 -23.267 -24.812  1.00  0.00    -0.028 C 
ATOM      7  C   UNL     1      17.903 -25.039 -25.012  1.00  0.00     0.039 C 
ATOM      8  C   UNL     1      19.173 -24.465 -24.424  1.00  0.00    -0.080 C 
ATOM      9  C   UNL     1      19.933 -25.252 -23.388  1.00  0.00     0.039 C 
ENDBRANCH   5   6
ENDBRANCH   4   5
ENDBRANCH   1   4
BRANCH   2  10
ATOM     10  C   UNL     1      18.281 -20.415 -21.437  1.00  0.00     0.035 C 
BRANCH  10  11
ATOM     11  C   UNL     1      19.119 -21.176 -20.400  1.00  0.00     0.079 C 
BRANCH  11  12
ATOM     12  C   UNL     1      18.932 -22.669 -20.519  1.00  0.00     0.130 C 
ATOM     13  O   UNL     1      19.882 -23.413 -20.328  1.00  0.00    -0.300 OA
ATOM     14  C   UNL     1      17.595 -23.263 -20.852  1.00  0.00     0.087 C 
ENDBRANCH  11  12
ENDBRANCH  10  11
ENDBRANCH   2  10
TORSDOF 6
ENDMDL
