MODEL 1
REMARK VINA RESULT:    -5.745      0.000      0.000
REMARK INTER + INTRA:          -6.636
REMARK INTER:                  -6.585
REMARK INTRA:                  -0.051
REMARK UNBOUND:                -0.051
REMARK SMILES O=C([O-])c1cc(O)c(O)c(O)c1
REMARK SMILES IDX 4 1 5 2 12 3 6 4 10 5 8 6 2 7 1 8 3 9 7 10 11 12 9 14
REMARK H PARENT 7 11 11 13 9 15
REMARK Flexibility Score: inf
ROOT
ATOM      1  C   UNL     1      11.375  55.584   6.877  1.00  0.00     0.005 A 
ATOM      2  C   UNL     1      10.105  54.998   6.746  1.00  0.00     0.060 A 
ATOM      3  C   UNL     1      12.172  55.749   5.732  1.00  0.00     0.060 A 
ATOM      4  C   UNL     1       9.638  54.583   5.491  1.00  0.00     0.162 A 
ATOM      5  C   UNL     1      11.713  55.338   4.477  1.00  0.00     0.162 A 
ATOM      6  C   UNL     1      10.442  54.753   4.351  1.00  0.00     0.200 A 
ENDROOT
BRANCH   1   7
ATOM      7  C   UNL     1      11.863  56.020   8.205  1.00  0.00     0.072 C 
ATOM      8  O   UNL     1      11.050  56.304   9.125  1.00  0.00    -0.545 OA
ATOM      9  O   UNL     1      13.226  56.124   8.456  1.00  0.00    -0.545 OA
ENDBRANCH   1   7
BRANCH   4  10
ATOM     10  O   UNL     1       8.375  54.002   5.374  1.00  0.00    -0.504 OA
ATOM     11  H   UNL     1       8.232  53.138   4.865  1.00  0.00     0.293 HD
ENDBRANCH   4  10
BRANCH   5  12
ATOM     12  O   UNL     1      12.535  55.520   3.364  1.00  0.00    -0.504 OA
ATOM     13  H   UNL     1      12.287  55.165   2.448  1.00  0.00     0.293 HD
ENDBRANCH   5  12
BRANCH   6  14
ATOM     14  O   UNL     1       9.991  54.345   3.095  1.00  0.00    -0.502 OA
ATOM     15  H   UNL     1      10.623  54.006   2.379  1.00  0.00     0.293 HD
ENDBRANCH   6  14
TORSDOF 4
ENDMDL
MODEL 2
REMARK VINA RESULT:    -5.742      0.034      2.430
REMARK INTER + INTRA:          -6.632
REMARK INTER:                  -6.581
REMARK INTRA:                  -0.051
REMARK UNBOUND:                -0.051
REMARK SMILES O=C([O-])c1cc(O)c(O)c(O)c1
REMARK SMILES IDX 4 1 5 2 12 3 6 4 10 5 8 6 2 7 1 8 3 9 7 10 11 12 9 14
REMARK H PARENT 7 11 11 13 9 15
REMARK Flexibility Score: inf
ROOT
ATOM      1  C   UNL     1      11.386  55.579   6.861  1.00  0.00     0.005 A 
ATOM      2  C   UNL     1      12.183  55.753   5.718  1.00  0.00     0.060 A 
ATOM      3  C   UNL     1      10.113  55.000   6.724  1.00  0.00     0.060 A 
ATOM      4  C   UNL     1      11.718  55.356   4.457  1.00  0.00     0.162 A 
ATOM      5  C   UNL     1       9.642  54.600   5.469  1.00  0.00     0.162 A 
ATOM      6  C   UNL     1      10.444  54.776   4.329  1.00  0.00     0.200 A 
ENDROOT
BRANCH   1   7
ATOM      7  C   UNL     1      11.883  56.001   8.190  1.00  0.00     0.072 C 
ATOM      8  O   UNL     1      11.077  56.255   9.125  1.00  0.00    -0.545 OA
ATOM      9  O   UNL     1      13.248  56.124   8.426  1.00  0.00    -0.545 OA
ENDBRANCH   1   7
BRANCH   4  10
ATOM     10  O   UNL     1      12.520  55.533   3.329  1.00  0.00    -0.504 OA
ATOM     11  H   UNL     1      12.785  56.456   3.006  1.00  0.00     0.293 HD
ENDBRANCH   4  10
BRANCH   5  12
ATOM     12  O   UNL     1       8.373  54.029   5.374  1.00  0.00    -0.504 OA
ATOM     13  H   UNL     1       8.238  53.042   5.194  1.00  0.00     0.293 HD
ENDBRANCH   5  12
BRANCH   6  14
ATOM     14  O   UNL     1       9.967  54.376   3.081  1.00  0.00    -0.502 OA
ATOM     15  H   UNL     1       9.206  54.856   2.614  1.00  0.00     0.293 HD
ENDBRANCH   6  14
TORSDOF 4
ENDMDL
MODEL 3
REMARK VINA RESULT:    -5.473      1.344      2.166
REMARK INTER + INTRA:          -6.324
REMARK INTER:                  -6.274
REMARK INTRA:                  -0.051
REMARK UNBOUND:                -0.051
REMARK SMILES O=C([O-])c1cc(O)c(O)c(O)c1
REMARK SMILES IDX 4 1 5 2 12 3 6 4 10 5 8 6 2 7 1 8 3 9 7 10 11 12 9 14
REMARK H PARENT 7 11 11 13 9 15
REMARK Flexibility Score: inf
ROOT
ATOM      1  C   UNL     1      12.203  55.887   6.789  1.00  0.00     0.005 A 
ATOM      2  C   UNL     1      11.101  55.860   7.659  1.00  0.00     0.060 A 
ATOM      3  C   UNL     1      12.059  55.372   5.490  1.00  0.00     0.060 A 
ATOM      4  C   UNL     1       9.874  55.328   7.240  1.00  0.00     0.162 A 
ATOM      5  C   UNL     1      10.838  54.840   5.064  1.00  0.00     0.162 A 
ATOM      6  C   UNL     1       9.739  54.816   5.938  1.00  0.00     0.200 A 
ENDROOT
BRANCH   1   7
ATOM      7  C   UNL     1      13.496  56.451   7.238  1.00  0.00     0.072 C 
ATOM      8  O   UNL     1      14.283  56.986   6.413  1.00  0.00    -0.545 OA
ATOM      9  O   UNL     1      13.861  56.397   8.579  1.00  0.00    -0.545 OA
ENDBRANCH   1   7
BRANCH   4  10
ATOM     10  O   UNL     1       8.786  55.308   8.114  1.00  0.00    -0.504 OA
ATOM     11  H   UNL     1       7.870  55.634   7.829  1.00  0.00     0.293 HD
ENDBRANCH   4  10
BRANCH   5  12
ATOM     12  O   UNL     1      10.736  54.338   3.766  1.00  0.00    -0.504 OA
ATOM     13  H   UNL     1      11.134  53.445   3.501  1.00  0.00     0.293 HD
ENDBRANCH   5  12
BRANCH   6  14
ATOM     14  O   UNL     1       8.524  54.282   5.505  1.00  0.00    -0.502 OA
ATOM     15  H   UNL     1       8.422  53.305   5.259  1.00  0.00     0.293 HD
ENDBRANCH   6  14
TORSDOF 4
ENDMDL
MODEL 4
REMARK VINA RESULT:    -5.452     10.205     12.184
REMARK INTER + INTRA:          -6.300
REMARK INTER:                  -6.247
REMARK INTRA:                  -0.053
REMARK UNBOUND:                -0.051
REMARK SMILES O=C([O-])c1cc(O)c(O)c(O)c1
REMARK SMILES IDX 4 1 5 2 12 3 6 4 10 5 8 6 2 7 1 8 3 9 7 10 11 12 9 14
REMARK H PARENT 7 11 11 13 9 15
REMARK Flexibility Score: inf
ROOT
ATOM      1  C   UNL     1      12.156  49.689  -4.303  1.00  0.00     0.005 A 
ATOM      2  C   UNL     1      12.434  50.071  -5.626  1.00  0.00     0.060 A 
ATOM      3  C   UNL     1      12.610  50.499  -3.248  1.00  0.00     0.060 A 
ATOM      4  C   UNL     1      13.155  51.244  -5.893  1.00  0.00     0.162 A 
ATOM      5  C   UNL     1      13.329  51.670  -3.506  1.00  0.00     0.162 A 
ATOM      6  C   UNL     1      13.604  52.048  -4.831  1.00  0.00     0.200 A 
ENDROOT
BRANCH   1   7
ATOM      7  C   UNL     1      11.395  48.449  -4.028  1.00  0.00     0.072 C 
ATOM      8  O   UNL     1      11.063  47.679  -4.969  1.00  0.00    -0.545 OA
ATOM      9  O   UNL     1      11.034  48.117  -2.728  1.00  0.00    -0.545 OA
ENDBRANCH   1   7
BRANCH   4  10
ATOM     10  O   UNL     1      13.424  51.613  -7.210  1.00  0.00    -0.504 OA
ATOM     11  H   UNL     1      12.899  51.231  -7.988  1.00  0.00     0.293 HD
ENDBRANCH   4  10
BRANCH   5  12
ATOM     12  O   UNL     1      13.762  52.447  -2.432  1.00  0.00    -0.504 OA
ATOM     13  H   UNL     1      14.728  52.735  -2.330  1.00  0.00     0.293 HD
ENDBRANCH   5  12
BRANCH   6  14
ATOM     14  O   UNL     1      14.323  53.218  -5.080  1.00  0.00    -0.502 OA
ATOM     15  H   UNL     1      14.025  54.120  -4.726  1.00  0.00     0.293 HD
ENDBRANCH   6  14
TORSDOF 4
ENDMDL
MODEL 5
REMARK VINA RESULT:    -5.430     10.191     12.107
REMARK INTER + INTRA:          -6.275
REMARK INTER:                  -6.222
REMARK INTRA:                  -0.053
REMARK UNBOUND:                -0.051
REMARK SMILES O=C([O-])c1cc(O)c(O)c(O)c1
REMARK SMILES IDX 4 1 5 2 12 3 6 4 10 5 8 6 2 7 1 8 3 9 7 10 11 12 9 14
REMARK H PARENT 7 11 11 13 9 15
REMARK Flexibility Score: inf
ROOT
ATOM      1  C   UNL     1      12.143  49.685  -4.300  1.00  0.00     0.005 A 
ATOM      2  C   UNL     1      12.567  50.515  -3.249  1.00  0.00     0.060 A 
ATOM      3  C   UNL     1      12.436  50.056  -5.623  1.00  0.00     0.060 A 
ATOM      4  C   UNL     1      13.273  51.697  -3.514  1.00  0.00     0.162 A 
ATOM      5  C   UNL     1      13.140  51.233  -5.895  1.00  0.00     0.162 A 
ATOM      6  C   UNL     1      13.562  52.059  -4.840  1.00  0.00     0.200 A 
ENDROOT
BRANCH   1   7
ATOM      7  C   UNL     1      11.399  48.438  -4.013  1.00  0.00     0.072 C 
ATOM      8  O   UNL     1      11.051  47.669  -4.949  1.00  0.00    -0.545 OA
ATOM      9  O   UNL     1      11.071  48.097  -2.706  1.00  0.00    -0.545 OA
ENDBRANCH   1   7
BRANCH   4  10
ATOM     10  O   UNL     1      13.689  52.512  -2.461  1.00  0.00    -0.504 OA
ATOM     11  H   UNL     1      13.049  52.808  -1.733  1.00  0.00     0.293 HD
ENDBRANCH   4  10
BRANCH   5  12
ATOM     12  O   UNL     1      13.411  51.567  -7.223  1.00  0.00    -0.504 OA
ATOM     13  H   UNL     1      13.617  50.865  -7.923  1.00  0.00     0.293 HD
ENDBRANCH   5  12
BRANCH   6  14
ATOM     14  O   UNL     1      14.263  53.233  -5.121  1.00  0.00    -0.502 OA
ATOM     15  H   UNL     1      14.928  53.633  -4.470  1.00  0.00     0.293 HD
ENDBRANCH   6  14
TORSDOF 4
ENDMDL
MODEL 6
REMARK VINA RESULT:    -5.407      1.222      3.012
REMARK INTER + INTRA:          -6.249
REMARK INTER:                  -6.196
REMARK INTRA:                  -0.053
REMARK UNBOUND:                -0.051
REMARK SMILES O=C([O-])c1cc(O)c(O)c(O)c1
REMARK SMILES IDX 4 1 5 2 12 3 6 4 10 5 8 6 2 7 1 8 3 9 7 10 11 12 9 14
REMARK H PARENT 7 11 11 13 9 15
REMARK Flexibility Score: inf
ROOT
ATOM      1  C   UNL     1      12.161  55.772   5.829  1.00  0.00     0.005 A 
ATOM      2  C   UNL     1      11.740  55.282   4.581  1.00  0.00     0.060 A 
ATOM      3  C   UNL     1      11.272  55.721   6.916  1.00  0.00     0.060 A 
ATOM      4  C   UNL     1      10.453  54.751   4.420  1.00  0.00     0.162 A 
ATOM      5  C   UNL     1       9.987  55.192   6.764  1.00  0.00     0.162 A 
ATOM      6  C   UNL     1       9.572  54.704   5.513  1.00  0.00     0.200 A 
ENDROOT
BRANCH   1   7
ATOM      7  C   UNL     1      13.522  56.332   5.992  1.00  0.00     0.072 C 
ATOM      8  O   UNL     1      14.257  56.532   4.988  1.00  0.00    -0.545 OA
ATOM      9  O   UNL     1      14.008  56.645   7.256  1.00  0.00    -0.545 OA
ENDBRANCH   1   7
BRANCH   4  10
ATOM     10  O   UNL     1      10.048  54.268   3.176  1.00  0.00    -0.504 OA
ATOM     11  H   UNL     1      10.354  53.365   2.831  1.00  0.00     0.293 HD
ENDBRANCH   4  10
BRANCH   5  12
ATOM     12  O   UNL     1       9.134  55.160   7.868  1.00  0.00    -0.504 OA
ATOM     13  H   UNL     1       9.248  55.787   8.655  1.00  0.00     0.293 HD
ENDBRANCH   5  12
BRANCH   6  14
ATOM     14  O   UNL     1       8.287  54.178   5.370  1.00  0.00    -0.502 OA
ATOM     15  H   UNL     1       7.476  54.768   5.225  1.00  0.00     0.293 HD
ENDBRANCH   6  14
TORSDOF 4
ENDMDL
MODEL 7
REMARK VINA RESULT:    -5.238      1.527      4.591
REMARK INTER + INTRA:          -6.055
REMARK INTER:                  -6.006
REMARK INTRA:                  -0.049
REMARK UNBOUND:                -0.051
REMARK SMILES O=C([O-])c1cc(O)c(O)c(O)c1
REMARK SMILES IDX 4 1 5 2 12 3 6 4 10 5 8 6 2 7 1 8 3 9 7 10 11 12 9 14
REMARK H PARENT 7 11 11 13 9 15
REMARK Flexibility Score: inf
ROOT
ATOM      1  C   UNL     1      11.015  55.224   3.612  1.00  0.00     0.005 A 
ATOM      2  C   UNL     1      11.759  55.320   4.799  1.00  0.00     0.060 A 
ATOM      3  C   UNL     1       9.623  55.048   3.692  1.00  0.00     0.060 A 
ATOM      4  C   UNL     1      11.126  55.240   6.047  1.00  0.00     0.162 A 
ATOM      5  C   UNL     1       8.983  54.968   4.934  1.00  0.00     0.162 A 
ATOM      6  C   UNL     1       9.734  55.064   6.118  1.00  0.00     0.200 A 
ENDROOT
BRANCH   1   7
ATOM      7  C   UNL     1      11.690  55.309   2.297  1.00  0.00     0.072 C 
ATOM      8  O   UNL     1      12.630  56.126   2.112  1.00  0.00    -0.545 OA
ATOM      9  O   UNL     1      11.294  54.488   1.247  1.00  0.00    -0.545 OA
ENDBRANCH   1   7
BRANCH   4  10
ATOM     10  O   UNL     1      11.877  55.337   7.219  1.00  0.00    -0.504 OA
ATOM     11  H   UNL     1      12.442  54.565   7.554  1.00  0.00     0.293 HD
ENDBRANCH   4  10
BRANCH   5  12
ATOM     12  O   UNL     1       7.600  54.792   4.971  1.00  0.00    -0.504 OA
ATOM     13  H   UNL     1       7.041  55.082   5.764  1.00  0.00     0.293 HD
ENDBRANCH   5  12
BRANCH   6  14
ATOM     14  O   UNL     1       9.088  54.983   7.352  1.00  0.00    -0.502 OA
ATOM     15  H   UNL     1       9.435  54.401   8.105  1.00  0.00     0.293 HD
ENDBRANCH   6  14
TORSDOF 4
ENDMDL
MODEL 8
REMARK VINA RESULT:    -5.231      2.061      3.756
REMARK INTER + INTRA:          -6.047
REMARK INTER:                  -5.997
REMARK INTRA:                  -0.050
REMARK UNBOUND:                -0.051
REMARK SMILES O=C([O-])c1cc(O)c(O)c(O)c1
REMARK SMILES IDX 4 1 5 2 12 3 6 4 10 5 8 6 2 7 1 8 3 9 7 10 11 12 9 14
REMARK H PARENT 7 11 11 13 9 15
REMARK Flexibility Score: inf
ROOT
ATOM      1  C   UNL     1      10.623  55.125   4.685  1.00  0.00     0.005 A 
ATOM      2  C   UNL     1      11.915  55.559   5.028  1.00  0.00     0.060 A 
ATOM      3  C   UNL     1      10.195  55.243   3.352  1.00  0.00     0.060 A 
ATOM      4  C   UNL     1      12.766  56.102   4.056  1.00  0.00     0.162 A 
ATOM      5  C   UNL     1      11.039  55.783   2.376  1.00  0.00     0.162 A 
ATOM      6  C   UNL     1      12.330  56.216   2.725  1.00  0.00     0.200 A 
ENDROOT
BRANCH   1   7
ATOM      7  C   UNL     1       9.729  54.552   5.716  1.00  0.00     0.072 C 
ATOM      8  O   UNL     1       8.879  53.674   5.411  1.00  0.00    -0.545 OA
ATOM      9  O   UNL     1       9.815  54.975   7.038  1.00  0.00    -0.545 OA
ENDBRANCH   1   7
BRANCH   4  10
ATOM     10  O   UNL     1      14.046  56.529   4.409  1.00  0.00    -0.504 OA
ATOM     11  H   UNL     1      14.471  56.264   5.290  1.00  0.00     0.293 HD
ENDBRANCH   4  10
BRANCH   5  12
ATOM     12  O   UNL     1      10.577  55.884   1.063  1.00  0.00    -0.504 OA
ATOM     13  H   UNL     1      10.984  56.528   0.396  1.00  0.00     0.293 HD
ENDBRANCH   5  12
BRANCH   6  14
ATOM     14  O   UNL     1      13.165  56.755   1.745  1.00  0.00    -0.502 OA
ATOM     15  H   UNL     1      12.991  56.623   0.756  1.00  0.00     0.293 HD
ENDBRANCH   6  14
TORSDOF 4
ENDMDL
MODEL 9
REMARK VINA RESULT:    -5.199      2.099      3.479
REMARK INTER + INTRA:          -6.010
REMARK INTER:                  -5.960
REMARK INTRA:                  -0.050
REMARK UNBOUND:                -0.051
REMARK SMILES O=C([O-])c1cc(O)c(O)c(O)c1
REMARK SMILES IDX 4 1 5 2 12 3 6 4 10 5 8 6 2 7 1 8 3 9 7 10 11 12 9 14
REMARK H PARENT 7 11 11 13 9 15
REMARK Flexibility Score: inf
ROOT
ATOM      1  C   UNL     1      10.601  55.021   4.619  1.00  0.00     0.005 A 
ATOM      2  C   UNL     1      10.159  55.181   3.295  1.00  0.00     0.060 A 
ATOM      3  C   UNL     1      11.931  55.344   4.938  1.00  0.00     0.060 A 
ATOM      4  C   UNL     1      11.029  55.656   2.304  1.00  0.00     0.162 A 
ATOM      5  C   UNL     1      12.805  55.820   3.955  1.00  0.00     0.162 A 
ATOM      6  C   UNL     1      12.357  55.979   2.633  1.00  0.00     0.200 A 
ENDROOT
BRANCH   1   7
ATOM      7  C   UNL     1       9.677  54.518   5.660  1.00  0.00     0.072 C 
ATOM      8  O   UNL     1       8.817  53.639   5.383  1.00  0.00    -0.545 OA
ATOM      9  O   UNL     1       9.745  55.008   6.959  1.00  0.00    -0.545 OA
ENDBRANCH   1   7
BRANCH   4  10
ATOM     10  O   UNL     1      10.577  55.812   0.994  1.00  0.00    -0.504 OA
ATOM     11  H   UNL     1      10.020  55.100   0.536  1.00  0.00     0.293 HD
ENDBRANCH   4  10
BRANCH   5  12
ATOM     12  O   UNL     1      14.118  56.130   4.312  1.00  0.00    -0.504 OA
ATOM     13  H   UNL     1      14.916  55.744   3.821  1.00  0.00     0.293 HD
ENDBRANCH   5  12
BRANCH   6  14
ATOM     14  O   UNL     1      13.236  56.453   1.659  1.00  0.00    -0.502 OA
ATOM     15  H   UNL     1      13.041  56.368   0.668  1.00  0.00     0.293 HD
ENDBRANCH   6  14
TORSDOF 4
ENDMDL
