MODEL 1
REMARK VINA RESULT:    -5.754      0.000      0.000
REMARK INTER + INTRA:         -12.101
REMARK INTER:                 -10.801
REMARK INTRA:                  -1.300
REMARK UNBOUND:                -1.300
REMARK SMILES O=C([O-])CCCCCCCCCCCCCCC(=O)[O-]
REMARK SMILES IDX 10 1 9 2 8 3 7 4 6 5 5 6 4 7 2 8 1 9 3 10 11 11 12 12 13 13
REMARK SMILES IDX 14 14 15 15 16 16 17 17 18 18 19 19 20 20
REMARK H PARENT
REMARK Flexibility Score: inf
ROOT
ATOM      1  C   UNL     1      92.742 121.977 122.263  1.00  0.00     0.000 C 
ENDROOT
BRANCH   1   2
ATOM      2  C   UNL     1      93.059 123.443 122.603  1.00  0.00     0.000 C 
BRANCH   2   3
ATOM      3  C   UNL     1      93.141 123.704 124.118  1.00  0.00     0.000 C 
BRANCH   3   4
ATOM      4  C   UNL     1      93.840 122.603 124.938  1.00  0.00     0.000 C 
BRANCH   4   5
ATOM      5  C   UNL     1      95.166 123.067 125.559  1.00  0.00     0.000 C 
BRANCH   5   6
ATOM      6  C   UNL     1      96.150 123.525 124.472  1.00  0.00     0.006 C 
BRANCH   6   7
ATOM      7  C   UNL     1      96.787 124.883 124.800  1.00  0.00     0.053 C 
BRANCH   7   8
ATOM      8  C   UNL     1      97.503 124.859 126.115  1.00  0.00     0.041 C 
ATOM      9  O   UNL     1      97.229 125.710 127.002  1.00  0.00    -0.550 OA
ATOM     10  O   UNL     1      98.497 123.918 126.350  1.00  0.00    -0.550 OA
ENDBRANCH   7   8
ENDBRANCH   6   7
ENDBRANCH   5   6
ENDBRANCH   4   5
ENDBRANCH   3   4
ENDBRANCH   2   3
ENDBRANCH   1   2
BRANCH   1  11
ATOM     11  C   UNL     1      93.646 121.409 121.153  1.00  0.00     0.000 C 
BRANCH  11  12
ATOM     12  C   UNL     1      94.712 122.380 120.613  1.00  0.00     0.000 C 
BRANCH  12  13
ATOM     13  C   UNL     1      95.261 121.967 119.239  1.00  0.00     0.000 C 
BRANCH  13  14
ATOM     14  C   UNL     1      94.613 120.660 118.759  1.00  0.00     0.000 C 
BRANCH  14  15
ATOM     15  C   UNL     1      93.912 120.802 117.396  1.00  0.00     0.000 C 
BRANCH  15  16
ATOM     16  C   UNL     1      92.439 121.255 117.465  1.00  0.00     0.006 C 
BRANCH  16  17
ATOM     17  C   UNL     1      92.064 122.359 116.464  1.00  0.00     0.053 C 
BRANCH  17  18
ATOM     18  C   UNL     1      92.452 123.719 116.958  1.00  0.00     0.041 C 
ATOM     19  O   UNL     1      92.821 123.878 118.151  1.00  0.00    -0.550 OA
ATOM     20  O   UNL     1      92.438 124.805 116.092  1.00  0.00    -0.550 OA
ENDBRANCH  17  18
ENDBRANCH  16  17
ENDBRANCH  15  16
ENDBRANCH  14  15
ENDBRANCH  13  14
ENDBRANCH  12  13
ENDBRANCH  11  12
ENDBRANCH   1  11
TORSDOF 15
ENDMDL
MODEL 2
REMARK VINA RESULT:    -5.719      1.805      8.685
REMARK INTER + INTRA:         -12.034
REMARK INTER:                 -10.851
REMARK INTRA:                  -1.184
REMARK UNBOUND:                -1.300
REMARK SMILES O=C([O-])CCCCCCCCCCCCCCC(=O)[O-]
REMARK SMILES IDX 10 1 9 2 8 3 7 4 6 5 5 6 4 7 2 8 1 9 3 10 11 11 12 12 13 13
REMARK SMILES IDX 14 14 15 15 16 16 17 17 18 18 19 19 20 20
REMARK H PARENT
REMARK Flexibility Score: inf
ROOT
ATOM      1  C   UNL     1      94.098 122.513 121.675  1.00  0.00     0.000 C 
ENDROOT
BRANCH   1   2
ATOM      2  C   UNL     1      93.695 121.219 120.946  1.00  0.00     0.000 C 
BRANCH   2   3
ATOM      3  C   UNL     1      94.242 121.145 119.509  1.00  0.00     0.000 C 
BRANCH   3   4
ATOM      4  C   UNL     1      94.378 122.498 118.786  1.00  0.00     0.000 C 
BRANCH   4   5
ATOM      5  C   UNL     1      93.025 123.094 118.369  1.00  0.00     0.000 C 
BRANCH   5   6
ATOM      6  C   UNL     1      92.121 122.021 117.744  1.00  0.00     0.006 C 
BRANCH   6   7
ATOM      7  C   UNL     1      92.185 122.028 116.211  1.00  0.00     0.053 C 
BRANCH   7   8
ATOM      8  C   UNL     1      92.786 120.766 115.673  1.00  0.00     0.041 C 
ATOM      9  O   UNL     1      93.928 120.396 116.051  1.00  0.00    -0.550 OA
ATOM     10  O   UNL     1      92.099 120.015 114.727  1.00  0.00    -0.550 OA
ENDBRANCH   7   8
ENDBRANCH   6   7
ENDBRANCH   5   6
ENDBRANCH   4   5
ENDBRANCH   3   4
ENDBRANCH   2   3
ENDBRANCH   1   2
BRANCH   1  11
ATOM     11  C   UNL     1      92.892 123.273 122.259  1.00  0.00     0.000 C 
BRANCH  11  12
ATOM     12  C   UNL     1      93.115 123.885 123.655  1.00  0.00     0.000 C 
BRANCH  12  13
ATOM     13  C   UNL     1      93.008 122.854 124.788  1.00  0.00     0.000 C 
BRANCH  13  14
ATOM     14  C   UNL     1      94.376 122.613 125.442  1.00  0.00     0.000 C 
BRANCH  14  15
ATOM     15  C   UNL     1      95.381 123.746 125.168  1.00  0.00     0.000 C 
BRANCH  15  16
ATOM     16  C   UNL     1      96.853 123.298 125.051  1.00  0.00     0.006 C 
BRANCH  16  17
ATOM     17  C   UNL     1      97.817 124.017 126.007  1.00  0.00     0.053 C 
BRANCH  17  18
ATOM     18  C   UNL     1      97.540 125.488 126.083  1.00  0.00     0.041 C 
ATOM     19  O   UNL     1      97.245 126.021 127.183  1.00  0.00    -0.550 OA
ATOM     20  O   UNL     1      97.640 126.274 124.942  1.00  0.00    -0.550 OA
ENDBRANCH  17  18
ENDBRANCH  16  17
ENDBRANCH  15  16
ENDBRANCH  14  15
ENDBRANCH  13  14
ENDBRANCH  12  13
ENDBRANCH  11  12
ENDBRANCH   1  11
TORSDOF 15
ENDMDL
MODEL 3
REMARK VINA RESULT:    -5.716      0.330      8.293
REMARK INTER + INTRA:         -12.028
REMARK INTER:                 -10.998
REMARK INTRA:                  -1.030
REMARK UNBOUND:                -1.300
REMARK SMILES O=C([O-])CCCCCCCCCCCCCCC(=O)[O-]
REMARK SMILES IDX 10 1 9 2 8 3 7 4 6 5 5 6 4 7 2 8 1 9 3 10 11 11 12 12 13 13
REMARK SMILES IDX 14 14 15 15 16 16 17 17 18 18 19 19 20 20
REMARK H PARENT
REMARK Flexibility Score: inf
ROOT
ATOM      1  C   UNL     1      93.428 121.425 120.992  1.00  0.00     0.000 C 
ENDROOT
BRANCH   1   2
ATOM      2  C   UNL     1      94.642 122.243 120.521  1.00  0.00     0.000 C 
BRANCH   2   3
ATOM      3  C   UNL     1      94.900 122.117 119.008  1.00  0.00     0.000 C 
BRANCH   3   4
ATOM      4  C   UNL     1      94.539 120.754 118.391  1.00  0.00     0.000 C 
BRANCH   4   5
ATOM      5  C   UNL     1      93.643 120.875 117.150  1.00  0.00     0.000 C 
BRANCH   5   6
ATOM      6  C   UNL     1      92.403 121.730 117.450  1.00  0.00     0.006 C 
BRANCH   6   7
ATOM      7  C   UNL     1      92.093 122.721 116.319  1.00  0.00     0.053 C 
BRANCH   7   8
ATOM      8  C   UNL     1      92.472 124.122 116.689  1.00  0.00     0.041 C 
ATOM      9  O   UNL     1      92.151 125.083 115.941  1.00  0.00    -0.550 OA
ATOM     10  O   UNL     1      93.209 124.364 117.841  1.00  0.00    -0.550 OA
ENDBRANCH   7   8
ENDBRANCH   6   7
ENDBRANCH   5   6
ENDBRANCH   4   5
ENDBRANCH   3   4
ENDBRANCH   2   3
ENDBRANCH   1   2
BRANCH   1  11
ATOM     11  C   UNL     1      92.821 121.953 122.306  1.00  0.00     0.000 C 
BRANCH  11  12
ATOM     12  C   UNL     1      93.162 123.415 122.646  1.00  0.00     0.000 C 
BRANCH  12  13
ATOM     13  C   UNL     1      93.067 123.722 124.148  1.00  0.00     0.000 C 
BRANCH  13  14
ATOM     14  C   UNL     1      93.676 122.584 124.980  1.00  0.00     0.000 C 
BRANCH  14  15
ATOM     15  C   UNL     1      95.038 122.952 125.594  1.00  0.00     0.000 C 
BRANCH  15  16
ATOM     16  C   UNL     1      96.102 123.429 124.584  1.00  0.00     0.006 C 
BRANCH  16  17
ATOM     17  C   UNL     1      96.672 124.827 124.871  1.00  0.00     0.053 C 
BRANCH  17  18
ATOM     18  C   UNL     1      97.548 124.837 126.086  1.00  0.00     0.041 C 
ATOM     19  O   UNL     1      97.527 125.818 126.874  1.00  0.00    -0.550 OA
ATOM     20  O   UNL     1      98.362 123.747 126.366  1.00  0.00    -0.550 OA
ENDBRANCH  17  18
ENDBRANCH  16  17
ENDBRANCH  15  16
ENDBRANCH  14  15
ENDBRANCH  13  14
ENDBRANCH  12  13
ENDBRANCH  11  12
ENDBRANCH   1  11
TORSDOF 15
ENDMDL
MODEL 4
REMARK VINA RESULT:    -5.655      1.582      8.568
REMARK INTER + INTRA:         -11.913
REMARK INTER:                 -10.638
REMARK INTRA:                  -1.275
REMARK UNBOUND:                -1.300
REMARK SMILES O=C([O-])CCCCCCCCCCCCCCC(=O)[O-]
REMARK SMILES IDX 10 1 9 2 8 3 7 4 6 5 5 6 4 7 2 8 1 9 3 10 11 11 12 12 13 13
REMARK SMILES IDX 14 14 15 15 16 16 17 17 18 18 19 19 20 20
REMARK H PARENT
REMARK Flexibility Score: inf
ROOT
ATOM      1  C   UNL     1      93.316 121.263 121.238  1.00  0.00     0.000 C 
ENDROOT
BRANCH   1   2
ATOM      2  C   UNL     1      94.608 121.922 120.725  1.00  0.00     0.000 C 
BRANCH   2   3
ATOM      3  C   UNL     1      94.767 121.821 119.197  1.00  0.00     0.000 C 
BRANCH   3   4
ATOM      4  C   UNL     1      94.299 123.056 118.404  1.00  0.00     0.000 C 
BRANCH   4   5
ATOM      5  C   UNL     1      92.774 123.235 118.416  1.00  0.00     0.000 C 
BRANCH   5   6
ATOM      6  C   UNL     1      92.073 122.012 117.805  1.00  0.00     0.006 C 
BRANCH   6   7
ATOM      7  C   UNL     1      92.080 122.046 116.271  1.00  0.00     0.053 C 
BRANCH   7   8
ATOM      8  C   UNL     1      92.798 120.865 115.692  1.00  0.00     0.041 C 
ATOM      9  O   UNL     1      92.330 120.268 114.688  1.00  0.00    -0.550 OA
ATOM     10  O   UNL     1      93.967 120.402 116.284  1.00  0.00    -0.550 OA
ENDBRANCH   7   8
ENDBRANCH   6   7
ENDBRANCH   5   6
ENDBRANCH   4   5
ENDBRANCH   3   4
ENDBRANCH   2   3
ENDBRANCH   1   2
BRANCH   1  11
ATOM     11  C   UNL     1      92.778 121.918 122.524  1.00  0.00     0.000 C 
BRANCH  11  12
ATOM     12  C   UNL     1      93.048 123.428 122.654  1.00  0.00     0.000 C 
BRANCH  12  13
ATOM     13  C   UNL     1      93.204 123.887 124.112  1.00  0.00     0.000 C 
BRANCH  13  14
ATOM     14  C   UNL     1      93.652 122.724 125.009  1.00  0.00     0.000 C 
BRANCH  14  15
ATOM     15  C   UNL     1      95.078 122.905 125.559  1.00  0.00     0.000 C 
BRANCH  15  16
ATOM     16  C   UNL     1      96.108 123.436 124.540  1.00  0.00     0.006 C 
BRANCH  16  17
ATOM     17  C   UNL     1      96.622 124.854 124.833  1.00  0.00     0.053 C 
BRANCH  17  18
ATOM     18  C   UNL     1      97.501 124.892 126.046  1.00  0.00     0.041 C 
ATOM     19  O   UNL     1      97.438 125.863 126.843  1.00  0.00    -0.550 OA
ATOM     20  O   UNL     1      98.365 123.838 126.313  1.00  0.00    -0.550 OA
ENDBRANCH  17  18
ENDBRANCH  16  17
ENDBRANCH  15  16
ENDBRANCH  14  15
ENDBRANCH  13  14
ENDBRANCH  12  13
ENDBRANCH  11  12
ENDBRANCH   1  11
TORSDOF 15
ENDMDL
MODEL 5
REMARK VINA RESULT:    -5.570      1.775      2.134
REMARK INTER + INTRA:         -11.755
REMARK INTER:                 -10.769
REMARK INTRA:                  -0.986
REMARK UNBOUND:                -1.300
REMARK SMILES O=C([O-])CCCCCCCCCCCCCCC(=O)[O-]
REMARK SMILES IDX 10 1 9 2 8 3 7 4 6 5 5 6 4 7 2 8 1 9 3 10 11 11 12 12 13 13
REMARK SMILES IDX 14 14 15 15 16 16 17 17 18 18 19 19 20 20
REMARK H PARENT
REMARK Flexibility Score: inf
ROOT
ATOM      1  C   UNL     1      92.894 122.258 122.557  1.00  0.00     0.000 C 
ENDROOT
BRANCH   1   2
ATOM      2  C   UNL     1      93.094 123.304 123.667  1.00  0.00     0.000 C 
BRANCH   2   3
ATOM      3  C   UNL     1      93.318 122.672 125.053  1.00  0.00     0.000 C 
BRANCH   3   4
ATOM      4  C   UNL     1      94.740 122.824 125.623  1.00  0.00     0.000 C 
BRANCH   4   5
ATOM      5  C   UNL     1      95.639 123.725 124.764  1.00  0.00     0.000 C 
BRANCH   5   6
ATOM      6  C   UNL     1      97.111 123.305 124.881  1.00  0.00     0.006 C 
BRANCH   6   7
ATOM      7  C   UNL     1      97.823 124.000 126.049  1.00  0.00     0.053 C 
BRANCH   7   8
ATOM      8  C   UNL     1      97.514 125.465 126.096  1.00  0.00     0.041 C 
ATOM      9  O   UNL     1      97.080 125.988 127.156  1.00  0.00    -0.550 OA
ATOM     10  O   UNL     1      97.671 126.247 124.959  1.00  0.00    -0.550 OA
ENDBRANCH   7   8
ENDBRANCH   6   7
ENDBRANCH   5   6
ENDBRANCH   4   5
ENDBRANCH   3   4
ENDBRANCH   2   3
ENDBRANCH   1   2
BRANCH   1  11
ATOM     11  C   UNL     1      94.038 122.252 121.524  1.00  0.00     0.000 C 
BRANCH  11  12
ATOM     12  C   UNL     1      94.084 121.020 120.602  1.00  0.00     0.000 C 
BRANCH  12  13
ATOM     13  C   UNL     1      94.440 121.369 119.150  1.00  0.00     0.000 C 
BRANCH  13  14
ATOM     14  C   UNL     1      94.386 122.886 118.920  1.00  0.00     0.000 C 
BRANCH  14  15
ATOM     15  C   UNL     1      93.183 123.323 118.066  1.00  0.00     0.000 C 
BRANCH  15  16
ATOM     16  C   UNL     1      92.248 122.178 117.622  1.00  0.00     0.006 C 
BRANCH  16  17
ATOM     17  C   UNL     1      92.138 121.998 116.100  1.00  0.00     0.053 C 
BRANCH  17  18
ATOM     18  C   UNL     1      92.807 120.741 115.634  1.00  0.00     0.041 C 
ATOM     19  O   UNL     1      93.947 120.432 116.068  1.00  0.00    -0.550 OA
ATOM     20  O   UNL     1      92.155 119.894 114.747  1.00  0.00    -0.550 OA
ENDBRANCH  17  18
ENDBRANCH  16  17
ENDBRANCH  15  16
ENDBRANCH  14  15
ENDBRANCH  13  14
ENDBRANCH  12  13
ENDBRANCH  11  12
ENDBRANCH   1  11
TORSDOF 15
ENDMDL
MODEL 6
REMARK VINA RESULT:    -5.242      2.948      4.141
REMARK INTER + INTRA:         -11.138
REMARK INTER:                 -10.370
REMARK INTRA:                  -0.769
REMARK UNBOUND:                -1.300
REMARK SMILES O=C([O-])CCCCCCCCCCCCCCC(=O)[O-]
REMARK SMILES IDX 10 1 9 2 8 3 7 4 6 5 5 6 4 7 2 8 1 9 3 10 11 11 12 12 13 13
REMARK SMILES IDX 14 14 15 15 16 16 17 17 18 18 19 19 20 20
REMARK H PARENT
REMARK Flexibility Score: inf
ROOT
ATOM      1  C   UNL     1      94.623 123.982 124.499  1.00  0.00     0.000 C 
ENDROOT
BRANCH   1   2
ATOM      2  C   UNL     1      96.000 123.388 124.844  1.00  0.00     0.000 C 
BRANCH   2   3
ATOM      3  C   UNL     1      96.954 124.416 125.480  1.00  0.00     0.000 C 
BRANCH   3   4
ATOM      4  C   UNL     1      98.152 123.819 126.241  1.00  0.00     0.000 C 
BRANCH   4   5
ATOM      5  C   UNL     1      98.315 122.309 126.014  1.00  0.00     0.000 C 
BRANCH   5   6
ATOM      6  C   UNL     1      99.759 121.865 126.290  1.00  0.00     0.006 C 
BRANCH   6   7
ATOM      7  C   UNL     1      99.879 120.343 126.453  1.00  0.00     0.053 C 
BRANCH   7   8
ATOM      8  C   UNL     1     101.002 119.782 125.636  1.00  0.00     0.041 C 
ATOM      9  O   UNL     1     102.125 119.571 126.163  1.00  0.00    -0.550 OA
ATOM     10  O   UNL     1     100.818 119.526 124.283  1.00  0.00    -0.550 OA
ENDBRANCH   7   8
ENDBRANCH   6   7
ENDBRANCH   5   6
ENDBRANCH   4   5
ENDBRANCH   3   4
ENDBRANCH   2   3
ENDBRANCH   1   2
BRANCH   1  11
ATOM     11  C   UNL     1      93.616 122.921 124.016  1.00  0.00     0.000 C 
BRANCH  11  12
ATOM     12  C   UNL     1      93.219 123.021 122.531  1.00  0.00     0.000 C 
BRANCH  12  13
ATOM     13  C   UNL     1      92.759 121.680 121.941  1.00  0.00     0.000 C 
BRANCH  13  14
ATOM     14  C   UNL     1      93.812 121.114 120.976  1.00  0.00     0.000 C 
BRANCH  14  15
ATOM     15  C   UNL     1      94.652 122.208 120.294  1.00  0.00     0.000 C 
BRANCH  15  16
ATOM     16  C   UNL     1      94.256 122.519 118.835  1.00  0.00     0.006 C 
BRANCH  16  17
ATOM     17  C   UNL     1      93.978 121.278 117.972  1.00  0.00     0.053 C 
BRANCH  17  18
ATOM     18  C   UNL     1      92.739 121.436 117.145  1.00  0.00     0.041 C 
ATOM     19  O   UNL     1      91.707 121.956 117.643  1.00  0.00    -0.550 OA
ATOM     20  O   UNL     1      92.736 121.039 115.814  1.00  0.00    -0.550 OA
ENDBRANCH  17  18
ENDBRANCH  16  17
ENDBRANCH  15  16
ENDBRANCH  14  15
ENDBRANCH  13  14
ENDBRANCH  12  13
ENDBRANCH  11  12
ENDBRANCH   1  11
TORSDOF 15
ENDMDL
MODEL 7
REMARK VINA RESULT:    -5.213      2.343      8.781
REMARK INTER + INTRA:         -11.084
REMARK INTER:                 -10.101
REMARK INTRA:                  -0.983
REMARK UNBOUND:                -1.300
REMARK SMILES O=C([O-])CCCCCCCCCCCCCCC(=O)[O-]
REMARK SMILES IDX 10 1 9 2 8 3 7 4 6 5 5 6 4 7 2 8 1 9 3 10 11 11 12 12 13 13
REMARK SMILES IDX 14 14 15 15 16 16 17 17 18 18 19 19 20 20
REMARK H PARENT
REMARK Flexibility Score: inf
ROOT
ATOM      1  C   UNL     1      93.417 123.883 123.700  1.00  0.00     0.000 C 
ENDROOT
BRANCH   1   2
ATOM      2  C   UNL     1      93.091 123.428 122.267  1.00  0.00     0.000 C 
BRANCH   2   3
ATOM      3  C   UNL     1      92.905 121.904 122.150  1.00  0.00     0.000 C 
BRANCH   3   4
ATOM      4  C   UNL     1      93.670 121.234 120.993  1.00  0.00     0.000 C 
BRANCH   4   5
ATOM      5  C   UNL     1      94.649 122.186 120.290  1.00  0.00     0.000 C 
BRANCH   5   6
ATOM      6  C   UNL     1      94.052 122.718 118.978  1.00  0.00     0.006 C 
BRANCH   6   7
ATOM      7  C   UNL     1      93.654 121.586 118.020  1.00  0.00     0.053 C 
BRANCH   7   8
ATOM      8  C   UNL     1      92.286 121.797 117.449  1.00  0.00     0.041 C 
ATOM      9  O   UNL     1      91.266 121.467 118.108  1.00  0.00    -0.550 OA
ATOM     10  O   UNL     1      92.138 122.326 116.173  1.00  0.00    -0.550 OA
ENDBRANCH   7   8
ENDBRANCH   6   7
ENDBRANCH   5   6
ENDBRANCH   4   5
ENDBRANCH   3   4
ENDBRANCH   2   3
ENDBRANCH   1   2
BRANCH   1  11
ATOM     11  C   UNL     1      93.484 122.714 124.701  1.00  0.00     0.000 C 
BRANCH  11  12
ATOM     12  C   UNL     1      94.787 122.620 125.515  1.00  0.00     0.000 C 
BRANCH  12  13
ATOM     13  C   UNL     1      95.932 123.450 124.915  1.00  0.00     0.000 C 
BRANCH  13  14
ATOM     14  C   UNL     1      96.673 124.234 126.009  1.00  0.00     0.000 C 
BRANCH  14  15
ATOM     15  C   UNL     1      98.178 123.918 126.059  1.00  0.00     0.000 C 
BRANCH  15  16
ATOM     16  C   UNL     1      98.525 122.428 126.259  1.00  0.00     0.006 C 
BRANCH  16  17
ATOM     17  C   UNL     1     100.000 122.077 126.005  1.00  0.00     0.053 C 
BRANCH  17  18
ATOM     18  C   UNL     1     100.248 120.602 126.088  1.00  0.00     0.041 C 
ATOM     19  O   UNL     1      99.780 119.934 127.046  1.00  0.00    -0.550 OA
ATOM     20  O   UNL     1     100.967 119.960 125.087  1.00  0.00    -0.550 OA
ENDBRANCH  17  18
ENDBRANCH  16  17
ENDBRANCH  15  16
ENDBRANCH  14  15
ENDBRANCH  13  14
ENDBRANCH  12  13
ENDBRANCH  11  12
ENDBRANCH   1  11
TORSDOF 15
ENDMDL
MODEL 8
REMARK VINA RESULT:    -4.571     11.203     13.605
REMARK INTER + INTRA:          -9.880
REMARK INTER:                  -7.644
REMARK INTRA:                  -2.235
REMARK UNBOUND:                -1.300
REMARK SMILES O=C([O-])CCCCCCCCCCCCCCC(=O)[O-]
REMARK SMILES IDX 10 1 9 2 8 3 7 4 6 5 5 6 4 7 2 8 1 9 3 10 11 11 12 12 13 13
REMARK SMILES IDX 14 14 15 15 16 16 17 17 18 18 19 19 20 20
REMARK H PARENT
REMARK Flexibility Score: inf
ROOT
ATOM      1  C   UNL     1      87.855 121.709 130.505  1.00  0.00     0.000 C 
ENDROOT
BRANCH   1   2
ATOM      2  C   UNL     1      86.738 120.664 130.673  1.00  0.00     0.000 C 
BRANCH   2   3
ATOM      3  C   UNL     1      85.611 120.818 129.636  1.00  0.00     0.000 C 
BRANCH   3   4
ATOM      4  C   UNL     1      84.223 121.144 130.216  1.00  0.00     0.000 C 
BRANCH   4   5
ATOM      5  C   UNL     1      83.408 122.095 129.327  1.00  0.00     0.000 C 
BRANCH   5   6
ATOM      6  C   UNL     1      84.100 122.307 127.972  1.00  0.00     0.006 C 
BRANCH   6   7
ATOM      7  C   UNL     1      83.136 122.843 126.905  1.00  0.00     0.053 C 
BRANCH   7   8
ATOM      8  C   UNL     1      83.854 123.223 125.647  1.00  0.00     0.041 C 
ATOM      9  O   UNL     1      83.754 124.391 125.188  1.00  0.00    -0.550 OA
ATOM     10  O   UNL     1      84.606 122.277 124.961  1.00  0.00    -0.550 OA
ENDBRANCH   7   8
ENDBRANCH   6   7
ENDBRANCH   5   6
ENDBRANCH   4   5
ENDBRANCH   3   4
ENDBRANCH   2   3
ENDBRANCH   1   2
BRANCH   1  11
ATOM     11  C   UNL     1      87.357 123.023 129.874  1.00  0.00     0.000 C 
BRANCH  11  12
ATOM     12  C   UNL     1      87.208 124.205 130.850  1.00  0.00     0.000 C 
BRANCH  12  13
ATOM     13  C   UNL     1      86.104 123.986 131.895  1.00  0.00     0.000 C 
BRANCH  13  14
ATOM     14  C   UNL     1      85.226 125.239 132.036  1.00  0.00     0.000 C 
BRANCH  14  15
ATOM     15  C   UNL     1      83.838 125.076 131.392  1.00  0.00     0.000 C 
BRANCH  15  16
ATOM     16  C   UNL     1      83.588 125.956 130.151  1.00  0.00     0.006 C 
BRANCH  16  17
ATOM     17  C   UNL     1      84.651 127.040 129.912  1.00  0.00     0.053 C 
BRANCH  17  18
ATOM     18  C   UNL     1      85.459 126.771 128.680  1.00  0.00     0.041 C 
ATOM     19  O   UNL     1      86.264 127.637 128.249  1.00  0.00    -0.550 OA
ATOM     20  O   UNL     1      85.347 125.550 128.027  1.00  0.00    -0.550 OA
ENDBRANCH  17  18
ENDBRANCH  16  17
ENDBRANCH  15  16
ENDBRANCH  14  15
ENDBRANCH  13  14
ENDBRANCH  12  13
ENDBRANCH  11  12
ENDBRANCH   1  11
TORSDOF 15
ENDMDL
