MODEL 1
REMARK VINA RESULT:    -5.312      0.000      0.000
REMARK INTER + INTRA:          -6.001
REMARK INTER:                  -5.933
REMARK INTRA:                  -0.068
REMARK UNBOUND:                -0.068
REMARK SMILES COc1cc2ccc(=O)oc2c(O)c1O
REMARK SMILES IDX 3 1 14 2 12 3 11 4 5 5 4 6 6 7 7 8 8 9 9 10 10 11 2 12 1 13
REMARK SMILES IDX 15 14 13 16
REMARK H PARENT 15 15 13 17
REMARK Flexibility Score: inf
ROOT
ATOM      1  C   UNL     1      11.893  -1.237   5.407  1.00  0.00     0.165 A 
ATOM      2  C   UNL     1      12.141  -2.428   6.117  1.00  0.00     0.204 A 
ATOM      3  C   UNL     1      11.204  -3.477   6.091  1.00  0.00     0.205 A 
ATOM      4  C   UNL     1      10.020  -3.340   5.359  1.00  0.00     0.184 A 
ATOM      5  C   UNL     1       9.767  -2.149   4.646  1.00  0.00     0.025 A 
ATOM      6  C   UNL     1      10.699  -1.105   4.671  1.00  0.00     0.062 A 
ATOM      7  C   UNL     1       8.573  -2.044   3.924  1.00  0.00     0.020 A 
ATOM      8  C   UNL     1       7.673  -3.109   3.927  1.00  0.00     0.094 A 
ATOM      9  C   UNL     1       7.990  -4.259   4.656  1.00  0.00     0.336 A 
ATOM     10  O   UNL     1       7.192  -5.232   4.673  1.00  0.00    -0.246 OA
ATOM     11  O   UNL     1       9.132  -4.333   5.335  1.00  0.00    -0.419 OA
ENDROOT
BRANCH   1  12
ATOM     12  O   UNL     1      12.850  -0.210   5.455  1.00  0.00    -0.493 OA
ATOM     13  C   UNL     1      13.704   0.151   4.374  1.00  0.00     0.278 C 
ENDBRANCH   1  12
BRANCH   2  14
ATOM     14  O   UNL     1      13.318  -2.583   6.853  1.00  0.00    -0.502 OA
ATOM     15  H   UNL     1      13.904  -3.405   6.772  1.00  0.00     0.293 HD
ENDBRANCH   2  14
BRANCH   3  16
ATOM     16  O   UNL     1      11.437  -4.663   6.789  1.00  0.00    -0.502 OA
ATOM     17  H   UNL     1      12.304  -5.179   6.704  1.00  0.00     0.293 HD
ENDBRANCH   3  16
TORSDOF 3
ENDMDL
MODEL 2
REMARK VINA RESULT:    -5.290      2.422      3.120
REMARK INTER + INTRA:          -5.977
REMARK INTER:                  -5.926
REMARK INTRA:                  -0.051
REMARK UNBOUND:                -0.068
REMARK SMILES COc1cc2ccc(=O)oc2c(O)c1O
REMARK SMILES IDX 3 1 14 2 12 3 11 4 5 5 4 6 6 7 7 8 8 9 9 10 10 11 2 12 1 13
REMARK SMILES IDX 15 14 13 16
REMARK H PARENT 15 15 13 17
REMARK Flexibility Score: inf
ROOT
ATOM      1  C   UNL     1      10.784  -1.146   7.182  1.00  0.00     0.165 A 
ATOM      2  C   UNL     1      12.041  -1.207   6.549  1.00  0.00     0.204 A 
ATOM      3  C   UNL     1      12.139  -1.597   5.201  1.00  0.00     0.205 A 
ATOM      4  C   UNL     1      10.984  -1.927   4.482  1.00  0.00     0.184 A 
ATOM      5  C   UNL     1       9.723  -1.867   5.111  1.00  0.00     0.025 A 
ATOM      6  C   UNL     1       9.625  -1.478   6.452  1.00  0.00     0.062 A 
ATOM      7  C   UNL     1       8.588  -2.202   4.364  1.00  0.00     0.020 A 
ATOM      8  C   UNL     1       8.732  -2.584   3.031  1.00  0.00     0.094 A 
ATOM      9  C   UNL     1      10.013  -2.621   2.473  1.00  0.00     0.336 A 
ATOM     10  O   UNL     1      10.166  -2.962   1.272  1.00  0.00    -0.246 OA
ATOM     11  O   UNL     1      11.076  -2.297   3.205  1.00  0.00    -0.419 OA
ENDROOT
BRANCH   1  12
ATOM     12  O   UNL     1      10.723  -0.752   8.528  1.00  0.00    -0.493 OA
ATOM     13  C   UNL     1       9.624  -0.070   9.123  1.00  0.00     0.278 C 
ENDBRANCH   1  12
BRANCH   2  14
ATOM     14  O   UNL     1      13.204  -0.881   7.250  1.00  0.00    -0.502 OA
ATOM     15  H   UNL     1      13.928  -1.562   7.446  1.00  0.00     0.293 HD
ENDBRANCH   2  14
BRANCH   3  16
ATOM     16  O   UNL     1      13.378  -1.662   4.561  1.00  0.00    -0.502 OA
ATOM     17  H   UNL     1      13.939  -0.838   4.386  1.00  0.00     0.293 HD
ENDBRANCH   3  16
TORSDOF 3
ENDMDL
MODEL 3
REMARK VINA RESULT:    -5.290      2.767      5.532
REMARK INTER + INTRA:          -5.977
REMARK INTER:                  -5.927
REMARK INTRA:                  -0.050
REMARK UNBOUND:                -0.068
REMARK SMILES COc1cc2ccc(=O)oc2c(O)c1O
REMARK SMILES IDX 3 1 14 2 12 3 11 4 5 5 4 6 6 7 7 8 8 9 9 10 10 11 2 12 1 13
REMARK SMILES IDX 15 14 13 16
REMARK H PARENT 15 15 13 17
REMARK Flexibility Score: inf
ROOT
ATOM      1  C   UNL     1       8.007  -4.524   5.132  1.00  0.00     0.165 A 
ATOM      2  C   UNL     1       8.225  -3.311   4.449  1.00  0.00     0.204 A 
ATOM      3  C   UNL     1       8.799  -2.214   5.117  1.00  0.00     0.205 A 
ATOM      4  C   UNL     1       9.156  -2.324   6.465  1.00  0.00     0.184 A 
ATOM      5  C   UNL     1       8.939  -3.536   7.153  1.00  0.00     0.025 A 
ATOM      6  C   UNL     1       8.369  -4.628   6.489  1.00  0.00     0.062 A 
ATOM      7  C   UNL     1       9.308  -3.613   8.501  1.00  0.00     0.020 A 
ATOM      8  C   UNL     1       9.872  -2.500   9.123  1.00  0.00     0.094 A 
ATOM      9  C   UNL     1      10.057  -1.331   8.378  1.00  0.00     0.336 A 
ATOM     10  O   UNL     1      10.566  -0.316   8.920  1.00  0.00    -0.246 OA
ATOM     11  O   UNL     1       9.699  -1.285   7.098  1.00  0.00    -0.419 OA
ENDROOT
BRANCH   1  12
ATOM     12  O   UNL     1       7.432  -5.598   4.434  1.00  0.00    -0.493 OA
ATOM     13  C   UNL     1       6.766  -6.697   5.048  1.00  0.00     0.278 C 
ENDBRANCH   1  12
BRANCH   2  14
ATOM     14  O   UNL     1       7.876  -3.183   3.103  1.00  0.00    -0.502 OA
ATOM     15  H   UNL     1       7.421  -3.927   2.587  1.00  0.00     0.293 HD
ENDBRANCH   2  14
BRANCH   3  16
ATOM     16  O   UNL     1       9.021  -1.007   4.452  1.00  0.00    -0.502 OA
ATOM     17  H   UNL     1       8.591  -0.794   3.560  1.00  0.00     0.293 HD
ENDBRANCH   3  16
TORSDOF 3
ENDMDL
MODEL 4
REMARK VINA RESULT:    -5.283      2.399      5.421
REMARK INTER + INTRA:          -5.969
REMARK INTER:                  -5.901
REMARK INTRA:                  -0.068
REMARK UNBOUND:                -0.068
REMARK SMILES COc1cc2ccc(=O)oc2c(O)c1O
REMARK SMILES IDX 3 1 14 2 12 3 11 4 5 5 4 6 6 7 7 8 8 9 9 10 10 11 2 12 1 13
REMARK SMILES IDX 15 14 13 16
REMARK H PARENT 15 15 13 17
REMARK Flexibility Score: inf
ROOT
ATOM      1  C   UNL     1       6.803  -5.478   6.053  1.00  0.00     0.165 A 
ATOM      2  C   UNL     1       7.615  -5.105   7.142  1.00  0.00     0.204 A 
ATOM      3  C   UNL     1       8.529  -4.043   7.014  1.00  0.00     0.205 A 
ATOM      4  C   UNL     1       8.635  -3.352   5.801  1.00  0.00     0.184 A 
ATOM      5  C   UNL     1       7.823  -3.722   4.708  1.00  0.00     0.025 A 
ATOM      6  C   UNL     1       6.913  -4.778   4.835  1.00  0.00     0.062 A 
ATOM      7  C   UNL     1       7.953  -3.011   3.510  1.00  0.00     0.020 A 
ATOM      8  C   UNL     1       8.872  -1.966   3.428  1.00  0.00     0.094 A 
ATOM      9  C   UNL     1       9.644  -1.655   4.552  1.00  0.00     0.336 A 
ATOM     10  O   UNL     1      10.479  -0.716   4.500  1.00  0.00    -0.246 OA
ATOM     11  O   UNL     1       9.500  -2.347   5.680  1.00  0.00    -0.419 OA
ENDROOT
BRANCH   1  12
ATOM     12  O   UNL     1       5.902  -6.542   6.216  1.00  0.00    -0.493 OA
ATOM     13  C   UNL     1       4.490  -6.396   6.336  1.00  0.00     0.278 C 
ENDBRANCH   1  12
BRANCH   2  14
ATOM     14  O   UNL     1       7.523  -5.782   8.359  1.00  0.00    -0.502 OA
ATOM     15  H   UNL     1       8.268  -6.373   8.709  1.00  0.00     0.293 HD
ENDBRANCH   2  14
BRANCH   3  16
ATOM     16  O   UNL     1       9.340  -3.662   8.084  1.00  0.00    -0.502 OA
ATOM     17  H   UNL     1       9.078  -2.922   8.724  1.00  0.00     0.293 HD
ENDBRANCH   3  16
TORSDOF 3
ENDMDL
MODEL 5
REMARK VINA RESULT:    -5.279      2.165      3.551
REMARK INTER + INTRA:          -5.964
REMARK INTER:                  -5.898
REMARK INTRA:                  -0.066
REMARK UNBOUND:                -0.068
REMARK SMILES COc1cc2ccc(=O)oc2c(O)c1O
REMARK SMILES IDX 3 1 14 2 12 3 11 4 5 5 4 6 6 7 7 8 8 9 9 10 10 11 2 12 1 13
REMARK SMILES IDX 15 14 13 16
REMARK H PARENT 15 15 13 17
REMARK Flexibility Score: inf
ROOT
ATOM      1  C   UNL     1       9.657  -2.070   6.228  1.00  0.00     0.165 A 
ATOM      2  C   UNL     1       9.027  -1.884   4.982  1.00  0.00     0.204 A 
ATOM      3  C   UNL     1       8.091  -2.824   4.513  1.00  0.00     0.205 A 
ATOM      4  C   UNL     1       7.783  -3.949   5.285  1.00  0.00     0.184 A 
ATOM      5  C   UNL     1       8.411  -4.140   6.533  1.00  0.00     0.025 A 
ATOM      6  C   UNL     1       9.341  -3.205   7.001  1.00  0.00     0.062 A 
ATOM      7  C   UNL     1       8.080  -5.276   7.281  1.00  0.00     0.020 A 
ATOM      8  C   UNL     1       7.148  -6.182   6.776  1.00  0.00     0.094 A 
ATOM      9  C   UNL     1       6.565  -5.928   5.531  1.00  0.00     0.336 A 
ATOM     10  O   UNL     1       5.721  -6.732   5.057  1.00  0.00    -0.246 OA
ATOM     11  O   UNL     1       6.897  -4.840   4.841  1.00  0.00    -0.419 OA
ENDROOT
BRANCH   1  12
ATOM     12  O   UNL     1      10.585  -1.112   6.666  1.00  0.00    -0.493 OA
ATOM     13  C   UNL     1      11.982  -1.346   6.813  1.00  0.00     0.278 C 
ENDBRANCH   1  12
BRANCH   2  14
ATOM     14  O   UNL     1       9.322  -0.766   4.199  1.00  0.00    -0.502 OA
ATOM     15  H   UNL     1      10.231  -0.626   3.775  1.00  0.00     0.293 HD
ENDBRANCH   2  14
BRANCH   3  16
ATOM     16  O   UNL     1       7.460  -2.652   3.280  1.00  0.00    -0.502 OA
ATOM     17  H   UNL     1       6.976  -1.797   3.035  1.00  0.00     0.293 HD
ENDBRANCH   3  16
TORSDOF 3
ENDMDL
MODEL 6
REMARK VINA RESULT:    -5.240      1.912      5.213
REMARK INTER + INTRA:          -5.921
REMARK INTER:                  -5.854
REMARK INTRA:                  -0.067
REMARK UNBOUND:                -0.068
REMARK SMILES COc1cc2ccc(=O)oc2c(O)c1O
REMARK SMILES IDX 3 1 14 2 12 3 11 4 5 5 4 6 6 7 7 8 8 9 9 10 10 11 2 12 1 13
REMARK SMILES IDX 15 14 13 16
REMARK H PARENT 15 15 13 17
REMARK Flexibility Score: inf
ROOT
ATOM      1  C   UNL     1       8.168  -3.769   5.058  1.00  0.00     0.165 A 
ATOM      2  C   UNL     1       9.089  -3.585   4.008  1.00  0.00     0.204 A 
ATOM      3  C   UNL     1      10.272  -2.853   4.222  1.00  0.00     0.205 A 
ATOM      4  C   UNL     1      10.538  -2.306   5.482  1.00  0.00     0.184 A 
ATOM      5  C   UNL     1       9.619  -2.488   6.536  1.00  0.00     0.025 A 
ATOM      6  C   UNL     1       8.442  -3.216   6.324  1.00  0.00     0.062 A 
ATOM      7  C   UNL     1       9.915  -1.929   7.784  1.00  0.00     0.020 A 
ATOM      8  C   UNL     1      11.099  -1.211   7.951  1.00  0.00     0.094 A 
ATOM      9  C   UNL     1      11.963  -1.071   6.861  1.00  0.00     0.336 A 
ATOM     10  O   UNL     1      13.037  -0.428   6.989  1.00  0.00    -0.246 OA
ATOM     11  O   UNL     1      11.658  -1.614   5.685  1.00  0.00    -0.419 OA
ENDROOT
BRANCH   1  12
ATOM     12  O   UNL     1       6.998  -4.504   4.809  1.00  0.00    -0.493 OA
ATOM     13  C   UNL     1       6.724  -5.795   5.345  1.00  0.00     0.278 C 
ENDBRANCH   1  12
BRANCH   2  14
ATOM     14  O   UNL     1       8.840  -4.124   2.744  1.00  0.00    -0.502 OA
ATOM     15  H   UNL     1       9.047  -3.622   1.889  1.00  0.00     0.293 HD
ENDBRANCH   2  14
BRANCH   3  16
ATOM     16  O   UNL     1      11.193  -2.663   3.191  1.00  0.00    -0.502 OA
ATOM     17  H   UNL     1      12.190  -2.615   3.359  1.00  0.00     0.293 HD
ENDBRANCH   3  16
TORSDOF 3
ENDMDL
MODEL 7
REMARK VINA RESULT:    -5.178      2.706      3.797
REMARK INTER + INTRA:          -5.852
REMARK INTER:                  -5.783
REMARK INTRA:                  -0.069
REMARK UNBOUND:                -0.068
REMARK SMILES COc1cc2ccc(=O)oc2c(O)c1O
REMARK SMILES IDX 3 1 14 2 12 3 11 4 5 5 4 6 6 7 7 8 8 9 9 10 10 11 2 12 1 13
REMARK SMILES IDX 15 14 13 16
REMARK H PARENT 15 15 13 17
REMARK Flexibility Score: inf
ROOT
ATOM      1  C   UNL     1       8.604  -2.672   4.316  1.00  0.00     0.165 A 
ATOM      2  C   UNL     1       9.195  -2.262   5.528  1.00  0.00     0.204 A 
ATOM      3  C   UNL     1       8.982  -3.001   6.706  1.00  0.00     0.205 A 
ATOM      4  C   UNL     1       8.181  -4.148   6.678  1.00  0.00     0.184 A 
ATOM      5  C   UNL     1       7.588  -4.563   5.468  1.00  0.00     0.025 A 
ATOM      6  C   UNL     1       7.799  -3.829   4.295  1.00  0.00     0.062 A 
ATOM      7  C   UNL     1       6.793  -5.714   5.474  1.00  0.00     0.020 A 
ATOM      8  C   UNL     1       6.609  -6.415   6.665  1.00  0.00     0.094 A 
ATOM      9  C   UNL     1       7.228  -5.945   7.828  1.00  0.00     0.336 A 
ATOM     10  O   UNL     1       7.076  -6.562   8.914  1.00  0.00    -0.246 OA
ATOM     11  O   UNL     1       7.980  -4.847   7.794  1.00  0.00    -0.419 OA
ENDROOT
BRANCH   1  12
ATOM     12  O   UNL     1       8.838  -1.912   3.159  1.00  0.00    -0.493 OA
ATOM     13  C   UNL     1       9.714  -2.293   2.104  1.00  0.00     0.278 C 
ENDBRANCH   1  12
BRANCH   2  14
ATOM     14  O   UNL     1       9.997  -1.120   5.574  1.00  0.00    -0.502 OA
ATOM     15  H   UNL     1      10.678  -0.965   6.308  1.00  0.00     0.293 HD
ENDBRANCH   2  14
BRANCH   3  16
ATOM     16  O   UNL     1       9.561  -2.606   7.913  1.00  0.00    -0.502 OA
ATOM     17  H   UNL     1      10.069  -1.735   8.010  1.00  0.00     0.293 HD
ENDBRANCH   3  16
TORSDOF 3
ENDMDL
MODEL 8
REMARK VINA RESULT:    -4.997      2.275      2.885
REMARK INTER + INTRA:          -5.649
REMARK INTER:                  -5.646
REMARK INTRA:                  -0.003
REMARK UNBOUND:                -0.068
REMARK SMILES COc1cc2ccc(=O)oc2c(O)c1O
REMARK SMILES IDX 3 1 14 2 12 3 11 4 5 5 4 6 6 7 7 8 8 9 9 10 10 11 2 12 1 13
REMARK SMILES IDX 15 14 13 16
REMARK H PARENT 15 15 13 17
REMARK Flexibility Score: inf
ROOT
ATOM      1  C   UNL     1      12.387  -1.599   7.051  1.00  0.00     0.165 A 
ATOM      2  C   UNL     1      11.163  -1.408   7.722  1.00  0.00     0.204 A 
ATOM      3  C   UNL     1       9.947  -1.497   7.019  1.00  0.00     0.205 A 
ATOM      4  C   UNL     1       9.950  -1.776   5.648  1.00  0.00     0.184 A 
ATOM      5  C   UNL     1      11.173  -1.968   4.972  1.00  0.00     0.025 A 
ATOM      6  C   UNL     1      12.383  -1.880   5.670  1.00  0.00     0.062 A 
ATOM      7  C   UNL     1      11.141  -2.247   3.600  1.00  0.00     0.020 A 
ATOM      8  C   UNL     1       9.913  -2.324   2.945  1.00  0.00     0.094 A 
ATOM      9  C   UNL     1       8.741  -2.123   3.679  1.00  0.00     0.336 A 
ATOM     10  O   UNL     1       7.622  -2.189   3.107  1.00  0.00    -0.246 OA
ATOM     11  O   UNL     1       8.799  -1.860   4.983  1.00  0.00    -0.419 OA
ENDROOT
BRANCH   1  12
ATOM     12  O   UNL     1      13.581  -1.503   7.783  1.00  0.00    -0.493 OA
ATOM     13  C   UNL     1      14.121  -2.545   8.590  1.00  0.00     0.278 C 
ENDBRANCH   1  12
BRANCH   2  14
ATOM     14  O   UNL     1      11.141  -1.129   9.090  1.00  0.00    -0.502 OA
ATOM     15  H   UNL     1      10.406  -0.580   9.520  1.00  0.00     0.293 HD
ENDBRANCH   2  14
BRANCH   3  16
ATOM     16  O   UNL     1       8.727  -1.310   7.671  1.00  0.00    -0.502 OA
ATOM     17  H   UNL     1       7.867  -1.131   7.167  1.00  0.00     0.293 HD
ENDBRANCH   3  16
TORSDOF 3
ENDMDL
MODEL 9
REMARK VINA RESULT:    -4.732      4.142      6.126
REMARK INTER + INTRA:          -5.353
REMARK INTER:                  -5.292
REMARK INTRA:                  -0.062
REMARK UNBOUND:                -0.068
REMARK SMILES COc1cc2ccc(=O)oc2c(O)c1O
REMARK SMILES IDX 3 1 14 2 12 3 11 4 5 5 4 6 6 7 7 8 8 9 9 10 10 11 2 12 1 13
REMARK SMILES IDX 15 14 13 16
REMARK H PARENT 15 15 13 17
REMARK Flexibility Score: inf
ROOT
ATOM      1  C   UNL     1       7.363  -5.184   5.914  1.00  0.00     0.165 A 
ATOM      2  C   UNL     1       8.079  -6.191   6.591  1.00  0.00     0.204 A 
ATOM      3  C   UNL     1       7.426  -7.361   7.018  1.00  0.00     0.205 A 
ATOM      4  C   UNL     1       6.059  -7.529   6.772  1.00  0.00     0.184 A 
ATOM      5  C   UNL     1       5.337  -6.524   6.095  1.00  0.00     0.025 A 
ATOM      6  C   UNL     1       5.987  -5.359   5.669  1.00  0.00     0.062 A 
ATOM      7  C   UNL     1       3.971  -6.723   5.864  1.00  0.00     0.020 A 
ATOM      8  C   UNL     1       3.365  -7.898   6.306  1.00  0.00     0.094 A 
ATOM      9  C   UNL     1       4.142  -8.851   6.971  1.00  0.00     0.336 A 
ATOM     10  O   UNL     1       3.616  -9.919   7.378  1.00  0.00    -0.246 OA
ATOM     11  O   UNL     1       5.440  -8.637   7.177  1.00  0.00    -0.419 OA
ENDROOT
BRANCH   1  12
ATOM     12  O   UNL     1       8.047  -4.029   5.502  1.00  0.00    -0.493 OA
ATOM     13  C   UNL     1       8.123  -3.571   4.156  1.00  0.00     0.278 C 
ENDBRANCH   1  12
BRANCH   2  14
ATOM     14  O   UNL     1       9.444  -6.041   6.844  1.00  0.00    -0.502 OA
ATOM     15  H   UNL     1       9.806  -5.853   7.771  1.00  0.00     0.293 HD
ENDBRANCH   2  14
BRANCH   3  16
ATOM     16  O   UNL     1       8.123  -8.367   7.689  1.00  0.00    -0.502 OA
ATOM     17  H   UNL     1       7.652  -9.084   8.228  1.00  0.00     0.293 HD
ENDBRANCH   3  16
TORSDOF 3
ENDMDL
