MODEL 1
REMARK VINA RESULT:    -2.640      0.000      0.000
REMARK INTER + INTRA:          -3.059
REMARK INTER:                  -3.103
REMARK INTRA:                   0.043
REMARK UNBOUND:                 0.043
REMARK SMILES O=C([O-])CCC(=O)[O-]
REMARK SMILES IDX 4 1 2 2 1 3 3 4 5 5 6 6 7 7 8 8
REMARK H PARENT
REMARK Flexibility Score: inf
ROOT
ATOM      1  C   UNL     1      33.482  -6.485  27.903  1.00  0.00     0.059 C 
ENDROOT
BRANCH   1   2
ATOM      2  C   UNL     1      34.378  -5.499  28.588  1.00  0.00     0.042 C 
ATOM      3  O   UNL     1      35.255  -4.878  27.933  1.00  0.00    -0.550 OA
ATOM      4  O   UNL     1      34.216  -5.236  29.943  1.00  0.00    -0.550 OA
ENDBRANCH   1   2
BRANCH   1   5
ATOM      5  C   UNL     1      32.734  -5.847  26.727  1.00  0.00     0.059 C 
BRANCH   5   6
ATOM      6  C   UNL     1      31.448  -5.218  27.168  1.00  0.00     0.042 C 
ATOM      7  O   UNL     1      31.287  -4.879  28.370  1.00  0.00    -0.550 OA
ATOM      8  O   UNL     1      30.412  -5.044  26.259  1.00  0.00    -0.550 OA
ENDBRANCH   5   6
ENDBRANCH   1   5
TORSDOF 3
ENDMDL
MODEL 2
REMARK VINA RESULT:    -2.563      0.168      3.674
REMARK INTER + INTRA:          -2.969
REMARK INTER:                  -2.958
REMARK INTRA:                  -0.011
REMARK UNBOUND:                 0.043
REMARK SMILES O=C([O-])CCC(=O)[O-]
REMARK SMILES IDX 4 1 2 2 1 3 3 4 5 5 6 6 7 7 8 8
REMARK H PARENT
REMARK Flexibility Score: inf
ROOT
ATOM      1  C   UNL     1      32.750  -5.855  26.874  1.00  0.00     0.059 C 
ENDROOT
BRANCH   1   2
ATOM      2  C   UNL     1      31.431  -5.244  27.236  1.00  0.00     0.042 C 
ATOM      3  O   UNL     1      30.539  -5.096  26.360  1.00  0.00    -0.550 OA
ATOM      4  O   UNL     1      31.174  -4.875  28.551  1.00  0.00    -0.550 OA
ENDBRANCH   1   2
BRANCH   1   5
ATOM      5  C   UNL     1      33.450  -6.457  28.098  1.00  0.00     0.059 C 
BRANCH   5   6
ATOM      6  C   UNL     1      34.362  -5.466  28.753  1.00  0.00     0.042 C 
ATOM      7  O   UNL     1      35.246  -4.875  28.079  1.00  0.00    -0.550 OA
ATOM      8  O   UNL     1      34.264  -5.227  30.118  1.00  0.00    -0.550 OA
ENDBRANCH   5   6
ENDBRANCH   1   5
TORSDOF 3
ENDMDL
MODEL 3
REMARK VINA RESULT:    -2.156     15.457     16.749
REMARK INTER + INTRA:          -2.491
REMARK INTER:                  -2.367
REMARK INTRA:                  -0.125
REMARK UNBOUND:                 0.043
REMARK SMILES O=C([O-])CCC(=O)[O-]
REMARK SMILES IDX 4 1 2 2 1 3 3 4 5 5 6 6 7 7 8 8
REMARK H PARENT
REMARK Flexibility Score: inf
ROOT
ATOM      1  C   UNL     1      15.986  -9.571  28.055  1.00  0.00     0.059 C 
ENDROOT
BRANCH   1   2
ATOM      2  C   UNL     1      16.205  -8.617  26.921  1.00  0.00     0.042 C 
ATOM      3  O   UNL     1      15.875  -7.407  27.038  1.00  0.00    -0.550 OA
ATOM      4  O   UNL     1      16.812  -9.055  25.750  1.00  0.00    -0.550 OA
ENDBRANCH   1   2
BRANCH   1   5
ATOM      5  C   UNL     1      16.197  -8.892  29.413  1.00  0.00     0.059 C 
BRANCH   5   6
ATOM      6  C   UNL     1      17.638  -8.914  29.822  1.00  0.00     0.042 C 
ATOM      7  O   UNL     1      18.196 -10.001  30.125  1.00  0.00    -0.550 OA
ATOM      8  O   UNL     1      18.354  -7.726  29.907  1.00  0.00    -0.550 OA
ENDBRANCH   5   6
ENDBRANCH   1   5
TORSDOF 3
ENDMDL
MODEL 4
REMARK VINA RESULT:    -2.103     15.755     16.802
REMARK INTER + INTRA:          -2.429
REMARK INTER:                  -2.398
REMARK INTRA:                  -0.031
REMARK UNBOUND:                 0.043
REMARK SMILES O=C([O-])CCC(=O)[O-]
REMARK SMILES IDX 4 1 2 2 1 3 3 4 5 5 6 6 7 7 8 8
REMARK H PARENT
REMARK Flexibility Score: inf
ROOT
ATOM      1  C   UNL     1      17.388  -8.939  26.743  1.00  0.00     0.059 C 
ENDROOT
BRANCH   1   2
ATOM      2  C   UNL     1      17.170  -8.504  25.326  1.00  0.00     0.042 C 
ATOM      3  O   UNL     1      16.005  -8.456  24.850  1.00  0.00    -0.550 OA
ATOM      4  O   UNL     1      18.250  -8.112  24.545  1.00  0.00    -0.550 OA
ENDBRANCH   1   2
BRANCH   1   5
ATOM      5  C   UNL     1      16.108  -8.808  27.578  1.00  0.00     0.059 C 
BRANCH   5   6
ATOM      6  C   UNL     1      16.390  -8.937  29.043  1.00  0.00     0.042 C 
ATOM      7  O   UNL     1      16.408 -10.072  29.588  1.00  0.00    -0.550 OA
ATOM      8  O   UNL     1      16.593  -7.800  29.815  1.00  0.00    -0.550 OA
ENDBRANCH   5   6
ENDBRANCH   1   5
TORSDOF 3
ENDMDL
MODEL 5
REMARK VINA RESULT:    -2.092     15.728     16.672
REMARK INTER + INTRA:          -2.416
REMARK INTER:                  -2.384
REMARK INTRA:                  -0.032
REMARK UNBOUND:                 0.043
REMARK SMILES O=C([O-])CCC(=O)[O-]
REMARK SMILES IDX 4 1 2 2 1 3 3 4 5 5 6 6 7 7 8 8
REMARK H PARENT
REMARK Flexibility Score: inf
ROOT
ATOM      1  C   UNL     1      16.129  -8.937  27.558  1.00  0.00     0.059 C 
ENDROOT
BRANCH   1   2
ATOM      2  C   UNL     1      16.392  -9.029  29.030  1.00  0.00     0.042 C 
ATOM      3  O   UNL     1      16.607 -10.148  29.567  1.00  0.00    -0.550 OA
ATOM      4  O   UNL     1      16.440  -7.874  29.802  1.00  0.00    -0.550 OA
ENDBRANCH   1   2
BRANCH   1   5
ATOM      5  C   UNL     1      17.433  -8.880  26.754  1.00  0.00     0.059 C 
BRANCH   5   6
ATOM      6  C   UNL     1      17.188  -8.465  25.336  1.00  0.00     0.042 C 
ATOM      7  O   UNL     1      16.018  -8.460  24.869  1.00  0.00    -0.550 OA
ATOM      8  O   UNL     1      18.257  -8.123  24.517  1.00  0.00    -0.550 OA
ENDBRANCH   5   6
ENDBRANCH   1   5
TORSDOF 3
ENDMDL
MODEL 6
REMARK VINA RESULT:    -2.063     15.773     16.596
REMARK INTER + INTRA:          -2.382
REMARK INTER:                  -2.242
REMARK INTRA:                  -0.140
REMARK UNBOUND:                 0.043
REMARK SMILES O=C([O-])CCC(=O)[O-]
REMARK SMILES IDX 4 1 2 2 1 3 3 4 5 5 6 6 7 7 8 8
REMARK H PARENT
REMARK Flexibility Score: inf
ROOT
ATOM      1  C   UNL     1      16.001  -9.139  29.296  1.00  0.00     0.059 C 
ENDROOT
BRANCH   1   2
ATOM      2  C   UNL     1      17.400  -8.997  29.812  1.00  0.00     0.042 C 
ATOM      3  O   UNL     1      18.088 -10.020  30.068  1.00  0.00    -0.550 OA
ATOM      4  O   UNL     1      17.957  -7.734  29.972  1.00  0.00    -0.550 OA
ENDBRANCH   1   2
BRANCH   1   5
ATOM      5  C   UNL     1      15.980  -9.694  27.867  1.00  0.00     0.059 C 
BRANCH   5   6
ATOM      6  C   UNL     1      16.225  -8.619  26.854  1.00  0.00     0.042 C 
ATOM      7  O   UNL     1      16.783  -8.893  25.759  1.00  0.00    -0.550 OA
ATOM      8  O   UNL     1      15.875  -7.304  27.138  1.00  0.00    -0.550 OA
ENDBRANCH   5   6
ENDBRANCH   1   5
TORSDOF 3
ENDMDL
MODEL 7
REMARK VINA RESULT:    -1.325      2.010      3.070
REMARK INTER + INTRA:          -1.514
REMARK INTER:                  -1.494
REMARK INTRA:                  -0.020
REMARK UNBOUND:                 0.043
REMARK SMILES O=C([O-])CCC(=O)[O-]
REMARK SMILES IDX 4 1 2 2 1 3 3 4 5 5 6 6 7 7 8 8
REMARK H PARENT
REMARK Flexibility Score: inf
ROOT
ATOM      1  C   UNL     1      33.632  -5.304  28.311  1.00  0.00     0.059 C 
ENDROOT
BRANCH   1   2
ATOM      2  C   UNL     1      32.218  -5.762  28.123  1.00  0.00     0.042 C 
ATOM      3  O   UNL     1      31.328  -4.943  27.774  1.00  0.00    -0.550 OA
ATOM      4  O   UNL     1      31.892  -7.102  28.295  1.00  0.00    -0.550 OA
ENDBRANCH   1   2
BRANCH   1   5
ATOM      5  C   UNL     1      34.299  -4.965  26.972  1.00  0.00     0.059 C 
BRANCH   5   6
ATOM      6  C   UNL     1      33.936  -5.957  25.910  1.00  0.00     0.042 C 
ATOM      7  O   UNL     1      34.419  -7.119  25.935  1.00  0.00    -0.550 OA
ATOM      8  O   UNL     1      33.097  -5.583  24.868  1.00  0.00    -0.550 OA
ENDBRANCH   5   6
ENDBRANCH   1   5
TORSDOF 3
ENDMDL
MODEL 8
REMARK VINA RESULT:    -0.973     20.729     22.012
REMARK INTER + INTRA:          -1.101
REMARK INTER:                  -1.041
REMARK INTRA:                  -0.059
REMARK UNBOUND:                 0.043
REMARK SMILES O=C([O-])CCC(=O)[O-]
REMARK SMILES IDX 4 1 2 2 1 3 3 4 5 5 6 6 7 7 8 8
REMARK H PARENT
REMARK Flexibility Score: inf
ROOT
ATOM      1  C   UNL     1      15.875 -20.126  27.973  1.00  0.00     0.059 C 
ENDROOT
BRANCH   1   2
ATOM      2  C   UNL     1      16.103 -21.326  28.841  1.00  0.00     0.042 C 
ATOM      3  O   UNL     1      16.204 -21.196  30.089  1.00  0.00    -0.550 OA
ATOM      4  O   UNL     1      16.162 -22.593  28.274  1.00  0.00    -0.550 OA
ENDBRANCH   1   2
BRANCH   1   5
ATOM      5  C   UNL     1      17.056 -19.151  28.037  1.00  0.00     0.059 C 
BRANCH   5   6
ATOM      6  C   UNL     1      17.867 -19.184  26.779  1.00  0.00     0.042 C 
ATOM      7  O   UNL     1      19.079 -19.523  26.813  1.00  0.00    -0.550 OA
ATOM      8  O   UNL     1      17.294 -18.800  25.573  1.00  0.00    -0.550 OA
ENDBRANCH   5   6
ENDBRANCH   1   5
TORSDOF 3
ENDMDL
MODEL 9
REMARK VINA RESULT:    -0.881     20.642     21.888
REMARK INTER + INTRA:          -0.992
REMARK INTER:                  -0.923
REMARK INTRA:                  -0.069
REMARK UNBOUND:                 0.043
REMARK SMILES O=C([O-])CCC(=O)[O-]
REMARK SMILES IDX 4 1 2 2 1 3 3 4 5 5 6 6 7 7 8 8
REMARK H PARENT
REMARK Flexibility Score: inf
ROOT
ATOM      1  C   UNL     1      16.983 -19.029  27.873  1.00  0.00     0.059 C 
ENDROOT
BRANCH   1   2
ATOM      2  C   UNL     1      17.875 -19.116  26.672  1.00  0.00     0.042 C 
ATOM      3  O   UNL     1      19.054 -19.542  26.787  1.00  0.00    -0.550 OA
ATOM      4  O   UNL     1      17.389 -18.764  25.419  1.00  0.00    -0.550 OA
ENDBRANCH   1   2
BRANCH   1   5
ATOM      5  C   UNL     1      15.875 -20.088  27.832  1.00  0.00     0.059 C 
BRANCH   5   6
ATOM      6  C   UNL     1      16.147 -21.208  28.788  1.00  0.00     0.042 C 
ATOM      7  O   UNL     1      16.334 -20.967  30.010  1.00  0.00    -0.550 OA
ATOM      8  O   UNL     1      16.235 -22.514  28.322  1.00  0.00    -0.550 OA
ENDBRANCH   5   6
ENDBRANCH   1   5
TORSDOF 3
ENDMDL
