MODEL 1
REMARK VINA RESULT:    -3.920      0.000      0.000
REMARK INTER + INTRA:         -16.009
REMARK INTER:                 -10.337
REMARK INTRA:                  -5.672
REMARK UNBOUND:                -5.672
REMARK SMILES CCCCCCCCCCCCCCCCCCCCCCCCCCCCCC(=O)[O-]
REMARK SMILES IDX 16 1 17 2 18 3 19 4 20 5 21 6 22 7 23 8 24 9 25 10 26 11
REMARK SMILES IDX 27 12 28 13 29 14 30 15 31 16 32 17 15 18 14 19 13 20 12 21
REMARK SMILES IDX 11 22 10 23 9 24 8 25 7 26 6 27 5 28 4 29 3 30 2 31 1 32
REMARK H PARENT
REMARK Flexibility Score: inf
ROOT
ATOM      1  C   UNL     1     -32.040  15.119  23.904  1.00  0.00     0.000 C 
ENDROOT
BRANCH   1   2
ATOM      2  C   UNL     1     -32.692  13.730  23.953  1.00  0.00     0.000 C 
BRANCH   2   3
ATOM      3  C   UNL     1     -33.215  13.369  25.355  1.00  0.00     0.000 C 
BRANCH   3   4
ATOM      4  C   UNL     1     -33.908  14.558  26.040  1.00  0.00     0.000 C 
BRANCH   4   5
ATOM      5  C   UNL     1     -33.196  14.983  27.336  1.00  0.00     0.000 C 
BRANCH   5   6
ATOM      6  C   UNL     1     -31.896  14.187  27.580  1.00  0.00     0.000 C 
BRANCH   6   7
ATOM      7  C   UNL     1     -30.611  15.021  27.419  1.00  0.00     0.000 C 
BRANCH   7   8
ATOM      8  C   UNL     1     -29.333  14.207  27.152  1.00  0.00     0.000 C 
BRANCH   8   9
ATOM      9  C   UNL     1     -29.629  12.788  26.636  1.00  0.00     0.000 C 
BRANCH   9  10
ATOM     10  C   UNL     1     -28.657  12.339  25.529  1.00  0.00     0.000 C 
BRANCH  10  11
ATOM     11  C   UNL     1     -27.419  13.235  25.341  1.00  0.00     0.000 C 
BRANCH  11  12
ATOM     12  C   UNL     1     -26.211  12.478  24.768  1.00  0.00     0.000 C 
BRANCH  12  13
ATOM     13  C   UNL     1     -24.900  13.211  25.079  1.00  0.00     0.006 C 
BRANCH  13  14
ATOM     14  C   UNL     1     -25.156  14.450  25.942  1.00  0.00     0.053 C 
BRANCH  14  15
ATOM     15  C   UNL     1     -24.096  14.598  26.987  1.00  0.00     0.041 C 
ATOM     16  O   UNL     1     -23.052  15.261  26.742  1.00  0.00    -0.550 OA
ATOM     17  O   UNL     1     -24.272  14.030  28.243  1.00  0.00    -0.550 OA
ENDBRANCH  14  15
ENDBRANCH  13  14
ENDBRANCH  12  13
ENDBRANCH  11  12
ENDBRANCH  10  11
ENDBRANCH   9  10
ENDBRANCH   8   9
ENDBRANCH   7   8
ENDBRANCH   6   7
ENDBRANCH   5   6
ENDBRANCH   4   5
ENDBRANCH   3   4
ENDBRANCH   2   3
ENDBRANCH   1   2
BRANCH   1  18
ATOM     18  C   UNL     1     -30.529  15.052  23.617  1.00  0.00     0.000 C 
BRANCH  18  19
ATOM     19  C   UNL     1     -29.818  16.380  23.929  1.00  0.00     0.000 C 
BRANCH  19  20
ATOM     20  C   UNL     1     -30.055  17.442  22.844  1.00  0.00     0.000 C 
BRANCH  20  21
ATOM     21  C   UNL     1     -29.815  16.853  21.445  1.00  0.00     0.000 C 
BRANCH  21  22
ATOM     22  C   UNL     1     -29.071  17.817  20.506  1.00  0.00     0.000 C 
BRANCH  22  23
ATOM     23  C   UNL     1     -28.202  17.081  19.471  1.00  0.00     0.000 C 
BRANCH  23  24
ATOM     24  C   UNL     1     -28.068  15.576  19.764  1.00  0.00    -0.000 C 
BRANCH  24  25
ATOM     25  C   UNL     1     -26.625  15.061  19.944  1.00  0.00    -0.000 C 
BRANCH  25  26
ATOM     26  C   UNL     1     -26.316  14.426  21.312  1.00  0.00    -0.000 C 
BRANCH  26  27
ATOM     27  C   UNL     1     -26.667  15.347  22.493  1.00  0.00    -0.000 C 
BRANCH  27  28
ATOM     28  C   UNL     1     -25.776  16.599  22.547  1.00  0.00    -0.000 C 
BRANCH  28  29
ATOM     29  C   UNL     1     -26.427  17.751  23.328  1.00  0.00    -0.000 C 
BRANCH  29  30
ATOM     30  C   UNL     1     -25.362  18.687  23.913  1.00  0.00    -0.000 C 
BRANCH  30  31
ATOM     31  C   UNL     1     -24.395  17.920  24.823  1.00  0.00    -0.003 C 
ATOM     32  C   UNL     1     -24.456  18.441  26.254  1.00  0.00     0.004 C 
ENDBRANCH  30  31
ENDBRANCH  29  30
ENDBRANCH  28  29
ENDBRANCH  27  28
ENDBRANCH  26  27
ENDBRANCH  25  26
ENDBRANCH  24  25
ENDBRANCH  23  24
ENDBRANCH  22  23
ENDBRANCH  21  22
ENDBRANCH  20  21
ENDBRANCH  19  20
ENDBRANCH  18  19
ENDBRANCH   1  18
TORSDOF 28
ENDMDL
MODEL 2
REMARK VINA RESULT:    -3.900      3.893      5.588
REMARK INTER + INTRA:         -15.956
REMARK INTER:                  -9.454
REMARK INTRA:                  -6.502
REMARK UNBOUND:                -5.672
REMARK SMILES CCCCCCCCCCCCCCCCCCCCCCCCCCCCCC(=O)[O-]
REMARK SMILES IDX 16 1 17 2 18 3 19 4 20 5 21 6 22 7 23 8 24 9 25 10 26 11
REMARK SMILES IDX 27 12 28 13 29 14 30 15 31 16 32 17 15 18 14 19 13 20 12 21
REMARK SMILES IDX 11 22 10 23 9 24 8 25 7 26 6 27 5 28 4 29 3 30 2 31 1 32
REMARK H PARENT
REMARK Flexibility Score: inf
ROOT
ATOM      1  C   UNL     1     -32.815  15.080  23.441  1.00  0.00     0.000 C 
ENDROOT
BRANCH   1   2
ATOM      2  C   UNL     1     -32.526  14.260  24.707  1.00  0.00     0.000 C 
BRANCH   2   3
ATOM      3  C   UNL     1     -32.377  15.139  25.962  1.00  0.00     0.000 C 
BRANCH   3   4
ATOM      4  C   UNL     1     -31.088  14.826  26.740  1.00  0.00     0.000 C 
BRANCH   4   5
ATOM      5  C   UNL     1     -29.841  15.439  26.077  1.00  0.00     0.000 C 
BRANCH   5   6
ATOM      6  C   UNL     1     -28.639  14.471  26.077  1.00  0.00     0.000 C 
BRANCH   6   7
ATOM      7  C   UNL     1     -28.226  13.985  24.676  1.00  0.00     0.000 C 
BRANCH   7   8
ATOM      8  C   UNL     1     -29.060  14.553  23.514  1.00  0.00     0.000 C 
BRANCH   8   9
ATOM      9  C   UNL     1     -29.568  13.461  22.557  1.00  0.00     0.000 C 
BRANCH   9  10
ATOM     10  C   UNL     1     -29.894  14.002  21.152  1.00  0.00     0.000 C 
BRANCH  10  11
ATOM     11  C   UNL     1     -30.996  13.237  20.395  1.00  0.00     0.000 C 
BRANCH  11  12
ATOM     12  C   UNL     1     -32.067  14.162  19.796  1.00  0.00     0.000 C 
BRANCH  12  13
ATOM     13  C   UNL     1     -31.903  14.288  18.277  1.00  0.00     0.006 C 
BRANCH  13  14
ATOM     14  C   UNL     1     -30.892  13.267  17.748  1.00  0.00     0.053 C 
BRANCH  14  15
ATOM     15  C   UNL     1     -30.431  13.636  16.373  1.00  0.00     0.041 C 
ATOM     16  O   UNL     1     -29.590  12.916  15.771  1.00  0.00    -0.550 OA
ATOM     17  O   UNL     1     -30.952  14.760  15.743  1.00  0.00    -0.550 OA
ENDBRANCH  14  15
ENDBRANCH  13  14
ENDBRANCH  12  13
ENDBRANCH  11  12
ENDBRANCH  10  11
ENDBRANCH   9  10
ENDBRANCH   8   9
ENDBRANCH   7   8
ENDBRANCH   6   7
ENDBRANCH   5   6
ENDBRANCH   4   5
ENDBRANCH   3   4
ENDBRANCH   2   3
ENDBRANCH   1   2
BRANCH   1  18
ATOM     18  C   UNL     1     -32.498  16.574  23.620  1.00  0.00     0.000 C 
BRANCH  18  19
ATOM     19  C   UNL     1     -31.614  17.123  22.487  1.00  0.00     0.000 C 
BRANCH  19  20
ATOM     20  C   UNL     1     -30.468  18.003  23.010  1.00  0.00     0.000 C 
BRANCH  20  21
ATOM     21  C   UNL     1     -29.365  18.146  21.950  1.00  0.00     0.000 C 
BRANCH  21  22
ATOM     22  C   UNL     1     -29.554  17.196  20.755  1.00  0.00     0.000 C 
BRANCH  22  23
ATOM     23  C   UNL     1     -28.849  17.700  19.483  1.00  0.00     0.000 C 
BRANCH  23  24
ATOM     24  C   UNL     1     -29.120  16.809  18.257  1.00  0.00    -0.000 C 
BRANCH  24  25
ATOM     25  C   UNL     1     -27.916  15.982  17.760  1.00  0.00    -0.000 C 
BRANCH  25  26
ATOM     26  C   UNL     1     -27.471  14.840  18.693  1.00  0.00    -0.000 C 
BRANCH  26  27
ATOM     27  C   UNL     1     -26.161  15.150  19.436  1.00  0.00    -0.000 C 
BRANCH  27  28
ATOM     28  C   UNL     1     -26.330  15.110  20.964  1.00  0.00    -0.000 C 
BRANCH  28  29
ATOM     29  C   UNL     1     -26.015  16.460  21.627  1.00  0.00    -0.000 C 
BRANCH  29  30
ATOM     30  C   UNL     1     -25.892  16.310  23.147  1.00  0.00    -0.000 C 
BRANCH  30  31
ATOM     31  C   UNL     1     -26.281  17.609  23.863  1.00  0.00    -0.003 C 
ATOM     32  C   UNL     1     -25.498  17.779  25.160  1.00  0.00     0.004 C 
ENDBRANCH  30  31
ENDBRANCH  29  30
ENDBRANCH  28  29
ENDBRANCH  27  28
ENDBRANCH  26  27
ENDBRANCH  25  26
ENDBRANCH  24  25
ENDBRANCH  23  24
ENDBRANCH  22  23
ENDBRANCH  21  22
ENDBRANCH  20  21
ENDBRANCH  19  20
ENDBRANCH  18  19
ENDBRANCH   1  18
TORSDOF 28
ENDMDL
MODEL 3
REMARK VINA RESULT:    -3.899      1.706      4.797
REMARK INTER + INTRA:         -15.953
REMARK INTER:                 -10.292
REMARK INTRA:                  -5.661
REMARK UNBOUND:                -5.672
REMARK SMILES CCCCCCCCCCCCCCCCCCCCCCCCCCCCCC(=O)[O-]
REMARK SMILES IDX 16 1 17 2 18 3 19 4 20 5 21 6 22 7 23 8 24 9 25 10 26 11
REMARK SMILES IDX 27 12 28 13 29 14 30 15 31 16 32 17 15 18 14 19 13 20 12 21
REMARK SMILES IDX 11 22 10 23 9 24 8 25 7 26 6 27 5 28 4 29 3 30 2 31 1 32
REMARK H PARENT
REMARK Flexibility Score: inf
ROOT
ATOM      1  C   UNL     1     -31.388  14.080  27.463  1.00  0.00     0.000 C 
ENDROOT
BRANCH   1   2
ATOM      2  C   UNL     1     -30.355  15.209  27.329  1.00  0.00     0.000 C 
BRANCH   2   3
ATOM      3  C   UNL     1     -29.976  15.496  25.866  1.00  0.00     0.000 C 
BRANCH   3   4
ATOM      4  C   UNL     1     -29.397  14.256  25.163  1.00  0.00     0.000 C 
BRANCH   4   5
ATOM      5  C   UNL     1     -29.908  14.112  23.717  1.00  0.00     0.000 C 
BRANCH   5   6
ATOM      6  C   UNL     1     -29.880  12.648  23.228  1.00  0.00     0.000 C 
BRANCH   6   7
ATOM      7  C   UNL     1     -28.464  12.095  22.987  1.00  0.00     0.000 C 
BRANCH   7   8
ATOM      8  C   UNL     1     -27.706  12.729  21.807  1.00  0.00     0.000 C 
BRANCH   8   9
ATOM      9  C   UNL     1     -26.237  13.037  22.142  1.00  0.00     0.000 C 
BRANCH   9  10
ATOM     10  C   UNL     1     -25.920  14.545  22.115  1.00  0.00     0.000 C 
BRANCH  10  11
ATOM     11  C   UNL     1     -25.162  15.077  23.344  1.00  0.00     0.000 C 
BRANCH  11  12
ATOM     12  C   UNL     1     -26.020  15.097  24.618  1.00  0.00     0.000 C 
BRANCH  12  13
ATOM     13  C   UNL     1     -25.617  13.968  25.575  1.00  0.00     0.006 C 
BRANCH  13  14
ATOM     14  C   UNL     1     -24.094  13.874  25.700  1.00  0.00     0.053 C 
BRANCH  14  15
ATOM     15  C   UNL     1     -23.637  14.382  27.032  1.00  0.00     0.041 C 
ATOM     16  O   UNL     1     -24.312  14.139  28.068  1.00  0.00    -0.550 OA
ATOM     17  O   UNL     1     -22.451  15.099  27.134  1.00  0.00    -0.550 OA
ENDBRANCH  14  15
ENDBRANCH  13  14
ENDBRANCH  12  13
ENDBRANCH  11  12
ENDBRANCH  10  11
ENDBRANCH   9  10
ENDBRANCH   8   9
ENDBRANCH   7   8
ENDBRANCH   6   7
ENDBRANCH   5   6
ENDBRANCH   4   5
ENDBRANCH   3   4
ENDBRANCH   2   3
ENDBRANCH   1   2
BRANCH   1  18
ATOM     18  C   UNL     1     -32.793  14.507  27.004  1.00  0.00     0.000 C 
BRANCH  18  19
ATOM     19  C   UNL     1     -33.325  13.627  25.861  1.00  0.00     0.000 C 
BRANCH  19  20
ATOM     20  C   UNL     1     -33.518  14.414  24.555  1.00  0.00     0.000 C 
BRANCH  20  21
ATOM     21  C   UNL     1     -33.424  15.926  24.812  1.00  0.00     0.000 C 
BRANCH  21  22
ATOM     22  C   UNL     1     -33.536  16.763  23.527  1.00  0.00     0.000 C 
BRANCH  22  23
ATOM     23  C   UNL     1     -32.388  17.777  23.381  1.00  0.00     0.000 C 
BRANCH  23  24
ATOM     24  C   UNL     1     -31.294  17.305  22.406  1.00  0.00    -0.000 C 
BRANCH  24  25
ATOM     25  C   UNL     1     -29.976  18.107  22.452  1.00  0.00    -0.000 C 
BRANCH  25  26
ATOM     26  C   UNL     1     -28.694  17.262  22.569  1.00  0.00    -0.000 C 
BRANCH  26  27
ATOM     27  C   UNL     1     -27.827  17.310  21.300  1.00  0.00    -0.000 C 
BRANCH  27  28
ATOM     28  C   UNL     1     -28.523  18.041  20.140  1.00  0.00    -0.000 C 
BRANCH  28  29
ATOM     29  C   UNL     1     -28.832  17.109  18.958  1.00  0.00    -0.000 C 
BRANCH  29  30
ATOM     30  C   UNL     1     -28.271  15.704  19.206  1.00  0.00    -0.000 C 
BRANCH  30  31
ATOM     31  C   UNL     1     -29.323  14.630  18.903  1.00  0.00    -0.003 C 
ATOM     32  C   UNL     1     -30.378  14.567  20.002  1.00  0.00     0.004 C 
ENDBRANCH  30  31
ENDBRANCH  29  30
ENDBRANCH  28  29
ENDBRANCH  27  28
ENDBRANCH  26  27
ENDBRANCH  25  26
ENDBRANCH  24  25
ENDBRANCH  23  24
ENDBRANCH  22  23
ENDBRANCH  21  22
ENDBRANCH  20  21
ENDBRANCH  19  20
ENDBRANCH  18  19
ENDBRANCH   1  18
TORSDOF 28
ENDMDL
MODEL 4
REMARK VINA RESULT:    -3.896      2.675      5.404
REMARK INTER + INTRA:         -15.946
REMARK INTER:                 -11.668
REMARK INTRA:                  -4.278
REMARK UNBOUND:                -5.672
REMARK SMILES CCCCCCCCCCCCCCCCCCCCCCCCCCCCCC(=O)[O-]
REMARK SMILES IDX 16 1 17 2 18 3 19 4 20 5 21 6 22 7 23 8 24 9 25 10 26 11
REMARK SMILES IDX 27 12 28 13 29 14 30 15 31 16 32 17 15 18 14 19 13 20 12 21
REMARK SMILES IDX 11 22 10 23 9 24 8 25 7 26 6 27 5 28 4 29 3 30 2 31 1 32
REMARK H PARENT
REMARK Flexibility Score: inf
ROOT
ATOM      1  C   UNL     1     -30.075  17.518  22.622  1.00  0.00     0.000 C 
ENDROOT
BRANCH   1   2
ATOM      2  C   UNL     1     -30.627  16.130  22.262  1.00  0.00     0.000 C 
BRANCH   2   3
ATOM      3  C   UNL     1     -30.634  15.166  23.462  1.00  0.00     0.000 C 
BRANCH   3   4
ATOM      4  C   UNL     1     -31.168  15.833  24.740  1.00  0.00     0.000 C 
BRANCH   4   5
ATOM      5  C   UNL     1     -32.638  15.471  25.019  1.00  0.00     0.000 C 
BRANCH   5   6
ATOM      6  C   UNL     1     -32.777  14.332  26.051  1.00  0.00     0.000 C 
BRANCH   6   7
ATOM      7  C   UNL     1     -32.455  14.753  27.496  1.00  0.00     0.000 C 
BRANCH   7   8
ATOM      8  C   UNL     1     -31.126  14.213  28.054  1.00  0.00     0.000 C 
BRANCH   8   9
ATOM      9  C   UNL     1     -30.528  13.094  27.184  1.00  0.00     0.000 C 
BRANCH   9  10
ATOM     10  C   UNL     1     -29.063  13.361  26.790  1.00  0.00     0.000 C 
BRANCH  10  11
ATOM     11  C   UNL     1     -28.486  12.410  25.725  1.00  0.00     0.000 C 
BRANCH  11  12
ATOM     12  C   UNL     1     -27.265  12.991  24.998  1.00  0.00     0.000 C 
BRANCH  12  13
ATOM     13  C   UNL     1     -26.660  14.163  25.781  1.00  0.00     0.006 C 
BRANCH  13  14
ATOM     14  C   UNL     1     -25.136  14.194  25.630  1.00  0.00     0.053 C 
BRANCH  14  15
ATOM     15  C   UNL     1     -24.494  14.808  26.835  1.00  0.00     0.041 C 
ATOM     16  O   UNL     1     -24.093  16.002  26.799  1.00  0.00    -0.550 OA
ATOM     17  O   UNL     1     -24.366  14.073  28.007  1.00  0.00    -0.550 OA
ENDBRANCH  14  15
ENDBRANCH  13  14
ENDBRANCH  12  13
ENDBRANCH  11  12
ENDBRANCH  10  11
ENDBRANCH   9  10
ENDBRANCH   8   9
ENDBRANCH   7   8
ENDBRANCH   6   7
ENDBRANCH   5   6
ENDBRANCH   4   5
ENDBRANCH   3   4
ENDBRANCH   2   3
ENDBRANCH   1   2
BRANCH   1  18
ATOM     18  C   UNL     1     -29.156  18.088  21.528  1.00  0.00     0.000 C 
BRANCH  18  19
ATOM     19  C   UNL     1     -27.712  18.280  22.023  1.00  0.00     0.000 C 
BRANCH  19  20
ATOM     20  C   UNL     1     -27.360  17.339  23.186  1.00  0.00     0.000 C 
BRANCH  20  21
ATOM     21  C   UNL     1     -26.064  16.569  22.888  1.00  0.00     0.000 C 
BRANCH  21  22
ATOM     22  C   UNL     1     -26.175  15.657  21.655  1.00  0.00     0.000 C 
BRANCH  22  23
ATOM     23  C   UNL     1     -27.259  14.576  21.816  1.00  0.00     0.000 C 
BRANCH  23  24
ATOM     24  C   UNL     1     -27.852  14.118  20.471  1.00  0.00    -0.000 C 
BRANCH  24  25
ATOM     25  C   UNL     1     -27.919  15.201  19.374  1.00  0.00    -0.000 C 
BRANCH  25  26
ATOM     26  C   UNL     1     -29.328  15.508  18.835  1.00  0.00    -0.000 C 
BRANCH  26  27
ATOM     27  C   UNL     1     -29.308  16.172  17.449  1.00  0.00    -0.000 C 
BRANCH  27  28
ATOM     28  C   UNL     1     -29.313  15.145  16.304  1.00  0.00    -0.000 C 
BRANCH  28  29
ATOM     29  C   UNL     1     -30.730  14.838  15.795  1.00  0.00    -0.000 C 
BRANCH  29  30
ATOM     30  C   UNL     1     -30.814  15.004  14.274  1.00  0.00    -0.000 C 
BRANCH  30  31
ATOM     31  C   UNL     1     -31.574  13.836  13.633  1.00  0.00    -0.003 C 
ATOM     32  C   UNL     1     -33.044  14.184  13.426  1.00  0.00     0.004 C 
ENDBRANCH  30  31
ENDBRANCH  29  30
ENDBRANCH  28  29
ENDBRANCH  27  28
ENDBRANCH  26  27
ENDBRANCH  25  26
ENDBRANCH  24  25
ENDBRANCH  23  24
ENDBRANCH  22  23
ENDBRANCH  21  22
ENDBRANCH  20  21
ENDBRANCH  19  20
ENDBRANCH  18  19
ENDBRANCH   1  18
TORSDOF 28
ENDMDL
MODEL 5
REMARK VINA RESULT:    -3.847      5.160      8.717
REMARK INTER + INTRA:         -15.816
REMARK INTER:                 -10.922
REMARK INTRA:                  -4.894
REMARK UNBOUND:                -5.672
REMARK SMILES CCCCCCCCCCCCCCCCCCCCCCCCCCCCCC(=O)[O-]
REMARK SMILES IDX 16 1 17 2 18 3 19 4 20 5 21 6 22 7 23 8 24 9 25 10 26 11
REMARK SMILES IDX 27 12 28 13 29 14 30 15 31 16 32 17 15 18 14 19 13 20 12 21
REMARK SMILES IDX 11 22 10 23 9 24 8 25 7 26 6 27 5 28 4 29 3 30 2 31 1 32
REMARK H PARENT
REMARK Flexibility Score: inf
ROOT
ATOM      1  C   UNL     1     -30.654  17.333  23.020  1.00  0.00     0.000 C 
ENDROOT
BRANCH   1   2
ATOM      2  C   UNL     1     -30.282  17.065  21.554  1.00  0.00     0.000 C 
BRANCH   2   3
ATOM      3  C   UNL     1     -29.058  17.878  21.095  1.00  0.00     0.000 C 
BRANCH   3   4
ATOM      4  C   UNL     1     -28.915  17.896  19.563  1.00  0.00     0.000 C 
BRANCH   4   5
ATOM      5  C   UNL     1     -28.391  16.558  19.009  1.00  0.00     0.000 C 
BRANCH   5   6
ATOM      6  C   UNL     1     -28.958  16.239  17.610  1.00  0.00     0.000 C 
BRANCH   6   7
ATOM      7  C   UNL     1     -29.967  15.076  17.593  1.00  0.00     0.000 C 
BRANCH   7   8
ATOM      8  C   UNL     1     -30.218  14.409  18.957  1.00  0.00     0.000 C 
BRANCH   8   9
ATOM      9  C   UNL     1     -31.676  13.951  19.135  1.00  0.00     0.000 C 
BRANCH   9  10
ATOM     10  C   UNL     1     -32.501  14.063  17.839  1.00  0.00     0.000 C 
BRANCH  10  11
ATOM     11  C   UNL     1     -32.911  12.721  17.205  1.00  0.00     0.000 C 
BRANCH  11  12
ATOM     12  C   UNL     1     -33.507  12.879  15.798  1.00  0.00     0.000 C 
BRANCH  12  13
ATOM     13  C   UNL     1     -32.597  13.729  14.903  1.00  0.00     0.006 C 
BRANCH  13  14
ATOM     14  C   UNL     1     -31.707  12.842  14.027  1.00  0.00     0.053 C 
BRANCH  14  15
ATOM     15  C   UNL     1     -30.767  13.673  13.211  1.00  0.00     0.041 C 
ATOM     16  O   UNL     1     -29.932  14.428  13.779  1.00  0.00    -0.550 OA
ATOM     17  O   UNL     1     -30.791  13.592  11.824  1.00  0.00    -0.550 OA
ENDBRANCH  14  15
ENDBRANCH  13  14
ENDBRANCH  12  13
ENDBRANCH  11  12
ENDBRANCH  10  11
ENDBRANCH   9  10
ENDBRANCH   8   9
ENDBRANCH   7   8
ENDBRANCH   6   7
ENDBRANCH   5   6
ENDBRANCH   4   5
ENDBRANCH   3   4
ENDBRANCH   2   3
ENDBRANCH   1   2
BRANCH   1  18
ATOM     18  C   UNL     1     -31.982  18.097  23.161  1.00  0.00     0.000 C 
BRANCH  18  19
ATOM     19  C   UNL     1     -33.083  17.238  23.806  1.00  0.00     0.000 C 
BRANCH  19  20
ATOM     20  C   UNL     1     -33.744  16.279  22.803  1.00  0.00     0.000 C 
BRANCH  20  21
ATOM     21  C   UNL     1     -33.671  14.830  23.307  1.00  0.00     0.000 C 
BRANCH  21  22
ATOM     22  C   UNL     1     -32.434  14.076  22.792  1.00  0.00     0.000 C 
BRANCH  22  23
ATOM     23  C   UNL     1     -31.369  13.873  23.883  1.00  0.00     0.000 C 
BRANCH  23  24
ATOM     24  C   UNL     1     -31.945  13.972  25.308  1.00  0.00    -0.000 C 
BRANCH  24  25
ATOM     25  C   UNL     1     -31.312  15.058  26.203  1.00  0.00    -0.000 C 
BRANCH  25  26
ATOM     26  C   UNL     1     -29.841  15.393  25.895  1.00  0.00    -0.000 C 
BRANCH  26  27
ATOM     27  C   UNL     1     -28.881  14.240  26.231  1.00  0.00    -0.000 C 
BRANCH  27  28
ATOM     28  C   UNL     1     -27.622  14.246  25.349  1.00  0.00    -0.000 C 
BRANCH  28  29
ATOM     29  C   UNL     1     -27.287  15.646  24.812  1.00  0.00    -0.000 C 
BRANCH  29  30
ATOM     30  C   UNL     1     -27.221  15.645  23.281  1.00  0.00    -0.000 C 
BRANCH  30  31
ATOM     31  C   UNL     1     -27.931  14.416  22.700  1.00  0.00    -0.003 C 
ATOM     32  C   UNL     1     -27.215  13.904  21.455  1.00  0.00     0.004 C 
ENDBRANCH  30  31
ENDBRANCH  29  30
ENDBRANCH  28  29
ENDBRANCH  27  28
ENDBRANCH  26  27
ENDBRANCH  25  26
ENDBRANCH  24  25
ENDBRANCH  23  24
ENDBRANCH  22  23
ENDBRANCH  21  22
ENDBRANCH  20  21
ENDBRANCH  19  20
ENDBRANCH  18  19
ENDBRANCH   1  18
TORSDOF 28
ENDMDL
MODEL 6
REMARK VINA RESULT:    -3.846      6.312      9.743
REMARK INTER + INTRA:         -15.814
REMARK INTER:                 -11.024
REMARK INTRA:                  -4.790
REMARK UNBOUND:                -5.672
REMARK SMILES CCCCCCCCCCCCCCCCCCCCCCCCCCCCCC(=O)[O-]
REMARK SMILES IDX 16 1 17 2 18 3 19 4 20 5 21 6 22 7 23 8 24 9 25 10 26 11
REMARK SMILES IDX 27 12 28 13 29 14 30 15 31 16 32 17 15 18 14 19 13 20 12 21
REMARK SMILES IDX 11 22 10 23 9 24 8 25 7 26 6 27 5 28 4 29 3 30 2 31 1 32
REMARK H PARENT
REMARK Flexibility Score: inf
ROOT
ATOM      1  C   UNL     1     -28.599  16.216  18.015  1.00  0.00     0.000 C 
ENDROOT
BRANCH   1   2
ATOM      2  C   UNL     1     -29.765  15.525  17.292  1.00  0.00     0.000 C 
BRANCH   2   3
ATOM      3  C   UNL     1     -29.301  14.373  16.385  1.00  0.00     0.000 C 
BRANCH   3   4
ATOM      4  C   UNL     1     -29.374  14.742  14.893  1.00  0.00     0.000 C 
BRANCH   4   5
ATOM      5  C   UNL     1     -30.783  15.199  14.473  1.00  0.00     0.000 C 
BRANCH   5   6
ATOM      6  C   UNL     1     -31.374  14.322  13.350  1.00  0.00     0.000 C 
BRANCH   6   7
ATOM      7  C   UNL     1     -32.693  13.622  13.729  1.00  0.00     0.000 C 
BRANCH   7   8
ATOM      8  C   UNL     1     -32.936  13.463  15.240  1.00  0.00     0.000 C 
BRANCH   8   9
ATOM      9  C   UNL     1     -32.976  11.990  15.683  1.00  0.00     0.000 C 
BRANCH   9  10
ATOM     10  C   UNL     1     -31.774  11.177  15.165  1.00  0.00     0.000 C 
BRANCH  10  11
ATOM     11  C   UNL     1     -32.135   9.901  14.381  1.00  0.00     0.000 C 
BRANCH  11  12
ATOM     12  C   UNL     1     -32.169  10.120  12.861  1.00  0.00     0.000 C 
BRANCH  12  13
ATOM     13  C   UNL     1     -30.818   9.775  12.222  1.00  0.00     0.006 C 
BRANCH  13  14
ATOM     14  C   UNL     1     -29.984  11.039  11.989  1.00  0.00     0.053 C 
BRANCH  14  15
ATOM     15  C   UNL     1     -28.790  11.062  12.891  1.00  0.00     0.041 C 
ATOM     16  O   UNL     1     -28.301  12.160  13.268  1.00  0.00    -0.550 OA
ATOM     17  O   UNL     1     -28.235   9.870  13.341  1.00  0.00    -0.550 OA
ENDBRANCH  14  15
ENDBRANCH  13  14
ENDBRANCH  12  13
ENDBRANCH  11  12
ENDBRANCH  10  11
ENDBRANCH   9  10
ENDBRANCH   8   9
ENDBRANCH   7   8
ENDBRANCH   6   7
ENDBRANCH   5   6
ENDBRANCH   4   5
ENDBRANCH   3   4
ENDBRANCH   2   3
ENDBRANCH   1   2
BRANCH   1  18
ATOM     18  C   UNL     1     -27.315  15.368  18.009  1.00  0.00     0.000 C 
BRANCH  18  19
ATOM     19  C   UNL     1     -26.870  14.975  19.427  1.00  0.00     0.000 C 
BRANCH  19  20
ATOM     20  C   UNL     1     -27.684  13.800  19.994  1.00  0.00     0.000 C 
BRANCH  20  21
ATOM     21  C   UNL     1     -28.383  14.204  21.301  1.00  0.00     0.000 C 
BRANCH  21  22
ATOM     22  C   UNL     1     -29.915  14.105  21.218  1.00  0.00     0.000 C 
BRANCH  22  23
ATOM     23  C   UNL     1     -30.589  15.480  21.064  1.00  0.00     0.000 C 
BRANCH  23  24
ATOM     24  C   UNL     1     -29.974  16.554  21.980  1.00  0.00    -0.000 C 
BRANCH  24  25
ATOM     25  C   UNL     1     -29.307  17.740  21.254  1.00  0.00    -0.000 C 
BRANCH  25  26
ATOM     26  C   UNL     1     -28.187  18.448  22.037  1.00  0.00    -0.000 C 
BRANCH  26  27
ATOM     27  C   UNL     1     -26.781  17.982  21.626  1.00  0.00    -0.000 C 
BRANCH  27  28
ATOM     28  C   UNL     1     -26.230  16.887  22.554  1.00  0.00    -0.000 C 
BRANCH  28  29
ATOM     29  C   UNL     1     -26.682  17.067  24.011  1.00  0.00    -0.000 C 
BRANCH  29  30
ATOM     30  C   UNL     1     -27.401  15.813  24.521  1.00  0.00    -0.000 C 
BRANCH  30  31
ATOM     31  C   UNL     1     -26.467  14.597  24.502  1.00  0.00    -0.003 C 
ATOM     32  C   UNL     1     -25.466  14.652  25.651  1.00  0.00     0.004 C 
ENDBRANCH  30  31
ENDBRANCH  29  30
ENDBRANCH  28  29
ENDBRANCH  27  28
ENDBRANCH  26  27
ENDBRANCH  25  26
ENDBRANCH  24  25
ENDBRANCH  23  24
ENDBRANCH  22  23
ENDBRANCH  21  22
ENDBRANCH  20  21
ENDBRANCH  19  20
ENDBRANCH  18  19
ENDBRANCH   1  18
TORSDOF 28
ENDMDL
MODEL 7
REMARK VINA RESULT:    -3.819      4.850      8.080
REMARK INTER + INTRA:         -15.741
REMARK INTER:                 -10.470
REMARK INTRA:                  -5.271
REMARK UNBOUND:                -5.672
REMARK SMILES CCCCCCCCCCCCCCCCCCCCCCCCCCCCCC(=O)[O-]
REMARK SMILES IDX 16 1 17 2 18 3 19 4 20 5 21 6 22 7 23 8 24 9 25 10 26 11
REMARK SMILES IDX 27 12 28 13 29 14 30 15 31 16 32 17 15 18 14 19 13 20 12 21
REMARK SMILES IDX 11 22 10 23 9 24 8 25 7 26 6 27 5 28 4 29 3 30 2 31 1 32
REMARK H PARENT
REMARK Flexibility Score: inf
ROOT
ATOM      1  C   UNL     1     -32.391  16.233  22.301  1.00  0.00     0.000 C 
ENDROOT
BRANCH   1   2
ATOM      2  C   UNL     1     -31.972  17.603  22.855  1.00  0.00     0.000 C 
BRANCH   2   3
ATOM      3  C   UNL     1     -30.452  17.831  22.787  1.00  0.00     0.000 C 
BRANCH   3   4
ATOM      4  C   UNL     1     -29.813  17.128  21.577  1.00  0.00     0.000 C 
BRANCH   4   5
ATOM      5  C   UNL     1     -28.799  18.028  20.846  1.00  0.00     0.000 C 
BRANCH   5   6
ATOM      6  C   UNL     1     -28.528  17.555  19.403  1.00  0.00     0.000 C 
BRANCH   6   7
ATOM      7  C   UNL     1     -27.549  16.370  19.306  1.00  0.00     0.000 C 
BRANCH   7   8
ATOM      8  C   UNL     1     -28.160  15.059  18.779  1.00  0.00     0.000 C 
BRANCH   8   9
ATOM      9  C   UNL     1     -29.544  15.263  18.140  1.00  0.00     0.000 C 
BRANCH   9  10
ATOM     10  C   UNL     1     -30.623  14.344  18.745  1.00  0.00     0.000 C 
BRANCH  10  11
ATOM     11  C   UNL     1     -31.656  13.798  17.741  1.00  0.00     0.000 C 
BRANCH  11  12
ATOM     12  C   UNL     1     -31.598  14.501  16.377  1.00  0.00     0.000 C 
BRANCH  12  13
ATOM     13  C   UNL     1     -32.069  13.569  15.254  1.00  0.00     0.006 C 
BRANCH  13  14
ATOM     14  C   UNL     1     -32.072  14.295  13.905  1.00  0.00     0.053 C 
BRANCH  14  15
ATOM     15  C   UNL     1     -30.823  13.997  13.137  1.00  0.00     0.041 C 
ATOM     16  O   UNL     1     -30.886  13.704  11.913  1.00  0.00    -0.550 OA
ATOM     17  O   UNL     1     -29.585  14.071  13.764  1.00  0.00    -0.550 OA
ENDBRANCH  14  15
ENDBRANCH  13  14
ENDBRANCH  12  13
ENDBRANCH  11  12
ENDBRANCH  10  11
ENDBRANCH   9  10
ENDBRANCH   8   9
ENDBRANCH   7   8
ENDBRANCH   6   7
ENDBRANCH   5   6
ENDBRANCH   4   5
ENDBRANCH   3   4
ENDBRANCH   2   3
ENDBRANCH   1   2
BRANCH   1  18
ATOM     18  C   UNL     1     -33.393  15.508  23.216  1.00  0.00     0.000 C 
BRANCH  18  19
ATOM     19  C   UNL     1     -33.731  16.326  24.474  1.00  0.00     0.000 C 
BRANCH  19  20
ATOM     20  C   UNL     1     -33.535  15.522  25.769  1.00  0.00     0.000 C 
BRANCH  20  21
ATOM     21  C   UNL     1     -32.265  14.660  25.686  1.00  0.00     0.000 C 
BRANCH  21  22
ATOM     22  C   UNL     1     -30.972  15.487  25.774  1.00  0.00     0.000 C 
BRANCH  22  23
ATOM     23  C   UNL     1     -29.849  14.924  24.885  1.00  0.00     0.000 C 
BRANCH  23  24
ATOM     24  C   UNL     1     -30.066  13.447  24.511  1.00  0.00    -0.000 C 
BRANCH  24  25
ATOM     25  C   UNL     1     -30.338  13.175  23.016  1.00  0.00    -0.000 C 
BRANCH  25  26
ATOM     26  C   UNL     1     -29.270  13.710  22.044  1.00  0.00    -0.000 C 
BRANCH  26  27
ATOM     27  C   UNL     1     -27.995  12.852  22.024  1.00  0.00    -0.000 C 
BRANCH  27  28
ATOM     28  C   UNL     1     -26.714  13.703  21.999  1.00  0.00    -0.000 C 
BRANCH  28  29
ATOM     29  C   UNL     1     -26.573  14.591  23.244  1.00  0.00    -0.000 C 
BRANCH  29  30
ATOM     30  C   UNL     1     -26.535  16.074  22.859  1.00  0.00    -0.000 C 
BRANCH  30  31
ATOM     31  C   UNL     1     -26.639  16.969  24.100  1.00  0.00    -0.003 C 
ATOM     32  C   UNL     1     -25.951  18.310  23.872  1.00  0.00     0.004 C 
ENDBRANCH  30  31
ENDBRANCH  29  30
ENDBRANCH  28  29
ENDBRANCH  27  28
ENDBRANCH  26  27
ENDBRANCH  25  26
ENDBRANCH  24  25
ENDBRANCH  23  24
ENDBRANCH  22  23
ENDBRANCH  21  22
ENDBRANCH  20  21
ENDBRANCH  19  20
ENDBRANCH  18  19
ENDBRANCH   1  18
TORSDOF 28
ENDMDL
MODEL 8
REMARK VINA RESULT:    -3.813      5.286      8.749
REMARK INTER + INTRA:         -15.727
REMARK INTER:                 -10.624
REMARK INTRA:                  -5.103
REMARK UNBOUND:                -5.672
REMARK SMILES CCCCCCCCCCCCCCCCCCCCCCCCCCCCCC(=O)[O-]
REMARK SMILES IDX 16 1 17 2 18 3 19 4 20 5 21 6 22 7 23 8 24 9 25 10 26 11
REMARK SMILES IDX 27 12 28 13 29 14 30 15 31 16 32 17 15 18 14 19 13 20 12 21
REMARK SMILES IDX 11 22 10 23 9 24 8 25 7 26 6 27 5 28 4 29 3 30 2 31 1 32
REMARK H PARENT
REMARK Flexibility Score: inf
ROOT
ATOM      1  C   UNL     1     -28.055  15.864  18.140  1.00  0.00     0.000 C 
ENDROOT
BRANCH   1   2
ATOM      2  C   UNL     1     -29.165  16.922  18.231  1.00  0.00     0.000 C 
BRANCH   2   3
ATOM      3  C   UNL     1     -28.864  18.009  19.279  1.00  0.00     0.000 C 
BRANCH   3   4
ATOM      4  C   UNL     1     -28.723  17.426  20.695  1.00  0.00     0.000 C 
BRANCH   4   5
ATOM      5  C   UNL     1     -27.661  18.167  21.529  1.00  0.00     0.000 C 
BRANCH   5   6
ATOM      6  C   UNL     1     -26.473  17.258  21.908  1.00  0.00     0.000 C 
BRANCH   6   7
ATOM      7  C   UNL     1     -25.829  16.537  20.710  1.00  0.00     0.000 C 
BRANCH   7   8
ATOM      8  C   UNL     1     -25.050  15.257  21.059  1.00  0.00     0.000 C 
BRANCH   8   9
ATOM      9  C   UNL     1     -25.826  14.329  22.010  1.00  0.00     0.000 C 
BRANCH   9  10
ATOM     10  C   UNL     1     -26.835  13.427  21.273  1.00  0.00     0.000 C 
BRANCH  10  11
ATOM     11  C   UNL     1     -28.166  13.193  22.012  1.00  0.00     0.000 C 
BRANCH  11  12
ATOM     12  C   UNL     1     -28.795  14.491  22.542  1.00  0.00     0.000 C 
BRANCH  12  13
ATOM     13  C   UNL     1     -28.823  14.506  24.075  1.00  0.00     0.006 C 
BRANCH  13  14
ATOM     14  C   UNL     1     -29.226  15.886  24.602  1.00  0.00     0.053 C 
BRANCH  14  15
ATOM     15  C   UNL     1     -30.448  15.791  25.461  1.00  0.00     0.041 C 
ATOM     16  O   UNL     1     -31.569  15.540  24.944  1.00  0.00    -0.550 OA
ATOM     17  O   UNL     1     -30.345  15.952  26.838  1.00  0.00    -0.550 OA
ENDBRANCH  14  15
ENDBRANCH  13  14
ENDBRANCH  12  13
ENDBRANCH  11  12
ENDBRANCH  10  11
ENDBRANCH   9  10
ENDBRANCH   8   9
ENDBRANCH   7   8
ENDBRANCH   6   7
ENDBRANCH   5   6
ENDBRANCH   4   5
ENDBRANCH   3   4
ENDBRANCH   2   3
ENDBRANCH   1   2
BRANCH   1  18
ATOM     18  C   UNL     1     -28.585  14.434  18.340  1.00  0.00     0.000 C 
BRANCH  18  19
ATOM     19  C   UNL     1     -30.122  14.382  18.374  1.00  0.00     0.000 C 
BRANCH  19  20
ATOM     20  C   UNL     1     -30.729  14.044  17.002  1.00  0.00     0.000 C 
BRANCH  20  21
ATOM     21  C   UNL     1     -29.792  13.122  16.206  1.00  0.00     0.000 C 
BRANCH  21  22
ATOM     22  C   UNL     1     -29.342  13.732  14.868  1.00  0.00     0.000 C 
BRANCH  22  23
ATOM     23  C   UNL     1     -30.243  14.896  14.417  1.00  0.00     0.000 C 
BRANCH  23  24
ATOM     24  C   UNL     1     -31.258  14.483  13.335  1.00  0.00    -0.000 C 
BRANCH  24  25
ATOM     25  C   UNL     1     -32.724  14.389  13.805  1.00  0.00    -0.000 C 
BRANCH  25  26
ATOM     26  C   UNL     1     -33.641  13.511  12.933  1.00  0.00    -0.000 C 
BRANCH  26  27
ATOM     27  C   UNL     1     -34.060  12.206  13.630  1.00  0.00    -0.000 C 
BRANCH  27  28
ATOM     28  C   UNL     1     -33.532  12.113  15.071  1.00  0.00    -0.000 C 
BRANCH  28  29
ATOM     29  C   UNL     1     -32.584  10.921  15.275  1.00  0.00    -0.000 C 
BRANCH  29  30
ATOM     30  C   UNL     1     -32.186  10.300  13.932  1.00  0.00    -0.000 C 
BRANCH  30  31
ATOM     31  C   UNL     1     -30.689  10.488  13.660  1.00  0.00    -0.003 C 
ATOM     32  C   UNL     1     -30.447  11.020  12.252  1.00  0.00     0.004 C 
ENDBRANCH  30  31
ENDBRANCH  29  30
ENDBRANCH  28  29
ENDBRANCH  27  28
ENDBRANCH  26  27
ENDBRANCH  25  26
ENDBRANCH  24  25
ENDBRANCH  23  24
ENDBRANCH  22  23
ENDBRANCH  21  22
ENDBRANCH  20  21
ENDBRANCH  19  20
ENDBRANCH  18  19
ENDBRANCH   1  18
TORSDOF 28
ENDMDL
MODEL 9
REMARK VINA RESULT:    -3.809      4.693      8.697
REMARK INTER + INTRA:         -15.717
REMARK INTER:                 -10.813
REMARK INTRA:                  -4.904
REMARK UNBOUND:                -5.672
REMARK SMILES CCCCCCCCCCCCCCCCCCCCCCCCCCCCCC(=O)[O-]
REMARK SMILES IDX 16 1 17 2 18 3 19 4 20 5 21 6 22 7 23 8 24 9 25 10 26 11
REMARK SMILES IDX 27 12 28 13 29 14 30 15 31 16 32 17 15 18 14 19 13 20 12 21
REMARK SMILES IDX 11 22 10 23 9 24 8 25 7 26 6 27 5 28 4 29 3 30 2 31 1 32
REMARK H PARENT
REMARK Flexibility Score: inf
ROOT
ATOM      1  C   UNL     1     -31.701  16.418  22.658  1.00  0.00     0.000 C 
ENDROOT
BRANCH   1   2
ATOM      2  C   UNL     1     -30.703  16.898  21.594  1.00  0.00     0.000 C 
BRANCH   2   3
ATOM      3  C   UNL     1     -29.657  17.874  22.160  1.00  0.00     0.000 C 
BRANCH   3   4
ATOM      4  C   UNL     1     -28.427  18.002  21.245  1.00  0.00     0.000 C 
BRANCH   4   5
ATOM      5  C   UNL     1     -27.168  17.369  21.865  1.00  0.00     0.000 C 
BRANCH   5   6
ATOM      6  C   UNL     1     -26.539  16.296  20.951  1.00  0.00     0.000 C 
BRANCH   6   7
ATOM      7  C   UNL     1     -27.462  15.095  20.668  1.00  0.00     0.000 C 
BRANCH   7   8
ATOM      8  C   UNL     1     -27.575  14.692  19.188  1.00  0.00     0.000 C 
BRANCH   8   9
ATOM      9  C   UNL     1     -27.574  15.905  18.240  1.00  0.00     0.000 C 
BRANCH   9  10
ATOM     10  C   UNL     1     -28.915  16.090  17.504  1.00  0.00     0.000 C 
BRANCH  10  11
ATOM     11  C   UNL     1     -30.065  15.195  18.003  1.00  0.00     0.000 C 
BRANCH  11  12
ATOM     12  C   UNL     1     -31.040  14.793  16.886  1.00  0.00     0.000 C 
BRANCH  12  13
ATOM     13  C   UNL     1     -30.384  14.917  15.506  1.00  0.00     0.006 C 
BRANCH  13  14
ATOM     14  C   UNL     1     -31.382  14.582  14.393  1.00  0.00     0.053 C 
BRANCH  14  15
ATOM     15  C   UNL     1     -30.719  13.801  13.302  1.00  0.00     0.041 C 
ATOM     16  O   UNL     1     -31.092  13.940  12.106  1.00  0.00    -0.550 OA
ATOM     17  O   UNL     1     -29.669  12.941  13.601  1.00  0.00    -0.550 OA
ENDBRANCH  14  15
ENDBRANCH  13  14
ENDBRANCH  12  13
ENDBRANCH  11  12
ENDBRANCH  10  11
ENDBRANCH   9  10
ENDBRANCH   8   9
ENDBRANCH   7   8
ENDBRANCH   6   7
ENDBRANCH   5   6
ENDBRANCH   4   5
ENDBRANCH   3   4
ENDBRANCH   2   3
ENDBRANCH   1   2
BRANCH   1  18
ATOM     18  C   UNL     1     -33.037  15.956  22.050  1.00  0.00     0.000 C 
BRANCH  18  19
ATOM     19  C   UNL     1     -33.870  15.123  23.038  1.00  0.00     0.000 C 
BRANCH  19  20
ATOM     20  C   UNL     1     -33.145  13.843  23.484  1.00  0.00     0.000 C 
BRANCH  20  21
ATOM     21  C   UNL     1     -33.353  13.597  24.986  1.00  0.00     0.000 C 
BRANCH  21  22
ATOM     22  C   UNL     1     -33.429  14.897  25.804  1.00  0.00     0.000 C 
BRANCH  22  23
ATOM     23  C   UNL     1     -32.864  14.735  27.226  1.00  0.00     0.000 C 
BRANCH  23  24
ATOM     24  C   UNL     1     -31.498  14.025  27.249  1.00  0.00    -0.000 C 
BRANCH  24  25
ATOM     25  C   UNL     1     -30.268  14.952  27.157  1.00  0.00    -0.000 C 
BRANCH  25  26
ATOM     26  C   UNL     1     -30.045  15.617  25.786  1.00  0.00    -0.000 C 
BRANCH  26  27
ATOM     27  C   UNL     1     -28.560  15.711  25.401  1.00  0.00    -0.000 C 
BRANCH  27  28
ATOM     28  C   UNL     1     -28.195  14.778  24.234  1.00  0.00    -0.000 C 
BRANCH  28  29
ATOM     29  C   UNL     1     -29.423  14.071  23.639  1.00  0.00    -0.000 C 
BRANCH  29  30
ATOM     30  C   UNL     1     -29.042  12.701  23.066  1.00  0.00    -0.000 C 
BRANCH  30  31
ATOM     31  C   UNL     1     -29.903  11.589  23.679  1.00  0.00    -0.003 C 
ATOM     32  C   UNL     1     -29.736  11.536  25.194  1.00  0.00     0.004 C 
ENDBRANCH  30  31
ENDBRANCH  29  30
ENDBRANCH  28  29
ENDBRANCH  27  28
ENDBRANCH  26  27
ENDBRANCH  25  26
ENDBRANCH  24  25
ENDBRANCH  23  24
ENDBRANCH  22  23
ENDBRANCH  21  22
ENDBRANCH  20  21
ENDBRANCH  19  20
ENDBRANCH  18  19
ENDBRANCH   1  18
TORSDOF 28
ENDMDL
