MODEL 1
REMARK VINA RESULT:    -3.800      0.000      0.000
REMARK INTER + INTRA:          -5.625
REMARK INTER:                  -5.021
REMARK INTRA:                  -0.603
REMARK UNBOUND:                -0.603
REMARK SMILES C=C[C@@H](O)CCCCC
REMARK SMILES IDX 6 1 7 2 8 3 9 4 5 5 3 6 2 7 1 8 4 9
REMARK H PARENT 4 10
REMARK Flexibility Score: inf
ROOT
ATOM      1  C   UNL     1     121.884 134.055 130.537  1.00  0.00     0.003 C 
ENDROOT
BRANCH   1   2
ATOM      2  C   UNL     1     121.045 134.972 129.632  1.00  0.00    -0.000 C 
BRANCH   2   3
ATOM      3  C   UNL     1     119.632 135.217 130.183  1.00  0.00    -0.003 C 
ATOM      4  C   UNL     1     118.611 134.315 129.498  1.00  0.00     0.004 C 
ENDBRANCH   2   3
ENDBRANCH   1   2
BRANCH   1   5
ATOM      5  C   UNL     1     122.374 132.791 129.803  1.00  0.00     0.036 C 
BRANCH   5   6
ATOM      6  C   UNL     1     121.444 131.578 129.991  1.00  0.00     0.136 C 
BRANCH   6   7
ATOM      7  C   UNL     1     120.694 131.642 131.303  1.00  0.00    -0.004 C 
ATOM      8  C   UNL     1     119.540 130.992 131.478  1.00  0.00     0.007 C 
ENDBRANCH   6   7
BRANCH   6   9
ATOM      9  O   UNL     1     120.540 131.500 128.918  1.00  0.00    -0.389 OA
ATOM     10  H   UNL     1     119.965 132.309 128.960  1.00  0.00     0.211 HD
ENDBRANCH   6   9
ENDBRANCH   5   6
ENDBRANCH   1   5
TORSDOF 6
ENDMDL
MODEL 2
REMARK VINA RESULT:    -3.634      1.757      2.802
REMARK INTER + INTRA:          -5.406
REMARK INTER:                  -5.138
REMARK INTRA:                  -0.269
REMARK UNBOUND:                -0.603
REMARK SMILES C=C[C@@H](O)CCCCC
REMARK SMILES IDX 6 1 7 2 8 3 9 4 5 5 3 6 2 7 1 8 4 9
REMARK H PARENT 4 10
REMARK Flexibility Score: inf
ROOT
ATOM      1  C   UNL     1     121.636 131.284 129.864  1.00  0.00     0.003 C 
ENDROOT
BRANCH   1   2
ATOM      2  C   UNL     1     122.457 132.578 129.737  1.00  0.00    -0.000 C 
BRANCH   2   3
ATOM      3  C   UNL     1     121.794 133.771 130.442  1.00  0.00    -0.003 C 
ATOM      4  C   UNL     1     121.593 134.936 129.478  1.00  0.00     0.004 C 
ENDBRANCH   2   3
ENDBRANCH   1   2
BRANCH   1   5
ATOM      5  C   UNL     1     120.134 131.558 130.081  1.00  0.00     0.036 C 
BRANCH   5   6
ATOM      6  C   UNL     1     119.576 130.914 131.364  1.00  0.00     0.136 C 
BRANCH   6   7
ATOM      7  C   UNL     1     118.628 129.777 131.057  1.00  0.00    -0.004 C 
ATOM      8  C   UNL     1     119.030 128.702 130.373  1.00  0.00     0.007 C 
ENDBRANCH   6   7
BRANCH   6   9
ATOM      9  O   UNL     1     120.635 130.460 132.168  1.00  0.00    -0.389 OA
ATOM     10  H   UNL     1     120.793 129.508 131.934  1.00  0.00     0.211 HD
ENDBRANCH   6   9
ENDBRANCH   5   6
ENDBRANCH   1   5
TORSDOF 6
ENDMDL
MODEL 3
REMARK VINA RESULT:    -3.632     13.441     14.212
REMARK INTER + INTRA:          -5.403
REMARK INTER:                  -4.986
REMARK INTRA:                  -0.418
REMARK UNBOUND:                -0.603
REMARK SMILES C=C[C@@H](O)CCCCC
REMARK SMILES IDX 6 1 7 2 8 3 9 4 5 5 3 6 2 7 1 8 4 9
REMARK H PARENT 4 10
REMARK Flexibility Score: inf
ROOT
ATOM      1  C   UNL     1     113.584 121.539 131.943  1.00  0.00     0.003 C 
ENDROOT
BRANCH   1   2
ATOM      2  C   UNL     1     114.005 121.393 130.471  1.00  0.00    -0.000 C 
BRANCH   2   3
ATOM      3  C   UNL     1     114.496 119.978 130.132  1.00  0.00    -0.003 C 
ATOM      4  C   UNL     1     114.281 119.661 128.655  1.00  0.00     0.004 C 
ENDBRANCH   2   3
ENDBRANCH   1   2
BRANCH   1   5
ATOM      5  C   UNL     1     113.847 120.257 132.760  1.00  0.00     0.036 C 
BRANCH   5   6
ATOM      6  C   UNL     1     114.713 120.499 134.011  1.00  0.00     0.136 C 
BRANCH   6   7
ATOM      7  C   UNL     1     116.005 121.208 133.672  1.00  0.00    -0.004 C 
ATOM      8  C   UNL     1     117.112 120.526 133.364  1.00  0.00     0.007 C 
ENDBRANCH   6   7
BRANCH   6   9
ATOM      9  O   UNL     1     113.985 121.241 134.957  1.00  0.00    -0.389 OA
ATOM     10  H   UNL     1     114.644 121.738 135.510  1.00  0.00     0.211 HD
ENDBRANCH   6   9
ENDBRANCH   5   6
ENDBRANCH   1   5
TORSDOF 6
ENDMDL
MODEL 4
REMARK VINA RESULT:    -3.628     12.028     13.622
REMARK INTER + INTRA:          -5.398
REMARK INTER:                  -5.051
REMARK INTRA:                  -0.346
REMARK UNBOUND:                -0.603
REMARK SMILES C=C[C@@H](O)CCCCC
REMARK SMILES IDX 6 1 7 2 8 3 9 4 5 5 3 6 2 7 1 8 4 9
REMARK H PARENT 4 10
REMARK Flexibility Score: inf
ROOT
ATOM      1  C   UNL     1     114.555 120.802 131.694  1.00  0.00     0.003 C 
ENDROOT
BRANCH   1   2
ATOM      2  C   UNL     1     113.791 120.260 132.913  1.00  0.00    -0.000 C 
BRANCH   2   3
ATOM      3  C   UNL     1     114.381 120.746 134.246  1.00  0.00    -0.003 C 
ATOM      4  C   UNL     1     115.569 119.886 134.667  1.00  0.00     0.004 C 
ENDBRANCH   2   3
ENDBRANCH   1   2
BRANCH   1   5
ATOM      5  C   UNL     1     114.981 122.273 131.871  1.00  0.00     0.036 C 
BRANCH   5   6
ATOM      6  C   UNL     1     114.055 123.268 131.147  1.00  0.00     0.136 C 
BRANCH   6   7
ATOM      7  C   UNL     1     113.367 122.633 129.959  1.00  0.00    -0.004 C 
ATOM      8  C   UNL     1     113.589 123.063 128.714  1.00  0.00     0.007 C 
ENDBRANCH   6   7
BRANCH   6   9
ATOM      9  O   UNL     1     113.102 123.774 132.047  1.00  0.00    -0.389 OA
ATOM     10  H   UNL     1     112.811 123.017 132.621  1.00  0.00     0.211 HD
ENDBRANCH   6   9
ENDBRANCH   5   6
ENDBRANCH   1   5
TORSDOF 6
ENDMDL
MODEL 5
REMARK VINA RESULT:    -3.622     13.251     14.194
REMARK INTER + INTRA:          -5.391
REMARK INTER:                  -5.163
REMARK INTRA:                  -0.227
REMARK UNBOUND:                -0.603
REMARK SMILES C=C[C@@H](O)CCCCC
REMARK SMILES IDX 6 1 7 2 8 3 9 4 5 5 3 6 2 7 1 8 4 9
REMARK H PARENT 4 10
REMARK Flexibility Score: inf
ROOT
ATOM      1  C   UNL     1     113.783 120.889 131.452  1.00  0.00     0.003 C 
ENDROOT
BRANCH   1   2
ATOM      2  C   UNL     1     114.505 120.029 130.402  1.00  0.00    -0.000 C 
BRANCH   2   3
ATOM      3  C   UNL     1     114.038 120.327 128.969  1.00  0.00    -0.003 C 
ATOM      4  C   UNL     1     114.036 121.827 128.693  1.00  0.00     0.004 C 
ENDBRANCH   2   3
ENDBRANCH   1   2
BRANCH   1   5
ATOM      5  C   UNL     1     113.649 120.172 132.811  1.00  0.00     0.036 C 
BRANCH   5   6
ATOM      6  C   UNL     1     114.438 120.859 133.942  1.00  0.00     0.136 C 
BRANCH   6   7
ATOM      7  C   UNL     1     115.440 119.922 134.577  1.00  0.00    -0.004 C 
ATOM      8  C   UNL     1     116.755 120.133 134.470  1.00  0.00     0.007 C 
ENDBRANCH   6   7
BRANCH   6   9
ATOM      9  O   UNL     1     115.087 122.001 133.445  1.00  0.00    -0.389 OA
ATOM     10  H   UNL     1     115.538 121.737 132.600  1.00  0.00     0.211 HD
ENDBRANCH   6   9
ENDBRANCH   5   6
ENDBRANCH   1   5
TORSDOF 6
ENDMDL
MODEL 6
REMARK VINA RESULT:    -3.570      1.982      3.739
REMARK INTER + INTRA:          -5.322
REMARK INTER:                  -4.875
REMARK INTRA:                  -0.447
REMARK UNBOUND:                -0.603
REMARK SMILES C=C[C@@H](O)CCCCC
REMARK SMILES IDX 6 1 7 2 8 3 9 4 5 5 3 6 2 7 1 8 4 9
REMARK H PARENT 4 10
REMARK Flexibility Score: inf
ROOT
ATOM      1  C   UNL     1     121.678 133.250 130.569  1.00  0.00     0.003 C 
ENDROOT
BRANCH   1   2
ATOM      2  C   UNL     1     122.055 131.999 129.759  1.00  0.00    -0.000 C 
BRANCH   2   3
ATOM      3  C   UNL     1     121.128 130.807 130.046  1.00  0.00    -0.003 C 
ATOM      4  C   UNL     1     119.662 131.227 129.999  1.00  0.00     0.004 C 
ENDBRANCH   2   3
ENDBRANCH   1   2
BRANCH   1   5
ATOM      5  C   UNL     1     121.683 134.531 129.710  1.00  0.00     0.036 C 
BRANCH   5   6
ATOM      6  C   UNL     1     120.637 135.569 130.159  1.00  0.00     0.136 C 
BRANCH   6   7
ATOM      7  C   UNL     1     119.244 134.981 130.201  1.00  0.00    -0.004 C 
ATOM      8  C   UNL     1     118.564 134.720 129.081  1.00  0.00     0.007 C 
ENDBRANCH   6   7
BRANCH   6   9
ATOM      9  O   UNL     1     120.986 136.084 131.419  1.00  0.00    -0.389 OA
ATOM     10  H   UNL     1     121.205 137.044 131.293  1.00  0.00     0.211 HD
ENDBRANCH   6   9
ENDBRANCH   5   6
ENDBRANCH   1   5
TORSDOF 6
ENDMDL
MODEL 7
REMARK VINA RESULT:    -3.565     11.779     13.640
REMARK INTER + INTRA:          -5.314
REMARK INTER:                  -4.838
REMARK INTRA:                  -0.477
REMARK UNBOUND:                -0.603
REMARK SMILES C=C[C@@H](O)CCCCC
REMARK SMILES IDX 6 1 7 2 8 3 9 4 5 5 3 6 2 7 1 8 4 9
REMARK H PARENT 4 10
REMARK Flexibility Score: inf
ROOT
ATOM      1  C   UNL     1     114.417 120.410 131.329  1.00  0.00     0.003 C 
ENDROOT
BRANCH   1   2
ATOM      2  C   UNL     1     113.751 121.509 130.483  1.00  0.00    -0.000 C 
BRANCH   2   3
ATOM      3  C   UNL     1     113.378 122.748 131.310  1.00  0.00    -0.003 C 
ATOM      4  C   UNL     1     114.577 123.676 131.481  1.00  0.00     0.004 C 
ENDBRANCH   2   3
ENDBRANCH   1   2
BRANCH   1   5
ATOM      5  C   UNL     1     113.733 120.226 132.699  1.00  0.00     0.036 C 
BRANCH   5   6
ATOM      6  C   UNL     1     114.704 120.367 133.888  1.00  0.00     0.136 C 
BRANCH   6   7
ATOM      7  C   UNL     1     116.049 120.904 133.454  1.00  0.00    -0.004 C 
ATOM      8  C   UNL     1     117.110 120.862 134.266  1.00  0.00     0.007 C 
ENDBRANCH   6   7
BRANCH   6   9
ATOM      9  O   UNL     1     114.139 121.201 134.867  1.00  0.00    -0.389 OA
ATOM     10  H   UNL     1     113.199 120.907 134.996  1.00  0.00     0.211 HD
ENDBRANCH   6   9
ENDBRANCH   5   6
ENDBRANCH   1   5
TORSDOF 6
ENDMDL
MODEL 8
REMARK VINA RESULT:    -3.561     13.156     13.824
REMARK INTER + INTRA:          -5.309
REMARK INTER:                  -5.094
REMARK INTRA:                  -0.214
REMARK UNBOUND:                -0.603
REMARK SMILES C=C[C@@H](O)CCCCC
REMARK SMILES IDX 6 1 7 2 8 3 9 4 5 5 3 6 2 7 1 8 4 9
REMARK H PARENT 4 10
REMARK Flexibility Score: inf
ROOT
ATOM      1  C   UNL     1     114.117 120.157 129.592  1.00  0.00     0.003 C 
ENDROOT
BRANCH   1   2
ATOM      2  C   UNL     1     114.057 120.660 128.140  1.00  0.00    -0.000 C 
BRANCH   2   3
ATOM      3  C   UNL     1     113.766 122.165 128.047  1.00  0.00    -0.003 C 
ATOM      4  C   UNL     1     112.969 122.494 126.788  1.00  0.00     0.004 C 
ENDBRANCH   2   3
ENDBRANCH   1   2
BRANCH   1   5
ATOM      5  C   UNL     1     114.587 121.248 130.574  1.00  0.00     0.036 C 
BRANCH   5   6
ATOM      6  C   UNL     1     113.648 121.426 131.783  1.00  0.00     0.136 C 
BRANCH   6   7
ATOM      7  C   UNL     1     113.732 120.256 132.737  1.00  0.00    -0.004 C 
ATOM      8  C   UNL     1     114.694 120.180 133.661  1.00  0.00     0.007 C 
ENDBRANCH   6   7
BRANCH   6   9
ATOM      9  O   UNL     1     113.954 122.623 132.452  1.00  0.00    -0.389 OA
ATOM     10  H   UNL     1     113.151 122.880 132.975  1.00  0.00     0.211 HD
ENDBRANCH   6   9
ENDBRANCH   5   6
ENDBRANCH   1   5
TORSDOF 6
ENDMDL
MODEL 9
REMARK VINA RESULT:    -3.455     12.399     13.478
REMARK INTER + INTRA:          -5.169
REMARK INTER:                  -4.619
REMARK INTRA:                  -0.551
REMARK UNBOUND:                -0.603
REMARK SMILES C=C[C@@H](O)CCCCC
REMARK SMILES IDX 6 1 7 2 8 3 9 4 5 5 3 6 2 7 1 8 4 9
REMARK H PARENT 4 10
REMARK Flexibility Score: inf
ROOT
ATOM      1  C   UNL     1     114.406 122.448 129.266  1.00  0.00     0.003 C 
ENDROOT
BRANCH   1   2
ATOM      2  C   UNL     1     114.010 121.401 128.212  1.00  0.00    -0.000 C 
BRANCH   2   3
ATOM      3  C   UNL     1     114.075 119.964 128.751  1.00  0.00    -0.003 C 
ATOM      4  C   UNL     1     115.507 119.574 129.104  1.00  0.00     0.004 C 
ENDBRANCH   2   3
ENDBRANCH   1   2
BRANCH   1   5
ATOM      5  C   UNL     1     113.208 122.905 130.122  1.00  0.00     0.036 C 
BRANCH   5   6
ATOM      6  C   UNL     1     113.494 122.879 131.636  1.00  0.00     0.136 C 
BRANCH   6   7
ATOM      7  C   UNL     1     114.297 121.661 132.035  1.00  0.00    -0.004 C 
ATOM      8  C   UNL     1     113.702 120.552 132.484  1.00  0.00     0.007 C 
ENDBRANCH   6   7
BRANCH   6   9
ATOM      9  O   UNL     1     114.171 124.052 132.012  1.00  0.00    -0.389 OA
ATOM     10  H   UNL     1     114.200 124.067 133.005  1.00  0.00     0.211 HD
ENDBRANCH   6   9
ENDBRANCH   5   6
ENDBRANCH   1   5
TORSDOF 6
ENDMDL
