MODEL 1
REMARK VINA RESULT:    -3.809      0.000      0.000
REMARK INTER + INTRA:          -5.393
REMARK INTER:                  -5.034
REMARK INTRA:                  -0.359
REMARK UNBOUND:                -0.359
REMARK SMILES C=C[C@@H](O)CCCCC
REMARK SMILES IDX 6 1 7 2 8 3 9 4 5 5 3 6 2 7 1 8 4 9
REMARK H PARENT 4 10
REMARK Flexibility Score: inf
ROOT
ATOM      1  C   UNL     1     -40.320  24.493   6.541  1.00  0.00     0.003 C 
ENDROOT
BRANCH   1   2
ATOM      2  C   UNL     1     -40.722  23.574   5.375  1.00  0.00    -0.000 C 
BRANCH   2   3
ATOM      3  C   UNL     1     -42.083  23.953   4.768  1.00  0.00    -0.003 C 
ATOM      4  C   UNL     1     -42.125  25.395   4.264  1.00  0.00     0.004 C 
ENDBRANCH   2   3
ENDBRANCH   1   2
BRANCH   1   5
ATOM      5  C   UNL     1     -41.008  24.124   7.867  1.00  0.00     0.036 C 
BRANCH   5   6
ATOM      6  C   UNL     1     -40.172  23.181   8.756  1.00  0.00     0.136 C 
BRANCH   6   7
ATOM      7  C   UNL     1     -40.872  21.852   8.918  1.00  0.00    -0.004 C 
ATOM      8  C   UNL     1     -42.088  21.642   8.407  1.00  0.00     0.007 C 
ENDBRANCH   6   7
BRANCH   6   9
ATOM      9  O   UNL     1     -38.916  22.967   8.166  1.00  0.00    -0.389 OA
ATOM     10  H   UNL     1     -38.671  23.804   7.692  1.00  0.00     0.211 HD
ENDBRANCH   6   9
ENDBRANCH   5   6
ENDBRANCH   1   5
TORSDOF 6
ENDMDL
MODEL 2
REMARK VINA RESULT:    -3.189      1.638      4.178
REMARK INTER + INTRA:          -4.573
REMARK INTER:                  -4.275
REMARK INTRA:                  -0.298
REMARK UNBOUND:                -0.359
REMARK SMILES C=C[C@@H](O)CCCCC
REMARK SMILES IDX 6 1 7 2 8 3 9 4 5 5 3 6 2 7 1 8 4 9
REMARK H PARENT 4 10
REMARK Flexibility Score: inf
ROOT
ATOM      1  C   UNL     1     -41.240  23.737   7.875  1.00  0.00     0.003 C 
ENDROOT
BRANCH   1   2
ATOM      2  C   UNL     1     -40.426  22.740   8.718  1.00  0.00    -0.000 C 
BRANCH   2   3
ATOM      3  C   UNL     1     -38.918  23.037   8.685  1.00  0.00    -0.003 C 
ATOM      4  C   UNL     1     -38.554  24.144   7.696  1.00  0.00     0.004 C 
ENDBRANCH   2   3
ENDBRANCH   1   2
BRANCH   1   5
ATOM      5  C   UNL     1     -42.117  23.053   6.810  1.00  0.00     0.036 C 
BRANCH   5   6
ATOM      6  C   UNL     1     -41.823  23.525   5.371  1.00  0.00     0.136 C 
BRANCH   6   7
ATOM      7  C   UNL     1     -42.089  25.006   5.238  1.00  0.00    -0.004 C 
ATOM      8  C   UNL     1     -42.124  25.600   4.043  1.00  0.00     0.007 C 
ENDBRANCH   6   7
BRANCH   6   9
ATOM      9  O   UNL     1     -40.479  23.272   5.057  1.00  0.00    -0.389 OA
ATOM     10  H   UNL     1     -40.264  22.367   5.404  1.00  0.00     0.211 HD
ENDBRANCH   6   9
ENDBRANCH   5   6
ENDBRANCH   1   5
TORSDOF 6
ENDMDL
MODEL 3
REMARK VINA RESULT:    -2.901     18.041     19.187
REMARK INTER + INTRA:          -4.193
REMARK INTER:                  -3.985
REMARK INTRA:                  -0.208
REMARK UNBOUND:                -0.359
REMARK SMILES C=C[C@@H](O)CCCCC
REMARK SMILES IDX 6 1 7 2 8 3 9 4 5 5 3 6 2 7 1 8 4 9
REMARK H PARENT 4 10
REMARK Flexibility Score: inf
ROOT
ATOM      1  C   UNL     1     -24.442  32.270   8.353  1.00  0.00     0.003 C 
ENDROOT
BRANCH   1   2
ATOM      2  C   UNL     1     -23.052  32.928   8.320  1.00  0.00    -0.000 C 
BRANCH   2   3
ATOM      3  C   UNL     1     -23.001  34.236   9.125  1.00  0.00    -0.003 C 
ATOM      4  C   UNL     1     -21.878  35.168   8.672  1.00  0.00     0.004 C 
ENDBRANCH   2   3
ENDBRANCH   1   2
BRANCH   1   5
ATOM      5  C   UNL     1     -24.416  30.829   8.895  1.00  0.00     0.036 C 
BRANCH   5   6
ATOM      6  C   UNL     1     -24.480  29.752   7.792  1.00  0.00     0.136 C 
BRANCH   6   7
ATOM      7  C   UNL     1     -24.853  30.376   6.468  1.00  0.00    -0.004 C 
ATOM      8  C   UNL     1     -25.638  29.737   5.596  1.00  0.00     0.007 C 
ENDBRANCH   6   7
BRANCH   6   9
ATOM      9  O   UNL     1     -23.228  29.130   7.668  1.00  0.00    -0.389 OA
ATOM     10  H   UNL     1     -23.188  28.736   6.758  1.00  0.00     0.211 HD
ENDBRANCH   6   9
ENDBRANCH   5   6
ENDBRANCH   1   5
TORSDOF 6
ENDMDL
MODEL 4
REMARK VINA RESULT:    -2.822     18.364     19.410
REMARK INTER + INTRA:          -4.088
REMARK INTER:                  -3.946
REMARK INTRA:                  -0.142
REMARK UNBOUND:                -0.359
REMARK SMILES C=C[C@@H](O)CCCCC
REMARK SMILES IDX 6 1 7 2 8 3 9 4 5 5 3 6 2 7 1 8 4 9
REMARK H PARENT 4 10
REMARK Flexibility Score: inf
ROOT
ATOM      1  C   UNL     1     -24.582  32.012   8.087  1.00  0.00     0.003 C 
ENDROOT
BRANCH   1   2
ATOM      2  C   UNL     1     -24.040  33.116   9.011  1.00  0.00    -0.000 C 
BRANCH   2   3
ATOM      3  C   UNL     1     -22.570  33.457   8.721  1.00  0.00    -0.003 C 
ATOM      4  C   UNL     1     -22.233  34.919   9.012  1.00  0.00     0.004 C 
ENDBRANCH   2   3
ENDBRANCH   1   2
BRANCH   1   5
ATOM      5  C   UNL     1     -24.517  30.609   8.717  1.00  0.00     0.036 C 
BRANCH   5   6
ATOM      6  C   UNL     1     -23.504  29.669   8.033  1.00  0.00     0.136 C 
BRANCH   6   7
ATOM      7  C   UNL     1     -23.017  28.622   9.006  1.00  0.00    -0.004 C 
ATOM      8  C   UNL     1     -21.875  27.960   8.799  1.00  0.00     0.007 C 
ENDBRANCH   6   7
BRANCH   6   9
ATOM      9  O   UNL     1     -24.115  29.031   6.942  1.00  0.00    -0.389 OA
ATOM     10  H   UNL     1     -23.409  28.512   6.476  1.00  0.00     0.211 HD
ENDBRANCH   6   9
ENDBRANCH   5   6
ENDBRANCH   1   5
TORSDOF 6
ENDMDL
MODEL 5
REMARK VINA RESULT:    -2.576     17.437     18.653
REMARK INTER + INTRA:          -3.763
REMARK INTER:                  -3.400
REMARK INTRA:                  -0.363
REMARK UNBOUND:                -0.359
REMARK SMILES C=C[C@@H](O)CCCCC
REMARK SMILES IDX 6 1 7 2 8 3 9 4 5 5 3 6 2 7 1 8 4 9
REMARK H PARENT 4 10
REMARK Flexibility Score: inf
ROOT
ATOM      1  C   UNL     1     -23.314  32.195   8.313  1.00  0.00     0.003 C 
ENDROOT
BRANCH   1   2
ATOM      2  C   UNL     1     -22.220  31.229   8.800  1.00  0.00    -0.000 C 
BRANCH   2   3
ATOM      3  C   UNL     1     -22.771  29.832   9.125  1.00  0.00    -0.003 C 
ATOM      4  C   UNL     1     -22.088  28.724   8.323  1.00  0.00     0.004 C 
ENDBRANCH   2   3
ENDBRANCH   1   2
BRANCH   1   5
ATOM      5  C   UNL     1     -24.693  31.525   8.172  1.00  0.00     0.036 C 
BRANCH   5   6
ATOM      6  C   UNL     1     -25.121  31.293   6.708  1.00  0.00     0.136 C 
BRANCH   6   7
ATOM      7  C   UNL     1     -25.257  29.815   6.428  1.00  0.00    -0.004 C 
ATOM      8  C   UNL     1     -25.661  29.369   5.236  1.00  0.00     0.007 C 
ENDBRANCH   6   7
BRANCH   6   9
ATOM      9  O   UNL     1     -26.355  31.918   6.473  1.00  0.00    -0.389 OA
ATOM     10  H   UNL     1     -27.057  31.333   6.860  1.00  0.00     0.211 HD
ENDBRANCH   6   9
ENDBRANCH   5   6
ENDBRANCH   1   5
TORSDOF 6
ENDMDL
MODEL 6
REMARK VINA RESULT:    -2.385      1.492      2.363
REMARK INTER + INTRA:          -3.510
REMARK INTER:                  -3.185
REMARK INTRA:                  -0.325
REMARK UNBOUND:                -0.359
REMARK SMILES C=C[C@@H](O)CCCCC
REMARK SMILES IDX 6 1 7 2 8 3 9 4 5 5 3 6 2 7 1 8 4 9
REMARK H PARENT 4 10
REMARK Flexibility Score: inf
ROOT
ATOM      1  C   UNL     1     -42.125  22.367   7.109  1.00  0.00     0.003 C 
ENDROOT
BRANCH   1   2
ATOM      2  C   UNL     1     -42.078  22.907   5.669  1.00  0.00    -0.000 C 
BRANCH   2   3
ATOM      3  C   UNL     1     -42.124  24.442   5.614  1.00  0.00    -0.003 C 
ATOM      4  C   UNL     1     -41.809  24.995   4.224  1.00  0.00     0.004 C 
ENDBRANCH   2   3
ENDBRANCH   1   2
BRANCH   1   5
ATOM      5  C   UNL     1     -40.737  21.996   7.662  1.00  0.00     0.036 C 
BRANCH   5   6
ATOM      6  C   UNL     1     -40.189  23.008   8.689  1.00  0.00     0.136 C 
BRANCH   6   7
ATOM      7  C   UNL     1     -38.771  23.396   8.341  1.00  0.00    -0.004 C 
ATOM      8  C   UNL     1     -38.510  24.262   7.358  1.00  0.00     0.007 C 
ENDBRANCH   6   7
BRANCH   6   9
ATOM      9  O   UNL     1     -40.991  24.160   8.690  1.00  0.00    -0.389 OA
ATOM     10  H   UNL     1     -41.314  24.290   7.761  1.00  0.00     0.211 HD
ENDBRANCH   6   9
ENDBRANCH   5   6
ENDBRANCH   1   5
TORSDOF 6
ENDMDL
MODEL 7
REMARK VINA RESULT:    -2.145     17.393     18.420
REMARK INTER + INTRA:          -3.193
REMARK INTER:                  -3.007
REMARK INTRA:                  -0.187
REMARK UNBOUND:                -0.359
REMARK SMILES C=C[C@@H](O)CCCCC
REMARK SMILES IDX 6 1 7 2 8 3 9 4 5 5 3 6 2 7 1 8 4 9
REMARK H PARENT 4 10
REMARK Flexibility Score: inf
ROOT
ATOM      1  C   UNL     1     -24.503  17.133   8.198  1.00  0.00     0.003 C 
ENDROOT
BRANCH   1   2
ATOM      2  C   UNL     1     -25.642  16.663   9.120  1.00  0.00    -0.000 C 
BRANCH   2   3
ATOM      3  C   UNL     1     -26.972  17.372   8.820  1.00  0.00    -0.003 C 
ATOM      4  C   UNL     1     -27.004  18.007   7.430  1.00  0.00     0.004 C 
ENDBRANCH   2   3
ENDBRANCH   1   2
BRANCH   1   5
ATOM      5  C   UNL     1     -23.964  16.017   7.285  1.00  0.00     0.036 C 
BRANCH   5   6
ATOM      6  C   UNL     1     -22.427  15.893   7.300  1.00  0.00     0.136 C 
BRANCH   6   7
ATOM      7  C   UNL     1     -21.875  16.026   5.900  1.00  0.00    -0.004 C 
ATOM      8  C   UNL     1     -22.677  16.261   4.857  1.00  0.00     0.007 C 
ENDBRANCH   6   7
BRANCH   6   9
ATOM      9  O   UNL     1     -21.881  16.905   8.105  1.00  0.00    -0.389 OA
ATOM     10  H   UNL     1     -20.968  17.089   7.761  1.00  0.00     0.211 HD
ENDBRANCH   6   9
ENDBRANCH   5   6
ENDBRANCH   1   5
TORSDOF 6
ENDMDL
MODEL 8
REMARK VINA RESULT:    -1.290     17.730     18.693
REMARK INTER + INTRA:          -2.063
REMARK INTER:                  -1.616
REMARK INTRA:                  -0.446
REMARK UNBOUND:                -0.359
REMARK SMILES C=C[C@@H](O)CCCCC
REMARK SMILES IDX 6 1 7 2 8 3 9 4 5 5 3 6 2 7 1 8 4 9
REMARK H PARENT 4 10
REMARK Flexibility Score: inf
ROOT
ATOM      1  C   UNL     1     -24.514  32.011   7.806  1.00  0.00     0.003 C 
ENDROOT
BRANCH   1   2
ATOM      2  C   UNL     1     -25.540  31.232   6.965  1.00  0.00    -0.000 C 
BRANCH   2   3
ATOM      3  C   UNL     1     -24.890  30.124   6.122  1.00  0.00    -0.003 C 
ATOM      4  C   UNL     1     -25.916  29.239   5.414  1.00  0.00     0.004 C 
ENDBRANCH   2   3
ENDBRANCH   1   2
BRANCH   1   5
ATOM      5  C   UNL     1     -24.009  31.221   9.027  1.00  0.00     0.036 C 
BRANCH   5   6
ATOM      6  C   UNL     1     -22.475  31.069   9.074  1.00  0.00     0.136 C 
BRANCH   6   7
ATOM      7  C   UNL     1     -22.057  29.755   8.457  1.00  0.00    -0.004 C 
ATOM      8  C   UNL     1     -22.725  28.626   8.710  1.00  0.00     0.007 C 
ENDBRANCH   6   7
BRANCH   6   9
ATOM      9  O   UNL     1     -21.875  32.119   8.362  1.00  0.00    -0.389 OA
ATOM     10  H   UNL     1     -21.078  31.743   7.905  1.00  0.00     0.211 HD
ENDBRANCH   6   9
ENDBRANCH   5   6
ENDBRANCH   1   5
TORSDOF 6
ENDMDL
