MODEL 1
REMARK VINA RESULT:    -4.443      0.000      0.000
REMARK INTER + INTRA:          -9.530
REMARK INTER:                  -8.080
REMARK INTRA:                  -1.450
REMARK UNBOUND:                -1.450
REMARK SMILES CCCCCCCCCCCCCC[C@@H](C)C(=O)[O-]
REMARK SMILES IDX 9 1 10 2 11 3 12 4 13 5 14 6 15 7 16 8 17 9 18 10 19 11 8 12
REMARK SMILES IDX 7 13 6 14 5 15 4 16 3 17 2 18 1 19
REMARK H PARENT
REMARK Flexibility Score: inf
ROOT
ATOM      1  C   UNL     1      44.767  27.412   1.397  1.00  0.00     0.000 C 
ENDROOT
BRANCH   1   2
ATOM      2  C   UNL     1      43.335  27.120   1.887  1.00  0.00     0.000 C 
BRANCH   2   3
ATOM      3  C   UNL     1      42.213  27.850   1.124  1.00  0.00     0.000 C 
BRANCH   3   4
ATOM      4  C   UNL     1      42.511  29.342   0.898  1.00  0.00     0.000 C 
BRANCH   4   5
ATOM      5  C   UNL     1      42.629  29.711  -0.592  1.00  0.00     0.001 C 
BRANCH   5   6
ATOM      6  C   UNL     1      42.784  28.521  -1.562  1.00  0.00     0.009 C 
BRANCH   6   7
ATOM      7  C   UNL     1      44.116  28.481  -2.347  1.00  0.00     0.032 C 
ATOM      8  C   UNL     1      45.112  29.543  -1.863  1.00  0.00     0.014 C 
BRANCH   7   9
ATOM      9  C   UNL     1      44.731  27.114  -2.232  1.00  0.00     0.044 C 
ATOM     10  O   UNL     1      44.073  26.153  -1.750  1.00  0.00    -0.550 OA
ATOM     11  O   UNL     1      46.033  26.899  -2.669  1.00  0.00    -0.550 OA
ENDBRANCH   7   9
ENDBRANCH   6   7
ENDBRANCH   5   6
ENDBRANCH   4   5
ENDBRANCH   3   4
ENDBRANCH   2   3
ENDBRANCH   1   2
BRANCH   1  12
ATOM     12  C   UNL     1      45.847  26.747   2.267  1.00  0.00     0.000 C 
BRANCH  12  13
ATOM     13  C   UNL     1      45.263  25.763   3.297  1.00  0.00    -0.000 C 
BRANCH  13  14
ATOM     14  C   UNL     1      45.876  25.851   4.709  1.00  0.00    -0.000 C 
BRANCH  14  15
ATOM     15  C   UNL     1      46.027  27.278   5.269  1.00  0.00    -0.000 C 
BRANCH  15  16
ATOM     16  C   UNL     1      46.658  27.331   6.677  1.00  0.00    -0.000 C 
BRANCH  16  17
ATOM     17  C   UNL     1      46.286  26.111   7.534  1.00  0.00    -0.000 C 
BRANCH  17  18
ATOM     18  C   UNL     1      45.269  26.489   8.616  1.00  0.00    -0.003 C 
ATOM     19  C   UNL     1      45.185  28.003   8.788  1.00  0.00     0.004 C 
ENDBRANCH  17  18
ENDBRANCH  16  17
ENDBRANCH  15  16
ENDBRANCH  14  15
ENDBRANCH  13  14
ENDBRANCH  12  13
ENDBRANCH   1  12
TORSDOF 14
ENDMDL
MODEL 2
REMARK VINA RESULT:    -4.358      1.485      1.811
REMARK INTER + INTRA:          -9.376
REMARK INTER:                  -8.320
REMARK INTRA:                  -1.056
REMARK UNBOUND:                -1.450
REMARK SMILES CCCCCCCCCCCCCC[C@@H](C)C(=O)[O-]
REMARK SMILES IDX 9 1 10 2 11 3 12 4 13 5 14 6 15 7 16 8 17 9 18 10 19 11 8 12
REMARK SMILES IDX 7 13 6 14 5 15 4 16 3 17 2 18 1 19
REMARK H PARENT
REMARK Flexibility Score: inf
ROOT
ATOM      1  C   UNL     1      43.806  26.776   1.331  1.00  0.00     0.000 C 
ENDROOT
BRANCH   1   2
ATOM      2  C   UNL     1      42.508  27.605   1.295  1.00  0.00     0.000 C 
BRANCH   2   3
ATOM      3  C   UNL     1      42.696  29.133   1.369  1.00  0.00     0.000 C 
BRANCH   3   4
ATOM      4  C   UNL     1      42.227  29.859   0.097  1.00  0.00     0.000 C 
BRANCH   4   5
ATOM      5  C   UNL     1      43.202  29.690  -1.083  1.00  0.00     0.001 C 
BRANCH   5   6
ATOM      6  C   UNL     1      42.660  28.885  -2.283  1.00  0.00     0.009 C 
BRANCH   6   7
ATOM      7  C   UNL     1      43.716  28.056  -3.050  1.00  0.00     0.032 C 
ATOM      8  C   UNL     1      44.140  26.796  -2.283  1.00  0.00     0.014 C 
BRANCH   7   9
ATOM      9  C   UNL     1      43.178  27.675  -4.401  1.00  0.00     0.044 C 
ATOM     10  O   UNL     1      43.867  26.977  -5.192  1.00  0.00    -0.550 OA
ATOM     11  O   UNL     1      41.907  28.087  -4.783  1.00  0.00    -0.550 OA
ENDBRANCH   7   9
ENDBRANCH   6   7
ENDBRANCH   5   6
ENDBRANCH   4   5
ENDBRANCH   3   4
ENDBRANCH   2   3
ENDBRANCH   1   2
BRANCH   1  12
ATOM     12  C   UNL     1      44.630  27.003   2.610  1.00  0.00     0.000 C 
BRANCH  12  13
ATOM     13  C   UNL     1      44.912  25.699   3.379  1.00  0.00    -0.000 C 
BRANCH  13  14
ATOM     14  C   UNL     1      46.003  25.800   4.463  1.00  0.00    -0.000 C 
BRANCH  14  15
ATOM     15  C   UNL     1      46.225  27.211   5.039  1.00  0.00    -0.000 C 
BRANCH  15  16
ATOM     16  C   UNL     1      46.585  27.222   6.540  1.00  0.00    -0.000 C 
BRANCH  16  17
ATOM     17  C   UNL     1      45.626  26.366   7.381  1.00  0.00    -0.000 C 
BRANCH  17  18
ATOM     18  C   UNL     1      45.369  27.012   8.747  1.00  0.00    -0.003 C 
ATOM     19  C   UNL     1      45.113  28.510   8.610  1.00  0.00     0.004 C 
ENDBRANCH  17  18
ENDBRANCH  16  17
ENDBRANCH  15  16
ENDBRANCH  14  15
ENDBRANCH  13  14
ENDBRANCH  12  13
ENDBRANCH   1  12
TORSDOF 14
ENDMDL
MODEL 3
REMARK VINA RESULT:    -4.201      0.891      1.810
REMARK INTER + INTRA:          -9.090
REMARK INTER:                  -7.750
REMARK INTRA:                  -1.340
REMARK UNBOUND:                -1.450
REMARK SMILES CCCCCCCCCCCCCC[C@@H](C)C(=O)[O-]
REMARK SMILES IDX 9 1 10 2 11 3 12 4 13 5 14 6 15 7 16 8 17 9 18 10 19 11 8 12
REMARK SMILES IDX 7 13 6 14 5 15 4 16 3 17 2 18 1 19
REMARK H PARENT
REMARK Flexibility Score: inf
ROOT
ATOM      1  C   UNL     1      44.870  25.962   3.081  1.00  0.00     0.000 C 
ENDROOT
BRANCH   1   2
ATOM      2  C   UNL     1      44.561  27.128   2.123  1.00  0.00     0.000 C 
BRANCH   2   3
ATOM      3  C   UNL     1      43.065  27.423   1.900  1.00  0.00     0.000 C 
BRANCH   3   4
ATOM      4  C   UNL     1      42.783  28.905   1.599  1.00  0.00     0.000 C 
BRANCH   4   5
ATOM      5  C   UNL     1      43.277  29.339   0.207  1.00  0.00     0.001 C 
BRANCH   5   6
ATOM      6  C   UNL     1      42.649  28.588  -0.985  1.00  0.00     0.009 C 
BRANCH   6   7
ATOM      7  C   UNL     1      43.616  28.280  -2.152  1.00  0.00     0.032 C 
ATOM      8  C   UNL     1      44.572  29.445  -2.442  1.00  0.00     0.014 C 
BRANCH   7   9
ATOM      9  C   UNL     1      44.403  27.037  -1.843  1.00  0.00     0.044 C 
ATOM     10  O   UNL     1      45.631  26.971  -2.116  1.00  0.00    -0.550 OA
ATOM     11  O   UNL     1      43.777  25.951  -1.243  1.00  0.00    -0.550 OA
ENDBRANCH   7   9
ENDBRANCH   6   7
ENDBRANCH   5   6
ENDBRANCH   4   5
ENDBRANCH   3   4
ENDBRANCH   2   3
ENDBRANCH   1   2
BRANCH   1  12
ATOM     12  C   UNL     1      45.994  26.286   4.080  1.00  0.00     0.000 C 
BRANCH  12  13
ATOM     13  C   UNL     1      45.950  27.743   4.578  1.00  0.00    -0.000 C 
BRANCH  13  14
ATOM     14  C   UNL     1      47.091  28.144   5.533  1.00  0.00    -0.000 C 
BRANCH  14  15
ATOM     15  C   UNL     1      46.679  29.066   6.695  1.00  0.00    -0.000 C 
BRANCH  15  16
ATOM     16  C   UNL     1      45.352  28.662   7.371  1.00  0.00    -0.000 C 
BRANCH  16  17
ATOM     17  C   UNL     1      45.566  28.010   8.745  1.00  0.00    -0.000 C 
BRANCH  17  18
ATOM     18  C   UNL     1      45.270  26.507   8.692  1.00  0.00    -0.003 C 
ATOM     19  C   UNL     1      46.523  25.711   8.336  1.00  0.00     0.004 C 
ENDBRANCH  17  18
ENDBRANCH  16  17
ENDBRANCH  15  16
ENDBRANCH  14  15
ENDBRANCH  13  14
ENDBRANCH  12  13
ENDBRANCH   1  12
TORSDOF 14
ENDMDL
MODEL 4
REMARK VINA RESULT:    -4.195      3.681      8.289
REMARK INTER + INTRA:          -9.079
REMARK INTER:                  -7.662
REMARK INTRA:                  -1.417
REMARK UNBOUND:                -1.450
REMARK SMILES CCCCCCCCCCCCCC[C@@H](C)C(=O)[O-]
REMARK SMILES IDX 9 1 10 2 11 3 12 4 13 5 14 6 15 7 16 8 17 9 18 10 19 11 8 12
REMARK SMILES IDX 7 13 6 14 5 15 4 16 3 17 2 18 1 19
REMARK H PARENT
REMARK Flexibility Score: inf
ROOT
ATOM      1  C   UNL     1      43.549  26.754   1.429  1.00  0.00     0.000 C 
ENDROOT
BRANCH   1   2
ATOM      2  C   UNL     1      44.478  26.943   2.644  1.00  0.00     0.000 C 
BRANCH   2   3
ATOM      3  C   UNL     1      44.881  25.649   3.377  1.00  0.00     0.000 C 
BRANCH   3   4
ATOM      4  C   UNL     1      46.404  25.447   3.447  1.00  0.00     0.000 C 
BRANCH   4   5
ATOM      5  C   UNL     1      46.978  25.699   4.854  1.00  0.00     0.001 C 
BRANCH   5   6
ATOM      6  C   UNL     1      45.939  26.009   5.951  1.00  0.00     0.009 C 
BRANCH   6   7
ATOM      7  C   UNL     1      46.270  27.227   6.844  1.00  0.00     0.032 C 
ATOM      8  C   UNL     1      46.003  28.562   6.136  1.00  0.00     0.014 C 
BRANCH   7   9
ATOM      9  C   UNL     1      45.470  27.154   8.116  1.00  0.00     0.044 C 
ATOM     10  O   UNL     1      44.868  28.170   8.554  1.00  0.00    -0.550 OA
ATOM     11  O   UNL     1      45.385  25.956   8.814  1.00  0.00    -0.550 OA
ENDBRANCH   7   9
ENDBRANCH   6   7
ENDBRANCH   5   6
ENDBRANCH   4   5
ENDBRANCH   3   4
ENDBRANCH   2   3
ENDBRANCH   1   2
BRANCH   1  12
ATOM     12  C   UNL     1      42.278  27.616   1.504  1.00  0.00     0.000 C 
BRANCH  12  13
ATOM     13  C   UNL     1      42.574  29.090   1.839  1.00  0.00    -0.000 C 
BRANCH  13  14
ATOM     14  C   UNL     1      42.166  30.104   0.751  1.00  0.00    -0.000 C 
BRANCH  14  15
ATOM     15  C   UNL     1      43.070  30.125  -0.496  1.00  0.00    -0.000 C 
BRANCH  15  16
ATOM     16  C   UNL     1      42.296  30.016  -1.827  1.00  0.00    -0.000 C 
BRANCH  16  17
ATOM     17  C   UNL     1      42.670  28.757  -2.624  1.00  0.00    -0.000 C 
BRANCH  17  18
ATOM     18  C   UNL     1      44.067  28.259  -2.240  1.00  0.00    -0.003 C 
ATOM     19  C   UNL     1      44.150  26.737  -2.312  1.00  0.00     0.004 C 
ENDBRANCH  17  18
ENDBRANCH  16  17
ENDBRANCH  15  16
ENDBRANCH  14  15
ENDBRANCH  13  14
ENDBRANCH  12  13
ENDBRANCH   1  12
TORSDOF 14
ENDMDL
MODEL 5
REMARK VINA RESULT:    -4.067      4.066      9.152
REMARK INTER + INTRA:          -8.846
REMARK INTER:                  -8.106
REMARK INTRA:                  -0.740
REMARK UNBOUND:                -1.450
REMARK SMILES CCCCCCCCCCCCCC[C@@H](C)C(=O)[O-]
REMARK SMILES IDX 9 1 10 2 11 3 12 4 13 5 14 6 15 7 16 8 17 9 18 10 19 11 8 12
REMARK SMILES IDX 7 13 6 14 5 15 4 16 3 17 2 18 1 19
REMARK H PARENT
REMARK Flexibility Score: inf
ROOT
ATOM      1  C   UNL     1      44.679  27.069   1.898  1.00  0.00     0.000 C 
ENDROOT
BRANCH   1   2
ATOM      2  C   UNL     1      44.912  25.975   2.957  1.00  0.00     0.000 C 
BRANCH   2   3
ATOM      3  C   UNL     1      46.368  25.488   3.097  1.00  0.00     0.000 C 
BRANCH   3   4
ATOM      4  C   UNL     1      46.882  25.539   4.546  1.00  0.00     0.000 C 
BRANCH   4   5
ATOM      5  C   UNL     1      46.311  26.726   5.344  1.00  0.00     0.001 C 
BRANCH   5   6
ATOM      6  C   UNL     1      45.800  26.390   6.761  1.00  0.00     0.009 C 
BRANCH   6   7
ATOM      7  C   UNL     1      46.156  27.428   7.851  1.00  0.00     0.032 C 
ATOM      8  C   UNL     1      45.211  28.637   7.838  1.00  0.00     0.014 C 
BRANCH   7   9
ATOM      9  C   UNL     1      46.128  26.772   9.203  1.00  0.00     0.044 C 
ATOM     10  O   UNL     1      45.561  25.658   9.364  1.00  0.00    -0.550 OA
ATOM     11  O   UNL     1      46.738  27.390  10.288  1.00  0.00    -0.550 OA
ENDBRANCH   7   9
ENDBRANCH   6   7
ENDBRANCH   5   6
ENDBRANCH   4   5
ENDBRANCH   3   4
ENDBRANCH   2   3
ENDBRANCH   1   2
BRANCH   1  12
ATOM     12  C   UNL     1      43.215  27.533   1.826  1.00  0.00     0.000 C 
BRANCH  12  13
ATOM     13  C   UNL     1      42.541  27.180   0.487  1.00  0.00    -0.000 C 
BRANCH  13  14
ATOM     14  C   UNL     1      43.247  27.731  -0.768  1.00  0.00    -0.000 C 
BRANCH  14  15
ATOM     15  C   UNL     1      43.955  26.676  -1.637  1.00  0.00    -0.000 C 
BRANCH  15  16
ATOM     16  C   UNL     1      44.886  27.277  -2.712  1.00  0.00    -0.000 C 
BRANCH  16  17
ATOM     17  C   UNL     1      44.383  27.014  -4.139  1.00  0.00    -0.000 C 
BRANCH  17  18
ATOM     18  C   UNL     1      43.688  28.252  -4.714  1.00  0.00    -0.003 C 
ATOM     19  C   UNL     1      42.333  27.894  -5.319  1.00  0.00     0.004 C 
ENDBRANCH  17  18
ENDBRANCH  16  17
ENDBRANCH  15  16
ENDBRANCH  14  15
ENDBRANCH  13  14
ENDBRANCH  12  13
ENDBRANCH   1  12
TORSDOF 14
ENDMDL
MODEL 6
REMARK VINA RESULT:    -4.030      2.399      3.845
REMARK INTER + INTRA:          -8.779
REMARK INTER:                  -6.844
REMARK INTRA:                  -1.935
REMARK UNBOUND:                -1.450
REMARK SMILES CCCCCCCCCCCCCC[C@@H](C)C(=O)[O-]
REMARK SMILES IDX 9 1 10 2 11 3 12 4 13 5 14 6 15 7 16 8 17 9 18 10 19 11 8 12
REMARK SMILES IDX 7 13 6 14 5 15 4 16 3 17 2 18 1 19
REMARK H PARENT
REMARK Flexibility Score: inf
ROOT
ATOM      1  C   UNL     1      42.257  27.967   1.813  1.00  0.00     0.000 C 
ENDROOT
BRANCH   1   2
ATOM      2  C   UNL     1      42.237  27.414   0.375  1.00  0.00     0.000 C 
BRANCH   2   3
ATOM      3  C   UNL     1      43.541  26.740  -0.093  1.00  0.00     0.000 C 
BRANCH   3   4
ATOM      4  C   UNL     1      43.892  27.061  -1.556  1.00  0.00     0.000 C 
BRANCH   4   5
ATOM      5  C   UNL     1      43.854  28.569  -1.865  1.00  0.00     0.001 C 
BRANCH   5   6
ATOM      6  C   UNL     1      42.747  29.020  -2.841  1.00  0.00     0.009 C 
BRANCH   6   7
ATOM      7  C   UNL     1      43.182  29.132  -4.321  1.00  0.00     0.032 C 
ATOM      8  C   UNL     1      44.707  29.131  -4.485  1.00  0.00     0.014 C 
BRANCH   7   9
ATOM      9  C   UNL     1      42.581  28.003  -5.112  1.00  0.00     0.044 C 
ATOM     10  O   UNL     1      43.012  26.827  -4.979  1.00  0.00    -0.550 OA
ATOM     11  O   UNL     1      41.536  28.252  -5.994  1.00  0.00    -0.550 OA
ENDBRANCH   7   9
ENDBRANCH   6   7
ENDBRANCH   5   6
ENDBRANCH   4   5
ENDBRANCH   3   4
ENDBRANCH   2   3
ENDBRANCH   1   2
BRANCH   1  12
ATOM     12  C   UNL     1      42.456  29.491   1.869  1.00  0.00     0.000 C 
BRANCH  12  13
ATOM     13  C   UNL     1      43.926  29.910   1.678  1.00  0.00    -0.000 C 
BRANCH  13  14
ATOM     14  C   UNL     1      44.732  30.084   2.980  1.00  0.00    -0.000 C 
BRANCH  14  15
ATOM     15  C   UNL     1      45.850  29.049   3.202  1.00  0.00    -0.000 C 
BRANCH  15  16
ATOM     16  C   UNL     1      46.046  28.079   2.016  1.00  0.00    -0.000 C 
BRANCH  16  17
ATOM     17  C   UNL     1      46.411  26.659   2.473  1.00  0.00    -0.000 C 
BRANCH  17  18
ATOM     18  C   UNL     1      45.173  25.909   2.977  1.00  0.00    -0.003 C 
ATOM     19  C   UNL     1      45.270  25.629   4.474  1.00  0.00     0.004 C 
ENDBRANCH  17  18
ENDBRANCH  16  17
ENDBRANCH  15  16
ENDBRANCH  14  15
ENDBRANCH  13  14
ENDBRANCH  12  13
ENDBRANCH   1  12
TORSDOF 14
ENDMDL
MODEL 7
REMARK VINA RESULT:    -3.936      2.079      2.807
REMARK INTER + INTRA:          -8.608
REMARK INTER:                  -7.651
REMARK INTRA:                  -0.957
REMARK UNBOUND:                -1.450
REMARK SMILES CCCCCCCCCCCCCC[C@@H](C)C(=O)[O-]
REMARK SMILES IDX 9 1 10 2 11 3 12 4 13 5 14 6 15 7 16 8 17 9 18 10 19 11 8 12
REMARK SMILES IDX 7 13 6 14 5 15 4 16 3 17 2 18 1 19
REMARK H PARENT
REMARK Flexibility Score: inf
ROOT
ATOM      1  C   UNL     1      43.036  26.753   0.047  1.00  0.00     0.000 C 
ENDROOT
BRANCH   1   2
ATOM      2  C   UNL     1      44.065  27.312  -0.954  1.00  0.00     0.000 C 
BRANCH   2   3
ATOM      3  C   UNL     1      43.996  28.832  -1.196  1.00  0.00     0.000 C 
BRANCH   3   4
ATOM      4  C   UNL     1      42.613  29.302  -1.677  1.00  0.00     0.000 C 
BRANCH   4   5
ATOM      5  C   UNL     1      42.666  30.042  -3.026  1.00  0.00     0.001 C 
BRANCH   5   6
ATOM      6  C   UNL     1      43.920  29.770  -3.884  1.00  0.00     0.009 C 
BRANCH   6   7
ATOM      7  C   UNL     1      43.654  29.048  -5.226  1.00  0.00     0.032 C 
ATOM      8  C   UNL     1      44.951  28.644  -5.939  1.00  0.00     0.014 C 
BRANCH   7   9
ATOM      9  C   UNL     1      42.802  27.833  -4.987  1.00  0.00     0.044 C 
ATOM     10  O   UNL     1      41.573  27.847  -5.264  1.00  0.00    -0.550 OA
ATOM     11  O   UNL     1      43.371  26.678  -4.464  1.00  0.00    -0.550 OA
ENDBRANCH   7   9
ENDBRANCH   6   7
ENDBRANCH   5   6
ENDBRANCH   4   5
ENDBRANCH   3   4
ENDBRANCH   2   3
ENDBRANCH   1   2
BRANCH   1  12
ATOM     12  C   UNL     1      43.325  27.163   1.500  1.00  0.00     0.000 C 
BRANCH  12  13
ATOM     13  C   UNL     1      44.759  26.819   1.945  1.00  0.00    -0.000 C 
BRANCH  13  14
ATOM     14  C   UNL     1      44.860  25.887   3.169  1.00  0.00    -0.000 C 
BRANCH  14  15
ATOM     15  C   UNL     1      46.268  25.335   3.457  1.00  0.00    -0.000 C 
BRANCH  15  16
ATOM     16  C   UNL     1      46.876  25.839   4.783  1.00  0.00    -0.000 C 
BRANCH  16  17
ATOM     17  C   UNL     1      45.946  26.811   5.524  1.00  0.00    -0.000 C 
BRANCH  17  18
ATOM     18  C   UNL     1      45.944  26.529   7.030  1.00  0.00    -0.003 C 
ATOM     19  C   UNL     1      45.496  27.755   7.821  1.00  0.00     0.004 C 
ENDBRANCH  17  18
ENDBRANCH  16  17
ENDBRANCH  15  16
ENDBRANCH  14  15
ENDBRANCH  13  14
ENDBRANCH  12  13
ENDBRANCH   1  12
TORSDOF 14
ENDMDL
MODEL 8
REMARK VINA RESULT:    -3.934      2.787      7.908
REMARK INTER + INTRA:          -8.604
REMARK INTER:                  -6.772
REMARK INTRA:                  -1.832
REMARK UNBOUND:                -1.450
REMARK SMILES CCCCCCCCCCCCCC[C@@H](C)C(=O)[O-]
REMARK SMILES IDX 9 1 10 2 11 3 12 4 13 5 14 6 15 7 16 8 17 9 18 10 19 11 8 12
REMARK SMILES IDX 7 13 6 14 5 15 4 16 3 17 2 18 1 19
REMARK H PARENT
REMARK Flexibility Score: inf
ROOT
ATOM      1  C   UNL     1      42.348  29.950  -0.628  1.00  0.00     0.000 C 
ENDROOT
BRANCH   1   2
ATOM      2  C   UNL     1      42.585  29.508   0.828  1.00  0.00     0.000 C 
BRANCH   2   3
ATOM      3  C   UNL     1      42.150  28.068   1.162  1.00  0.00     0.000 C 
BRANCH   3   4
ATOM      4  C   UNL     1      43.300  27.203   1.706  1.00  0.00     0.000 C 
BRANCH   4   5
ATOM      5  C   UNL     1      44.623  27.980   1.841  1.00  0.00     0.001 C 
BRANCH   5   6
ATOM      6  C   UNL     1      45.905  27.125   1.772  1.00  0.00     0.009 C 
BRANCH   6   7
ATOM      7  C   UNL     1      46.623  26.906   3.125  1.00  0.00     0.032 C 
ATOM      8  C   UNL     1      46.717  28.194   3.953  1.00  0.00     0.014 C 
BRANCH   7   9
ATOM      9  C   UNL     1      45.907  25.844   3.912  1.00  0.00     0.044 C 
ATOM     10  O   UNL     1      45.766  25.955   5.159  1.00  0.00    -0.550 OA
ATOM     11  O   UNL     1      45.386  24.731   3.262  1.00  0.00    -0.550 OA
ENDBRANCH   7   9
ENDBRANCH   6   7
ENDBRANCH   5   6
ENDBRANCH   4   5
ENDBRANCH   3   4
ENDBRANCH   2   3
ENDBRANCH   1   2
BRANCH   1  12
ATOM     12  C   UNL     1      42.648  28.841  -1.650  1.00  0.00     0.000 C 
BRANCH  12  13
ATOM     13  C   UNL     1      44.151  28.526  -1.766  1.00  0.00    -0.000 C 
BRANCH  13  14
ATOM     14  C   UNL     1      44.488  27.150  -2.373  1.00  0.00    -0.000 C 
BRANCH  14  15
ATOM     15  C   UNL     1      45.446  27.182  -3.578  1.00  0.00    -0.000 C 
BRANCH  15  16
ATOM     16  C   UNL     1      44.728  27.274  -4.942  1.00  0.00    -0.000 C 
BRANCH  16  17
ATOM     17  C   UNL     1      43.292  26.730  -4.889  1.00  0.00    -0.000 C 
BRANCH  17  18
ATOM     18  C   UNL     1      42.279  27.817  -5.263  1.00  0.00    -0.003 C 
ATOM     19  C   UNL     1      42.975  29.148  -5.539  1.00  0.00     0.004 C 
ENDBRANCH  17  18
ENDBRANCH  16  17
ENDBRANCH  15  16
ENDBRANCH  14  15
ENDBRANCH  13  14
ENDBRANCH  12  13
ENDBRANCH   1  12
TORSDOF 14
ENDMDL
MODEL 9
REMARK VINA RESULT:    -3.907      2.104      3.713
REMARK INTER + INTRA:          -8.556
REMARK INTER:                  -7.111
REMARK INTRA:                  -1.445
REMARK UNBOUND:                -1.450
REMARK SMILES CCCCCCCCCCCCCC[C@@H](C)C(=O)[O-]
REMARK SMILES IDX 9 1 10 2 11 3 12 4 13 5 14 6 15 7 16 8 17 9 18 10 19 11 8 12
REMARK SMILES IDX 7 13 6 14 5 15 4 16 3 17 2 18 1 19
REMARK H PARENT
REMARK Flexibility Score: inf
ROOT
ATOM      1  C   UNL     1      43.014  26.738  -0.373  1.00  0.00     0.000 C 
ENDROOT
BRANCH   1   2
ATOM      2  C   UNL     1      44.197  26.961  -1.334  1.00  0.00     0.000 C 
BRANCH   2   3
ATOM      3  C   UNL     1      44.798  28.379  -1.327  1.00  0.00     0.000 C 
BRANCH   3   4
ATOM      4  C   UNL     1      46.204  28.440  -1.948  1.00  0.00     0.000 C 
BRANCH   4   5
ATOM      5  C   UNL     1      46.177  28.532  -3.485  1.00  0.00     0.001 C 
BRANCH   5   6
ATOM      6  C   UNL     1      44.926  29.202  -4.089  1.00  0.00     0.009 C 
BRANCH   6   7
ATOM      7  C   UNL     1      44.102  28.312  -5.049  1.00  0.00     0.032 C 
ATOM      8  C   UNL     1      44.553  26.846  -5.019  1.00  0.00     0.014 C 
BRANCH   7   9
ATOM      9  C   UNL     1      42.643  28.405  -4.701  1.00  0.00     0.044 C 
ATOM     10  O   UNL     1      41.765  27.959  -5.487  1.00  0.00    -0.550 OA
ATOM     11  O   UNL     1      42.252  28.981  -3.497  1.00  0.00    -0.550 OA
ENDBRANCH   7   9
ENDBRANCH   6   7
ENDBRANCH   5   6
ENDBRANCH   4   5
ENDBRANCH   3   4
ENDBRANCH   2   3
ENDBRANCH   1   2
BRANCH   1  12
ATOM     12  C   UNL     1      42.571  28.024   0.344  1.00  0.00     0.000 C 
BRANCH  12  13
ATOM     13  C   UNL     1      42.798  27.970   1.866  1.00  0.00    -0.000 C 
BRANCH  13  14
ATOM     14  C   UNL     1      44.252  27.701   2.303  1.00  0.00    -0.000 C 
BRANCH  14  15
ATOM     15  C   UNL     1      44.513  26.298   2.881  1.00  0.00    -0.000 C 
BRANCH  15  16
ATOM     16  C   UNL     1      46.008  25.916   2.936  1.00  0.00    -0.000 C 
BRANCH  16  17
ATOM     17  C   UNL     1      46.491  25.636   4.367  1.00  0.00    -0.000 C 
BRANCH  17  18
ATOM     18  C   UNL     1      46.072  26.762   5.318  1.00  0.00    -0.003 C 
ATOM     19  C   UNL     1      45.999  26.267   6.761  1.00  0.00     0.004 C 
ENDBRANCH  17  18
ENDBRANCH  16  17
ENDBRANCH  15  16
ENDBRANCH  14  15
ENDBRANCH  13  14
ENDBRANCH  12  13
ENDBRANCH   1  12
TORSDOF 14
ENDMDL
