MODEL 1
REMARK VINA RESULT:    -4.922      0.000      0.000
REMARK INTER + INTRA:          -5.443
REMARK INTER:                  -5.209
REMARK INTRA:                  -0.234
REMARK UNBOUND:                -0.234
REMARK SMILES CC1=CC[C@@H]2[C@H]3[C@H](C(C)C)CC[C@]2(C)[C@@H]13
REMARK SMILES IDX 1 1 2 2 3 3 4 4 5 5 6 6 15 7 13 8 12 9 11 10 7 11 14 12 8 13
REMARK SMILES IDX 9 14 10 15
REMARK H PARENT
REMARK Flexibility Score: inf
ROOT
ATOM      1  C   UNL     1      58.487  47.125  40.760  1.00  0.00     0.039 C 
ATOM      2  C   UNL     1      58.651  45.650  40.980  1.00  0.00    -0.073 C 
ATOM      3  C   UNL     1      59.447  44.901  40.171  1.00  0.00    -0.027 C 
ATOM      4  C   UNL     1      59.592  43.402  40.458  1.00  0.00     0.031 C 
ATOM      5  C   UNL     1      58.710  42.995  41.684  1.00  0.00     0.003 C 
ATOM      6  C   UNL     1      57.317  43.635  41.487  1.00  0.00     0.004 C 
ATOM      7  C   UNL     1      57.919  44.918  42.109  1.00  0.00     0.024 C 
ATOM      8  C   UNL     1      58.894  43.978  42.862  1.00  0.00    -0.022 C 
ATOM      9  C   UNL     1      58.220  43.370  44.125  1.00  0.00     0.008 C 
ATOM     10  C   UNL     1      56.699  43.144  43.931  1.00  0.00     0.005 C 
ATOM     11  C   UNL     1      56.275  42.957  42.436  1.00  0.00    -0.005 C 
ATOM     12  C   UNL     1      60.319  44.487  43.190  1.00  0.00     0.012 C 
ENDROOT
BRANCH  11  13
ATOM     13  C   UNL     1      54.818  43.465  42.191  1.00  0.00    -0.014 C 
ATOM     14  C   UNL     1      53.759  42.405  42.550  1.00  0.00     0.007 C 
ATOM     15  C   UNL     1      54.529  44.744  43.000  1.00  0.00     0.007 C 
ENDBRANCH  11  13
TORSDOF 1
ENDMDL
MODEL 2
REMARK VINA RESULT:    -4.271      1.465      2.206
REMARK INTER + INTRA:          -4.754
REMARK INTER:                  -4.597
REMARK INTRA:                  -0.157
REMARK UNBOUND:                -0.234
REMARK SMILES CC1=CC[C@@H]2[C@H]3[C@H](C(C)C)CC[C@]2(C)[C@@H]13
REMARK SMILES IDX 1 1 2 2 3 3 4 4 5 5 6 6 15 7 13 8 12 9 11 10 7 11 14 12 8 13
REMARK SMILES IDX 9 14 10 15
REMARK H PARENT
REMARK Flexibility Score: inf
ROOT
ATOM      1  C   UNL     1      59.014  47.125  44.086  1.00  0.00     0.039 C 
ATOM      2  C   UNL     1      58.590  46.139  43.039  1.00  0.00    -0.073 C 
ATOM      3  C   UNL     1      59.172  46.120  41.811  1.00  0.00    -0.027 C 
ATOM      4  C   UNL     1      58.712  45.075  40.788  1.00  0.00     0.031 C 
ATOM      5  C   UNL     1      57.560  44.201  41.385  1.00  0.00     0.003 C 
ATOM      6  C   UNL     1      56.548  45.159  42.054  1.00  0.00     0.004 C 
ATOM      7  C   UNL     1      57.472  45.123  43.295  1.00  0.00     0.024 C 
ATOM      8  C   UNL     1      57.903  43.715  42.811  1.00  0.00    -0.022 C 
ATOM      9  C   UNL     1      56.863  42.638  43.232  1.00  0.00     0.008 C 
ATOM     10  C   UNL     1      55.416  43.192  43.256  1.00  0.00     0.005 C 
ATOM     11  C   UNL     1      55.195  44.419  42.309  1.00  0.00    -0.005 C 
ATOM     12  C   UNL     1      59.344  43.233  43.107  1.00  0.00     0.012 C 
ENDROOT
BRANCH  11  13
ATOM     13  C   UNL     1      54.083  45.368  42.859  1.00  0.00    -0.014 C 
ATOM     14  C   UNL     1      54.620  46.775  43.183  1.00  0.00     0.007 C 
ATOM     15  C   UNL     1      52.920  45.504  41.858  1.00  0.00     0.007 C 
ENDBRANCH  11  13
TORSDOF 1
ENDMDL
MODEL 3
REMARK VINA RESULT:    -3.959     17.820     20.020
REMARK INTER + INTRA:          -4.424
REMARK INTER:                  -3.999
REMARK INTRA:                  -0.425
REMARK UNBOUND:                -0.234
REMARK SMILES CC1=CC[C@@H]2[C@H]3[C@H](C(C)C)CC[C@]2(C)[C@@H]13
REMARK SMILES IDX 1 1 2 2 3 3 4 4 5 5 6 6 15 7 13 8 12 9 11 10 7 11 14 12 8 13
REMARK SMILES IDX 9 14 10 15
REMARK H PARENT
REMARK Flexibility Score: inf
ROOT
ATOM      1  C   UNL     1      51.247  32.124  31.656  1.00  0.00     0.039 C 
ATOM      2  C   UNL     1      50.120  31.986  30.677  1.00  0.00    -0.073 C 
ATOM      3  C   UNL     1      49.007  31.266  30.980  1.00  0.00    -0.027 C 
ATOM      4  C   UNL     1      47.878  31.177  29.947  1.00  0.00     0.031 C 
ATOM      5  C   UNL     1      48.269  31.954  28.646  1.00  0.00     0.003 C 
ATOM      6  C   UNL     1      49.715  31.549  28.280  1.00  0.00     0.004 C 
ATOM      7  C   UNL     1      50.177  32.629  29.288  1.00  0.00     0.024 C 
ATOM      8  C   UNL     1      48.841  33.352  28.975  1.00  0.00    -0.022 C 
ATOM      9  C   UNL     1      48.944  34.168  27.655  1.00  0.00     0.008 C 
ATOM     10  C   UNL     1      49.887  33.502  26.621  1.00  0.00     0.005 C 
ATOM     11  C   UNL     1      50.029  31.954  26.803  1.00  0.00    -0.005 C 
ATOM     12  C   UNL     1      48.166  34.189  30.088  1.00  0.00     0.012 C 
ENDROOT
BRANCH  11  13
ATOM     13  C   UNL     1      51.429  31.451  26.325  1.00  0.00    -0.014 C 
ATOM     14  C   UNL     1      52.531  32.510  26.521  1.00  0.00     0.007 C 
ATOM     15  C   UNL     1      51.844  30.166  27.067  1.00  0.00     0.007 C 
ENDBRANCH  11  13
TORSDOF 1
ENDMDL
MODEL 4
REMARK VINA RESULT:    -3.861     17.788     19.945
REMARK INTER + INTRA:          -4.321
REMARK INTER:                  -4.023
REMARK INTRA:                  -0.298
REMARK UNBOUND:                -0.234
REMARK SMILES CC1=CC[C@@H]2[C@H]3[C@H](C(C)C)CC[C@]2(C)[C@@H]13
REMARK SMILES IDX 1 1 2 2 3 3 4 4 5 5 6 6 15 7 13 8 12 9 11 10 7 11 14 12 8 13
REMARK SMILES IDX 9 14 10 15
REMARK H PARENT
REMARK Flexibility Score: inf
ROOT
ATOM      1  C   UNL     1      50.071  29.051  28.874  1.00  0.00     0.039 C 
ATOM      2  C   UNL     1      49.521  30.369  29.331  1.00  0.00    -0.073 C 
ATOM      3  C   UNL     1      48.461  30.435  30.180  1.00  0.00    -0.027 C 
ATOM      4  C   UNL     1      47.955  31.811  30.629  1.00  0.00     0.031 C 
ATOM      5  C   UNL     1      48.790  32.945  29.948  1.00  0.00     0.003 C 
ATOM      6  C   UNL     1      48.914  32.595  28.448  1.00  0.00     0.004 C 
ATOM      7  C   UNL     1      50.110  31.698  28.849  1.00  0.00     0.024 C 
ATOM      8  C   UNL     1      50.307  32.665  30.045  1.00  0.00    -0.022 C 
ATOM      9  C   UNL     1      51.076  33.944  29.608  1.00  0.00     0.008 C 
ATOM     10  C   UNL     1      50.763  34.351  28.146  1.00  0.00     0.005 C 
ATOM     11  C   UNL     1      49.369  33.852  27.637  1.00  0.00    -0.005 C 
ATOM     12  C   UNL     1      50.877  32.106  31.371  1.00  0.00     0.012 C 
ENDROOT
BRANCH  11  13
ATOM     13  C   UNL     1      49.383  33.602  26.095  1.00  0.00    -0.014 C 
ATOM     14  C   UNL     1      50.603  32.776  25.645  1.00  0.00     0.007 C 
ATOM     15  C   UNL     1      48.103  32.880  25.635  1.00  0.00     0.007 C 
ENDBRANCH  11  13
TORSDOF 1
ENDMDL
MODEL 5
REMARK VINA RESULT:    -3.826     21.086     22.678
REMARK INTER + INTRA:          -4.284
REMARK INTER:                  -3.890
REMARK INTRA:                  -0.394
REMARK UNBOUND:                -0.234
REMARK SMILES CC1=CC[C@@H]2[C@H]3[C@H](C(C)C)CC[C@]2(C)[C@@H]13
REMARK SMILES IDX 1 1 2 2 3 3 4 4 5 5 6 6 15 7 13 8 12 9 11 10 7 11 14 12 8 13
REMARK SMILES IDX 9 14 10 15
REMARK H PARENT
REMARK Flexibility Score: inf
ROOT
ATOM      1  C   UNL     1      53.105  32.046  25.658  1.00  0.00     0.039 C 
ATOM      2  C   UNL     1      52.843  30.684  26.229  1.00  0.00    -0.073 C 
ATOM      3  C   UNL     1      51.892  30.489  27.181  1.00  0.00    -0.027 C 
ATOM      4  C   UNL     1      51.654  29.071  27.712  1.00  0.00     0.031 C 
ATOM      5  C   UNL     1      52.643  28.065  27.036  1.00  0.00     0.003 C 
ATOM      6  C   UNL     1      54.051  28.701  27.072  1.00  0.00     0.004 C 
ATOM      7  C   UNL     1      53.644  29.457  25.784  1.00  0.00     0.024 C 
ATOM      8  C   UNL     1      52.691  28.265  25.505  1.00  0.00    -0.022 C 
ATOM      9  C   UNL     1      53.462  27.071  24.872  1.00  0.00     0.008 C 
ATOM     10  C   UNL     1      54.922  26.974  25.383  1.00  0.00     0.005 C 
ATOM     11  C   UNL     1      55.140  27.615  26.795  1.00  0.00    -0.005 C 
ATOM     12  C   UNL     1      51.368  28.529  24.746  1.00  0.00     0.012 C 
ENDROOT
BRANCH  11  13
ATOM     13  C   UNL     1      56.594  28.165  26.951  1.00  0.00    -0.014 C 
ATOM     14  C   UNL     1      57.321  28.295  25.599  1.00  0.00     0.007 C 
ATOM     15  C   UNL     1      56.599  29.539  27.647  1.00  0.00     0.007 C 
ENDBRANCH  11  13
TORSDOF 1
ENDMDL
MODEL 6
REMARK VINA RESULT:    -3.515      1.317      2.070
REMARK INTER + INTRA:          -3.955
REMARK INTER:                  -3.728
REMARK INTRA:                  -0.227
REMARK UNBOUND:                -0.234
REMARK SMILES CC1=CC[C@@H]2[C@H]3[C@H](C(C)C)CC[C@]2(C)[C@@H]13
REMARK SMILES IDX 1 1 2 2 3 3 4 4 5 5 6 6 15 7 13 8 12 9 11 10 7 11 14 12 8 13
REMARK SMILES IDX 9 14 10 15
REMARK H PARENT
REMARK Flexibility Score: inf
ROOT
ATOM      1  C   UNL     1      59.466  44.539  40.031  1.00  0.00     0.039 C 
ATOM      2  C   UNL     1      59.100  44.247  41.455  1.00  0.00    -0.073 C 
ATOM      3  C   UNL     1      59.843  43.400  42.215  1.00  0.00    -0.027 C 
ATOM      4  C   UNL     1      59.432  43.156  43.672  1.00  0.00     0.031 C 
ATOM      5  C   UNL     1      58.130  43.955  44.010  1.00  0.00     0.003 C 
ATOM      6  C   UNL     1      57.131  43.728  42.853  1.00  0.00     0.004 C 
ATOM      7  C   UNL     1      57.866  44.872  42.113  1.00  0.00     0.024 C 
ATOM      8  C   UNL     1      58.224  45.418  43.520  1.00  0.00    -0.022 C 
ATOM      9  C   UNL     1      57.037  46.221  44.125  1.00  0.00     0.008 C 
ATOM     10  C   UNL     1      55.661  45.661  43.686  1.00  0.00     0.005 C 
ATOM     11  C   UNL     1      55.691  44.145  43.296  1.00  0.00    -0.005 C 
ATOM     12  C   UNL     1      59.557  46.182  43.706  1.00  0.00     0.012 C 
ENDROOT
BRANCH  11  13
ATOM     13  C   UNL     1      54.609  43.813  42.219  1.00  0.00    -0.014 C 
ATOM     14  C   UNL     1      53.996  42.414  42.414  1.00  0.00     0.007 C 
ATOM     15  C   UNL     1      53.473  44.854  42.230  1.00  0.00     0.007 C 
ENDBRANCH  11  13
TORSDOF 1
ENDMDL
