MODEL 1
REMARK VINA RESULT:    -4.117      0.000      0.000
REMARK INTER + INTRA:          -6.981
REMARK INTER:                  -6.283
REMARK INTRA:                  -0.698
REMARK UNBOUND:                -0.698
REMARK SMILES O=C([O-])CCCCCCCCC(=O)[O-]
REMARK SMILES IDX 7 1 6 2 5 3 4 4 2 5 1 6 3 7 8 8 9 9 10 10 11 11 12 12 13 13
REMARK SMILES IDX 14 14
REMARK H PARENT
REMARK Flexibility Score: inf
ROOT
ATOM      1  C   UNL     1     -11.409 -10.487   5.823  1.00  0.00     0.000 C 
ENDROOT
BRANCH   1   2
ATOM      2  C   UNL     1     -12.475 -10.874   6.859  1.00  0.00     0.000 C 
BRANCH   2   3
ATOM      3  C   UNL     1     -13.044  -9.629   7.551  1.00  0.00     0.006 C 
BRANCH   3   4
ATOM      4  C   UNL     1     -13.604  -9.976   8.933  1.00  0.00     0.053 C 
BRANCH   4   5
ATOM      5  C   UNL     1     -15.082  -9.744   8.974  1.00  0.00     0.041 C 
ATOM      6  O   UNL     1     -15.650  -9.462  10.061  1.00  0.00    -0.550 OA
ATOM      7  O   UNL     1     -15.840  -9.888   7.819  1.00  0.00    -0.550 OA
ENDBRANCH   4   5
ENDBRANCH   3   4
ENDBRANCH   2   3
ENDBRANCH   1   2
BRANCH   1   8
ATOM      8  C   UNL     1     -10.969  -9.019   5.944  1.00  0.00     0.000 C 
BRANCH   8   9
ATOM      9  C   UNL     1      -9.502  -8.875   6.378  1.00  0.00     0.000 C 
BRANCH   9  10
ATOM     10  C   UNL     1      -8.930 -10.224   6.830  1.00  0.00     0.006 C 
BRANCH  10  11
ATOM     11  C   UNL     1      -8.903 -10.325   8.358  1.00  0.00     0.053 C 
BRANCH  11  12
ATOM     12  C   UNL     1      -9.110 -11.741   8.793  1.00  0.00     0.041 C 
ATOM     13  O   UNL     1      -9.403 -12.000   9.990  1.00  0.00    -0.550 OA
ATOM     14  O   UNL     1      -8.931 -12.780   7.888  1.00  0.00    -0.550 OA
ENDBRANCH  11  12
ENDBRANCH  10  11
ENDBRANCH   9  10
ENDBRANCH   8   9
ENDBRANCH   1   8
TORSDOF 9
ENDMDL
MODEL 2
REMARK VINA RESULT:    -4.096      1.781      2.162
REMARK INTER + INTRA:          -6.949
REMARK INTER:                  -6.376
REMARK INTRA:                  -0.573
REMARK UNBOUND:                -0.698
REMARK SMILES O=C([O-])CCCCCCCCC(=O)[O-]
REMARK SMILES IDX 7 1 6 2 5 3 4 4 2 5 1 6 3 7 8 8 9 9 10 10 11 11 12 12 13 13
REMARK SMILES IDX 14 14
REMARK H PARENT
REMARK Flexibility Score: inf
ROOT
ATOM      1  C   UNL     1     -11.653  -8.898   6.609  1.00  0.00     0.000 C 
ENDROOT
BRANCH   1   2
ATOM      2  C   UNL     1     -12.720  -9.931   6.219  1.00  0.00     0.000 C 
BRANCH   2   3
ATOM      3  C   UNL     1     -13.432 -10.480   7.462  1.00  0.00     0.006 C 
BRANCH   3   4
ATOM      4  C   UNL     1     -14.908 -10.076   7.475  1.00  0.00     0.053 C 
BRANCH   4   5
ATOM      5  C   UNL     1     -15.355  -9.763   8.868  1.00  0.00     0.041 C 
ATOM      6  O   UNL     1     -16.497  -9.276   9.073  1.00  0.00    -0.550 OA
ATOM      7  O   UNL     1     -14.490  -9.963   9.936  1.00  0.00    -0.550 OA
ENDBRANCH   4   5
ENDBRANCH   3   4
ENDBRANCH   2   3
ENDBRANCH   1   2
BRANCH   1   8
ATOM      8  C   UNL     1     -10.299  -9.159   5.928  1.00  0.00     0.000 C 
BRANCH   8   9
ATOM      9  C   UNL     1      -9.219  -9.626   6.916  1.00  0.00     0.000 C 
BRANCH   9  10
ATOM     10  C   UNL     1      -9.556 -11.011   7.481  1.00  0.00     0.006 C 
BRANCH  10  11
ATOM     11  C   UNL     1      -8.672 -12.091   6.850  1.00  0.00     0.053 C 
BRANCH  11  12
ATOM     12  C   UNL     1      -9.437 -12.859   5.820  1.00  0.00     0.041 C 
ATOM     13  O   UNL     1     -10.695 -12.797   5.788  1.00  0.00    -0.550 OA
ATOM     14  O   UNL     1      -8.765 -13.682   4.924  1.00  0.00    -0.550 OA
ENDBRANCH  11  12
ENDBRANCH  10  11
ENDBRANCH   9  10
ENDBRANCH   8   9
ENDBRANCH   1   8
TORSDOF 9
ENDMDL
MODEL 3
REMARK VINA RESULT:    -3.991      2.773      6.846
REMARK INTER + INTRA:          -6.789
REMARK INTER:                  -6.347
REMARK INTRA:                  -0.442
REMARK UNBOUND:                -0.698
REMARK SMILES O=C([O-])CCCCCCCCC(=O)[O-]
REMARK SMILES IDX 7 1 6 2 5 3 4 4 2 5 1 6 3 7 8 8 9 9 10 10 11 11 12 12 13 13
REMARK SMILES IDX 14 14
REMARK H PARENT
REMARK Flexibility Score: inf
ROOT
ATOM      1  C   UNL     1      -8.999 -11.760   6.635  1.00  0.00     0.000 C 
ENDROOT
BRANCH   1   2
ATOM      2  C   UNL     1      -9.782 -12.961   6.086  1.00  0.00     0.000 C 
BRANCH   2   3
ATOM      3  C   UNL     1      -8.943 -13.745   5.070  1.00  0.00     0.006 C 
BRANCH   3   4
ATOM      4  C   UNL     1      -7.447 -13.603   5.365  1.00  0.00     0.053 C 
BRANCH   4   5
ATOM      5  C   UNL     1      -6.894 -14.886   5.901  1.00  0.00     0.041 C 
ATOM      6  O   UNL     1      -6.799 -15.896   5.155  1.00  0.00    -0.550 OA
ATOM      7  O   UNL     1      -6.531 -14.981   7.238  1.00  0.00    -0.550 OA
ENDBRANCH   4   5
ENDBRANCH   3   4
ENDBRANCH   2   3
ENDBRANCH   1   2
BRANCH   1   8
ATOM      8  C   UNL     1      -9.804 -10.451   6.579  1.00  0.00     0.000 C 
BRANCH   8   9
ATOM      9  C   UNL     1     -11.235 -10.658   6.060  1.00  0.00     0.000 C 
BRANCH   9  10
ATOM     10  C   UNL     1     -12.251  -9.931   6.950  1.00  0.00     0.006 C 
BRANCH  10  11
ATOM     11  C   UNL     1     -13.682 -10.362   6.616  1.00  0.00     0.053 C 
BRANCH  11  12
ATOM     12  C   UNL     1     -14.620  -9.952   7.706  1.00  0.00     0.041 C 
ATOM     13  O   UNL     1     -15.862  -9.931   7.498  1.00  0.00    -0.550 OA
ATOM     14  O   UNL     1     -14.121  -9.546   8.937  1.00  0.00    -0.550 OA
ENDBRANCH  11  12
ENDBRANCH  10  11
ENDBRANCH   9  10
ENDBRANCH   8   9
ENDBRANCH   1   8
TORSDOF 9
ENDMDL
MODEL 4
REMARK VINA RESULT:    -3.981      2.865      3.568
REMARK INTER + INTRA:          -6.773
REMARK INTER:                  -6.453
REMARK INTRA:                  -0.320
REMARK UNBOUND:                -0.698
REMARK SMILES O=C([O-])CCCCCCCCC(=O)[O-]
REMARK SMILES IDX 7 1 6 2 5 3 4 4 2 5 1 6 3 7 8 8 9 9 10 10 11 11 12 12 13 13
REMARK SMILES IDX 14 14
REMARK H PARENT
REMARK Flexibility Score: inf
ROOT
ATOM      1  C   UNL     1     -10.996 -11.562   6.419  1.00  0.00     0.000 C 
ENDROOT
BRANCH   1   2
ATOM      2  C   UNL     1     -11.549 -10.242   5.863  1.00  0.00     0.000 C 
BRANCH   2   3
ATOM      3  C   UNL     1     -13.031 -10.073   6.221  1.00  0.00     0.006 C 
BRANCH   3   4
ATOM      4  C   UNL     1     -13.288 -10.436   7.687  1.00  0.00     0.053 C 
BRANCH   4   5
ATOM      5  C   UNL     1     -14.703 -10.129   8.063  1.00  0.00     0.041 C 
ATOM      6  O   UNL     1     -15.609 -10.143   7.189  1.00  0.00    -0.550 OA
ATOM      7  O   UNL     1     -15.014  -9.777   9.370  1.00  0.00    -0.550 OA
ENDBRANCH   4   5
ENDBRANCH   3   4
ENDBRANCH   2   3
ENDBRANCH   1   2
BRANCH   1   8
ATOM      8  C   UNL     1      -9.473 -11.528   6.621  1.00  0.00     0.000 C 
BRANCH   8   9
ATOM      9  C   UNL     1      -8.861 -12.932   6.750  1.00  0.00     0.000 C 
BRANCH   9  10
ATOM     10  C   UNL     1      -8.716 -13.595   5.374  1.00  0.00     0.006 C 
BRANCH  10  11
ATOM     11  C   UNL     1      -7.242 -13.747   4.991  1.00  0.00     0.053 C 
BRANCH  11  12
ATOM     12  C   UNL     1      -6.713 -15.067   5.456  1.00  0.00     0.041 C 
ATOM     13  O   UNL     1      -7.297 -16.134   5.129  1.00  0.00    -0.550 OA
ATOM     14  O   UNL     1      -5.603 -15.117   6.290  1.00  0.00    -0.550 OA
ENDBRANCH  11  12
ENDBRANCH  10  11
ENDBRANCH   9  10
ENDBRANCH   8   9
ENDBRANCH   1   8
TORSDOF 9
ENDMDL
MODEL 5
REMARK VINA RESULT:    -3.980      1.087      5.061
REMARK INTER + INTRA:          -6.771
REMARK INTER:                  -5.910
REMARK INTRA:                  -0.861
REMARK UNBOUND:                -0.698
REMARK SMILES O=C([O-])CCCCCCCCC(=O)[O-]
REMARK SMILES IDX 7 1 6 2 5 3 4 4 2 5 1 6 3 7 8 8 9 9 10 10 11 11 12 12 13 13
REMARK SMILES IDX 14 14
REMARK H PARENT
REMARK Flexibility Score: inf
ROOT
ATOM      1  C   UNL     1     -10.580  -8.933   5.901  1.00  0.00     0.000 C 
ENDROOT
BRANCH   1   2
ATOM      2  C   UNL     1      -9.137  -8.877   6.423  1.00  0.00     0.000 C 
BRANCH   2   3
ATOM      3  C   UNL     1      -8.936  -9.852   7.589  1.00  0.00     0.006 C 
BRANCH   3   4
ATOM      4  C   UNL     1      -9.128  -9.148   8.935  1.00  0.00     0.053 C 
BRANCH   4   5
ATOM      5  C   UNL     1      -9.771 -10.070   9.923  1.00  0.00     0.041 C 
ATOM      6  O   UNL     1     -10.309 -11.139   9.535  1.00  0.00    -0.550 OA
ATOM      7  O   UNL     1      -9.819  -9.724  11.268  1.00  0.00    -0.550 OA
ENDBRANCH   4   5
ENDBRANCH   3   4
ENDBRANCH   2   3
ENDBRANCH   1   2
BRANCH   1   8
ATOM      8  C   UNL     1     -11.244 -10.299   6.142  1.00  0.00     0.000 C 
BRANCH   8   9
ATOM      9  C   UNL     1     -12.729 -10.177   6.517  1.00  0.00     0.000 C 
BRANCH   9  10
ATOM     10  C   UNL     1     -12.913  -9.262   7.735  1.00  0.00     0.006 C 
BRANCH  10  11
ATOM     11  C   UNL     1     -13.563 -10.020   8.897  1.00  0.00     0.053 C 
BRANCH  11  12
ATOM     12  C   UNL     1     -15.023  -9.706   8.975  1.00  0.00     0.041 C 
ATOM     13  O   UNL     1     -15.511  -9.219  10.029  1.00  0.00    -0.550 OA
ATOM     14  O   UNL     1     -15.856  -9.996   7.901  1.00  0.00    -0.550 OA
ENDBRANCH  11  12
ENDBRANCH  10  11
ENDBRANCH   9  10
ENDBRANCH   8   9
ENDBRANCH   1   8
TORSDOF 9
ENDMDL
MODEL 6
REMARK VINA RESULT:    -3.955      2.556      4.703
REMARK INTER + INTRA:          -6.733
REMARK INTER:                  -5.773
REMARK INTRA:                  -0.960
REMARK UNBOUND:                -0.698
REMARK SMILES O=C([O-])CCCCCCCCC(=O)[O-]
REMARK SMILES IDX 7 1 6 2 5 3 4 4 2 5 1 6 3 7 8 8 9 9 10 10 11 11 12 12 13 13
REMARK SMILES IDX 14 14
REMARK H PARENT
REMARK Flexibility Score: inf
ROOT
ATOM      1  C   UNL     1     -13.429 -10.844   6.835  1.00  0.00     0.000 C 
ENDROOT
BRANCH   1   2
ATOM      2  C   UNL     1     -12.494  -9.925   6.035  1.00  0.00     0.000 C 
BRANCH   2   3
ATOM      3  C   UNL     1     -11.063 -10.478   6.018  1.00  0.00     0.006 C 
BRANCH   3   4
ATOM      4  C   UNL     1     -11.020 -11.910   6.559  1.00  0.00     0.053 C 
BRANCH   4   5
ATOM      5  C   UNL     1      -9.616 -12.426   6.565  1.00  0.00     0.041 C 
ATOM      6  O   UNL     1      -8.892 -12.283   7.585  1.00  0.00    -0.550 OA
ATOM      7  O   UNL     1      -9.089 -13.023   5.426  1.00  0.00    -0.550 OA
ENDBRANCH   4   5
ENDBRANCH   3   4
ENDBRANCH   2   3
ENDBRANCH   1   2
BRANCH   1   8
ATOM      8  C   UNL     1     -14.685 -10.115   7.341  1.00  0.00     0.000 C 
BRANCH   8   9
ATOM      9  C   UNL     1     -14.459  -9.413   8.689  1.00  0.00     0.000 C 
BRANCH   9  10
ATOM     10  C   UNL     1     -13.390 -10.141   9.514  1.00  0.00     0.006 C 
BRANCH  10  11
ATOM     11  C   UNL     1     -12.226  -9.205   9.852  1.00  0.00     0.053 C 
BRANCH  11  12
ATOM     12  C   UNL     1     -10.932  -9.955   9.847  1.00  0.00     0.041 C 
ATOM     13  O   UNL     1      -9.911  -9.455   9.306  1.00  0.00    -0.550 OA
ATOM     14  O   UNL     1     -10.865 -11.229  10.398  1.00  0.00    -0.550 OA
ENDBRANCH  11  12
ENDBRANCH  10  11
ENDBRANCH   9  10
ENDBRANCH   8   9
ENDBRANCH   1   8
TORSDOF 9
ENDMDL
MODEL 7
REMARK VINA RESULT:    -3.952      5.792      6.760
REMARK INTER + INTRA:          -6.729
REMARK INTER:                  -6.561
REMARK INTRA:                  -0.168
REMARK UNBOUND:                -0.698
REMARK SMILES O=C([O-])CCCCCCCCC(=O)[O-]
REMARK SMILES IDX 7 1 6 2 5 3 4 4 2 5 1 6 3 7 8 8 9 9 10 10 11 11 12 12 13 13
REMARK SMILES IDX 14 14
REMARK H PARENT
REMARK Flexibility Score: inf
ROOT
ATOM      1  C   UNL     1      -8.315 -13.831   5.114  1.00  0.00     0.000 C 
ENDROOT
BRANCH   1   2
ATOM      2  C   UNL     1      -8.913 -13.003   6.260  1.00  0.00     0.000 C 
BRANCH   2   3
ATOM      3  C   UNL     1     -10.289 -12.445   5.875  1.00  0.00     0.006 C 
BRANCH   3   4
ATOM      4  C   UNL     1     -10.747 -11.375   6.869  1.00  0.00     0.053 C 
BRANCH   4   5
ATOM      5  C   UNL     1     -11.451 -10.264   6.157  1.00  0.00     0.041 C 
ATOM      6  O   UNL     1     -12.678 -10.357   5.891  1.00  0.00    -0.550 OA
ATOM      7  O   UNL     1     -10.741  -9.144   5.741  1.00  0.00    -0.550 OA
ENDBRANCH   4   5
ENDBRANCH   3   4
ENDBRANCH   2   3
ENDBRANCH   1   2
BRANCH   1   8
ATOM      8  C   UNL     1      -6.827 -14.152   5.328  1.00  0.00     0.000 C 
BRANCH   8   9
ATOM      9  C   UNL     1      -6.516 -15.649   5.180  1.00  0.00     0.000 C 
BRANCH   9  10
ATOM     10  C   UNL     1      -5.018 -15.919   5.369  1.00  0.00     0.006 C 
BRANCH  10  11
ATOM     11  C   UNL     1      -4.461 -16.753   4.212  1.00  0.00     0.053 C 
BRANCH  11  12
ATOM     12  C   UNL     1      -2.972 -16.624   4.143  1.00  0.00     0.041 C 
ATOM     13  O   UNL     1      -2.375 -15.780   4.863  1.00  0.00    -0.550 OA
ATOM     14  O   UNL     1      -2.247 -17.402   3.249  1.00  0.00    -0.550 OA
ENDBRANCH  11  12
ENDBRANCH  10  11
ENDBRANCH   9  10
ENDBRANCH   8   9
ENDBRANCH   1   8
TORSDOF 9
ENDMDL
MODEL 8
REMARK VINA RESULT:    -3.934      1.645      2.314
REMARK INTER + INTRA:          -6.701
REMARK INTER:                  -5.760
REMARK INTRA:                  -0.941
REMARK UNBOUND:                -0.698
REMARK SMILES O=C([O-])CCCCCCCCC(=O)[O-]
REMARK SMILES IDX 7 1 6 2 5 3 4 4 2 5 1 6 3 7 8 8 9 9 10 10 11 11 12 12 13 13
REMARK SMILES IDX 14 14
REMARK H PARENT
REMARK Flexibility Score: inf
ROOT
ATOM      1  C   UNL     1     -10.923 -11.629   6.622  1.00  0.00     0.000 C 
ENDROOT
BRANCH   1   2
ATOM      2  C   UNL     1     -11.365 -10.357   5.885  1.00  0.00     0.000 C 
BRANCH   2   3
ATOM      3  C   UNL     1     -12.500  -9.652   6.638  1.00  0.00     0.006 C 
BRANCH   3   4
ATOM      4  C   UNL     1     -13.616 -10.637   6.999  1.00  0.00     0.053 C 
BRANCH   4   5
ATOM      5  C   UNL     1     -14.599  -9.999   7.929  1.00  0.00     0.041 C 
ATOM      6  O   UNL     1     -14.292  -9.795   9.133  1.00  0.00    -0.550 OA
ATOM      7  O   UNL     1     -15.872  -9.674   7.479  1.00  0.00    -0.550 OA
ENDBRANCH   4   5
ENDBRANCH   3   4
ENDBRANCH   2   3
ENDBRANCH   1   2
BRANCH   1   8
ATOM      8  C   UNL     1      -9.443 -11.590   7.037  1.00  0.00     0.000 C 
BRANCH   8   9
ATOM      9  C   UNL     1      -8.867 -10.165   7.040  1.00  0.00     0.000 C 
BRANCH   9  10
ATOM     10  C   UNL     1      -8.620  -9.677   8.473  1.00  0.00     0.006 C 
BRANCH  10  11
ATOM     11  C   UNL     1      -9.817  -8.876   8.994  1.00  0.00     0.053 C 
BRANCH  11  12
ATOM     12  C   UNL     1     -10.447  -9.573  10.158  1.00  0.00     0.041 C 
ATOM     13  O   UNL     1     -11.182 -10.578   9.972  1.00  0.00    -0.550 OA
ATOM     14  O   UNL     1     -10.261  -9.084  11.445  1.00  0.00    -0.550 OA
ENDBRANCH  11  12
ENDBRANCH  10  11
ENDBRANCH   9  10
ENDBRANCH   8   9
ENDBRANCH   1   8
TORSDOF 9
ENDMDL
MODEL 9
REMARK VINA RESULT:    -3.847      5.831      9.349
REMARK INTER + INTRA:          -6.569
REMARK INTER:                  -6.399
REMARK INTRA:                  -0.170
REMARK UNBOUND:                -0.698
REMARK SMILES O=C([O-])CCCCCCCCC(=O)[O-]
REMARK SMILES IDX 7 1 6 2 5 3 4 4 2 5 1 6 3 7 8 8 9 9 10 10 11 11 12 12 13 13
REMARK SMILES IDX 14 14
REMARK H PARENT
REMARK Flexibility Score: inf
ROOT
ATOM      1  C   UNL     1      -6.862 -14.265   5.629  1.00  0.00     0.000 C 
ENDROOT
BRANCH   1   2
ATOM      2  C   UNL     1      -6.563 -15.700   5.173  1.00  0.00     0.000 C 
BRANCH   2   3
ATOM      3  C   UNL     1      -5.055 -15.977   5.183  1.00  0.00     0.006 C 
BRANCH   3   4
ATOM      4  C   UNL     1      -4.731 -17.290   4.466  1.00  0.00     0.053 C 
BRANCH   4   5
ATOM      5  C   UNL     1      -3.340 -17.258   3.915  1.00  0.00     0.041 C 
ATOM      6  O   UNL     1      -2.882 -18.252   3.292  1.00  0.00    -0.550 OA
ATOM      7  O   UNL     1      -2.532 -16.150   4.133  1.00  0.00    -0.550 OA
ENDBRANCH   4   5
ENDBRANCH   3   4
ENDBRANCH   2   3
ENDBRANCH   1   2
BRANCH   1   8
ATOM      8  C   UNL     1      -8.267 -13.794   5.221  1.00  0.00     0.000 C 
BRANCH   8   9
ATOM      9  C   UNL     1      -8.854 -12.764   6.199  1.00  0.00     0.000 C 
BRANCH   9  10
ATOM     10  C   UNL     1     -10.304 -12.425   5.833  1.00  0.00     0.006 C 
BRANCH  10  11
ATOM     11  C   UNL     1     -10.922 -11.474   6.862  1.00  0.00     0.053 C 
BRANCH  11  12
ATOM     12  C   UNL     1     -11.586 -10.321   6.177  1.00  0.00     0.041 C 
ATOM     13  O   UNL     1     -10.895  -9.374   5.718  1.00  0.00    -0.550 OA
ATOM     14  O   UNL     1     -12.972 -10.269   6.089  1.00  0.00    -0.550 OA
ENDBRANCH  11  12
ENDBRANCH  10  11
ENDBRANCH   9  10
ENDBRANCH   8   9
ENDBRANCH   1   8
TORSDOF 9
ENDMDL
