MODEL 1
REMARK VINA RESULT:     3.383      0.000      0.000
REMARK INTER + INTRA:           4.286
REMARK INTER:                   4.867
REMARK INTRA:                  -0.581
REMARK UNBOUND:                -0.581
REMARK SMILES O=C(CO)[C@@H](O)[C@@H](O)[C@H](O)CO
REMARK SMILES IDX 7 1 9 2 11 3 12 4 10 6 5 8 2 9 1 10 3 11 4 12 6 14 8 16
REMARK H PARENT 12 5 10 7 4 13 6 15 8 17
REMARK Flexibility Score: inf
ROOT
ATOM      1  C   UNL     1     -18.821  17.250  11.873  1.00  0.00     0.181 C 
ENDROOT
BRANCH   1   2
ATOM      2  C   UNL     1     -17.820  17.096  10.703  1.00  0.00     0.171 C 
BRANCH   2   3
ATOM      3  C   UNL     1     -17.513  15.618  10.413  1.00  0.00     0.190 C 
BRANCH   3   4
ATOM      4  O   UNL     1     -16.289  15.499   9.743  1.00  0.00    -0.394 OA
ATOM      5  H   UNL     1     -15.831  16.373   9.849  1.00  0.00     0.210 HD
ENDBRANCH   3   4
ENDBRANCH   2   3
BRANCH   2   6
ATOM      6  O   UNL     1     -18.347  17.699   9.548  1.00  0.00    -0.388 OA
ATOM      7  H   UNL     1     -19.334  17.618   9.606  1.00  0.00     0.211 HD
ENDBRANCH   2   6
ENDBRANCH   1   2
BRANCH   1   8
ATOM      8  C   UNL     1     -18.248  16.676  13.190  1.00  0.00     0.214 C 
BRANCH   8   9
ATOM      9  C   UNL     1     -18.073  17.777  14.220  1.00  0.00     0.189 C 
ATOM     10  O   UNL     1     -17.106  18.520  14.128  1.00  0.00    -0.294 OA
BRANCH   9  11
ATOM     11  C   UNL     1     -19.035  18.002  15.363  1.00  0.00     0.234 C 
BRANCH  11  12
ATOM     12  O   UNL     1     -19.047  16.933  16.271  1.00  0.00    -0.388 OA
ATOM     13  H   UNL     1     -18.988  17.331  17.178  1.00  0.00     0.211 HD
ENDBRANCH  11  12
ENDBRANCH   9  11
ENDBRANCH   8   9
BRANCH   8  14
ATOM     14  O   UNL     1     -19.125  15.706  13.703  1.00  0.00    -0.382 OA
ATOM     15  H   UNL     1     -19.072  15.768  14.693  1.00  0.00     0.211 HD
ENDBRANCH   8  14
ENDBRANCH   1   8
BRANCH   1  16
ATOM     16  O   UNL     1     -19.124  18.614  12.043  1.00  0.00    -0.387 OA
ATOM     17  H   UNL     1     -18.322  19.046  12.439  1.00  0.00     0.211 HD
ENDBRANCH   1  16
TORSDOF 10
ENDMDL
MODEL 2
REMARK VINA RESULT:     3.529      5.793      8.915
REMARK INTER + INTRA:           4.496
REMARK INTER:                   4.933
REMARK INTRA:                  -0.437
REMARK UNBOUND:                -0.581
REMARK SMILES O=C(CO)[C@@H](O)[C@@H](O)[C@H](O)CO
REMARK SMILES IDX 7 1 9 2 11 3 12 4 10 6 5 8 2 9 1 10 3 11 4 12 6 14 8 16
REMARK H PARENT 12 5 10 7 4 13 6 15 8 17
REMARK Flexibility Score: inf
ROOT
ATOM      1  C   UNL     1     -18.422  19.085  20.574  1.00  0.00     0.181 C 
ENDROOT
BRANCH   1   2
ATOM      2  C   UNL     1     -18.357  19.392  22.089  1.00  0.00     0.171 C 
BRANCH   2   3
ATOM      3  C   UNL     1     -16.907  19.420  22.598  1.00  0.00     0.190 C 
BRANCH   3   4
ATOM      4  O   UNL     1     -16.430  18.115  22.774  1.00  0.00    -0.394 OA
ATOM      5  H   UNL     1     -15.645  18.024  22.175  1.00  0.00     0.210 HD
ENDBRANCH   3   4
ENDBRANCH   2   3
BRANCH   2   6
ATOM      6  O   UNL     1     -18.965  20.633  22.345  1.00  0.00    -0.388 OA
ATOM      7  H   UNL     1     -18.891  20.795  23.321  1.00  0.00     0.211 HD
ENDBRANCH   2   6
ENDBRANCH   1   2
BRANCH   1   8
ATOM      8  C   UNL     1     -19.116  17.730  20.299  1.00  0.00     0.214 C 
BRANCH   8   9
ATOM      9  C   UNL     1     -19.089  17.409  18.816  1.00  0.00     0.189 C 
ATOM     10  O   UNL     1     -19.038  18.331  18.015  1.00  0.00    -0.294 OA
BRANCH   9  11
ATOM     11  C   UNL     1     -19.125  15.999  18.274  1.00  0.00     0.234 C 
BRANCH  11  12
ATOM     12  O   UNL     1     -19.005  15.958  16.877  1.00  0.00    -0.388 OA
ATOM     13  H   UNL     1     -18.744  15.031  16.642  1.00  0.00     0.211 HD
ENDBRANCH  11  12
ENDBRANCH   9  11
ENDBRANCH   8   9
BRANCH   8  14
ATOM     14  O   UNL     1     -18.453  16.709  20.999  1.00  0.00    -0.382 OA
ATOM     15  H   UNL     1     -18.950  15.868  20.817  1.00  0.00     0.211 HD
ENDBRANCH   8  14
ENDBRANCH   1   8
BRANCH   1  16
ATOM     16  O   UNL     1     -19.125  20.118  19.925  1.00  0.00    -0.387 OA
ATOM     17  H   UNL     1     -19.868  19.695  19.420  1.00  0.00     0.211 HD
ENDBRANCH   1  16
TORSDOF 10
ENDMDL
MODEL 3
REMARK VINA RESULT:     4.157      1.485      2.299
REMARK INTER + INTRA:           5.399
REMARK INTER:                   5.687
REMARK INTRA:                  -0.288
REMARK UNBOUND:                -0.581
REMARK SMILES O=C(CO)[C@@H](O)[C@@H](O)[C@H](O)CO
REMARK SMILES IDX 7 1 9 2 11 3 12 4 10 6 5 8 2 9 1 10 3 11 4 12 6 14 8 16
REMARK H PARENT 12 5 10 7 4 13 6 15 8 17
REMARK Flexibility Score: inf
ROOT
ATOM      1  C   UNL     1     -18.000  18.097  12.949  1.00  0.00     0.181 C 
ENDROOT
BRANCH   1   2
ATOM      2  C   UNL     1     -18.338  17.142  11.780  1.00  0.00     0.171 C 
BRANCH   2   3
ATOM      3  C   UNL     1     -17.850  17.702  10.434  1.00  0.00     0.190 C 
BRANCH   3   4
ATOM      4  O   UNL     1     -17.809  16.684   9.472  1.00  0.00    -0.394 OA
ATOM      5  H   UNL     1     -17.790  17.139   8.590  1.00  0.00     0.210 HD
ENDBRANCH   3   4
ENDBRANCH   2   3
BRANCH   2   6
ATOM      6  O   UNL     1     -17.744  15.889  12.007  1.00  0.00    -0.388 OA
ATOM      7  H   UNL     1     -16.935  16.049  12.559  1.00  0.00     0.211 HD
ENDBRANCH   2   6
ENDBRANCH   1   2
BRANCH   1   8
ATOM      8  C   UNL     1     -19.124  18.112  14.012  1.00  0.00     0.214 C 
BRANCH   8   9
ATOM      9  C   UNL     1     -18.930  16.985  15.010  1.00  0.00     0.189 C 
ATOM     10  O   UNL     1     -18.604  15.882  14.595  1.00  0.00    -0.294 OA
BRANCH   9  11
ATOM     11  C   UNL     1     -19.124  17.154  16.498  1.00  0.00     0.234 C 
BRANCH  11  12
ATOM     12  O   UNL     1     -18.836  15.983  17.213  1.00  0.00    -0.388 OA
ATOM     13  H   UNL     1     -18.274  16.253  17.985  1.00  0.00     0.211 HD
ENDBRANCH  11  12
ENDBRANCH   9  11
ENDBRANCH   8   9
BRANCH   8  14
ATOM     14  O   UNL     1     -19.108  19.337  14.699  1.00  0.00    -0.382 OA
ATOM     15  H   UNL     1     -20.053  19.563  14.905  1.00  0.00     0.211 HD
ENDBRANCH   8  14
ENDBRANCH   1   8
BRANCH   1  16
ATOM     16  O   UNL     1     -16.792  17.688  13.544  1.00  0.00    -0.387 OA
ATOM     17  H   UNL     1     -16.822  17.970  14.495  1.00  0.00     0.211 HD
ENDBRANCH   1  16
TORSDOF 10
ENDMDL
MODEL 4
REMARK VINA RESULT:     4.303      9.348     10.201
REMARK INTER + INTRA:           5.609
REMARK INTER:                   5.867
REMARK INTRA:                  -0.258
REMARK UNBOUND:                -0.581
REMARK SMILES O=C(CO)[C@@H](O)[C@@H](O)[C@H](O)CO
REMARK SMILES IDX 7 1 9 2 11 3 12 4 10 6 5 8 2 9 1 10 3 11 4 12 6 14 8 16
REMARK H PARENT 12 5 10 7 4 13 6 15 8 17
REMARK Flexibility Score: inf
ROOT
ATOM      1  C   UNL     1     -16.073  25.653  16.056  1.00  0.00     0.181 C 
ENDROOT
BRANCH   1   2
ATOM      2  C   UNL     1     -14.851  25.354  16.958  1.00  0.00     0.171 C 
BRANCH   2   3
ATOM      3  C   UNL     1     -13.754  24.599  16.191  1.00  0.00     0.190 C 
BRANCH   3   4
ATOM      4  O   UNL     1     -13.183  25.430  15.219  1.00  0.00    -0.394 OA
ATOM      5  H   UNL     1     -12.239  25.568  15.493  1.00  0.00     0.210 HD
ENDBRANCH   3   4
ENDBRANCH   2   3
BRANCH   2   6
ATOM      6  O   UNL     1     -14.327  26.559  17.456  1.00  0.00    -0.388 OA
ATOM      7  H   UNL     1     -15.022  26.954  18.045  1.00  0.00     0.211 HD
ENDBRANCH   2   6
ENDBRANCH   1   2
BRANCH   1   8
ATOM      8  C   UNL     1     -16.998  26.719  16.688  1.00  0.00     0.214 C 
BRANCH   8   9
ATOM      9  C   UNL     1     -18.454  26.390  16.418  1.00  0.00     0.189 C 
ATOM     10  O   UNL     1     -19.125  27.178  15.766  1.00  0.00    -0.294 OA
BRANCH   9  11
ATOM     11  C   UNL     1     -19.125  25.132  16.918  1.00  0.00     0.234 C 
BRANCH  11  12
ATOM     12  O   UNL     1     -18.453  24.565  18.011  1.00  0.00    -0.388 OA
ATOM     13  H   UNL     1     -18.193  23.647  17.740  1.00  0.00     0.211 HD
ENDBRANCH  11  12
ENDBRANCH   9  11
ENDBRANCH   8   9
BRANCH   8  14
ATOM     14  O   UNL     1     -16.790  26.762  18.076  1.00  0.00    -0.382 OA
ATOM     15  H   UNL     1     -15.844  27.033  18.216  1.00  0.00     0.211 HD
ENDBRANCH   8  14
ENDBRANCH   1   8
BRANCH   1  16
ATOM     16  O   UNL     1     -15.620  26.103  14.801  1.00  0.00    -0.387 OA
ATOM     17  H   UNL     1     -14.983  25.423  14.458  1.00  0.00     0.211 HD
ENDBRANCH   1  16
TORSDOF 10
ENDMDL
MODEL 5
REMARK VINA RESULT:     4.357      9.084     10.298
REMARK INTER + INTRA:           5.686
REMARK INTER:                   4.313
REMARK INTRA:                   1.373
REMARK UNBOUND:                -0.581
REMARK SMILES O=C(CO)[C@@H](O)[C@@H](O)[C@H](O)CO
REMARK SMILES IDX 7 1 9 2 11 3 12 4 10 6 5 8 2 9 1 10 3 11 4 12 6 14 8 16
REMARK H PARENT 12 5 10 7 4 13 6 15 8 17
REMARK Flexibility Score: inf
ROOT
ATOM      1  C   UNL     1     -17.126  26.096  15.570  1.00  0.00     0.181 C 
ENDROOT
BRANCH   1   2
ATOM      2  C   UNL     1     -18.650  26.209  15.810  1.00  0.00     0.171 C 
BRANCH   2   3
ATOM      3  C   UNL     1     -19.124  25.234  16.900  1.00  0.00     0.190 C 
BRANCH   3   4
ATOM      4  O   UNL     1     -18.088  24.980  17.807  1.00  0.00    -0.394 OA
ATOM      5  H   UNL     1     -18.516  24.595  18.615  1.00  0.00     0.210 HD
ENDBRANCH   3   4
ENDBRANCH   2   3
BRANCH   2   6
ATOM      6  O   UNL     1     -18.972  27.524  16.187  1.00  0.00    -0.388 OA
ATOM      7  H   UNL     1     -18.118  28.026  16.239  1.00  0.00     0.211 HD
ENDBRANCH   2   6
ENDBRANCH   1   2
BRANCH   1   8
ATOM      8  C   UNL     1     -16.351  25.954  16.901  1.00  0.00     0.214 C 
BRANCH   8   9
ATOM      9  C   UNL     1     -14.952  25.420  16.650  1.00  0.00     0.189 C 
ATOM     10  O   UNL     1     -14.439  24.696  17.491  1.00  0.00    -0.294 OA
BRANCH   9  11
ATOM     11  C   UNL     1     -14.155  25.741  15.408  1.00  0.00     0.234 C 
BRANCH  11  12
ATOM     12  O   UNL     1     -12.893  25.129  15.408  1.00  0.00    -0.388 OA
ATOM     13  H   UNL     1     -12.243  25.820  15.119  1.00  0.00     0.211 HD
ENDBRANCH  11  12
ENDBRANCH   9  11
ENDBRANCH   8   9
BRANCH   8  14
ATOM     14  O   UNL     1     -16.255  27.206  17.529  1.00  0.00    -0.382 OA
ATOM     15  H   UNL     1     -15.756  27.801  16.908  1.00  0.00     0.211 HD
ENDBRANCH   8  14
ENDBRANCH   1   8
BRANCH   1  16
ATOM     16  O   UNL     1     -16.869  24.981  14.751  1.00  0.00    -0.387 OA
ATOM     17  H   UNL     1     -16.487  24.272  15.331  1.00  0.00     0.211 HD
ENDBRANCH   1  16
TORSDOF 10
ENDMDL
MODEL 6
REMARK VINA RESULT:     4.720      9.252     10.353
REMARK INTER + INTRA:           6.208
REMARK INTER:                   6.768
REMARK INTRA:                  -0.560
REMARK UNBOUND:                -0.581
REMARK SMILES O=C(CO)[C@@H](O)[C@@H](O)[C@H](O)CO
REMARK SMILES IDX 7 1 9 2 11 3 12 4 10 6 5 8 2 9 1 10 3 11 4 12 6 14 8 16
REMARK H PARENT 12 5 10 7 4 13 6 15 8 17
REMARK Flexibility Score: inf
ROOT
ATOM      1  C   UNL     1     -15.638  26.130  16.680  1.00  0.00     0.181 C 
ENDROOT
BRANCH   1   2
ATOM      2  C   UNL     1     -14.688  25.161  17.424  1.00  0.00     0.171 C 
BRANCH   2   3
ATOM      3  C   UNL     1     -13.586  24.627  16.495  1.00  0.00     0.190 C 
BRANCH   3   4
ATOM      4  O   UNL     1     -13.477  25.436  15.357  1.00  0.00    -0.394 OA
ATOM      5  H   UNL     1     -14.273  26.028  15.362  1.00  0.00     0.210 HD
ENDBRANCH   3   4
ENDBRANCH   2   3
BRANCH   2   6
ATOM      6  O   UNL     1     -14.100  25.822  18.515  1.00  0.00    -0.388 OA
ATOM      7  H   UNL     1     -13.132  25.907  18.313  1.00  0.00     0.211 HD
ENDBRANCH   2   6
ENDBRANCH   1   2
BRANCH   1   8
ATOM      8  C   UNL     1     -16.724  25.365  15.888  1.00  0.00     0.214 C 
BRANCH   8   9
ATOM      9  C   UNL     1     -18.101  25.648  16.461  1.00  0.00     0.189 C 
ATOM     10  O   UNL     1     -18.404  25.152  17.537  1.00  0.00    -0.294 OA
BRANCH   9  11
ATOM     11  C   UNL     1     -19.125  26.513  15.765  1.00  0.00     0.234 C 
BRANCH  11  12
ATOM     12  O   UNL     1     -19.121  27.833  16.238  1.00  0.00    -0.388 OA
ATOM     13  H   UNL     1     -19.713  27.851  17.034  1.00  0.00     0.211 HD
ENDBRANCH  11  12
ENDBRANCH   9  11
ENDBRANCH   8   9
BRANCH   8  14
ATOM     14  O   UNL     1     -16.699  25.766  14.542  1.00  0.00    -0.382 OA
ATOM     15  H   UNL     1     -16.570  24.944  14.001  1.00  0.00     0.211 HD
ENDBRANCH   8  14
ENDBRANCH   1   8
BRANCH   1  16
ATOM     16  O   UNL     1     -16.249  26.985  17.617  1.00  0.00    -0.387 OA
ATOM     17  H   UNL     1     -16.971  26.468  18.060  1.00  0.00     0.211 HD
ENDBRANCH   1  16
TORSDOF 10
ENDMDL
MODEL 7
REMARK VINA RESULT:     4.728      9.115     10.352
REMARK INTER + INTRA:           6.220
REMARK INTER:                   6.065
REMARK INTRA:                   0.156
REMARK UNBOUND:                -0.581
REMARK SMILES O=C(CO)[C@@H](O)[C@@H](O)[C@H](O)CO
REMARK SMILES IDX 7 1 9 2 11 3 12 4 10 6 5 8 2 9 1 10 3 11 4 12 6 14 8 16
REMARK H PARENT 12 5 10 7 4 13 6 15 8 17
REMARK Flexibility Score: inf
ROOT
ATOM      1  C   UNL     1     -16.694  25.924  17.152  1.00  0.00     0.181 C 
ENDROOT
BRANCH   1   2
ATOM      2  C   UNL     1     -18.240  25.843  17.171  1.00  0.00     0.171 C 
BRANCH   2   3
ATOM      3  C   UNL     1     -18.855  26.496  15.922  1.00  0.00     0.190 C 
BRANCH   3   4
ATOM      4  O   UNL     1     -19.116  27.850  16.163  1.00  0.00    -0.394 OA
ATOM      5  H   UNL     1     -18.257  28.250  16.455  1.00  0.00     0.210 HD
ENDBRANCH   3   4
ENDBRANCH   2   3
BRANCH   2   6
ATOM      6  O   UNL     1     -18.641  24.497  17.239  1.00  0.00    -0.388 OA
ATOM      7  H   UNL     1     -19.353  24.374  16.560  1.00  0.00     0.211 HD
ENDBRANCH   2   6
ENDBRANCH   1   2
BRANCH   1   8
ATOM      8  C   UNL     1     -16.138  25.820  15.713  1.00  0.00     0.214 C 
BRANCH   8   9
ATOM      9  C   UNL     1     -14.674  25.420  15.735  1.00  0.00     0.189 C 
ATOM     10  O   UNL     1     -13.935  25.843  14.856  1.00  0.00    -0.294 OA
BRANCH   9  11
ATOM     11  C   UNL     1     -14.078  24.518  16.790  1.00  0.00     0.234 C 
BRANCH  11  12
ATOM     12  O   UNL     1     -13.827  25.194  17.993  1.00  0.00    -0.388 OA
ATOM     13  H   UNL     1     -12.841  25.235  18.095  1.00  0.00     0.211 HD
ENDBRANCH  11  12
ENDBRANCH   9  11
ENDBRANCH   8   9
BRANCH   8  14
ATOM     14  O   UNL     1     -16.863  24.856  14.994  1.00  0.00    -0.382 OA
ATOM     15  H   UNL     1     -17.752  24.782  15.430  1.00  0.00     0.211 HD
ENDBRANCH   8  14
ENDBRANCH   1   8
BRANCH   1  16
ATOM     16  O   UNL     1     -16.290  27.142  17.730  1.00  0.00    -0.387 OA
ATOM     17  H   UNL     1     -16.699  27.189  18.633  1.00  0.00     0.211 HD
ENDBRANCH   1  16
TORSDOF 10
ENDMDL
MODEL 8
REMARK VINA RESULT:     5.108      2.028      3.427
REMARK INTER + INTRA:           6.767
REMARK INTER:                   7.075
REMARK INTRA:                  -0.308
REMARK UNBOUND:                -0.581
REMARK SMILES O=C(CO)[C@@H](O)[C@@H](O)[C@H](O)CO
REMARK SMILES IDX 7 1 9 2 11 3 12 4 10 6 5 8 2 9 1 10 3 11 4 12 6 14 8 16
REMARK H PARENT 12 5 10 7 4 13 6 15 8 17
REMARK Flexibility Score: inf
ROOT
ATOM      1  C   UNL     1     -18.123  16.866  14.392  1.00  0.00     0.181 C 
ENDROOT
BRANCH   1   2
ATOM      2  C   UNL     1     -18.118  17.779  13.143  1.00  0.00     0.171 C 
BRANCH   2   3
ATOM      3  C   UNL     1     -16.879  18.689  13.113  1.00  0.00     0.190 C 
BRANCH   3   4
ATOM      4  O   UNL     1     -15.917  18.227  14.020  1.00  0.00    -0.394 OA
ATOM      5  H   UNL     1     -16.368  17.539  14.574  1.00  0.00     0.210 HD
ENDBRANCH   3   4
ENDBRANCH   2   3
BRANCH   2   6
ATOM      6  O   UNL     1     -18.146  16.989  11.981  1.00  0.00    -0.388 OA
ATOM      7  H   UNL     1     -17.596  16.184  12.167  1.00  0.00     0.211 HD
ENDBRANCH   2   6
ENDBRANCH   1   2
BRANCH   1   8
ATOM      8  C   UNL     1     -19.124  17.368  15.459  1.00  0.00     0.214 C 
BRANCH   8   9
ATOM      9  C   UNL     1     -18.953  16.599  16.756  1.00  0.00     0.189 C 
ATOM     10  O   UNL     1     -18.793  15.387  16.704  1.00  0.00    -0.294 OA
BRANCH   9  11
ATOM     11  C   UNL     1     -18.972  17.255  18.116  1.00  0.00     0.234 C 
BRANCH  11  12
ATOM     12  O   UNL     1     -19.088  16.324  19.159  1.00  0.00    -0.388 OA
ATOM     13  H   UNL     1     -19.871  15.754  18.944  1.00  0.00     0.211 HD
ENDBRANCH  11  12
ENDBRANCH   9  11
ENDBRANCH   8   9
BRANCH   8  14
ATOM     14  O   UNL     1     -18.906  18.734  15.706  1.00  0.00    -0.382 OA
ATOM     15  H   UNL     1     -18.332  18.790  16.515  1.00  0.00     0.211 HD
ENDBRANCH   8  14
ENDBRANCH   1   8
BRANCH   1  16
ATOM     16  O   UNL     1     -18.462  15.556  14.004  1.00  0.00    -0.387 OA
ATOM     17  H   UNL     1     -19.085  15.630  13.235  1.00  0.00     0.211 HD
ENDBRANCH   1  16
TORSDOF 10
ENDMDL
