MODEL 1
REMARK VINA RESULT:    -6.747      0.000      0.000
REMARK INTER + INTRA:         -11.370
REMARK INTER:                 -10.494
REMARK INTRA:                  -0.876
REMARK UNBOUND:                -0.876
REMARK SMILES COc1cc(CNC(=O)CCCCC=CC(C)C)ccc1O
REMARK SMILES IDX 11 1 12 2 13 3 14 4 15 5 16 6 17 7 18 8 10 9 8 10 9 11 7 12
REMARK SMILES IDX 6 14 5 15 4 16 19 17 3 18 20 19 21 20 2 21 1 22 22 23
REMARK H PARENT 7 13 22 24
REMARK Flexibility Score: inf
ROOT
ATOM      1  C   UNL     1     369.279 244.458 277.692  1.00  0.00     0.010 C 
ENDROOT
BRANCH   1   2
ATOM      2  C   UNL     1     370.352 243.367 277.529  1.00  0.00     0.005 C 
BRANCH   2   3
ATOM      3  C   UNL     1     370.590 243.002 276.057  1.00  0.00     0.027 C 
BRANCH   3   4
ATOM      4  C   UNL     1     371.848 242.183 275.889  1.00  0.00    -0.031 C 
ATOM      5  C   UNL     1     373.102 242.674 275.890  1.00  0.00    -0.028 C 
BRANCH   5   6
ATOM      6  C   UNL     1     373.458 244.142 276.007  1.00  0.00     0.005 C 
ATOM      7  C   UNL     1     374.600 244.331 277.010  1.00  0.00     0.012 C 
ATOM      8  C   UNL     1     373.859 244.703 274.637  1.00  0.00     0.012 C 
ENDBRANCH   5   6
ENDBRANCH   3   4
ENDBRANCH   2   3
ENDBRANCH   1   2
BRANCH   1   9
ATOM      9  C   UNL     1     367.902 243.997 277.201  1.00  0.00     0.100 C 
BRANCH   9  10
ATOM     10  C   UNL     1     367.135 245.115 276.558  1.00  0.00     0.220 C 
ATOM     11  O   UNL     1     367.429 246.309 276.839  1.00  0.00    -0.275 OA
ATOM     12  N   UNL     1     366.102 244.829 275.605  1.00  0.00    -0.352 N 
ATOM     13  H   UNL     1     365.908 243.834 275.349  1.00  0.00     0.163 HD
BRANCH  12  14
ATOM     14  C   UNL     1     365.321 245.878 274.956  1.00  0.00     0.151 C 
BRANCH  14  15
ATOM     15  C   UNL     1     366.009 246.339 273.701  1.00  0.00    -0.025 A 
ATOM     16  C   UNL     1     366.461 245.398 272.762  1.00  0.00     0.056 A 
ATOM     17  C   UNL     1     366.180 247.707 273.443  1.00  0.00     0.009 A 
ATOM     18  C   UNL     1     367.086 245.817 271.570  1.00  0.00     0.160 A 
ATOM     19  C   UNL     1     366.799 248.128 272.264  1.00  0.00     0.050 A 
ATOM     20  C   UNL     1     367.253 247.189 271.329  1.00  0.00     0.157 A 
BRANCH  18  21
ATOM     21  O   UNL     1     367.551 244.907 270.609  1.00  0.00    -0.493 OA
ATOM     22  C   UNL     1     366.760 244.379 269.549  1.00  0.00     0.278 C 
ENDBRANCH  18  21
BRANCH  20  23
ATOM     23  O   UNL     1     367.870 247.611 270.152  1.00  0.00    -0.504 OA
ATOM     24  H   UNL     1     368.672 248.230 270.166  1.00  0.00     0.293 HD
ENDBRANCH  20  23
ENDBRANCH  14  15
ENDBRANCH  12  14
ENDBRANCH   9  10
ENDBRANCH   1   9
TORSDOF 10
ENDMDL
MODEL 2
REMARK VINA RESULT:    -6.607      1.521      2.073
REMARK INTER + INTRA:         -11.152
REMARK INTER:                 -10.457
REMARK INTRA:                  -0.695
REMARK UNBOUND:                -0.876
REMARK SMILES COc1cc(CNC(=O)CCCCC=CC(C)C)ccc1O
REMARK SMILES IDX 11 1 12 2 13 3 14 4 15 5 16 6 17 7 18 8 10 9 8 10 9 11 7 12
REMARK SMILES IDX 6 14 5 15 4 16 19 17 3 18 20 19 21 20 2 21 1 22 22 23
REMARK H PARENT 7 13 22 24
REMARK Flexibility Score: inf
ROOT
ATOM      1  C   UNL     1     368.141 244.391 276.994  1.00  0.00     0.010 C 
ENDROOT
BRANCH   1   2
ATOM      2  C   UNL     1     369.358 244.931 277.764  1.00  0.00     0.005 C 
BRANCH   2   3
ATOM      3  C   UNL     1     370.500 243.909 277.835  1.00  0.00     0.027 C 
BRANCH   3   4
ATOM      4  C   UNL     1     370.777 243.295 276.482  1.00  0.00    -0.031 C 
ATOM      5  C   UNL     1     371.983 243.232 275.889  1.00  0.00    -0.028 C 
BRANCH   5   6
ATOM      6  C   UNL     1     373.261 243.816 276.457  1.00  0.00     0.005 C 
ATOM      7  C   UNL     1     374.292 242.707 276.688  1.00  0.00     0.012 C 
ATOM      8  C   UNL     1     373.828 244.877 275.507  1.00  0.00     0.012 C 
ENDBRANCH   5   6
ENDBRANCH   3   4
ENDBRANCH   2   3
ENDBRANCH   1   2
BRANCH   1   9
ATOM      9  C   UNL     1     367.169 245.505 276.587  1.00  0.00     0.100 C 
BRANCH   9  10
ATOM     10  C   UNL     1     366.239 245.064 275.496  1.00  0.00     0.220 C 
ATOM     11  O   UNL     1     365.232 244.362 275.787  1.00  0.00    -0.275 OA
ATOM     12  N   UNL     1     366.473 245.466 274.139  1.00  0.00    -0.352 N 
ATOM     13  H   UNL     1     367.286 246.088 273.926  1.00  0.00     0.163 HD
BRANCH  12  14
ATOM     14  C   UNL     1     365.604 245.058 273.038  1.00  0.00     0.151 C 
BRANCH  14  15
ATOM     15  C   UNL     1     366.250 245.378 271.718  1.00  0.00    -0.025 A 
ATOM     16  C   UNL     1     365.883 244.664 270.566  1.00  0.00     0.056 A 
ATOM     17  C   UNL     1     367.197 246.407 271.619  1.00  0.00     0.009 A 
ATOM     18  C   UNL     1     366.462 244.970 269.318  1.00  0.00     0.160 A 
ATOM     19  C   UNL     1     367.775 246.714 270.385  1.00  0.00     0.050 A 
ATOM     20  C   UNL     1     367.411 246.000 269.236  1.00  0.00     0.157 A 
BRANCH  18  21
ATOM     21  O   UNL     1     366.122 244.279 268.145  1.00  0.00    -0.493 OA
ATOM     22  C   UNL     1     366.143 242.861 268.010  1.00  0.00     0.278 C 
ENDBRANCH  18  21
BRANCH  20  23
ATOM     23  O   UNL     1     367.988 246.308 268.005  1.00  0.00    -0.504 OA
ATOM     24  H   UNL     1     368.913 245.978 267.755  1.00  0.00     0.293 HD
ENDBRANCH  20  23
ENDBRANCH  14  15
ENDBRANCH  12  14
ENDBRANCH   9  10
ENDBRANCH   1   9
TORSDOF 10
ENDMDL
MODEL 3
REMARK VINA RESULT:    -6.495      1.931      2.621
REMARK INTER + INTRA:         -10.978
REMARK INTER:                  -9.953
REMARK INTRA:                  -1.025
REMARK UNBOUND:                -0.876
REMARK SMILES COc1cc(CNC(=O)CCCCC=CC(C)C)ccc1O
REMARK SMILES IDX 11 1 12 2 13 3 14 4 15 5 16 6 17 7 18 8 10 9 8 10 9 11 7 12
REMARK SMILES IDX 6 14 5 15 4 16 19 17 3 18 20 19 21 20 2 21 1 22 22 23
REMARK H PARENT 7 13 22 24
REMARK Flexibility Score: inf
ROOT
ATOM      1  C   UNL     1     370.524 240.829 276.664  1.00  0.00     0.010 C 
ENDROOT
BRANCH   1   2
ATOM      2  C   UNL     1     371.678 239.913 276.220  1.00  0.00     0.005 C 
BRANCH   2   3
ATOM      3  C   UNL     1     372.692 240.646 275.331  1.00  0.00     0.027 C 
BRANCH   3   4
ATOM      4  C   UNL     1     373.787 241.283 276.154  1.00  0.00    -0.031 C 
ATOM      5  C   UNL     1     373.913 242.602 276.392  1.00  0.00    -0.028 C 
BRANCH   5   6
ATOM      6  C   UNL     1     373.005 243.676 275.827  1.00  0.00     0.005 C 
ATOM      7  C   UNL     1     372.052 244.186 276.912  1.00  0.00     0.012 C 
ATOM      8  C   UNL     1     373.838 244.835 275.266  1.00  0.00     0.012 C 
ENDBRANCH   5   6
ENDBRANCH   3   4
ENDBRANCH   2   3
ENDBRANCH   1   2
BRANCH   1   9
ATOM      9  C   UNL     1     370.001 241.703 275.518  1.00  0.00     0.100 C 
BRANCH   9  10
ATOM     10  C   UNL     1     368.613 242.205 275.788  1.00  0.00     0.220 C 
ATOM     11  O   UNL     1     367.976 241.762 276.782  1.00  0.00    -0.275 OA
ATOM     12  N   UNL     1     368.030 243.207 274.943  1.00  0.00    -0.352 N 
ATOM     13  H   UNL     1     368.593 243.597 274.153  1.00  0.00     0.163 HD
BRANCH  12  14
ATOM     14  C   UNL     1     366.681 243.724 275.156  1.00  0.00     0.151 C 
BRANCH  14  15
ATOM     15  C   UNL     1     366.492 245.013 274.403  1.00  0.00    -0.025 A 
ATOM     16  C   UNL     1     366.748 245.064 273.023  1.00  0.00     0.056 A 
ATOM     17  C   UNL     1     366.034 246.163 275.062  1.00  0.00     0.009 A 
ATOM     18  C   UNL     1     366.552 246.259 272.301  1.00  0.00     0.160 A 
ATOM     19  C   UNL     1     365.839 247.350 274.352  1.00  0.00     0.050 A 
ATOM     20  C   UNL     1     366.097 247.401 272.976  1.00  0.00     0.157 A 
BRANCH  18  21
ATOM     21  O   UNL     1     366.797 246.348 270.923  1.00  0.00    -0.493 OA
ATOM     22  C   UNL     1     368.053 246.698 270.348  1.00  0.00     0.278 C 
ENDBRANCH  18  21
BRANCH  20  23
ATOM     23  O   UNL     1     365.901 248.586 272.268  1.00  0.00    -0.504 OA
ATOM     24  H   UNL     1     365.180 248.668 271.560  1.00  0.00     0.293 HD
ENDBRANCH  20  23
ENDBRANCH  14  15
ENDBRANCH  12  14
ENDBRANCH   9  10
ENDBRANCH   1   9
TORSDOF 10
ENDMDL
MODEL 4
REMARK VINA RESULT:    -6.203      2.566      7.078
REMARK INTER + INTRA:         -10.524
REMARK INTER:                  -9.455
REMARK INTRA:                  -1.069
REMARK UNBOUND:                -0.876
REMARK SMILES COc1cc(CNC(=O)CCCCC=CC(C)C)ccc1O
REMARK SMILES IDX 11 1 12 2 13 3 14 4 15 5 16 6 17 7 18 8 10 9 8 10 9 11 7 12
REMARK SMILES IDX 6 14 5 15 4 16 19 17 3 18 20 19 21 20 2 21 1 22 22 23
REMARK H PARENT 7 13 22 24
REMARK Flexibility Score: inf
ROOT
ATOM      1  C   UNL     1     367.116 247.918 272.008  1.00  0.00     0.010 C 
ENDROOT
BRANCH   1   2
ATOM      2  C   UNL     1     368.244 247.577 271.018  1.00  0.00     0.005 C 
BRANCH   2   3
ATOM      3  C   UNL     1     368.104 246.161 270.443  1.00  0.00     0.027 C 
BRANCH   3   4
ATOM      4  C   UNL     1     367.660 246.194 268.999  1.00  0.00    -0.031 C 
ATOM      5  C   UNL     1     366.870 245.278 268.407  1.00  0.00    -0.028 C 
BRANCH   5   6
ATOM      6  C   UNL     1     366.338 244.029 269.080  1.00  0.00     0.005 C 
ATOM      7  C   UNL     1     364.989 244.321 269.744  1.00  0.00     0.012 C 
ATOM      8  C   UNL     1     366.190 242.896 268.056  1.00  0.00     0.012 C 
ENDBRANCH   5   6
ENDBRANCH   3   4
ENDBRANCH   2   3
ENDBRANCH   1   2
BRANCH   1   9
ATOM      9  C   UNL     1     366.137 246.753 272.197  1.00  0.00     0.100 C 
BRANCH   9  10
ATOM     10  C   UNL     1     366.050 246.324 273.632  1.00  0.00     0.220 C 
ATOM     11  O   UNL     1     365.990 247.199 274.537  1.00  0.00    -0.275 OA
ATOM     12  N   UNL     1     366.001 244.930 273.968  1.00  0.00    -0.352 N 
ATOM     13  H   UNL     1     366.002 244.222 273.199  1.00  0.00     0.163 HD
BRANCH  12  14
ATOM     14  C   UNL     1     365.924 244.458 275.348  1.00  0.00     0.151 C 
BRANCH  14  15
ATOM     15  C   UNL     1     367.305 244.319 275.928  1.00  0.00    -0.025 A 
ATOM     16  C   UNL     1     368.175 243.330 275.442  1.00  0.00     0.056 A 
ATOM     17  C   UNL     1     367.746 245.190 276.935  1.00  0.00     0.009 A 
ATOM     18  C   UNL     1     369.479 243.204 275.960  1.00  0.00     0.160 A 
ATOM     19  C   UNL     1     369.038 245.071 277.452  1.00  0.00     0.050 A 
ATOM     20  C   UNL     1     369.904 244.081 276.969  1.00  0.00     0.157 A 
BRANCH  18  21
ATOM     21  O   UNL     1     370.376 242.228 275.500  1.00  0.00    -0.493 OA
ATOM     22  C   UNL     1     370.265 240.836 275.780  1.00  0.00     0.278 C 
ENDBRANCH  18  21
BRANCH  20  23
ATOM     23  O   UNL     1     371.193 243.963 277.486  1.00  0.00    -0.504 OA
ATOM     24  H   UNL     1     371.722 243.103 277.403  1.00  0.00     0.293 HD
ENDBRANCH  20  23
ENDBRANCH  14  15
ENDBRANCH  12  14
ENDBRANCH   9  10
ENDBRANCH   1   9
TORSDOF 10
ENDMDL
MODEL 5
REMARK VINA RESULT:    -6.186      2.439      7.364
REMARK INTER + INTRA:         -10.498
REMARK INTER:                  -9.633
REMARK INTRA:                  -0.866
REMARK UNBOUND:                -0.876
REMARK SMILES COc1cc(CNC(=O)CCCCC=CC(C)C)ccc1O
REMARK SMILES IDX 11 1 12 2 13 3 14 4 15 5 16 6 17 7 18 8 10 9 8 10 9 11 7 12
REMARK SMILES IDX 6 14 5 15 4 16 19 17 3 18 20 19 21 20 2 21 1 22 22 23
REMARK H PARENT 7 13 22 24
REMARK Flexibility Score: inf
ROOT
ATOM      1  C   UNL     1     366.307 245.885 274.093  1.00  0.00     0.010 C 
ENDROOT
BRANCH   1   2
ATOM      2  C   UNL     1     365.991 247.365 273.814  1.00  0.00     0.005 C 
BRANCH   2   3
ATOM      3  C   UNL     1     366.015 247.691 272.315  1.00  0.00     0.027 C 
BRANCH   3   4
ATOM      4  C   UNL     1     367.430 247.805 271.798  1.00  0.00    -0.031 C 
ATOM      5  C   UNL     1     367.912 247.183 270.705  1.00  0.00    -0.028 C 
BRANCH   5   6
ATOM      6  C   UNL     1     367.127 246.219 269.840  1.00  0.00     0.005 C 
ATOM      7  C   UNL     1     367.606 246.302 268.387  1.00  0.00     0.012 C 
ATOM      8  C   UNL     1     367.280 244.787 270.367  1.00  0.00     0.012 C 
ENDBRANCH   5   6
ENDBRANCH   3   4
ENDBRANCH   2   3
ENDBRANCH   1   2
BRANCH   1   9
ATOM      9  C   UNL     1     365.919 245.465 275.516  1.00  0.00     0.100 C 
BRANCH   9  10
ATOM     10  C   UNL     1     367.097 245.489 276.445  1.00  0.00     0.220 C 
ATOM     11  O   UNL     1     367.509 246.593 276.894  1.00  0.00    -0.275 OA
ATOM     12  N   UNL     1     367.725 244.264 276.848  1.00  0.00    -0.352 N 
ATOM     13  H   UNL     1     367.337 243.357 276.503  1.00  0.00     0.163 HD
BRANCH  12  14
ATOM     14  C   UNL     1     368.878 244.231 277.743  1.00  0.00     0.151 C 
BRANCH  14  15
ATOM     15  C   UNL     1     369.987 243.415 277.136  1.00  0.00    -0.025 A 
ATOM     16  C   UNL     1     371.176 244.039 276.728  1.00  0.00     0.056 A 
ATOM     17  C   UNL     1     369.856 242.025 277.000  1.00  0.00     0.009 A 
ATOM     18  C   UNL     1     372.231 243.283 276.180  1.00  0.00     0.160 A 
ATOM     19  C   UNL     1     370.898 241.271 276.458  1.00  0.00     0.050 A 
ATOM     20  C   UNL     1     372.084 241.895 276.047  1.00  0.00     0.157 A 
BRANCH  18  21
ATOM     21  O   UNL     1     373.434 243.872 275.759  1.00  0.00    -0.493 OA
ATOM     22  C   UNL     1     374.470 244.304 276.636  1.00  0.00     0.278 C 
ENDBRANCH  18  21
BRANCH  20  23
ATOM     23  O   UNL     1     373.124 241.140 275.507  1.00  0.00    -0.504 OA
ATOM     24  H   UNL     1     372.986 240.554 274.691  1.00  0.00     0.293 HD
ENDBRANCH  20  23
ENDBRANCH  14  15
ENDBRANCH  12  14
ENDBRANCH   9  10
ENDBRANCH   1   9
TORSDOF 10
ENDMDL
MODEL 6
REMARK VINA RESULT:    -6.134      1.885      2.246
REMARK INTER + INTRA:         -10.416
REMARK INTER:                  -9.616
REMARK INTRA:                  -0.800
REMARK UNBOUND:                -0.876
REMARK SMILES COc1cc(CNC(=O)CCCCC=CC(C)C)ccc1O
REMARK SMILES IDX 11 1 12 2 13 3 14 4 15 5 16 6 17 7 18 8 10 9 8 10 9 11 7 12
REMARK SMILES IDX 6 14 5 15 4 16 19 17 3 18 20 19 21 20 2 21 1 22 22 23
REMARK H PARENT 7 13 22 24
REMARK Flexibility Score: inf
ROOT
ATOM      1  C   UNL     1     369.132 242.497 276.774  1.00  0.00     0.010 C 
ENDROOT
BRANCH   1   2
ATOM      2  C   UNL     1     369.462 243.444 277.942  1.00  0.00     0.005 C 
BRANCH   2   3
ATOM      3  C   UNL     1     370.864 244.055 277.814  1.00  0.00     0.027 C 
BRANCH   3   4
ATOM      4  C   UNL     1     371.314 244.108 276.373  1.00  0.00    -0.031 C 
ATOM      5  C   UNL     1     372.578 243.925 275.945  1.00  0.00    -0.028 C 
BRANCH   5   6
ATOM      6  C   UNL     1     373.772 243.689 276.847  1.00  0.00     0.005 C 
ATOM      7  C   UNL     1     374.318 242.272 276.641  1.00  0.00     0.012 C 
ATOM      8  C   UNL     1     374.866 244.724 276.562  1.00  0.00     0.012 C 
ENDBRANCH   5   6
ENDBRANCH   3   4
ENDBRANCH   2   3
ENDBRANCH   1   2
BRANCH   1   9
ATOM      9  C   UNL     1     367.798 241.769 276.975  1.00  0.00     0.100 C 
BRANCH   9  10
ATOM     10  C   UNL     1     366.837 242.045 275.856  1.00  0.00     0.220 C 
ATOM     11  O   UNL     1     366.322 241.080 275.230  1.00  0.00    -0.275 OA
ATOM     12  N   UNL     1     366.482 243.395 275.525  1.00  0.00    -0.352 N 
ATOM     13  H   UNL     1     366.882 244.179 276.089  1.00  0.00     0.163 HD
BRANCH  12  14
ATOM     14  C   UNL     1     365.559 243.720 274.441  1.00  0.00     0.151 C 
BRANCH  14  15
ATOM     15  C   UNL     1     365.845 245.097 273.908  1.00  0.00    -0.025 A 
ATOM     16  C   UNL     1     366.544 245.250 272.699  1.00  0.00     0.056 A 
ATOM     17  C   UNL     1     365.395 246.235 274.592  1.00  0.00     0.009 A 
ATOM     18  C   UNL     1     366.798 246.533 272.175  1.00  0.00     0.160 A 
ATOM     19  C   UNL     1     365.645 247.509 274.079  1.00  0.00     0.050 A 
ATOM     20  C   UNL     1     366.344 247.661 272.874  1.00  0.00     0.157 A 
BRANCH  18  21
ATOM     21  O   UNL     1     367.493 246.726 270.972  1.00  0.00    -0.493 OA
ATOM     22  C   UNL     1     366.943 246.499 269.678  1.00  0.00     0.278 C 
ENDBRANCH  18  21
BRANCH  20  23
ATOM     23  O   UNL     1     366.591 248.934 272.362  1.00  0.00    -0.504 OA
ATOM     24  H   UNL     1     366.484 249.765 272.932  1.00  0.00     0.293 HD
ENDBRANCH  20  23
ENDBRANCH  14  15
ENDBRANCH  12  14
ENDBRANCH   9  10
ENDBRANCH   1   9
TORSDOF 10
ENDMDL
MODEL 7
REMARK VINA RESULT:    -5.923      3.085      7.669
REMARK INTER + INTRA:         -10.088
REMARK INTER:                  -9.478
REMARK INTRA:                  -0.611
REMARK UNBOUND:                -0.876
REMARK SMILES COc1cc(CNC(=O)CCCCC=CC(C)C)ccc1O
REMARK SMILES IDX 11 1 12 2 13 3 14 4 15 5 16 6 17 7 18 8 10 9 8 10 9 11 7 12
REMARK SMILES IDX 6 14 5 15 4 16 19 17 3 18 20 19 21 20 2 21 1 22 22 23
REMARK H PARENT 7 13 22 24
REMARK Flexibility Score: inf
ROOT
ATOM      1  C   UNL     1     367.364 245.730 276.416  1.00  0.00     0.010 C 
ENDROOT
BRANCH   1   2
ATOM      2  C   UNL     1     366.365 244.763 275.757  1.00  0.00     0.005 C 
BRANCH   2   3
ATOM      3  C   UNL     1     366.469 244.775 274.226  1.00  0.00     0.027 C 
BRANCH   3   4
ATOM      4  C   UNL     1     366.000 246.091 273.652  1.00  0.00    -0.031 C 
ATOM      5  C   UNL     1     366.434 246.635 272.499  1.00  0.00    -0.028 C 
BRANCH   5   6
ATOM      6  C   UNL     1     367.509 246.042 271.611  1.00  0.00     0.005 C 
ATOM      7  C   UNL     1     366.891 245.039 270.632  1.00  0.00     0.012 C 
ATOM      8  C   UNL     1     368.237 247.152 270.844  1.00  0.00     0.012 C 
ENDBRANCH   5   6
ENDBRANCH   3   4
ENDBRANCH   2   3
ENDBRANCH   1   2
BRANCH   1   9
ATOM      9  C   UNL     1     368.358 245.005 277.332  1.00  0.00     0.100 C 
BRANCH   9  10
ATOM     10  C   UNL     1     368.617 243.601 276.873  1.00  0.00     0.220 C 
ATOM     11  O   UNL     1     367.987 242.649 277.408  1.00  0.00    -0.275 OA
ATOM     12  N   UNL     1     369.548 243.347 275.811  1.00  0.00    -0.352 N 
ATOM     13  H   UNL     1     370.023 244.155 275.348  1.00  0.00     0.163 HD
BRANCH  12  14
ATOM     14  C   UNL     1     369.843 242.000 275.332  1.00  0.00     0.151 C 
BRANCH  14  15
ATOM     15  C   UNL     1     371.262 241.627 275.665  1.00  0.00    -0.025 A 
ATOM     16  C   UNL     1     372.189 242.626 276.004  1.00  0.00     0.056 A 
ATOM     17  C   UNL     1     371.664 240.284 275.670  1.00  0.00     0.009 A 
ATOM     18  C   UNL     1     373.515 242.289 276.342  1.00  0.00     0.160 A 
ATOM     19  C   UNL     1     372.977 239.944 276.003  1.00  0.00     0.050 A 
ATOM     20  C   UNL     1     373.902 240.941 276.339  1.00  0.00     0.157 A 
BRANCH  18  21
ATOM     21  O   UNL     1     374.469 243.259 276.686  1.00  0.00    -0.493 OA
ATOM     22  C   UNL     1     374.426 244.618 276.261  1.00  0.00     0.278 C 
ENDBRANCH  18  21
BRANCH  20  23
ATOM     23  O   UNL     1     375.212 240.600 276.673  1.00  0.00    -0.504 OA
ATOM     24  H   UNL     1     375.647 239.756 276.318  1.00  0.00     0.293 HD
ENDBRANCH  20  23
ENDBRANCH  14  15
ENDBRANCH  12  14
ENDBRANCH   9  10
ENDBRANCH   1   9
TORSDOF 10
ENDMDL
MODEL 8
REMARK VINA RESULT:    -5.841      2.753      6.988
REMARK INTER + INTRA:          -9.960
REMARK INTER:                  -9.007
REMARK INTRA:                  -0.953
REMARK UNBOUND:                -0.876
REMARK SMILES COc1cc(CNC(=O)CCCCC=CC(C)C)ccc1O
REMARK SMILES IDX 11 1 12 2 13 3 14 4 15 5 16 6 17 7 18 8 10 9 8 10 9 11 7 12
REMARK SMILES IDX 6 14 5 15 4 16 19 17 3 18 20 19 21 20 2 21 1 22 22 23
REMARK H PARENT 7 13 22 24
REMARK Flexibility Score: inf
ROOT
ATOM      1  C   UNL     1     365.963 245.849 274.147  1.00  0.00     0.010 C 
ENDROOT
BRANCH   1   2
ATOM      2  C   UNL     1     365.884 247.379 274.000  1.00  0.00     0.005 C 
BRANCH   2   3
ATOM      3  C   UNL     1     365.852 247.819 272.530  1.00  0.00     0.027 C 
BRANCH   3   4
ATOM      4  C   UNL     1     367.246 248.039 271.990  1.00  0.00    -0.031 C 
ATOM      5  C   UNL     1     367.793 247.375 270.954  1.00  0.00    -0.028 C 
BRANCH   5   6
ATOM      6  C   UNL     1     367.118 246.254 270.190  1.00  0.00     0.005 C 
ATOM      7  C   UNL     1     367.509 246.312 268.710  1.00  0.00     0.012 C 
ATOM      8  C   UNL     1     367.506 244.896 270.787  1.00  0.00     0.012 C 
ENDBRANCH   5   6
ENDBRANCH   3   4
ENDBRANCH   2   3
ENDBRANCH   1   2
BRANCH   1   9
ATOM      9  C   UNL     1     365.058 245.325 275.268  1.00  0.00     0.100 C 
BRANCH   9  10
ATOM     10  C   UNL     1     365.684 244.175 276.000  1.00  0.00     0.220 C 
ATOM     11  O   UNL     1     364.945 243.316 276.553  1.00  0.00    -0.275 OA
ATOM     12  N   UNL     1     367.112 244.035 276.040  1.00  0.00    -0.352 N 
ATOM     13  H   UNL     1     367.705 244.731 275.534  1.00  0.00     0.163 HD
BRANCH  12  14
ATOM     14  C   UNL     1     367.773 242.940 276.745  1.00  0.00     0.151 C 
BRANCH  14  15
ATOM     15  C   UNL     1     369.265 243.041 276.582  1.00  0.00    -0.025 A 
ATOM     16  C   UNL     1     369.952 242.099 275.799  1.00  0.00     0.056 A 
ATOM     17  C   UNL     1     369.978 244.089 277.182  1.00  0.00     0.009 A 
ATOM     18  C   UNL     1     371.346 242.196 275.618  1.00  0.00     0.160 A 
ATOM     19  C   UNL     1     371.360 244.190 277.008  1.00  0.00     0.050 A 
ATOM     20  C   UNL     1     372.045 243.248 276.228  1.00  0.00     0.157 A 
BRANCH  18  21
ATOM     21  O   UNL     1     372.066 241.274 274.844  1.00  0.00    -0.493 OA
ATOM     22  C   UNL     1     372.155 239.881 275.125  1.00  0.00     0.278 C 
ENDBRANCH  18  21
BRANCH  20  23
ATOM     23  O   UNL     1     373.424 243.351 276.054  1.00  0.00    -0.504 OA
ATOM     24  H   UNL     1     374.006 243.855 276.713  1.00  0.00     0.293 HD
ENDBRANCH  20  23
ENDBRANCH  14  15
ENDBRANCH  12  14
ENDBRANCH   9  10
ENDBRANCH   1   9
TORSDOF 10
ENDMDL
MODEL 9
REMARK VINA RESULT:    -5.706      3.150      4.731
REMARK INTER + INTRA:          -9.751
REMARK INTER:                  -8.751
REMARK INTRA:                  -0.999
REMARK UNBOUND:                -0.876
REMARK SMILES COc1cc(CNC(=O)CCCCC=CC(C)C)ccc1O
REMARK SMILES IDX 11 1 12 2 13 3 14 4 15 5 16 6 17 7 18 8 10 9 8 10 9 11 7 12
REMARK SMILES IDX 6 14 5 15 4 16 19 17 3 18 20 19 21 20 2 21 1 22 22 23
REMARK H PARENT 7 13 22 24
REMARK Flexibility Score: inf
ROOT
ATOM      1  C   UNL     1     371.237 240.617 276.143  1.00  0.00     0.010 C 
ENDROOT
BRANCH   1   2
ATOM      2  C   UNL     1     372.551 239.875 276.445  1.00  0.00     0.005 C 
BRANCH   2   3
ATOM      3  C   UNL     1     373.756 240.523 275.751  1.00  0.00     0.027 C 
BRANCH   3   4
ATOM      4  C   UNL     1     374.471 241.486 276.670  1.00  0.00    -0.031 C 
ATOM      5  C   UNL     1     374.220 242.806 276.761  1.00  0.00    -0.028 C 
BRANCH   5   6
ATOM      6  C   UNL     1     373.213 243.557 275.914  1.00  0.00     0.005 C 
ATOM      7  C   UNL     1     372.016 243.984 276.770  1.00  0.00     0.012 C 
ATOM      8  C   UNL     1     373.869 244.785 275.272  1.00  0.00     0.012 C 
ENDBRANCH   5   6
ENDBRANCH   3   4
ENDBRANCH   2   3
ENDBRANCH   1   2
BRANCH   1   9
ATOM      9  C   UNL     1     370.357 240.773 277.388  1.00  0.00     0.100 C 
BRANCH   9  10
ATOM     10  C   UNL     1     368.897 240.681 277.055  1.00  0.00     0.220 C 
ATOM     11  O   UNL     1     368.542 240.151 275.968  1.00  0.00    -0.275 OA
ATOM     12  N   UNL     1     367.913 241.161 277.982  1.00  0.00    -0.352 N 
ATOM     13  H   UNL     1     368.226 241.553 278.899  1.00  0.00     0.163 HD
BRANCH  12  14
ATOM     14  C   UNL     1     366.480 241.104 277.705  1.00  0.00     0.151 C 
BRANCH  14  15
ATOM     15  C   UNL     1     366.102 242.151 276.693  1.00  0.00    -0.025 A 
ATOM     16  C   UNL     1     366.628 243.448 276.796  1.00  0.00     0.056 A 
ATOM     17  C   UNL     1     365.250 241.835 275.625  1.00  0.00     0.009 A 
ATOM     18  C   UNL     1     366.302 244.432 275.841  1.00  0.00     0.160 A 
ATOM     19  C   UNL     1     364.923 242.806 274.676  1.00  0.00     0.050 A 
ATOM     20  C   UNL     1     365.445 244.102 274.781  1.00  0.00     0.157 A 
BRANCH  18  21
ATOM     21  O   UNL     1     366.807 245.740 275.911  1.00  0.00    -0.493 OA
ATOM     22  C   UNL     1     367.636 246.228 276.961  1.00  0.00     0.278 C 
ENDBRANCH  18  21
BRANCH  20  23
ATOM     23  O   UNL     1     365.119 245.070 273.832  1.00  0.00    -0.504 OA
ATOM     24  H   UNL     1     364.421 245.781 274.018  1.00  0.00     0.293 HD
ENDBRANCH  20  23
ENDBRANCH  14  15
ENDBRANCH  12  14
ENDBRANCH   9  10
ENDBRANCH   1   9
TORSDOF 10
ENDMDL
