MODEL 1
REMARK VINA RESULT:    -3.559      0.000      0.000
REMARK INTER + INTRA:          -5.349
REMARK INTER:                  -4.807
REMARK INTRA:                  -0.542
REMARK UNBOUND:                -0.542
REMARK SMILES CCCCCCCC(=O)[O-]
REMARK SMILES IDX 5 1 6 2 7 3 8 4 9 5 10 6 4 7 3 8 2 9 1 10
REMARK H PARENT
REMARK Flexibility Score: inf
ROOT
ATOM      1  C   UNL     1       7.056  -4.118 -24.257  1.00  0.00     0.000 C 
ENDROOT
BRANCH   1   2
ATOM      2  C   UNL     1       8.012  -3.682 -25.377  1.00  0.00     0.006 C 
BRANCH   2   3
ATOM      3  C   UNL     1       9.465  -3.578 -24.893  1.00  0.00     0.053 C 
BRANCH   3   4
ATOM      4  C   UNL     1      10.301  -4.716 -25.393  1.00  0.00     0.041 C 
ATOM      5  O   UNL     1      11.316  -4.491 -26.103  1.00  0.00    -0.550 OA
ATOM      6  O   UNL     1       9.941  -6.026 -25.104  1.00  0.00    -0.550 OA
ENDBRANCH   3   4
ENDBRANCH   2   3
ENDBRANCH   1   2
BRANCH   1   7
ATOM      7  C   UNL     1       7.771  -4.135 -22.899  1.00  0.00     0.000 C 
BRANCH   7   8
ATOM      8  C   UNL     1       7.474  -5.403 -22.079  1.00  0.00    -0.000 C 
BRANCH   8   9
ATOM      9  C   UNL     1       8.719  -6.174 -21.607  1.00  0.00    -0.003 C 
ATOM     10  C   UNL     1       9.982  -5.316 -21.587  1.00  0.00     0.004 C 
ENDBRANCH   8   9
ENDBRANCH   7   8
ENDBRANCH   1   7
TORSDOF 6
ENDMDL
MODEL 2
REMARK VINA RESULT:    -3.544      2.886      4.857
REMARK INTER + INTRA:          -5.329
REMARK INTER:                  -4.933
REMARK INTRA:                  -0.396
REMARK UNBOUND:                -0.542
REMARK SMILES CCCCCCCC(=O)[O-]
REMARK SMILES IDX 5 1 6 2 7 3 8 4 9 5 10 6 4 7 3 8 2 9 1 10
REMARK H PARENT
REMARK Flexibility Score: inf
ROOT
ATOM      1  C   UNL     1       7.283  -3.376 -25.780  1.00  0.00     0.000 C 
ENDROOT
BRANCH   1   2
ATOM      2  C   UNL     1       8.098  -4.428 -25.013  1.00  0.00     0.006 C 
BRANCH   2   3
ATOM      3  C   UNL     1       7.264  -5.138 -23.938  1.00  0.00     0.053 C 
BRANCH   3   4
ATOM      4  C   UNL     1       7.824  -4.920 -22.565  1.00  0.00     0.041 C 
ATOM      5  O   UNL     1       7.208  -5.349 -21.555  1.00  0.00    -0.550 OA
ATOM      6  O   UNL     1       9.010  -4.215 -22.400  1.00  0.00    -0.550 OA
ENDBRANCH   3   4
ENDBRANCH   2   3
ENDBRANCH   1   2
BRANCH   1   7
ATOM      7  C   UNL     1       5.819  -3.370 -25.317  1.00  0.00     0.000 C 
BRANCH   7   8
ATOM      8  C   UNL     1       4.832  -3.725 -26.443  1.00  0.00    -0.000 C 
BRANCH   8   9
ATOM      9  C   UNL     1       5.139  -5.040 -27.181  1.00  0.00    -0.003 C 
ATOM     10  C   UNL     1       4.958  -4.932 -28.694  1.00  0.00     0.004 C 
ENDBRANCH   8   9
ENDBRANCH   7   8
ENDBRANCH   1   7
TORSDOF 6
ENDMDL
MODEL 3
REMARK VINA RESULT:    -3.538      2.893      4.891
REMARK INTER + INTRA:          -5.321
REMARK INTER:                  -4.949
REMARK INTRA:                  -0.372
REMARK UNBOUND:                -0.542
REMARK SMILES CCCCCCCC(=O)[O-]
REMARK SMILES IDX 5 1 6 2 7 3 8 4 9 5 10 6 4 7 3 8 2 9 1 10
REMARK H PARENT
REMARK Flexibility Score: inf
ROOT
ATOM      1  C   UNL     1       6.252  -6.018 -25.817  1.00  0.00     0.000 C 
ENDROOT
BRANCH   1   2
ATOM      2  C   UNL     1       7.497  -5.729 -24.966  1.00  0.00     0.006 C 
BRANCH   2   3
ATOM      3  C   UNL     1       7.401  -6.351 -23.566  1.00  0.00     0.053 C 
BRANCH   3   4
ATOM      4  C   UNL     1       7.467  -5.311 -22.489  1.00  0.00     0.041 C 
ATOM      5  O   UNL     1       7.050  -5.572 -21.330  1.00  0.00    -0.550 OA
ATOM      6  O   UNL     1       7.958  -4.043 -22.774  1.00  0.00    -0.550 OA
ENDBRANCH   3   4
ENDBRANCH   2   3
ENDBRANCH   1   2
BRANCH   1   7
ATOM      7  C   UNL     1       5.750  -4.742 -26.509  1.00  0.00     0.000 C 
BRANCH   7   8
ATOM      8  C   UNL     1       6.193  -3.456 -25.790  1.00  0.00    -0.000 C 
BRANCH   8   9
ATOM      9  C   UNL     1       5.048  -2.628 -25.180  1.00  0.00    -0.003 C 
ATOM     10  C   UNL     1       3.890  -2.404 -26.152  1.00  0.00     0.004 C 
ENDBRANCH   8   9
ENDBRANCH   7   8
ENDBRANCH   1   7
TORSDOF 6
ENDMDL
MODEL 4
REMARK VINA RESULT:    -3.498      3.037      4.903
REMARK INTER + INTRA:          -5.268
REMARK INTER:                  -5.029
REMARK INTRA:                  -0.239
REMARK UNBOUND:                -0.542
REMARK SMILES CCCCCCCC(=O)[O-]
REMARK SMILES IDX 5 1 6 2 7 3 8 4 9 5 10 6 4 7 3 8 2 9 1 10
REMARK H PARENT
REMARK Flexibility Score: inf
ROOT
ATOM      1  C   UNL     1       7.739  -4.144 -23.154  1.00  0.00     0.000 C 
ENDROOT
BRANCH   1   2
ATOM      2  C   UNL     1       8.274  -5.339 -22.351  1.00  0.00     0.006 C 
BRANCH   2   3
ATOM      3  C   UNL     1       7.208  -5.941 -21.425  1.00  0.00     0.053 C 
BRANCH   3   4
ATOM      4  C   UNL     1       7.415  -7.410 -21.218  1.00  0.00     0.041 C 
ATOM      5  O   UNL     1       6.545  -8.232 -21.607  1.00  0.00    -0.550 OA
ATOM      6  O   UNL     1       8.553  -7.869 -20.567  1.00  0.00    -0.550 OA
ENDBRANCH   3   4
ENDBRANCH   2   3
ENDBRANCH   1   2
BRANCH   1   7
ATOM      7  C   UNL     1       7.983  -4.338 -24.657  1.00  0.00     0.000 C 
BRANCH   7   8
ATOM      8  C   UNL     1       7.074  -3.456 -25.532  1.00  0.00    -0.000 C 
BRANCH   8   9
ATOM      9  C   UNL     1       5.852  -4.177 -26.128  1.00  0.00    -0.003 C 
ATOM     10  C   UNL     1       5.973  -5.699 -26.077  1.00  0.00     0.004 C 
ENDBRANCH   8   9
ENDBRANCH   7   8
ENDBRANCH   1   7
TORSDOF 6
ENDMDL
MODEL 5
REMARK VINA RESULT:    -3.495      2.332      4.216
REMARK INTER + INTRA:          -5.264
REMARK INTER:                  -4.884
REMARK INTRA:                  -0.380
REMARK UNBOUND:                -0.542
REMARK SMILES CCCCCCCC(=O)[O-]
REMARK SMILES IDX 5 1 6 2 7 3 8 4 9 5 10 6 4 7 3 8 2 9 1 10
REMARK H PARENT
REMARK Flexibility Score: inf
ROOT
ATOM      1  C   UNL     1       7.779  -5.334 -24.980  1.00  0.00     0.000 C 
ENDROOT
BRANCH   1   2
ATOM      2  C   UNL     1       7.335  -5.379 -23.510  1.00  0.00     0.006 C 
BRANCH   2   3
ATOM      3  C   UNL     1       7.988  -4.272 -22.672  1.00  0.00     0.053 C 
BRANCH   3   4
ATOM      4  C   UNL     1       9.475  -4.438 -22.591  1.00  0.00     0.041 C 
ATOM      5  O   UNL     1      10.238  -3.555 -23.062  1.00  0.00    -0.550 OA
ATOM      6  O   UNL     1      10.018  -5.585 -22.024  1.00  0.00    -0.550 OA
ENDBRANCH   3   4
ENDBRANCH   2   3
ENDBRANCH   1   2
BRANCH   1   7
ATOM      7  C   UNL     1       7.439  -3.978 -25.616  1.00  0.00     0.000 C 
BRANCH   7   8
ATOM      8  C   UNL     1       5.957  -3.856 -26.012  1.00  0.00    -0.000 C 
BRANCH   8   9
ATOM      9  C   UNL     1       5.196  -2.711 -25.321  1.00  0.00    -0.003 C 
ATOM     10  C   UNL     1       3.852  -2.403 -25.980  1.00  0.00     0.004 C 
ENDBRANCH   8   9
ENDBRANCH   7   8
ENDBRANCH   1   7
TORSDOF 6
ENDMDL
MODEL 6
REMARK VINA RESULT:    -3.473     10.422     11.268
REMARK INTER + INTRA:          -5.234
REMARK INTER:                  -4.683
REMARK INTRA:                  -0.551
REMARK UNBOUND:                -0.542
REMARK SMILES CCCCCCCC(=O)[O-]
REMARK SMILES IDX 5 1 6 2 7 3 8 4 9 5 10 6 4 7 3 8 2 9 1 10
REMARK H PARENT
REMARK Flexibility Score: inf
ROOT
ATOM      1  C   UNL     1      16.330  -3.839 -17.273  1.00  0.00     0.000 C 
ENDROOT
BRANCH   1   2
ATOM      2  C   UNL     1      17.347  -2.707 -17.474  1.00  0.00     0.006 C 
BRANCH   2   3
ATOM      3  C   UNL     1      17.853  -2.630 -18.921  1.00  0.00     0.053 C 
BRANCH   3   4
ATOM      4  C   UNL     1      19.347  -2.721 -18.994  1.00  0.00     0.041 C 
ATOM      5  O   UNL     1      20.005  -3.139 -18.006  1.00  0.00    -0.550 OA
ATOM      6  O   UNL     1      20.015  -2.313 -20.142  1.00  0.00    -0.550 OA
ENDBRANCH   3   4
ENDBRANCH   2   3
ENDBRANCH   1   2
BRANCH   1   7
ATOM      7  C   UNL     1      16.658  -4.656 -16.015  1.00  0.00     0.000 C 
BRANCH   7   8
ATOM      8  C   UNL     1      17.139  -6.083 -16.335  1.00  0.00    -0.000 C 
BRANCH   8   9
ATOM      9  C   UNL     1      18.631  -6.198 -16.694  1.00  0.00    -0.003 C 
ATOM     10  C   UNL     1      18.870  -6.460 -18.180  1.00  0.00     0.004 C 
ENDBRANCH   8   9
ENDBRANCH   7   8
ENDBRANCH   1   7
TORSDOF 6
ENDMDL
MODEL 7
REMARK VINA RESULT:    -3.457      1.897      3.258
REMARK INTER + INTRA:          -5.211
REMARK INTER:                  -4.835
REMARK INTRA:                  -0.377
REMARK UNBOUND:                -0.542
REMARK SMILES CCCCCCCC(=O)[O-]
REMARK SMILES IDX 5 1 6 2 7 3 8 4 9 5 10 6 4 7 3 8 2 9 1 10
REMARK H PARENT
REMARK Flexibility Score: inf
ROOT
ATOM      1  C   UNL     1       8.773  -4.024 -23.634  1.00  0.00     0.000 C 
ENDROOT
BRANCH   1   2
ATOM      2  C   UNL     1       9.587  -3.807 -24.918  1.00  0.00     0.006 C 
BRANCH   2   3
ATOM      3  C   UNL     1      10.308  -5.084 -25.372  1.00  0.00     0.053 C 
BRANCH   3   4
ATOM      4  C   UNL     1      11.687  -4.794 -25.880  1.00  0.00     0.041 C 
ATOM      5  O   UNL     1      12.610  -4.506 -25.074  1.00  0.00    -0.550 OA
ATOM      6  O   UNL     1      11.945  -4.807 -27.245  1.00  0.00    -0.550 OA
ENDBRANCH   3   4
ENDBRANCH   2   3
ENDBRANCH   1   2
BRANCH   1   7
ATOM      7  C   UNL     1       7.384  -4.595 -23.953  1.00  0.00     0.000 C 
BRANCH   7   8
ATOM      8  C   UNL     1       6.545  -3.667 -24.848  1.00  0.00    -0.000 C 
BRANCH   8   9
ATOM      9  C   UNL     1       6.146  -4.266 -26.209  1.00  0.00    -0.003 C 
ATOM     10  C   UNL     1       5.942  -5.780 -26.158  1.00  0.00     0.004 C 
ENDBRANCH   8   9
ENDBRANCH   7   8
ENDBRANCH   1   7
TORSDOF 6
ENDMDL
MODEL 8
REMARK VINA RESULT:    -3.439      1.571      2.830
REMARK INTER + INTRA:          -5.187
REMARK INTER:                  -4.717
REMARK INTRA:                  -0.470
REMARK UNBOUND:                -0.542
REMARK SMILES CCCCCCCC(=O)[O-]
REMARK SMILES IDX 5 1 6 2 7 3 8 4 9 5 10 6 4 7 3 8 2 9 1 10
REMARK H PARENT
REMARK Flexibility Score: inf
ROOT
ATOM      1  C   UNL     1       9.603  -4.348 -22.912  1.00  0.00     0.000 C 
ENDROOT
BRANCH   1   2
ATOM      2  C   UNL     1      10.419  -3.372 -23.772  1.00  0.00     0.006 C 
BRANCH   2   3
ATOM      3  C   UNL     1      10.377  -3.735 -25.263  1.00  0.00     0.053 C 
BRANCH   3   4
ATOM      4  C   UNL     1      11.619  -4.454 -25.695  1.00  0.00     0.041 C 
ATOM      5  O   UNL     1      11.643  -5.071 -26.793  1.00  0.00    -0.550 OA
ATOM      6  O   UNL     1      12.737  -4.472 -24.871  1.00  0.00    -0.550 OA
ENDBRANCH   3   4
ENDBRANCH   2   3
ENDBRANCH   1   2
BRANCH   1   7
ATOM      7  C   UNL     1       8.096  -4.113 -23.094  1.00  0.00     0.000 C 
BRANCH   7   8
ATOM      8  C   UNL     1       7.370  -5.322 -23.710  1.00  0.00    -0.000 C 
BRANCH   8   9
ATOM      9  C   UNL     1       6.746  -5.066 -25.094  1.00  0.00    -0.003 C 
ATOM     10  C   UNL     1       6.620  -3.580 -25.427  1.00  0.00     0.004 C 
ENDBRANCH   8   9
ENDBRANCH   7   8
ENDBRANCH   1   7
TORSDOF 6
ENDMDL
MODEL 9
REMARK VINA RESULT:    -3.330      1.972      2.710
REMARK INTER + INTRA:          -5.041
REMARK INTER:                  -4.401
REMARK INTRA:                  -0.640
REMARK UNBOUND:                -0.542
REMARK SMILES CCCCCCCC(=O)[O-]
REMARK SMILES IDX 5 1 6 2 7 3 8 4 9 5 10 6 4 7 3 8 2 9 1 10
REMARK H PARENT
REMARK Flexibility Score: inf
ROOT
ATOM      1  C   UNL     1       7.533  -5.272 -22.016  1.00  0.00     0.000 C 
ENDROOT
BRANCH   1   2
ATOM      2  C   UNL     1       8.125  -4.125 -22.849  1.00  0.00     0.006 C 
BRANCH   2   3
ATOM      3  C   UNL     1       9.659  -4.123 -22.828  1.00  0.00     0.053 C 
BRANCH   3   4
ATOM      4  C   UNL     1      10.234  -3.752 -24.162  1.00  0.00     0.041 C 
ATOM      5  O   UNL     1      11.423  -3.350 -24.248  1.00  0.00    -0.550 OA
ATOM      6  O   UNL     1       9.444  -3.817 -25.303  1.00  0.00    -0.550 OA
ENDBRANCH   3   4
ENDBRANCH   2   3
ENDBRANCH   1   2
BRANCH   1   7
ATOM      7  C   UNL     1       7.377  -6.542 -22.864  1.00  0.00     0.000 C 
BRANCH   7   8
ATOM      8  C   UNL     1       7.003  -6.245 -24.327  1.00  0.00    -0.000 C 
BRANCH   8   9
ATOM      9  C   UNL     1       7.828  -7.015 -25.374  1.00  0.00    -0.003 C 
ATOM     10  C   UNL     1       9.230  -7.373 -24.885  1.00  0.00     0.004 C 
ENDBRANCH   8   9
ENDBRANCH   7   8
ENDBRANCH   1   7
TORSDOF 6
ENDMDL
