MODEL 1
REMARK VINA RESULT:    -4.517      0.000      0.000
REMARK INTER + INTRA:          -5.597
REMARK INTER:                  -5.309
REMARK INTRA:                  -0.287
REMARK UNBOUND:                -0.287
REMARK SMILES O=c1cc(-c2ccc(O)c(O)c2)oc2cc(O)cc(O)c12
REMARK SMILES IDX 4 1 3 2 2 3 1 4 21 5 19 6 18 7 16 8 15 9 14 10 13 11 5 12
REMARK SMILES IDX 6 13 7 14 8 15 12 16 10 17 9 18 11 20 20 22 17 24
REMARK H PARENT 9 19 11 21 20 23 17 25
REMARK Flexibility Score: inf
ROOT
ATOM      1  C   UNL     1      -4.373  -7.775   8.653  1.00  0.00     0.138 A 
ATOM      2  C   UNL     1      -3.855  -8.921   8.028  1.00  0.00     0.100 A 
ATOM      3  C   UNL     1      -2.472  -9.084   7.929  1.00  0.00     0.197 A 
ATOM      4  O   UNL     1      -2.017 -10.116   7.368  1.00  0.00    -0.289 OA
ATOM      5  C   UNL     1      -1.616  -8.098   8.459  1.00  0.00     0.107 A 
ATOM      6  C   UNL     1      -0.205  -8.183   8.399  1.00  0.00     0.134 A 
ATOM      7  C   UNL     1       0.577  -7.161   8.956  1.00  0.00     0.093 A 
ATOM      8  C   UNL     1      -0.022  -6.058   9.570  1.00  0.00     0.123 A 
ATOM      9  C   UNL     1      -1.416  -5.968   9.632  1.00  0.00     0.094 A 
ATOM     10  C   UNL     1      -2.214  -6.977   9.082  1.00  0.00     0.146 A 
ATOM     11  O   UNL     1      -3.537  -6.867   9.152  1.00  0.00    -0.456 OA
ENDROOT
BRANCH   1  12
ATOM     12  C   UNL     1      -5.834  -7.550   8.788  1.00  0.00     0.021 A 
ATOM     13  C   UNL     1      -6.335  -6.236   8.787  1.00  0.00     0.016 A 
ATOM     14  C   UNL     1      -7.706  -5.998   8.906  1.00  0.00     0.051 A 
ATOM     15  C   UNL     1      -8.602  -7.068   9.018  1.00  0.00     0.157 A 
ATOM     16  C   UNL     1      -6.743  -8.622   8.888  1.00  0.00     0.062 A 
ATOM     17  C   UNL     1      -8.118  -8.386   9.005  1.00  0.00     0.158 A 
BRANCH  15  18
ATOM     18  O   UNL     1      -9.970  -6.826   9.138  1.00  0.00    -0.504 OA
ATOM     19  H   UNL     1     -10.626  -7.124   8.426  1.00  0.00     0.293 HD
ENDBRANCH  15  18
BRANCH  17  20
ATOM     20  O   UNL     1      -8.985  -9.472   9.103  1.00  0.00    -0.504 OA
ATOM     21  H   UNL     1      -9.278 -10.003   8.291  1.00  0.00     0.293 HD
ENDBRANCH  17  20
ENDBRANCH   1  12
BRANCH   6  22
ATOM     22  O   UNL     1       0.423  -9.273   7.793  1.00  0.00    -0.507 OA
ATOM     23  H   UNL     1       1.292  -9.171   7.283  1.00  0.00     0.293 HD
ENDBRANCH   6  22
BRANCH   8  24
ATOM     24  O   UNL     1       0.778  -5.058  10.116  1.00  0.00    -0.508 OA
ATOM     25  H   UNL     1       0.852  -4.143   9.684  1.00  0.00     0.293 HD
ENDBRANCH   8  24
TORSDOF 5
ENDMDL
MODEL 2
REMARK VINA RESULT:    -4.499      1.420      7.421
REMARK INTER + INTRA:          -5.575
REMARK INTER:                  -5.299
REMARK INTRA:                  -0.277
REMARK UNBOUND:                -0.287
REMARK SMILES O=c1cc(-c2ccc(O)c(O)c2)oc2cc(O)cc(O)c12
REMARK SMILES IDX 4 1 3 2 2 3 1 4 21 5 19 6 18 7 16 8 15 9 14 10 13 11 5 12
REMARK SMILES IDX 6 13 7 14 8 15 12 16 10 17 9 18 11 20 20 22 17 24
REMARK H PARENT 9 19 11 21 20 23 17 25
REMARK Flexibility Score: inf
ROOT
ATOM      1  C   UNL     1      -4.538  -7.154   8.890  1.00  0.00     0.138 A 
ATOM      2  C   UNL     1      -5.081  -5.930   8.461  1.00  0.00     0.100 A 
ATOM      3  C   UNL     1      -6.467  -5.771   8.419  1.00  0.00     0.197 A 
ATOM      4  O   UNL     1      -6.943  -4.669   8.036  1.00  0.00    -0.289 OA
ATOM      5  C   UNL     1      -7.302  -6.837   8.809  1.00  0.00     0.107 A 
ATOM      6  C   UNL     1      -8.714  -6.760   8.795  1.00  0.00     0.134 A 
ATOM      7  C   UNL     1      -9.475  -7.866   9.204  1.00  0.00     0.093 A 
ATOM      8  C   UNL     1      -8.852  -9.043   9.626  1.00  0.00     0.123 A 
ATOM      9  C   UNL     1      -7.456  -9.125   9.642  1.00  0.00     0.094 A 
ATOM     10  C   UNL     1      -6.679  -8.034   9.237  1.00  0.00     0.146 A 
ATOM     11  O   UNL     1      -5.354  -8.137   9.260  1.00  0.00    -0.456 OA
ENDROOT
BRANCH   1  12
ATOM     12  C   UNL     1      -3.072  -7.379   8.956  1.00  0.00     0.021 A 
ATOM     13  C   UNL     1      -2.530  -8.562   8.424  1.00  0.00     0.016 A 
ATOM     14  C   UNL     1      -1.153  -8.795   8.467  1.00  0.00     0.051 A 
ATOM     15  C   UNL     1      -0.293  -7.847   9.033  1.00  0.00     0.157 A 
ATOM     16  C   UNL     1      -2.199  -6.424   9.512  1.00  0.00     0.062 A 
ATOM     17  C   UNL     1      -0.819  -6.654   9.555  1.00  0.00     0.158 A 
BRANCH  15  18
ATOM     18  O   UNL     1       1.080  -8.084   9.076  1.00  0.00    -0.504 OA
ATOM     19  H   UNL     1       1.751  -7.328   9.019  1.00  0.00     0.293 HD
ENDBRANCH  15  18
BRANCH  17  20
ATOM     20  O   UNL     1       0.011  -5.685  10.115  1.00  0.00    -0.504 OA
ATOM     21  H   UNL     1      -0.353  -4.827  10.511  1.00  0.00     0.293 HD
ENDBRANCH  17  20
ENDBRANCH   1  12
BRANCH   6  22
ATOM     22  O   UNL     1      -9.365  -5.597   8.379  1.00  0.00    -0.507 OA
ATOM     23  H   UNL     1     -10.363  -5.474   8.499  1.00  0.00     0.293 HD
ENDBRANCH   6  22
BRANCH   8  24
ATOM     24  O   UNL     1      -9.631 -10.125  10.028  1.00  0.00    -0.508 OA
ATOM     25  H   UNL     1     -10.585 -10.002  10.347  1.00  0.00     0.293 HD
ENDBRANCH   8  24
TORSDOF 5
ENDMDL
MODEL 3
REMARK VINA RESULT:    -4.458      5.716      8.348
REMARK INTER + INTRA:          -5.527
REMARK INTER:                  -5.245
REMARK INTRA:                  -0.282
REMARK UNBOUND:                -0.287
REMARK SMILES O=c1cc(-c2ccc(O)c(O)c2)oc2cc(O)cc(O)c12
REMARK SMILES IDX 4 1 3 2 2 3 1 4 21 5 19 6 18 7 16 8 15 9 14 10 13 11 5 12
REMARK SMILES IDX 6 13 7 14 8 15 12 16 10 17 9 18 11 20 20 22 17 24
REMARK H PARENT 9 19 11 21 20 23 17 25
REMARK Flexibility Score: inf
ROOT
ATOM      1  C   UNL     1      -8.823  -7.858   3.986  1.00  0.00     0.138 A 
ATOM      2  C   UNL     1      -9.307  -6.608   4.406  1.00  0.00     0.100 A 
ATOM      3  C   UNL     1      -9.257  -6.272   5.760  1.00  0.00     0.197 A 
ATOM      4  O   UNL     1      -9.692  -5.148   6.127  1.00  0.00    -0.289 OA
ATOM      5  C   UNL     1      -8.718  -7.189   6.685  1.00  0.00     0.107 A 
ATOM      6  C   UNL     1      -8.632  -6.929   8.073  1.00  0.00     0.134 A 
ATOM      7  C   UNL     1      -8.076  -7.893   8.927  1.00  0.00     0.093 A 
ATOM      8  C   UNL     1      -7.607  -9.108   8.422  1.00  0.00     0.123 A 
ATOM      9  C   UNL     1      -7.690  -9.371   7.051  1.00  0.00     0.094 A 
ATOM     10  C   UNL     1      -8.242  -8.423   6.182  1.00  0.00     0.146 A 
ATOM     11  O   UNL     1      -8.311  -8.697   4.883  1.00  0.00    -0.456 OA
ENDROOT
BRANCH   1  12
ATOM     12  C   UNL     1      -8.849  -8.268   2.559  1.00  0.00     0.021 A 
ATOM     13  C   UNL     1     -10.067  -8.247   1.857  1.00  0.00     0.016 A 
ATOM     14  C   UNL     1     -10.118  -8.622   0.512  1.00  0.00     0.051 A 
ATOM     15  C   UNL     1      -8.952  -9.013  -0.158  1.00  0.00     0.157 A 
ATOM     16  C   UNL     1      -7.679  -8.651   1.875  1.00  0.00     0.062 A 
ATOM     17  C   UNL     1      -7.727  -9.024   0.527  1.00  0.00     0.158 A 
BRANCH  15  18
ATOM     18  O   UNL     1      -9.008  -9.388  -1.499  1.00  0.00    -0.504 OA
ATOM     19  H   UNL     1      -9.844  -9.792  -1.904  1.00  0.00     0.293 HD
ENDBRANCH  15  18
BRANCH  17  20
ATOM     20  O   UNL     1      -6.547  -9.399  -0.114  1.00  0.00    -0.504 OA
ATOM     21  H   UNL     1      -6.172 -10.338  -0.047  1.00  0.00     0.293 HD
ENDBRANCH  17  20
ENDBRANCH   1  12
BRANCH   6  22
ATOM     22  O   UNL     1      -9.090  -5.724   8.607  1.00  0.00    -0.507 OA
ATOM     23  H   UNL     1      -9.921  -5.266   8.253  1.00  0.00     0.293 HD
ENDBRANCH   6  22
BRANCH   8  24
ATOM     24  O   UNL     1      -7.059 -10.048   9.292  1.00  0.00    -0.508 OA
ATOM     25  H   UNL     1      -7.027  -9.888  10.292  1.00  0.00     0.293 HD
ENDBRANCH   8  24
TORSDOF 5
ENDMDL
MODEL 4
REMARK VINA RESULT:    -4.417      4.306      7.167
REMARK INTER + INTRA:          -5.479
REMARK INTER:                  -5.171
REMARK INTRA:                  -0.308
REMARK UNBOUND:                -0.287
REMARK SMILES O=c1cc(-c2ccc(O)c(O)c2)oc2cc(O)cc(O)c12
REMARK SMILES IDX 4 1 3 2 2 3 1 4 21 5 19 6 18 7 16 8 15 9 14 10 13 11 5 12
REMARK SMILES IDX 6 13 7 14 8 15 12 16 10 17 9 18 11 20 20 22 17 24
REMARK H PARENT 9 19 11 21 20 23 17 25
REMARK Flexibility Score: inf
ROOT
ATOM      1  C   UNL     1      -7.868  -4.478   8.482  1.00  0.00     0.138 A 
ATOM      2  C   UNL     1      -6.746  -4.867   9.234  1.00  0.00     0.100 A 
ATOM      3  C   UNL     1      -6.501  -6.224   9.451  1.00  0.00     0.197 A 
ATOM      4  O   UNL     1      -5.492  -6.562  10.125  1.00  0.00    -0.289 OA
ATOM      5  C   UNL     1      -7.380  -7.184   8.911  1.00  0.00     0.107 A 
ATOM      6  C   UNL     1      -7.206  -8.577   9.085  1.00  0.00     0.134 A 
ATOM      7  C   UNL     1      -8.124  -9.469   8.510  1.00  0.00     0.093 A 
ATOM      8  C   UNL     1      -9.208  -8.996   7.767  1.00  0.00     0.123 A 
ATOM      9  C   UNL     1      -9.385  -7.620   7.592  1.00  0.00     0.094 A 
ATOM     10  C   UNL     1      -8.481  -6.714   8.157  1.00  0.00     0.146 A 
ATOM     11  O   UNL     1      -8.672  -5.411   7.978  1.00  0.00    -0.456 OA
ENDROOT
BRANCH   1  12
ATOM     12  C   UNL     1      -8.177  -3.050   8.217  1.00  0.00     0.021 A 
ATOM     13  C   UNL     1      -7.737  -2.069   9.123  1.00  0.00     0.016 A 
ATOM     14  C   UNL     1      -8.009  -0.718   8.894  1.00  0.00     0.051 A 
ATOM     15  C   UNL     1      -8.714  -0.323   7.751  1.00  0.00     0.157 A 
ATOM     16  C   UNL     1      -8.875  -2.644   7.063  1.00  0.00     0.062 A 
ATOM     17  C   UNL     1      -9.146  -1.291   6.830  1.00  0.00     0.158 A 
BRANCH  15  18
ATOM     18  O   UNL     1      -8.984   1.026   7.527  1.00  0.00    -0.504 OA
ATOM     19  H   UNL     1      -8.309   1.747   7.749  1.00  0.00     0.293 HD
ENDBRANCH  15  18
BRANCH  17  20
ATOM     20  O   UNL     1      -9.841  -0.929   5.678  1.00  0.00    -0.504 OA
ATOM     21  H   UNL     1      -9.950  -1.561   4.893  1.00  0.00     0.293 HD
ENDBRANCH  17  20
ENDBRANCH   1  12
BRANCH   6  22
ATOM     22  O   UNL     1      -6.133  -9.080   9.821  1.00  0.00    -0.507 OA
ATOM     23  H   UNL     1      -5.260  -9.344   9.379  1.00  0.00     0.293 HD
ENDBRANCH   6  22
BRANCH   8  24
ATOM     24  O   UNL     1     -10.104  -9.904   7.206  1.00  0.00    -0.508 OA
ATOM     25  H   UNL     1     -10.984 -10.126   7.656  1.00  0.00     0.293 HD
ENDBRANCH   8  24
TORSDOF 5
ENDMDL
MODEL 5
REMARK VINA RESULT:    -4.395      1.360      3.007
REMARK INTER + INTRA:          -5.453
REMARK INTER:                  -5.159
REMARK INTRA:                  -0.293
REMARK UNBOUND:                -0.287
REMARK SMILES O=c1cc(-c2ccc(O)c(O)c2)oc2cc(O)cc(O)c12
REMARK SMILES IDX 4 1 3 2 2 3 1 4 21 5 19 6 18 7 16 8 15 9 14 10 13 11 5 12
REMARK SMILES IDX 6 13 7 14 8 15 12 16 10 17 9 18 11 20 20 22 17 24
REMARK H PARENT 9 19 11 21 20 23 17 25
REMARK Flexibility Score: inf
ROOT
ATOM      1  C   UNL     1      -4.712  -7.905   8.485  1.00  0.00     0.138 A 
ATOM      2  C   UNL     1      -4.537  -6.595   8.963  1.00  0.00     0.100 A 
ATOM      3  C   UNL     1      -3.249  -6.130   9.235  1.00  0.00     0.197 A 
ATOM      4  O   UNL     1      -3.102  -4.954   9.662  1.00  0.00    -0.289 OA
ATOM      5  C   UNL     1      -2.144  -6.979   9.024  1.00  0.00     0.107 A 
ATOM      6  C   UNL     1      -0.808  -6.588   9.276  1.00  0.00     0.134 A 
ATOM      7  C   UNL     1       0.238  -7.492   9.034  1.00  0.00     0.093 A 
ATOM      8  C   UNL     1      -0.026  -8.774   8.547  1.00  0.00     0.123 A 
ATOM      9  C   UNL     1      -1.345  -9.166   8.296  1.00  0.00     0.094 A 
ATOM     10  C   UNL     1      -2.402  -8.280   8.531  1.00  0.00     0.146 A 
ATOM     11  O   UNL     1      -3.647  -8.677   8.287  1.00  0.00    -0.456 OA
ENDROOT
BRANCH   1  12
ATOM     12  C   UNL     1      -6.058  -8.452   8.177  1.00  0.00     0.021 A 
ATOM     13  C   UNL     1      -6.171  -9.586   7.354  1.00  0.00     0.016 A 
ATOM     14  C   UNL     1      -7.425 -10.125   7.055  1.00  0.00     0.051 A 
ATOM     15  C   UNL     1      -8.586  -9.547   7.581  1.00  0.00     0.157 A 
ATOM     16  C   UNL     1      -7.230  -7.883   8.713  1.00  0.00     0.062 A 
ATOM     17  C   UNL     1      -8.487  -8.423   8.417  1.00  0.00     0.158 A 
BRANCH  15  18
ATOM     18  O   UNL     1      -9.836 -10.086   7.279  1.00  0.00    -0.504 OA
ATOM     19  H   UNL     1     -10.495  -9.598   6.685  1.00  0.00     0.293 HD
ENDBRANCH  15  18
BRANCH  17  20
ATOM     20  O   UNL     1      -9.623  -7.831   8.966  1.00  0.00    -0.504 OA
ATOM     21  H   UNL     1      -9.671  -6.839   9.166  1.00  0.00     0.293 HD
ENDBRANCH  17  20
ENDBRANCH   1  12
BRANCH   6  22
ATOM     22  O   UNL     1      -0.512  -5.314   9.761  1.00  0.00    -0.507 OA
ATOM     23  H   UNL     1       0.054  -4.660   9.234  1.00  0.00     0.293 HD
ENDBRANCH   6  22
BRANCH   8  24
ATOM     24  O   UNL     1       1.031  -9.651   8.315  1.00  0.00    -0.508 OA
ATOM     25  H   UNL     1       1.988  -9.323   8.259  1.00  0.00     0.293 HD
ENDBRANCH   8  24
TORSDOF 5
ENDMDL
MODEL 6
REMARK VINA RESULT:    -4.363     23.323     24.820
REMARK INTER + INTRA:          -5.415
REMARK INTER:                  -5.118
REMARK INTRA:                  -0.297
REMARK UNBOUND:                -0.287
REMARK SMILES O=c1cc(-c2ccc(O)c(O)c2)oc2cc(O)cc(O)c12
REMARK SMILES IDX 4 1 3 2 2 3 1 4 21 5 19 6 18 7 16 8 15 9 14 10 13 11 5 12
REMARK SMILES IDX 6 13 7 14 8 15 12 16 10 17 9 18 11 20 20 22 17 24
REMARK H PARENT 9 19 11 21 20 23 17 25
REMARK Flexibility Score: inf
ROOT
ATOM      1  C   UNL     1      -4.046   7.824  -9.371  1.00  0.00     0.138 A 
ATOM      2  C   UNL     1      -4.438   6.530  -9.754  1.00  0.00     0.100 A 
ATOM      3  C   UNL     1      -5.790   6.185  -9.726  1.00  0.00     0.197 A 
ATOM      4  O   UNL     1      -6.131   5.023 -10.073  1.00  0.00    -0.289 OA
ATOM      5  C   UNL     1      -6.743   7.139  -9.317  1.00  0.00     0.107 A 
ATOM      6  C   UNL     1      -8.131   6.871  -9.257  1.00  0.00     0.134 A 
ATOM      7  C   UNL     1      -9.016   7.878  -8.844  1.00  0.00     0.093 A 
ATOM      8  C   UNL     1      -8.541   9.143  -8.489  1.00  0.00     0.123 A 
ATOM      9  C   UNL     1      -7.170   9.414  -8.546  1.00  0.00     0.094 A 
ATOM     10  C   UNL     1      -6.271   8.423  -8.955  1.00  0.00     0.146 A 
ATOM     11  O   UNL     1      -4.973   8.705  -8.999  1.00  0.00    -0.456 OA
ENDROOT
BRANCH   1  12
ATOM     12  C   UNL     1      -2.623   8.247  -9.383  1.00  0.00     0.021 A 
ATOM     13  C   UNL     1      -2.287   9.553  -8.985  1.00  0.00     0.016 A 
ATOM     14  C   UNL     1      -0.955   9.974  -8.981  1.00  0.00     0.051 A 
ATOM     15  C   UNL     1       0.065   9.095  -9.363  1.00  0.00     0.157 A 
ATOM     16  C   UNL     1      -1.590   7.365  -9.755  1.00  0.00     0.062 A 
ATOM     17  C   UNL     1      -0.255   7.783  -9.749  1.00  0.00     0.158 A 
BRANCH  15  18
ATOM     18  O   UNL     1       1.393   9.519  -9.359  1.00  0.00    -0.504 OA
ATOM     19  H   UNL     1       1.788  10.020  -8.572  1.00  0.00     0.293 HD
ENDBRANCH  15  18
BRANCH  17  20
ATOM     20  O   UNL     1       0.739   6.881 -10.125  1.00  0.00    -0.504 OA
ATOM     21  H   UNL     1       0.553   6.102 -10.745  1.00  0.00     0.293 HD
ENDBRANCH  17  20
ENDBRANCH   1  12
BRANCH   6  22
ATOM     22  O   UNL     1      -8.635   5.617  -9.605  1.00  0.00    -0.507 OA
ATOM     23  H   UNL     1      -9.046   4.998  -8.917  1.00  0.00     0.293 HD
ENDBRANCH   6  22
BRANCH   8  24
ATOM     24  O   UNL     1      -9.441  10.125  -8.083  1.00  0.00    -0.508 OA
ATOM     25  H   UNL     1      -9.206  10.792  -7.357  1.00  0.00     0.293 HD
ENDBRANCH   8  24
TORSDOF 5
ENDMDL
MODEL 7
REMARK VINA RESULT:    -4.358     17.677     19.641
REMARK INTER + INTRA:          -5.410
REMARK INTER:                  -5.117
REMARK INTRA:                  -0.293
REMARK UNBOUND:                -0.287
REMARK SMILES O=c1cc(-c2ccc(O)c(O)c2)oc2cc(O)cc(O)c12
REMARK SMILES IDX 4 1 3 2 2 3 1 4 21 5 19 6 18 7 16 8 15 9 14 10 13 11 5 12
REMARK SMILES IDX 6 13 7 14 8 15 12 16 10 17 9 18 11 20 20 22 17 24
REMARK H PARENT 9 19 11 21 20 23 17 25
REMARK Flexibility Score: inf
ROOT
ATOM      1  C   UNL     1      -9.839   5.182  -3.495  1.00  0.00     0.138 A 
ATOM      2  C   UNL     1      -9.896   3.842  -3.076  1.00  0.00     0.100 A 
ATOM      3  C   UNL     1      -9.968   2.826  -4.030  1.00  0.00     0.197 A 
ATOM      4  O   UNL     1     -10.017   1.628  -3.645  1.00  0.00    -0.289 OA
ATOM      5  C   UNL     1      -9.981   3.158  -5.400  1.00  0.00     0.107 A 
ATOM      6  C   UNL     1     -10.055   2.192  -6.431  1.00  0.00     0.134 A 
ATOM      7  C   UNL     1     -10.057   2.605  -7.771  1.00  0.00     0.093 A 
ATOM      8  C   UNL     1      -9.987   3.961  -8.100  1.00  0.00     0.123 A 
ATOM      9  C   UNL     1      -9.914   4.921  -7.085  1.00  0.00     0.094 A 
ATOM     10  C   UNL     1      -9.911   4.530  -5.742  1.00  0.00     0.146 A 
ATOM     11  O   UNL     1      -9.843   5.461  -4.796  1.00  0.00    -0.456 OA
ENDROOT
BRANCH   1  12
ATOM     12  C   UNL     1      -9.759   6.303  -2.525  1.00  0.00     0.021 A 
ATOM     13  C   UNL     1     -10.122   7.598  -2.933  1.00  0.00     0.016 A 
ATOM     14  C   UNL     1     -10.063   8.668  -2.038  1.00  0.00     0.051 A 
ATOM     15  C   UNL     1      -9.650   8.462  -0.716  1.00  0.00     0.157 A 
ATOM     16  C   UNL     1      -9.357   6.101  -1.190  1.00  0.00     0.062 A 
ATOM     17  C   UNL     1      -9.299   7.171  -0.290  1.00  0.00     0.158 A 
BRANCH  15  18
ATOM     18  O   UNL     1      -9.590   9.534   0.174  1.00  0.00    -0.504 OA
ATOM     19  H   UNL     1      -8.859  10.232   0.116  1.00  0.00     0.293 HD
ENDBRANCH  15  18
BRANCH  17  20
ATOM     20  O   UNL     1      -8.894   6.931   1.022  1.00  0.00    -0.504 OA
ATOM     21  H   UNL     1      -8.804   7.677   1.703  1.00  0.00     0.293 HD
ENDBRANCH  17  20
ENDBRANCH   1  12
BRANCH   6  22
ATOM     22  O   UNL     1     -10.125   0.830  -6.134  1.00  0.00    -0.507 OA
ATOM     23  H   UNL     1     -10.735   0.474  -5.409  1.00  0.00     0.293 HD
ENDBRANCH   6  22
BRANCH   8  24
ATOM     24  O   UNL     1      -9.989   4.344  -9.439  1.00  0.00    -0.508 OA
ATOM     25  H   UNL     1     -10.511   3.825 -10.137  1.00  0.00     0.293 HD
ENDBRANCH   8  24
TORSDOF 5
ENDMDL
MODEL 8
REMARK VINA RESULT:    -4.335      6.129      8.294
REMARK INTER + INTRA:          -5.382
REMARK INTER:                  -5.093
REMARK INTRA:                  -0.289
REMARK UNBOUND:                -0.287
REMARK SMILES O=c1cc(-c2ccc(O)c(O)c2)oc2cc(O)cc(O)c12
REMARK SMILES IDX 4 1 3 2 2 3 1 4 21 5 19 6 18 7 16 8 15 9 14 10 13 11 5 12
REMARK SMILES IDX 6 13 7 14 8 15 12 16 10 17 9 18 11 20 20 22 17 24
REMARK H PARENT 9 19 11 21 20 23 17 25
REMARK Flexibility Score: inf
ROOT
ATOM      1  C   UNL     1      -8.171  -8.447   4.317  1.00  0.00     0.138 A 
ATOM      2  C   UNL     1      -6.950  -9.107   4.101  1.00  0.00     0.100 A 
ATOM      3  C   UNL     1      -6.572  -9.444   2.800  1.00  0.00     0.197 A 
ATOM      4  O   UNL     1      -5.474 -10.034   2.617  1.00  0.00    -0.289 OA
ATOM      5  C   UNL     1      -7.420  -9.117   1.723  1.00  0.00     0.107 A 
ATOM      6  C   UNL     1      -7.114  -9.425   0.376  1.00  0.00     0.134 A 
ATOM      7  C   UNL     1      -8.009  -9.059  -0.640  1.00  0.00     0.093 A 
ATOM      8  C   UNL     1      -9.200  -8.394  -0.337  1.00  0.00     0.123 A 
ATOM      9  C   UNL     1      -9.507  -8.088   0.993  1.00  0.00     0.094 A 
ATOM     10  C   UNL     1      -8.628  -8.444   2.021  1.00  0.00     0.146 A 
ATOM     11  O   UNL     1      -8.944  -8.143   3.276  1.00  0.00    -0.456 OA
ENDROOT
BRANCH   1  12
ATOM     12  C   UNL     1      -8.623  -8.062   5.678  1.00  0.00     0.021 A 
ATOM     13  C   UNL     1      -8.574  -9.008   6.716  1.00  0.00     0.016 A 
ATOM     14  C   UNL     1      -8.986  -8.669   8.007  1.00  0.00     0.051 A 
ATOM     15  C   UNL     1      -9.445  -7.376   8.285  1.00  0.00     0.157 A 
ATOM     16  C   UNL     1      -9.074  -6.759   5.968  1.00  0.00     0.062 A 
ATOM     17  C   UNL     1      -9.485  -6.416   7.262  1.00  0.00     0.158 A 
BRANCH  15  18
ATOM     18  O   UNL     1      -9.857  -7.042   9.575  1.00  0.00    -0.504 OA
ATOM     19  H   UNL     1     -10.642  -7.504  10.018  1.00  0.00     0.293 HD
ENDBRANCH  15  18
BRANCH  17  20
ATOM     20  O   UNL     1      -9.926  -5.117   7.509  1.00  0.00    -0.504 OA
ATOM     21  H   UNL     1      -9.518  -4.538   8.234  1.00  0.00     0.293 HD
ENDBRANCH  17  20
ENDBRANCH   1  12
BRANCH   6  22
ATOM     22  O   UNL     1      -5.932 -10.087   0.042  1.00  0.00    -0.507 OA
ATOM     23  H   UNL     1      -5.281 -10.404   0.749  1.00  0.00     0.293 HD
ENDBRANCH   6  22
BRANCH   8  24
ATOM     24  O   UNL     1     -10.070  -8.042  -1.366  1.00  0.00    -0.508 OA
ATOM     25  H   UNL     1     -11.073  -8.009  -1.223  1.00  0.00     0.293 HD
ENDBRANCH   8  24
TORSDOF 5
ENDMDL
MODEL 9
REMARK VINA RESULT:    -4.301     23.303     23.935
REMARK INTER + INTRA:          -5.343
REMARK INTER:                  -5.038
REMARK INTRA:                  -0.305
REMARK UNBOUND:                -0.287
REMARK SMILES O=c1cc(-c2ccc(O)c(O)c2)oc2cc(O)cc(O)c12
REMARK SMILES IDX 4 1 3 2 2 3 1 4 21 5 19 6 18 7 16 8 15 9 14 10 13 11 5 12
REMARK SMILES IDX 6 13 7 14 8 15 12 16 10 17 9 18 11 20 20 22 17 24
REMARK H PARENT 9 19 11 21 20 23 17 25
REMARK Flexibility Score: inf
ROOT
ATOM      1  C   UNL     1      -3.798   8.395  -9.095  1.00  0.00     0.138 A 
ATOM      2  C   UNL     1      -2.872   9.451  -9.138  1.00  0.00     0.100 A 
ATOM      3  C   UNL     1      -1.520   9.170  -9.344  1.00  0.00     0.197 A 
ATOM      4  O   UNL     1      -0.697  10.124  -9.384  1.00  0.00    -0.289 OA
ATOM      5  C   UNL     1      -1.104   7.834  -9.509  1.00  0.00     0.107 A 
ATOM      6  C   UNL     1       0.245   7.463  -9.720  1.00  0.00     0.134 A 
ATOM      7  C   UNL     1       0.576   6.109  -9.881  1.00  0.00     0.093 A 
ATOM      8  C   UNL     1      -0.412   5.123  -9.834  1.00  0.00     0.123 A 
ATOM      9  C   UNL     1      -1.747   5.484  -9.625  1.00  0.00     0.094 A 
ATOM     10  C   UNL     1      -2.098   6.828  -9.462  1.00  0.00     0.146 A 
ATOM     11  O   UNL     1      -3.373   7.145  -9.264  1.00  0.00    -0.456 OA
ENDROOT
BRANCH   1  12
ATOM     12  C   UNL     1      -5.247   8.634  -8.880  1.00  0.00     0.021 A 
ATOM     13  C   UNL     1      -5.660   9.738  -8.115  1.00  0.00     0.016 A 
ATOM     14  C   UNL     1      -7.018   9.989  -7.904  1.00  0.00     0.051 A 
ATOM     15  C   UNL     1      -7.987   9.147  -8.462  1.00  0.00     0.157 A 
ATOM     16  C   UNL     1      -6.229   7.798  -9.449  1.00  0.00     0.062 A 
ATOM     17  C   UNL     1      -7.590   8.049  -9.241  1.00  0.00     0.158 A 
BRANCH  15  18
ATOM     18  O   UNL     1      -9.342   9.400  -8.248  1.00  0.00    -0.504 OA
ATOM     19  H   UNL     1     -10.057   8.747  -8.543  1.00  0.00     0.293 HD
ENDBRANCH  15  18
BRANCH  17  20
ATOM     20  O   UNL     1      -8.531   7.198  -9.819  1.00  0.00    -0.504 OA
ATOM     21  H   UNL     1      -8.482   6.191  -9.717  1.00  0.00     0.293 HD
ENDBRANCH  17  20
ENDBRANCH   1  12
BRANCH   6  22
ATOM     22  O   UNL     1       1.254   8.426  -9.773  1.00  0.00    -0.507 OA
ATOM     23  H   UNL     1       1.154   9.328  -9.324  1.00  0.00     0.293 HD
ENDBRANCH   6  22
BRANCH   8  24
ATOM     24  O   UNL     1      -0.055   3.787  -9.997  1.00  0.00    -0.508 OA
ATOM     25  H   UNL     1      -0.693   3.114 -10.406  1.00  0.00     0.293 HD
ENDBRANCH   8  24
TORSDOF 5
ENDMDL
