MODEL 1
REMARK VINA RESULT:     0.000      0.000      0.000
REMARK INTER + INTRA:          -0.330
REMARK INTER:                   0.000
REMARK INTRA:                  -0.330
REMARK UNBOUND:                -0.330
REMARK SMILES C[C@H]1[C@H](C)CC[C@@]2(C(=O)[O-])CC[C@]3(C)C(=CC[C@H]4[C@@]5(C)CC[C@@H](O)C(C)(C)[C@H]5CC[C@@]43C)[C@@H]12
REMARK SMILES IDX 7 1 6 2 11 3 33 4 5 5 12 6 15 7 2 8 3 9 13 10 16 11 1 12
REMARK SMILES IDX 4 13 14 14 31 15 17 16 18 17 30 18 32 19 19 20 29 21 28 22
REMARK SMILES IDX 21 23 20 24 25 25 22 26 23 27 26 28 27 29 8 30 9 31 10 32
REMARK SMILES IDX 24 33
REMARK H PARENT 24 34
REMARK Flexibility Score: inf
ROOT
ATOM      1  C   UNL     1      10.062  44.603  40.664  1.00  0.00     0.017 C 
ATOM      2  C   UNL     1       9.418  43.243  40.281  1.00  0.00     0.014 C 
ATOM      3  C   UNL     1      10.711  45.178  39.386  1.00  0.00     0.014 C 
ATOM      4  C   UNL     1       9.039  45.710  41.229  1.00  0.00     0.030 C 
ATOM      5  C   UNL     1       8.263  42.840  41.203  1.00  0.00     0.004 C 
ATOM      6  C   UNL     1      11.543  46.399  39.826  1.00  0.00     0.013 C 
ATOM      7  C   UNL     1       9.251  47.124  40.711  1.00  0.00    -0.063 C 
ATOM      8  C   UNL     1       7.520  45.260  41.107  1.00  0.00    -0.003 C 
ATOM      9  C   UNL     1       7.380  43.909  41.835  1.00  0.00    -0.011 C 
ATOM     10  C   UNL     1      10.605  47.577  40.162  1.00  0.00    -0.006 C 
ATOM     11  C   UNL     1       8.198  47.999  40.705  1.00  0.00    -0.027 C 
ATOM     12  C   UNL     1       6.931  45.179  39.684  1.00  0.00     0.008 C 
ATOM     13  C   UNL     1       7.663  44.094  43.375  1.00  0.00     0.008 C 
ATOM     14  C   UNL     1      11.171  48.233  41.464  1.00  0.00     0.017 C 
ATOM     15  C   UNL     1      10.398  48.722  38.958  1.00  0.00    -0.020 C 
ATOM     16  C   UNL     1       8.007  49.026  39.637  1.00  0.00     0.032 C 
ATOM     17  C   UNL     1       8.871  48.685  38.458  1.00  0.00     0.006 C 
ATOM     18  C   UNL     1      11.287  48.456  37.657  1.00  0.00     0.008 C 
ATOM     19  C   UNL     1      10.753  50.147  39.477  1.00  0.00     0.012 C 
ATOM     20  C   UNL     1       8.512  49.145  36.955  1.00  0.00    -0.025 C 
ATOM     21  C   UNL     1      11.161  49.621  36.713  1.00  0.00     0.005 C 
ATOM     22  C   UNL     1       9.685  49.941  36.224  1.00  0.00     0.003 C 
ATOM     23  C   UNL     1       7.186  49.902  36.836  1.00  0.00     0.010 C 
ATOM     24  C   UNL     1       8.279  47.792  36.171  1.00  0.00     0.012 C 
ATOM     25  C   UNL     1       9.422  51.535  35.909  1.00  0.00    -0.006 C 
ATOM     26  C   UNL     1       7.086  50.545  35.432  1.00  0.00     0.033 C 
ATOM     27  C   UNL     1       7.927  51.831  35.447  1.00  0.00     0.120 C 
ATOM     28  C   UNL     1      10.353  51.945  34.713  1.00  0.00     0.014 C 
ATOM     29  C   UNL     1       9.743  52.506  37.094  1.00  0.00     0.014 C 
ENDROOT
BRANCH   1  30
ATOM     30  C   UNL     1      11.185  44.306  41.684  1.00  0.00     0.048 C 
ATOM     31  O   UNL     1      11.172  44.815  42.840  1.00  0.00    -0.550 OA
ATOM     32  O   UNL     1      12.246  43.423  41.424  1.00  0.00    -0.550 OA
ENDBRANCH   1  30
BRANCH  27  33
ATOM     33  O   UNL     1       7.249  52.696  36.384  1.00  0.00    -0.393 OA
ATOM     34  H   UNL     1       7.511  52.432  37.310  1.00  0.00     0.210 HD
ENDBRANCH  27  33
TORSDOF 2
ENDMDL
MODEL 2
REMARK VINA RESULT:     0.000      4.541      6.867
REMARK INTER + INTRA:          -0.330
REMARK INTER:                   0.000
REMARK INTRA:                  -0.330
REMARK UNBOUND:                -0.330
REMARK SMILES C[C@H]1[C@H](C)CC[C@@]2(C(=O)[O-])CC[C@]3(C)C(=CC[C@H]4[C@@]5(C)CC[C@@H](O)C(C)(C)[C@H]5CC[C@@]43C)[C@@H]12
REMARK SMILES IDX 7 1 6 2 11 3 33 4 5 5 12 6 15 7 2 8 3 9 13 10 16 11 1 12
REMARK SMILES IDX 4 13 14 14 31 15 17 16 18 17 30 18 32 19 19 20 29 21 28 22
REMARK SMILES IDX 21 23 20 24 25 25 22 26 23 27 26 28 27 29 8 30 9 31 10 32
REMARK SMILES IDX 24 33
REMARK H PARENT 24 34
REMARK Flexibility Score: inf
ROOT
ATOM      1  C   UNL     1      11.566  48.301  36.692  1.00  0.00     0.017 C 
ATOM      2  C   UNL     1      10.093  48.183  37.165  1.00  0.00     0.014 C 
ATOM      3  C   UNL     1      11.628  49.458  35.670  1.00  0.00     0.014 C 
ATOM      4  C   UNL     1      12.635  48.621  37.852  1.00  0.00     0.030 C 
ATOM      5  C   UNL     1       9.951  47.548  38.551  1.00  0.00     0.004 C 
ATOM      6  C   UNL     1      13.033  49.412  35.036  1.00  0.00     0.013 C 
ATOM      7  C   UNL     1      13.702  49.645  37.498  1.00  0.00    -0.063 C 
ATOM      8  C   UNL     1      11.946  48.947  39.247  1.00  0.00    -0.003 C 
ATOM      9  C   UNL     1      11.037  47.754  39.601  1.00  0.00    -0.011 C 
ATOM     10  C   UNL     1      14.079  49.933  36.044  1.00  0.00    -0.006 C 
ATOM     11  C   UNL     1      14.314  50.349  38.502  1.00  0.00    -0.027 C 
ATOM     12  C   UNL     1      11.169  50.276  39.344  1.00  0.00     0.008 C 
ATOM     13  C   UNL     1      11.908  46.461  39.832  1.00  0.00     0.008 C 
ATOM     14  C   UNL     1      15.310  48.976  35.934  1.00  0.00     0.017 C 
ATOM     15  C   UNL     1      14.546  51.530  35.862  1.00  0.00    -0.020 C 
ATOM     16  C   UNL     1      14.737  51.773  38.347  1.00  0.00     0.032 C 
ATOM     17  C   UNL     1      14.060  52.366  37.146  1.00  0.00     0.006 C 
ATOM     18  C   UNL     1      13.887  52.254  34.598  1.00  0.00     0.008 C 
ATOM     19  C   UNL     1      16.091  51.645  35.707  1.00  0.00     0.012 C 
ATOM     20  C   UNL     1      13.765  53.946  37.005  1.00  0.00    -0.025 C 
ATOM     21  C   UNL     1      14.497  53.618  34.424  1.00  0.00     0.005 C 
ATOM     22  C   UNL     1      14.340  54.594  35.666  1.00  0.00     0.003 C 
ATOM     23  C   UNL     1      14.181  54.767  38.229  1.00  0.00     0.010 C 
ATOM     24  C   UNL     1      12.189  54.052  36.960  1.00  0.00     0.012 C 
ATOM     25  C   UNL     1      15.580  55.664  35.829  1.00  0.00    -0.006 C 
ATOM     26  C   UNL     1      14.132  56.273  37.877  1.00  0.00     0.033 C 
ATOM     27  C   UNL     1      15.413  56.612  37.098  1.00  0.00     0.120 C 
ATOM     28  C   UNL     1      15.575  56.597  34.566  1.00  0.00     0.014 C 
ATOM     29  C   UNL     1      17.005  55.020  35.916  1.00  0.00     0.014 C 
ENDROOT
BRANCH   1  30
ATOM     30  C   UNL     1      11.917  46.988  35.955  1.00  0.00     0.048 C 
ATOM     31  O   UNL     1      12.865  46.250  36.345  1.00  0.00    -0.550 OA
ATOM     32  O   UNL     1      11.185  46.503  34.858  1.00  0.00    -0.550 OA
ENDBRANCH   1  30
BRANCH  27  33
ATOM     33  O   UNL     1      16.479  56.410  38.050  1.00  0.00    -0.393 OA
ATOM     34  H   UNL     1      17.266  56.023  37.572  1.00  0.00     0.210 HD
ENDBRANCH  27  33
TORSDOF 2
ENDMDL
MODEL 3
REMARK VINA RESULT:     0.000      9.031     11.112
REMARK INTER + INTRA:          -0.330
REMARK INTER:                   0.000
REMARK INTRA:                  -0.330
REMARK UNBOUND:                -0.330
REMARK SMILES C[C@H]1[C@H](C)CC[C@@]2(C(=O)[O-])CC[C@]3(C)C(=CC[C@H]4[C@@]5(C)CC[C@@H](O)C(C)(C)[C@H]5CC[C@@]43C)[C@@H]12
REMARK SMILES IDX 7 1 6 2 11 3 33 4 5 5 12 6 15 7 2 8 3 9 13 10 16 11 1 12
REMARK SMILES IDX 4 13 14 14 31 15 17 16 18 17 30 18 32 19 19 20 29 21 28 22
REMARK SMILES IDX 21 23 20 24 25 25 22 26 23 27 26 28 27 29 8 30 9 31 10 32
REMARK SMILES IDX 24 33
REMARK H PARENT 24 34
REMARK Flexibility Score: inf
ROOT
ATOM      1  C   UNL     1      12.695  46.995  30.208  1.00  0.00     0.017 C 
ATOM      2  C   UNL     1      12.916  46.275  31.565  1.00  0.00     0.014 C 
ATOM      3  C   UNL     1      11.528  47.987  30.400  1.00  0.00     0.014 C 
ATOM      4  C   UNL     1      13.957  47.830  29.662  1.00  0.00     0.030 C 
ATOM      5  C   UNL     1      14.340  45.740  31.741  1.00  0.00     0.004 C 
ATOM      6  C   UNL     1      11.164  48.518  28.999  1.00  0.00     0.013 C 
ATOM      7  C   UNL     1      13.635  49.192  29.065  1.00  0.00    -0.063 C 
ATOM      8  C   UNL     1      15.140  47.917  30.720  1.00  0.00    -0.003 C 
ATOM      9  C   UNL     1      15.517  46.474  31.108  1.00  0.00    -0.011 C 
ATOM     10  C   UNL     1      12.242  49.514  28.522  1.00  0.00    -0.006 C 
ATOM     11  C   UNL     1      14.604  50.160  29.045  1.00  0.00    -0.027 C 
ATOM     12  C   UNL     1      14.885  48.773  31.978  1.00  0.00     0.008 C 
ATOM     13  C   UNL     1      16.101  45.714  29.857  1.00  0.00     0.008 C 
ATOM     14  C   UNL     1      12.504  49.189  27.015  1.00  0.00     0.017 C 
ATOM     15  C   UNL     1      11.891  51.137  28.731  1.00  0.00    -0.020 C 
ATOM     16  C   UNL     1      14.299  51.611  29.227  1.00  0.00     0.032 C 
ATOM     17  C   UNL     1      12.918  51.762  29.796  1.00  0.00     0.006 C 
ATOM     18  C   UNL     1      10.431  51.409  29.324  1.00  0.00     0.008 C 
ATOM     19  C   UNL     1      11.992  51.908  27.381  1.00  0.00     0.012 C 
ATOM     20  C   UNL     1      12.476  53.038  30.679  1.00  0.00    -0.025 C 
ATOM     21  C   UNL     1      10.150  52.887  29.313  1.00  0.00     0.005 C 
ATOM     22  C   UNL     1      11.172  53.779  30.137  1.00  0.00     0.003 C 
ATOM     23  C   UNL     1      13.606  54.041  30.931  1.00  0.00     0.010 C 
ATOM     24  C   UNL     1      12.140  52.439  32.102  1.00  0.00     0.012 C 
ATOM     25  C   UNL     1      11.375  55.293  29.524  1.00  0.00    -0.006 C 
ATOM     26  C   UNL     1      13.013  55.344  31.517  1.00  0.00     0.033 C 
ATOM     27  C   UNL     1      12.426  56.156  30.352  1.00  0.00     0.120 C 
ATOM     28  C   UNL     1       9.997  56.039  29.628  1.00  0.00     0.014 C 
ATOM     29  C   UNL     1      11.812  55.346  28.021  1.00  0.00     0.014 C 
ENDROOT
BRANCH   1  30
ATOM     30  C   UNL     1      12.251  45.921  29.187  1.00  0.00     0.048 C 
ATOM     31  O   UNL     1      12.914  45.703  28.134  1.00  0.00    -0.550 OA
ATOM     32  O   UNL     1      11.136  45.089  29.383  1.00  0.00    -0.550 OA
ENDBRANCH   1  30
BRANCH  27  33
ATOM     33  O   UNL     1      13.570  56.509  29.544  1.00  0.00    -0.393 OA
ATOM     34  H   UNL     1      13.456  57.447  29.222  1.00  0.00     0.210 HD
ENDBRANCH  27  33
TORSDOF 2
ENDMDL
MODEL 4
REMARK VINA RESULT:     0.000      8.577     10.671
REMARK INTER + INTRA:          -0.330
REMARK INTER:                   0.000
REMARK INTRA:                  -0.330
REMARK UNBOUND:                -0.330
REMARK SMILES C[C@H]1[C@H](C)CC[C@@]2(C(=O)[O-])CC[C@]3(C)C(=CC[C@H]4[C@@]5(C)CC[C@@H](O)C(C)(C)[C@H]5CC[C@@]43C)[C@@H]12
REMARK SMILES IDX 7 1 6 2 11 3 33 4 5 5 12 6 15 7 2 8 3 9 13 10 16 11 1 12
REMARK SMILES IDX 4 13 14 14 31 15 17 16 18 17 30 18 32 19 19 20 29 21 28 22
REMARK SMILES IDX 21 23 20 24 25 25 22 26 23 27 26 28 27 29 8 30 9 31 10 32
REMARK SMILES IDX 24 33
REMARK H PARENT 24 34
REMARK Flexibility Score: inf
ROOT
ATOM      1  C   UNL     1      11.635  45.496  30.459  1.00  0.00     0.017 C 
ATOM      2  C   UNL     1      12.037  44.964  31.860  1.00  0.00     0.014 C 
ATOM      3  C   UNL     1      10.500  46.522  30.666  1.00  0.00     0.014 C 
ATOM      4  C   UNL     1      12.811  46.230  29.642  1.00  0.00     0.030 C 
ATOM      5  C   UNL     1      13.473  44.436  31.919  1.00  0.00     0.004 C 
ATOM      6  C   UNL     1       9.952  46.863  29.266  1.00  0.00     0.013 C 
ATOM      7  C   UNL     1      12.407  47.503  28.913  1.00  0.00    -0.063 C 
ATOM      8  C   UNL     1      14.123  46.442  30.513  1.00  0.00    -0.003 C 
ATOM      9  C   UNL     1      14.553  45.060  31.041  1.00  0.00    -0.011 C 
ATOM     10  C   UNL     1      10.954  47.769  28.519  1.00  0.00    -0.006 C 
ATOM     11  C   UNL     1      13.362  48.445  28.633  1.00  0.00    -0.027 C 
ATOM     12  C   UNL     1      14.035  47.465  31.665  1.00  0.00     0.008 C 
ATOM     13  C   UNL     1      14.968  44.128  29.840  1.00  0.00     0.008 C 
ATOM     14  C   UNL     1      11.014  47.239  27.049  1.00  0.00     0.017 C 
ATOM     15  C   UNL     1      10.628  49.411  28.549  1.00  0.00    -0.020 C 
ATOM     16  C   UNL     1      13.079  49.911  28.654  1.00  0.00     0.032 C 
ATOM     17  C   UNL     1      11.786  50.159  29.374  1.00  0.00     0.006 C 
ATOM     18  C   UNL     1       9.259  49.782  29.287  1.00  0.00     0.008 C 
ATOM     19  C   UNL     1      10.546  49.989  27.105  1.00  0.00     0.012 C 
ATOM     20  C   UNL     1      11.460  51.549  30.125  1.00  0.00    -0.025 C 
ATOM     21  C   UNL     1       8.974  51.249  29.111  1.00  0.00     0.005 C 
ATOM     22  C   UNL     1      10.093  52.229  29.663  1.00  0.00     0.003 C 
ATOM     23  C   UNL     1      12.610  52.561  30.086  1.00  0.00     0.010 C 
ATOM     24  C   UNL     1      11.318  51.154  31.648  1.00  0.00     0.012 C 
ATOM     25  C   UNL     1      10.208  53.643  28.828  1.00  0.00    -0.006 C 
ATOM     26  C   UNL     1      12.097  53.940  30.562  1.00  0.00     0.033 C 
ATOM     27  C   UNL     1      11.357  54.594  29.384  1.00  0.00     0.120 C 
ATOM     28  C   UNL     1       8.854  54.416  29.010  1.00  0.00     0.014 C 
ATOM     29  C   UNL     1      10.441  53.485  27.288  1.00  0.00     0.014 C 
ENDROOT
BRANCH   1  30
ATOM     30  C   UNL     1      11.063  44.300  29.662  1.00  0.00     0.048 C 
ATOM     31  O   UNL     1      11.581  43.931  28.571  1.00  0.00    -0.550 OA
ATOM     32  O   UNL     1       9.986  43.519  30.115  1.00  0.00    -0.550 OA
ENDBRANCH   1  30
BRANCH  27  33
ATOM     33  O   UNL     1      12.382  54.817  28.392  1.00  0.00    -0.393 OA
ATOM     34  H   UNL     1      12.451  54.006  27.815  1.00  0.00     0.210 HD
ENDBRANCH  27  33
TORSDOF 2
ENDMDL
MODEL 5
REMARK VINA RESULT:     0.000      3.667      5.891
REMARK INTER + INTRA:          -0.330
REMARK INTER:                   0.000
REMARK INTRA:                  -0.330
REMARK UNBOUND:                -0.330
REMARK SMILES C[C@H]1[C@H](C)CC[C@@]2(C(=O)[O-])CC[C@]3(C)C(=CC[C@H]4[C@@]5(C)CC[C@@H](O)C(C)(C)[C@H]5CC[C@@]43C)[C@@H]12
REMARK SMILES IDX 7 1 6 2 11 3 33 4 5 5 12 6 15 7 2 8 3 9 13 10 16 11 1 12
REMARK SMILES IDX 4 13 14 14 31 15 17 16 18 17 30 18 32 19 19 20 29 21 28 22
REMARK SMILES IDX 21 23 20 24 25 25 22 26 23 27 26 28 27 29 8 30 9 31 10 32
REMARK SMILES IDX 24 33
REMARK H PARENT 24 34
REMARK Flexibility Score: inf
ROOT
ATOM      1  C   UNL     1      13.474  46.016  37.213  1.00  0.00     0.017 C 
ATOM      2  C   UNL     1      14.687  46.353  36.305  1.00  0.00     0.014 C 
ATOM      3  C   UNL     1      12.490  47.203  37.122  1.00  0.00     0.014 C 
ATOM      4  C   UNL     1      12.667  44.684  36.811  1.00  0.00     0.030 C 
ATOM      5  C   UNL     1      15.431  45.112  35.804  1.00  0.00     0.004 C 
ATOM      6  C   UNL     1      11.413  46.967  38.201  1.00  0.00     0.013 C 
ATOM      7  C   UNL     1      11.150  44.791  36.876  1.00  0.00    -0.063 C 
ATOM      8  C   UNL     1      13.154  44.064  35.432  1.00  0.00    -0.003 C 
ATOM      9  C   UNL     1      14.670  43.815  35.550  1.00  0.00    -0.011 C 
ATOM     10  C   UNL     1      10.462  45.838  37.751  1.00  0.00    -0.006 C 
ATOM     11  C   UNL     1      10.387  43.952  36.107  1.00  0.00    -0.027 C 
ATOM     12  C   UNL     1      12.829  44.866  34.155  1.00  0.00     0.008 C 
ATOM     13  C   UNL     1      14.955  42.722  36.649  1.00  0.00     0.008 C 
ATOM     14  C   UNL     1      10.207  44.950  39.013  1.00  0.00     0.017 C 
ATOM     15  C   UNL     1       9.016  46.324  37.061  1.00  0.00    -0.020 C 
ATOM     16  C   UNL     1       9.095  44.375  35.490  1.00  0.00     0.032 C 
ATOM     17  C   UNL     1       8.996  45.873  35.519  1.00  0.00     0.006 C 
ATOM     18  C   UNL     1       8.807  47.908  37.053  1.00  0.00     0.008 C 
ATOM     19  C   UNL     1       7.803  45.701  37.812  1.00  0.00     0.012 C 
ATOM     20  C   UNL     1       8.117  46.707  34.455  1.00  0.00    -0.025 C 
ATOM     21  C   UNL     1       7.417  48.231  36.574  1.00  0.00     0.005 C 
ATOM     22  C   UNL     1       7.059  47.696  35.123  1.00  0.00     0.003 C 
ATOM     23  C   UNL     1       7.449  45.839  33.384  1.00  0.00     0.010 C 
ATOM     24  C   UNL     1       9.172  47.583  33.668  1.00  0.00     0.012 C 
ATOM     25  C   UNL     1       5.467  47.328  34.927  1.00  0.00    -0.006 C 
ATOM     26  C   UNL     1       6.410  46.687  32.612  1.00  0.00     0.033 C 
ATOM     27  C   UNL     1       5.140  46.767  33.473  1.00  0.00     0.120 C 
ATOM     28  C   UNL     1       4.645  48.656  35.093  1.00  0.00     0.014 C 
ATOM     29  C   UNL     1       4.892  46.301  35.960  1.00  0.00     0.014 C 
ENDROOT
BRANCH   1  30
ATOM     30  C   UNL     1      13.998  45.936  38.666  1.00  0.00     0.048 C 
ATOM     31  O   UNL     1      13.876  44.881  39.350  1.00  0.00    -0.550 OA
ATOM     32  O   UNL     1      14.686  46.988  39.294  1.00  0.00    -0.550 OA
ENDBRANCH   1  30
BRANCH  27  33
ATOM     33  O   UNL     1       4.655  45.408  33.530  1.00  0.00    -0.393 OA
ATOM     34  H   UNL     1       4.324  45.148  32.624  1.00  0.00     0.210 HD
ENDBRANCH  27  33
TORSDOF 2
ENDMDL
MODEL 6
REMARK VINA RESULT:     0.000      5.827     10.406
REMARK INTER + INTRA:          -0.330
REMARK INTER:                   0.000
REMARK INTRA:                  -0.330
REMARK UNBOUND:                -0.330
REMARK SMILES C[C@H]1[C@H](C)CC[C@@]2(C(=O)[O-])CC[C@]3(C)C(=CC[C@H]4[C@@]5(C)CC[C@@H](O)C(C)(C)[C@H]5CC[C@@]43C)[C@@H]12
REMARK SMILES IDX 7 1 6 2 11 3 33 4 5 5 12 6 15 7 2 8 3 9 13 10 16 11 1 12
REMARK SMILES IDX 4 13 14 14 31 15 17 16 18 17 30 18 32 19 19 20 29 21 28 22
REMARK SMILES IDX 21 23 20 24 25 25 22 26 23 27 26 28 27 29 8 30 9 31 10 32
REMARK SMILES IDX 24 33
REMARK H PARENT 24 34
REMARK Flexibility Score: inf
ROOT
ATOM      1  C   UNL     1       4.255  55.099  34.068  1.00  0.00     0.017 C 
ATOM      2  C   UNL     1       2.905  54.960  33.315  1.00  0.00     0.014 C 
ATOM      3  C   UNL     1       3.927  55.494  35.525  1.00  0.00     0.014 C 
ATOM      4  C   UNL     1       5.152  53.764  34.118  1.00  0.00     0.030 C 
ATOM      5  C   UNL     1       2.982  54.027  32.102  1.00  0.00     0.004 C 
ATOM      6  C   UNL     1       5.267  55.858  36.195  1.00  0.00     0.013 C 
ATOM      7  C   UNL     1       5.815  53.468  35.455  1.00  0.00    -0.063 C 
ATOM      8  C   UNL     1       4.392  52.492  33.544  1.00  0.00    -0.003 C 
ATOM      9  C   UNL     1       3.934  52.836  32.113  1.00  0.00    -0.011 C 
ATOM     10  C   UNL     1       6.076  54.574  36.477  1.00  0.00    -0.006 C 
ATOM     11  C   UNL     1       6.154  52.176  35.762  1.00  0.00    -0.027 C 
ATOM     12  C   UNL     1       3.214  51.950  34.380  1.00  0.00     0.008 C 
ATOM     13  C   UNL     1       5.188  53.057  31.183  1.00  0.00     0.008 C 
ATOM     14  C   UNL     1       7.558  54.895  36.093  1.00  0.00     0.017 C 
ATOM     15  C   UNL     1       5.981  53.970  38.035  1.00  0.00    -0.020 C 
ATOM     16  C   UNL     1       6.075  51.630  37.150  1.00  0.00     0.032 C 
ATOM     17  C   UNL     1       5.241  52.544  37.999  1.00  0.00     0.006 C 
ATOM     18  C   UNL     1       5.121  54.881  39.028  1.00  0.00     0.008 C 
ATOM     19  C   UNL     1       7.399  53.817  38.661  1.00  0.00     0.012 C 
ATOM     20  C   UNL     1       4.434  52.030  39.297  1.00  0.00    -0.025 C 
ATOM     21  C   UNL     1       5.237  54.348  40.430  1.00  0.00     0.005 C 
ATOM     22  C   UNL     1       4.761  52.847  40.628  1.00  0.00     0.003 C 
ATOM     23  C   UNL     1       4.548  50.523  39.544  1.00  0.00     0.010 C 
ATOM     24  C   UNL     1       2.913  52.270  38.940  1.00  0.00     0.012 C 
ATOM     25  C   UNL     1       5.571  52.045  41.815  1.00  0.00    -0.006 C 
ATOM     26  C   UNL     1       3.998  50.190  40.951  1.00  0.00     0.033 C 
ATOM     27  C   UNL     1       5.093  50.535  41.973  1.00  0.00     0.120 C 
ATOM     28  C   UNL     1       5.255  52.763  43.176  1.00  0.00     0.014 C 
ATOM     29  C   UNL     1       7.128  52.026  41.659  1.00  0.00     0.014 C 
ENDROOT
BRANCH   1  30
ATOM     30  C   UNL     1       5.026  56.268  33.414  1.00  0.00     0.048 C 
ATOM     31  O   UNL     1       6.166  56.094  32.898  1.00  0.00    -0.550 OA
ATOM     32  O   UNL     1       4.501  57.566  33.296  1.00  0.00    -0.550 OA
ENDBRANCH   1  30
BRANCH  27  33
ATOM     33  O   UNL     1       6.164  49.611  41.682  1.00  0.00    -0.393 OA
ATOM     34  H   UNL     1       6.597  49.884  40.825  1.00  0.00     0.210 HD
ENDBRANCH  27  33
TORSDOF 2
ENDMDL
MODEL 7
REMARK VINA RESULT:     0.000      5.384      7.909
REMARK INTER + INTRA:          -0.330
REMARK INTER:                   0.000
REMARK INTRA:                  -0.330
REMARK UNBOUND:                -0.330
REMARK SMILES C[C@H]1[C@H](C)CC[C@@]2(C(=O)[O-])CC[C@]3(C)C(=CC[C@H]4[C@@]5(C)CC[C@@H](O)C(C)(C)[C@H]5CC[C@@]43C)[C@@H]12
REMARK SMILES IDX 7 1 6 2 11 3 33 4 5 5 12 6 15 7 2 8 3 9 13 10 16 11 1 12
REMARK SMILES IDX 4 13 14 14 31 15 17 16 18 17 30 18 32 19 19 20 29 21 28 22
REMARK SMILES IDX 21 23 20 24 25 25 22 26 23 27 26 28 27 29 8 30 9 31 10 32
REMARK SMILES IDX 24 33
REMARK H PARENT 24 34
REMARK Flexibility Score: inf
ROOT
ATOM      1  C   UNL     1       8.042  54.166  40.563  1.00  0.00     0.017 C 
ATOM      2  C   UNL     1       6.571  54.565  40.270  1.00  0.00     0.014 C 
ATOM      3  C   UNL     1       8.246  52.736  40.018  1.00  0.00     0.014 C 
ATOM      4  C   UNL     1       9.155  55.109  39.884  1.00  0.00     0.030 C 
ATOM      5  C   UNL     1       6.361  56.079  40.179  1.00  0.00     0.004 C 
ATOM      6  C   UNL     1       9.626  52.265  40.521  1.00  0.00     0.013 C 
ATOM      7  C   UNL     1      10.345  54.384  39.274  1.00  0.00    -0.063 C 
ATOM      8  C   UNL     1       8.531  56.166  38.875  1.00  0.00    -0.003 C 
ATOM      9  C   UNL     1       7.476  56.976  39.652  1.00  0.00    -0.011 C 
ATOM     10  C   UNL     1      10.742  52.979  39.730  1.00  0.00    -0.006 C 
ATOM     11  C   UNL     1      11.056  54.989  38.271  1.00  0.00    -0.027 C 
ATOM     12  C   UNL     1       7.938  55.610  37.564  1.00  0.00     0.008 C 
ATOM     13  C   UNL     1       8.169  57.813  40.794  1.00  0.00     0.008 C 
ATOM     14  C   UNL     1      11.834  53.378  40.776  1.00  0.00     0.017 C 
ATOM     15  C   UNL     1      11.415  52.117  38.463  1.00  0.00    -0.020 C 
ATOM     16  C   UNL     1      11.663  54.227  37.138  1.00  0.00     0.032 C 
ATOM     17  C   UNL     1      11.059  52.855  37.081  1.00  0.00     0.006 C 
ATOM     18  C   UNL     1      10.845  50.630  38.321  1.00  0.00     0.008 C 
ATOM     19  C   UNL     1      12.960  52.006  38.623  1.00  0.00     0.012 C 
ATOM     20  C   UNL     1      10.975  51.998  35.717  1.00  0.00    -0.025 C 
ATOM     21  C   UNL     1      11.629  49.888  37.273  1.00  0.00     0.005 C 
ATOM     22  C   UNL     1      11.617  50.542  35.827  1.00  0.00     0.003 C 
ATOM     23  C   UNL     1      11.509  52.735  34.485  1.00  0.00     0.010 C 
ATOM     24  C   UNL     1       9.426  51.828  35.449  1.00  0.00     0.012 C 
ATOM     25  C   UNL     1      12.990  50.265  34.962  1.00  0.00    -0.006 C 
ATOM     26  C   UNL     1      11.657  51.737  33.313  1.00  0.00     0.033 C 
ATOM     27  C   UNL     1      12.963  50.956  33.528  1.00  0.00     0.120 C 
ATOM     28  C   UNL     1      13.095  48.718  34.716  1.00  0.00     0.014 C 
ATOM     29  C   UNL     1      14.317  50.708  35.666  1.00  0.00     0.014 C 
ENDROOT
BRANCH   1  30
ATOM     30  C   UNL     1       8.207  54.124  42.100  1.00  0.00     0.048 C 
ATOM     31  O   UNL     1       9.053  54.855  42.689  1.00  0.00    -0.550 OA
ATOM     32  O   UNL     1       7.405  53.331  42.938  1.00  0.00    -0.550 OA
ENDBRANCH   1  30
BRANCH  27  33
ATOM     33  O   UNL     1      14.003  51.949  33.403  1.00  0.00    -0.393 OA
ATOM     34  H   UNL     1      14.873  51.484  33.247  1.00  0.00     0.210 HD
ENDBRANCH  27  33
TORSDOF 2
ENDMDL
MODEL 8
REMARK VINA RESULT:     0.000      5.098      7.538
REMARK INTER + INTRA:          -0.330
REMARK INTER:                   0.000
REMARK INTRA:                  -0.330
REMARK UNBOUND:                -0.330
REMARK SMILES C[C@H]1[C@H](C)CC[C@@]2(C(=O)[O-])CC[C@]3(C)C(=CC[C@H]4[C@@]5(C)CC[C@@H](O)C(C)(C)[C@H]5CC[C@@]43C)[C@@H]12
REMARK SMILES IDX 7 1 6 2 11 3 33 4 5 5 12 6 15 7 2 8 3 9 13 10 16 11 1 12
REMARK SMILES IDX 4 13 14 14 31 15 17 16 18 17 30 18 32 19 19 20 29 21 28 22
REMARK SMILES IDX 21 23 20 24 25 25 22 26 23 27 26 28 27 29 8 30 9 31 10 32
REMARK SMILES IDX 24 33
REMARK H PARENT 24 34
REMARK Flexibility Score: inf
ROOT
ATOM      1  C   UNL     1       9.467  52.453  40.403  1.00  0.00     0.017 C 
ATOM      2  C   UNL     1       8.053  52.797  39.865  1.00  0.00     0.014 C 
ATOM      3  C   UNL     1       9.917  51.148  39.710  1.00  0.00     0.014 C 
ATOM      4  C   UNL     1      10.596  53.566  40.122  1.00  0.00     0.030 C 
ATOM      5  C   UNL     1       7.717  54.289  39.954  1.00  0.00     0.004 C 
ATOM      6  C   UNL     1      11.207  50.693  40.421  1.00  0.00     0.013 C 
ATOM      7  C   UNL     1      11.949  53.030  39.680  1.00  0.00    -0.063 C 
ATOM      8  C   UNL     1      10.085  54.731  39.169  1.00  0.00    -0.003 C 
ATOM      9  C   UNL     1       8.821  55.331  39.814  1.00  0.00    -0.011 C 
ATOM     10  C   UNL     1      12.383  51.599  40.000  1.00  0.00    -0.006 C 
ATOM     11  C   UNL     1      12.783  53.837  38.952  1.00  0.00    -0.027 C 
ATOM     12  C   UNL     1       9.825  54.359  37.695  1.00  0.00     0.008 C 
ATOM     13  C   UNL     1       9.186  56.013  41.187  1.00  0.00     0.008 C 
ATOM     14  C   UNL     1      13.199  51.892  41.301  1.00  0.00     0.017 C 
ATOM     15  C   UNL     1      13.378  51.002  38.793  1.00  0.00    -0.020 C 
ATOM     16  C   UNL     1      13.676  53.313  37.875  1.00  0.00     0.032 C 
ATOM     17  C   UNL     1      13.234  51.931  37.490  1.00  0.00     0.006 C 
ATOM     18  C   UNL     1      12.997  49.524  38.316  1.00  0.00     0.008 C 
ATOM     19  C   UNL     1      14.863  50.969  39.260  1.00  0.00     0.012 C 
ATOM     20  C   UNL     1      13.509  51.306  36.029  1.00  0.00    -0.025 C 
ATOM     21  C   UNL     1      14.043  49.017  37.362  1.00  0.00     0.005 C 
ATOM     22  C   UNL     1      14.257  49.897  36.058  1.00  0.00     0.003 C 
ATOM     23  C   UNL     1      14.204  52.269  35.061  1.00  0.00     0.010 C 
ATOM     24  C   UNL     1      12.070  51.081  35.415  1.00  0.00     0.012 C 
ATOM     25  C   UNL     1      15.796  49.857  35.475  1.00  0.00    -0.006 C 
ATOM     26  C   UNL     1      14.681  51.487  33.814  1.00  0.00     0.033 C 
ATOM     27  C   UNL     1      15.988  50.770  34.185  1.00  0.00     0.120 C 
ATOM     28  C   UNL     1      16.100  48.381  35.033  1.00  0.00     0.014 C 
ATOM     29  C   UNL     1      16.904  50.265  36.503  1.00  0.00     0.014 C 
ENDROOT
BRANCH   1  30
ATOM     30  C   UNL     1       9.325  52.171  41.916  1.00  0.00     0.048 C 
ATOM     31  O   UNL     1       9.959  52.849  42.773  1.00  0.00    -0.550 OA
ATOM     32  O   UNL     1       8.454  51.200  42.439  1.00  0.00    -0.550 OA
ENDBRANCH   1  30
BRANCH  27  33
ATOM     33  O   UNL     1      16.930  51.837  34.431  1.00  0.00    -0.393 OA
ATOM     34  H   UNL     1      16.421  52.674  34.622  1.00  0.00     0.210 HD
ENDBRANCH  27  33
TORSDOF 2
ENDMDL
MODEL 9
REMARK VINA RESULT:     0.000      8.443     11.614
REMARK INTER + INTRA:          -0.330
REMARK INTER:                   0.000
REMARK INTRA:                  -0.330
REMARK UNBOUND:                -0.330
REMARK SMILES C[C@H]1[C@H](C)CC[C@@]2(C(=O)[O-])CC[C@]3(C)C(=CC[C@H]4[C@@]5(C)CC[C@@H](O)C(C)(C)[C@H]5CC[C@@]43C)[C@@H]12
REMARK SMILES IDX 7 1 6 2 11 3 33 4 5 5 12 6 15 7 2 8 3 9 13 10 16 11 1 12
REMARK SMILES IDX 4 13 14 14 31 15 17 16 18 17 30 18 32 19 19 20 29 21 28 22
REMARK SMILES IDX 21 23 20 24 25 25 22 26 23 27 26 28 27 29 8 30 9 31 10 32
REMARK SMILES IDX 24 33
REMARK H PARENT 24 34
REMARK Flexibility Score: inf
ROOT
ATOM      1  C   UNL     1       7.955  49.368  29.304  1.00  0.00     0.017 C 
ATOM      2  C   UNL     1       8.982  50.414  29.816  1.00  0.00     0.014 C 
ATOM      3  C   UNL     1       7.734  48.348  30.442  1.00  0.00     0.014 C 
ATOM      4  C   UNL     1       6.516  49.963  28.899  1.00  0.00     0.030 C 
ATOM      5  C   UNL     1       8.868  51.769  29.110  1.00  0.00     0.004 C 
ATOM      6  C   UNL     1       6.904  47.194  29.846  1.00  0.00     0.013 C 
ATOM      7  C   UNL     1       5.316  49.141  29.347  1.00  0.00    -0.063 C 
ATOM      8  C   UNL     1       6.355  51.496  29.284  1.00  0.00    -0.003 C 
ATOM      9  C   UNL     1       7.513  52.262  28.616  1.00  0.00    -0.011 C 
ATOM     10  C   UNL     1       5.442  47.648  29.651  1.00  0.00    -0.006 C 
ATOM     11  C   UNL     1       4.106  49.760  29.515  1.00  0.00    -0.027 C 
ATOM     12  C   UNL     1       6.273  51.830  30.788  1.00  0.00     0.008 C 
ATOM     13  C   UNL     1       7.377  52.186  27.047  1.00  0.00     0.008 C 
ATOM     14  C   UNL     1       4.992  47.093  28.260  1.00  0.00     0.017 C 
ATOM     15  C   UNL     1       4.365  47.198  30.850  1.00  0.00    -0.020 C 
ATOM     16  C   UNL     1       3.137  49.364  30.580  1.00  0.00     0.032 C 
ATOM     17  C   UNL     1       3.838  48.518  31.602  1.00  0.00     0.006 C 
ATOM     18  C   UNL     1       5.013  46.280  31.987  1.00  0.00     0.008 C 
ATOM     19  C   UNL     1       3.161  46.412  30.252  1.00  0.00     0.012 C 
ATOM     20  C   UNL     1       3.350  48.421  33.136  1.00  0.00    -0.025 C 
ATOM     21  C   UNL     1       3.935  45.793  32.917  1.00  0.00     0.005 C 
ATOM     22  C   UNL     1       3.099  46.930  33.643  1.00  0.00     0.003 C 
ATOM     23  C   UNL     1       2.149  49.315  33.463  1.00  0.00     0.010 C 
ATOM     24  C   UNL     1       4.546  49.026  33.973  1.00  0.00     0.012 C 
ATOM     25  C   UNL     1       1.543  46.504  33.968  1.00  0.00    -0.006 C 
ATOM     26  C   UNL     1       1.585  48.929  34.850  1.00  0.00     0.033 C 
ATOM     27  C   UNL     1       0.719  47.672  34.669  1.00  0.00     0.120 C 
ATOM     28  C   UNL     1       1.578  45.305  34.981  1.00  0.00     0.014 C 
ATOM     29  C   UNL     1       0.712  46.031  32.727  1.00  0.00     0.014 C 
ENDROOT
BRANCH   1  30
ATOM     30  C   UNL     1       8.610  48.628  28.115  1.00  0.00     0.048 C 
ATOM     31  O   UNL     1       8.080  48.633  26.968  1.00  0.00    -0.550 OA
ATOM     32  O   UNL     1       9.843  47.962  28.208  1.00  0.00    -0.550 OA
ENDBRANCH   1  30
BRANCH  27  33
ATOM     33  O   UNL     1      -0.383  48.108  33.845  1.00  0.00    -0.393 OA
ATOM     34  H   UNL     1      -1.211  47.638  34.143  1.00  0.00     0.210 HD
ENDBRANCH  27  33
TORSDOF 2
ENDMDL
