MODEL 1
REMARK VINA RESULT:    -2.639      0.000      0.000
REMARK INTER + INTRA:          -4.287
REMARK INTER:                  -3.565
REMARK INTRA:                  -0.722
REMARK UNBOUND:                -0.722
REMARK SMILES CCCCCCC=CC(=O)[O-]
REMARK SMILES IDX 5 1 6 2 7 3 8 4 9 5 10 6 11 7 4 8 3 9 2 10 1 11
REMARK H PARENT
REMARK Flexibility Score: inf
ROOT
ATOM      1  C   UNL     1     127.559 -34.377  82.596  1.00  0.00     0.004 C 
ENDROOT
BRANCH   1   2
ATOM      2  C   UNL     1     127.413 -34.927  84.020  1.00  0.00     0.027 C 
BRANCH   2   3
ATOM      3  C   UNL     1     126.304 -35.938  84.111  1.00  0.00    -0.025 C 
ATOM      4  C   UNL     1     126.414 -37.151  83.558  1.00  0.00     0.020 C 
BRANCH   4   5
ATOM      5  C   UNL     1     125.356 -38.167  83.669  1.00  0.00     0.064 C 
ATOM      6  O   UNL     1     125.178 -38.809  84.739  1.00  0.00    -0.545 OA
ATOM      7  O   UNL     1     124.538 -38.424  82.576  1.00  0.00    -0.545 OA
ENDBRANCH   4   5
ENDBRANCH   2   3
ENDBRANCH   1   2
BRANCH   1   8
ATOM      8  C   UNL     1     126.670 -33.144  82.357  1.00  0.00     0.000 C 
BRANCH   8   9
ATOM      9  C   UNL     1     125.689 -33.340  81.191  1.00  0.00    -0.000 C 
BRANCH   9  10
ATOM     10  C   UNL     1     125.807 -34.730  80.548  1.00  0.00    -0.003 C 
ATOM     11  C   UNL     1     124.486 -35.489  80.637  1.00  0.00     0.004 C 
ENDBRANCH   9  10
ENDBRANCH   8   9
ENDBRANCH   1   8
TORSDOF 6
ENDMDL
MODEL 2
REMARK VINA RESULT:    -2.617     24.298     25.051
REMARK INTER + INTRA:          -4.257
REMARK INTER:                  -3.634
REMARK INTRA:                  -0.622
REMARK UNBOUND:                -0.722
REMARK SMILES CCCCCCC=CC(=O)[O-]
REMARK SMILES IDX 5 1 6 2 7 3 8 4 9 5 10 6 11 7 4 8 3 9 2 10 1 11
REMARK H PARENT
REMARK Flexibility Score: inf
ROOT
ATOM      1  C   UNL     1     140.431 -49.656  69.194  1.00  0.00     0.004 C 
ENDROOT
BRANCH   1   2
ATOM      2  C   UNL     1     141.553 -49.587  68.150  1.00  0.00     0.027 C 
BRANCH   2   3
ATOM      3  C   UNL     1     141.735 -48.190  67.627  1.00  0.00    -0.025 C 
ATOM      4  C   UNL     1     140.766 -47.561  66.953  1.00  0.00     0.020 C 
BRANCH   4   5
ATOM      5  C   UNL     1     140.912 -46.181  66.467  1.00  0.00     0.064 C 
ATOM      6  O   UNL     1     139.941 -45.567  65.946  1.00  0.00    -0.545 OA
ATOM      7  O   UNL     1     142.139 -45.541  66.582  1.00  0.00    -0.545 OA
ENDBRANCH   4   5
ENDBRANCH   2   3
ENDBRANCH   1   2
BRANCH   1   8
ATOM      8  C   UNL     1     139.544 -50.899  69.009  1.00  0.00     0.000 C 
BRANCH   8   9
ATOM      9  C   UNL     1     139.555 -51.423  67.565  1.00  0.00    -0.000 C 
BRANCH   9  10
ATOM     10  C   UNL     1     138.173 -51.346  66.899  1.00  0.00    -0.003 C 
ATOM     11  C   UNL     1     137.904 -49.946  66.354  1.00  0.00     0.004 C 
ENDBRANCH   9  10
ENDBRANCH   8   9
ENDBRANCH   1   8
TORSDOF 6
ENDMDL
MODEL 3
REMARK VINA RESULT:    -2.557     24.182     24.971
REMARK INTER + INTRA:          -4.176
REMARK INTER:                  -3.488
REMARK INTRA:                  -0.687
REMARK UNBOUND:                -0.722
REMARK SMILES CCCCCCC=CC(=O)[O-]
REMARK SMILES IDX 5 1 6 2 7 3 8 4 9 5 10 6 11 7 4 8 3 9 2 10 1 11
REMARK H PARENT
REMARK Flexibility Score: inf
ROOT
ATOM      1  C   UNL     1     138.414 -48.948  67.313  1.00  0.00     0.004 C 
ENDROOT
BRANCH   1   2
ATOM      2  C   UNL     1     138.407 -48.157  65.998  1.00  0.00     0.027 C 
BRANCH   2   3
ATOM      3  C   UNL     1     139.680 -47.380  65.815  1.00  0.00    -0.025 C 
ATOM      4  C   UNL     1     140.278 -46.761  66.838  1.00  0.00     0.020 C 
BRANCH   4   5
ATOM      5  C   UNL     1     141.544 -46.028  66.686  1.00  0.00     0.064 C 
ATOM      6  O   UNL     1     142.543 -46.295  67.407  1.00  0.00    -0.545 OA
ATOM      7  O   UNL     1     141.642 -45.024  65.731  1.00  0.00    -0.545 OA
ENDBRANCH   4   5
ENDBRANCH   2   3
ENDBRANCH   1   2
BRANCH   1   8
ATOM      8  C   UNL     1     138.718 -50.440  67.089  1.00  0.00     0.000 C 
BRANCH   8   9
ATOM      9  C   UNL     1     139.873 -50.944  67.967  1.00  0.00    -0.000 C 
BRANCH   9  10
ATOM     10  C   UNL     1     140.345 -49.894  68.983  1.00  0.00    -0.003 C 
ATOM     11  C   UNL     1     141.791 -49.484  68.718  1.00  0.00     0.004 C 
ENDBRANCH   9  10
ENDBRANCH   8   9
ENDBRANCH   1   8
TORSDOF 6
ENDMDL
MODEL 4
REMARK VINA RESULT:    -2.546     23.945     24.663
REMARK INTER + INTRA:          -4.162
REMARK INTER:                  -3.402
REMARK INTRA:                  -0.759
REMARK UNBOUND:                -0.722
REMARK SMILES CCCCCCC=CC(=O)[O-]
REMARK SMILES IDX 5 1 6 2 7 3 8 4 9 5 10 6 11 7 4 8 3 9 2 10 1 11
REMARK H PARENT
REMARK Flexibility Score: inf
ROOT
ATOM      1  C   UNL     1     141.535 -48.150  69.755  1.00  0.00     0.004 C 
ENDROOT
BRANCH   1   2
ATOM      2  C   UNL     1     142.491 -46.989  69.451  1.00  0.00     0.027 C 
BRANCH   2   3
ATOM      3  C   UNL     1     141.906 -46.043  68.439  1.00  0.00    -0.025 C 
ATOM      4  C   UNL     1     142.212 -46.127  67.141  1.00  0.00     0.020 C 
BRANCH   4   5
ATOM      5  C   UNL     1     141.621 -45.235  66.131  1.00  0.00     0.064 C 
ATOM      6  O   UNL     1     142.328 -44.717  65.225  1.00  0.00    -0.545 OA
ATOM      7  O   UNL     1     140.260 -44.959  66.176  1.00  0.00    -0.545 OA
ENDBRANCH   4   5
ENDBRANCH   2   3
ENDBRANCH   1   2
BRANCH   1   8
ATOM      8  C   UNL     1     141.883 -49.413  68.949  1.00  0.00     0.000 C 
BRANCH   8   9
ATOM      9  C   UNL     1     140.804 -49.769  67.915  1.00  0.00    -0.000 C 
BRANCH   9  10
ATOM     10  C   UNL     1     139.579 -48.846  67.999  1.00  0.00    -0.003 C 
ATOM     11  C   UNL     1     139.184 -48.330  66.619  1.00  0.00     0.004 C 
ENDBRANCH   9  10
ENDBRANCH   8   9
ENDBRANCH   1   8
TORSDOF 6
ENDMDL
MODEL 5
REMARK VINA RESULT:    -2.471      1.609      3.042
REMARK INTER + INTRA:          -4.060
REMARK INTER:                  -3.657
REMARK INTRA:                  -0.403
REMARK UNBOUND:                -0.722
REMARK SMILES CCCCCCC=CC(=O)[O-]
REMARK SMILES IDX 5 1 6 2 7 3 8 4 9 5 10 6 11 7 4 8 3 9 2 10 1 11
REMARK H PARENT
REMARK Flexibility Score: inf
ROOT
ATOM      1  C   UNL     1     126.742 -33.797  82.852  1.00  0.00     0.004 C 
ENDROOT
BRANCH   1   2
ATOM      2  C   UNL     1     127.408 -34.844  83.755  1.00  0.00     0.027 C 
BRANCH   2   3
ATOM      3  C   UNL     1     126.461 -35.958  84.101  1.00  0.00    -0.025 C 
ATOM      4  C   UNL     1     126.224 -36.966  83.254  1.00  0.00     0.020 C 
BRANCH   4   5
ATOM      5  C   UNL     1     125.330 -38.084  83.590  1.00  0.00     0.064 C 
ATOM      6  O   UNL     1     124.398 -38.429  82.814  1.00  0.00    -0.545 OA
ATOM      7  O   UNL     1     125.515 -38.774  84.781  1.00  0.00    -0.545 OA
ENDBRANCH   4   5
ENDBRANCH   2   3
ENDBRANCH   1   2
BRANCH   1   8
ATOM      8  C   UNL     1     127.772 -32.996  82.038  1.00  0.00     0.000 C 
BRANCH   8   9
ATOM      9  C   UNL     1     128.997 -33.836  81.644  1.00  0.00    -0.000 C 
BRANCH   9  10
ATOM     10  C   UNL     1     130.321 -33.096  81.881  1.00  0.00    -0.003 C 
ATOM     11  C   UNL     1     131.040 -33.638  83.113  1.00  0.00     0.004 C 
ENDBRANCH   9  10
ENDBRANCH   8   9
ENDBRANCH   1   8
TORSDOF 6
ENDMDL
MODEL 6
REMARK VINA RESULT:    -2.438      1.246      1.820
REMARK INTER + INTRA:          -4.015
REMARK INTER:                  -3.269
REMARK INTRA:                  -0.746
REMARK UNBOUND:                -0.722
REMARK SMILES CCCCCCC=CC(=O)[O-]
REMARK SMILES IDX 5 1 6 2 7 3 8 4 9 5 10 6 11 7 4 8 3 9 2 10 1 11
REMARK H PARENT
REMARK Flexibility Score: inf
ROOT
ATOM      1  C   UNL     1     129.659 -34.989  82.984  1.00  0.00     0.004 C 
ENDROOT
BRANCH   1   2
ATOM      2  C   UNL     1     128.865 -35.579  84.156  1.00  0.00     0.027 C 
BRANCH   2   3
ATOM      3  C   UNL     1     127.867 -36.601  83.688  1.00  0.00    -0.025 C 
ATOM      4  C   UNL     1     126.650 -36.695  84.234  1.00  0.00     0.020 C 
BRANCH   4   5
ATOM      5  C   UNL     1     125.647 -37.663  83.765  1.00  0.00     0.064 C 
ATOM      6  O   UNL     1     125.253 -38.604  84.506  1.00  0.00    -0.545 OA
ATOM      7  O   UNL     1     125.125 -37.540  82.484  1.00  0.00    -0.545 OA
ENDBRANCH   4   5
ENDBRANCH   2   3
ENDBRANCH   1   2
BRANCH   1   8
ATOM      8  C   UNL     1     128.741 -34.488  81.856  1.00  0.00     0.000 C 
BRANCH   8   9
ATOM      9  C   UNL     1     128.070 -33.148  82.193  1.00  0.00    -0.000 C 
BRANCH   9  10
ATOM     10  C   UNL     1     126.563 -33.291  82.450  1.00  0.00    -0.003 C 
ATOM     11  C   UNL     1     125.921 -34.241  81.443  1.00  0.00     0.004 C 
ENDBRANCH   9  10
ENDBRANCH   8   9
ENDBRANCH   1   8
TORSDOF 6
ENDMDL
MODEL 7
REMARK VINA RESULT:    -2.431      3.252      4.682
REMARK INTER + INTRA:          -4.006
REMARK INTER:                  -3.481
REMARK INTRA:                  -0.526
REMARK UNBOUND:                -0.722
REMARK SMILES CCCCCCC=CC(=O)[O-]
REMARK SMILES IDX 5 1 6 2 7 3 8 4 9 5 10 6 11 7 4 8 3 9 2 10 1 11
REMARK H PARENT
REMARK Flexibility Score: inf
ROOT
ATOM      1  C   UNL     1     127.976 -36.759  83.685  1.00  0.00     0.004 C 
ENDROOT
BRANCH   1   2
ATOM      2  C   UNL     1     127.645 -35.420  84.356  1.00  0.00     0.027 C 
BRANCH   2   3
ATOM      3  C   UNL     1     126.930 -34.492  83.414  1.00  0.00    -0.025 C 
ATOM      4  C   UNL     1     127.589 -33.579  82.694  1.00  0.00     0.020 C 
BRANCH   4   5
ATOM      5  C   UNL     1     126.912 -32.687  81.739  1.00  0.00     0.064 C 
ATOM      6  O   UNL     1     125.896 -32.022  82.077  1.00  0.00    -0.545 OA
ATOM      7  O   UNL     1     127.399 -32.576  80.443  1.00  0.00    -0.545 OA
ENDBRANCH   4   5
ENDBRANCH   2   3
ENDBRANCH   1   2
BRANCH   1   8
ATOM      8  C   UNL     1     127.277 -37.942  84.377  1.00  0.00     0.000 C 
BRANCH   8   9
ATOM      9  C   UNL     1     125.750 -37.905  84.211  1.00  0.00    -0.000 C 
BRANCH   9  10
ATOM     10  C   UNL     1     125.309 -38.157  82.761  1.00  0.00    -0.003 C 
ATOM     11  C   UNL     1     124.500 -36.981  82.222  1.00  0.00     0.004 C 
ENDBRANCH   9  10
ENDBRANCH   8   9
ENDBRANCH   1   8
TORSDOF 6
ENDMDL
MODEL 8
REMARK VINA RESULT:    -2.406     24.217     24.767
REMARK INTER + INTRA:          -3.972
REMARK INTER:                  -3.343
REMARK INTRA:                  -0.629
REMARK UNBOUND:                -0.722
REMARK SMILES CCCCCCC=CC(=O)[O-]
REMARK SMILES IDX 5 1 6 2 7 3 8 4 9 5 10 6 11 7 4 8 3 9 2 10 1 11
REMARK H PARENT
REMARK Flexibility Score: inf
ROOT
ATOM      1  C   UNL     1     141.619 -48.247  69.558  1.00  0.00     0.004 C 
ENDROOT
BRANCH   1   2
ATOM      2  C   UNL     1     141.820 -49.461  68.642  1.00  0.00     0.027 C 
BRANCH   2   3
ATOM      3  C   UNL     1     140.617 -50.363  68.648  1.00  0.00    -0.025 C 
ATOM      4  C   UNL     1     140.012 -50.731  67.514  1.00  0.00     0.020 C 
BRANCH   4   5
ATOM      5  C   UNL     1     138.857 -51.643  67.497  1.00  0.00     0.064 C 
ATOM      6  O   UNL     1     138.321 -51.994  66.411  1.00  0.00    -0.545 OA
ATOM      7  O   UNL     1     138.349 -52.125  68.695  1.00  0.00    -0.545 OA
ENDBRANCH   4   5
ENDBRANCH   2   3
ENDBRANCH   1   2
BRANCH   1   8
ATOM      8  C   UNL     1     142.044 -46.934  68.880  1.00  0.00     0.000 C 
BRANCH   8   9
ATOM      9  C   UNL     1     141.839 -46.962  67.357  1.00  0.00    -0.000 C 
BRANCH   9  10
ATOM     10  C   UNL     1     140.475 -46.396  66.935  1.00  0.00    -0.003 C 
ATOM     11  C   UNL     1     139.811 -47.286  65.889  1.00  0.00     0.004 C 
ENDBRANCH   9  10
ENDBRANCH   8   9
ENDBRANCH   1   8
TORSDOF 6
ENDMDL
MODEL 9
REMARK VINA RESULT:    -2.398      1.867      3.484
REMARK INTER + INTRA:          -3.962
REMARK INTER:                  -3.236
REMARK INTRA:                  -0.726
REMARK UNBOUND:                -0.722
REMARK SMILES CCCCCCC=CC(=O)[O-]
REMARK SMILES IDX 5 1 6 2 7 3 8 4 9 5 10 6 11 7 4 8 3 9 2 10 1 11
REMARK H PARENT
REMARK Flexibility Score: inf
ROOT
ATOM      1  C   UNL     1     128.138 -35.095  82.597  1.00  0.00     0.004 C 
ENDROOT
BRANCH   1   2
ATOM      2  C   UNL     1     127.127 -34.716  83.686  1.00  0.00     0.027 C 
BRANCH   2   3
ATOM      3  C   UNL     1     126.307 -35.900  84.115  1.00  0.00    -0.025 C 
ATOM      4  C   UNL     1     126.167 -36.976  83.335  1.00  0.00     0.020 C 
BRANCH   4   5
ATOM      5  C   UNL     1     125.400 -38.160  83.753  1.00  0.00     0.064 C 
ATOM      6  O   UNL     1     125.590 -38.695  84.879  1.00  0.00    -0.545 OA
ATOM      7  O   UNL     1     124.450 -38.698  82.895  1.00  0.00    -0.545 OA
ENDBRANCH   4   5
ENDBRANCH   2   3
ENDBRANCH   1   2
BRANCH   1   8
ATOM      8  C   UNL     1     129.592 -34.926  83.072  1.00  0.00     0.000 C 
BRANCH   8   9
ATOM      9  C   UNL     1     129.883 -35.699  84.367  1.00  0.00    -0.000 C 
BRANCH   9  10
ATOM     10  C   UNL     1     130.183 -37.183  84.114  1.00  0.00    -0.003 C 
ATOM     11  C   UNL     1     129.292 -38.078  84.970  1.00  0.00     0.004 C 
ENDBRANCH   9  10
ENDBRANCH   8   9
ENDBRANCH   1   8
TORSDOF 6
ENDMDL
