MODEL 1
REMARK VINA RESULT:    -3.764      0.000      0.000
REMARK INTER + INTRA:          -9.273
REMARK INTER:                  -7.066
REMARK INTRA:                  -2.208
REMARK UNBOUND:                -2.208
REMARK SMILES CCCCCCCCC=CCCCCCCCC(=O)[O-]
REMARK SMILES IDX 10 1 9 2 11 3 12 4 13 5 14 6 15 7 16 8 17 9 18 10 19 11
REMARK SMILES IDX 20 12 8 13 7 14 6 15 5 16 4 17 3 18 2 19 1 20
REMARK H PARENT
REMARK Flexibility Score: inf
ROOT
ATOM      1  C   UNL     1       4.242  -7.259  -5.161  1.00  0.00    -0.031 C 
ATOM      2  C   UNL     1       4.848  -6.230  -5.774  1.00  0.00    -0.031 C 
ENDROOT
BRANCH   1   3
ATOM      3  C   UNL     1       3.307  -8.177  -5.898  1.00  0.00     0.027 C 
BRANCH   3   4
ATOM      4  C   UNL     1       3.007  -7.649  -7.309  1.00  0.00     0.004 C 
BRANCH   4   5
ATOM      5  C   UNL     1       1.762  -6.748  -7.349  1.00  0.00     0.000 C 
BRANCH   5   6
ATOM      6  C   UNL     1       2.005  -5.442  -8.127  1.00  0.00     0.000 C 
BRANCH   6   7
ATOM      7  C   UNL     1       2.156  -4.222  -7.204  1.00  0.00     0.000 C 
BRANCH   7   8
ATOM      8  C   UNL     1       3.329  -3.315  -7.607  1.00  0.00     0.006 C 
BRANCH   8   9
ATOM      9  C   UNL     1       3.329  -2.020  -6.789  1.00  0.00     0.053 C 
BRANCH   9  10
ATOM     10  C   UNL     1       2.312  -1.064  -7.326  1.00  0.00     0.041 C 
ATOM     11  O   UNL     1       2.510  -0.479  -8.424  1.00  0.00    -0.550 OA
ATOM     12  O   UNL     1       1.173  -0.772  -6.584  1.00  0.00    -0.550 OA
ENDBRANCH   9  10
ENDBRANCH   8   9
ENDBRANCH   7   8
ENDBRANCH   6   7
ENDBRANCH   5   6
ENDBRANCH   4   5
ENDBRANCH   3   4
ENDBRANCH   1   3
BRANCH   2  13
ATOM     13  C   UNL     1       5.787  -5.313  -5.037  1.00  0.00     0.027 C 
BRANCH  13  14
ATOM     14  C   UNL     1       6.630  -4.454  -5.990  1.00  0.00     0.004 C 
BRANCH  14  15
ATOM     15  C   UNL     1       6.722  -2.992  -5.519  1.00  0.00     0.000 C 
BRANCH  15  16
ATOM     16  C   UNL     1       5.982  -2.752  -4.193  1.00  0.00     0.000 C 
BRANCH  16  17
ATOM     17  C   UNL     1       6.913  -2.234  -3.082  1.00  0.00    -0.000 C 
BRANCH  17  18
ATOM     18  C   UNL     1       8.402  -2.338  -3.456  1.00  0.00    -0.000 C 
BRANCH  18  19
ATOM     19  C   UNL     1       9.214  -3.324  -2.597  1.00  0.00    -0.003 C 
ATOM     20  C   UNL     1       8.633  -4.737  -2.602  1.00  0.00     0.004 C 
ENDBRANCH  18  19
ENDBRANCH  17  18
ENDBRANCH  16  17
ENDBRANCH  15  16
ENDBRANCH  14  15
ENDBRANCH  13  14
ENDBRANCH   2  13
TORSDOF 15
ENDMDL
MODEL 2
REMARK VINA RESULT:    -3.695      2.922      6.739
REMARK INTER + INTRA:          -9.143
REMARK INTER:                  -6.709
REMARK INTRA:                  -2.434
REMARK UNBOUND:                -2.208
REMARK SMILES CCCCCCCCC=CCCCCCCCC(=O)[O-]
REMARK SMILES IDX 10 1 9 2 11 3 12 4 13 5 14 6 15 7 16 8 17 9 18 10 19 11
REMARK SMILES IDX 20 12 8 13 7 14 6 15 5 16 4 17 3 18 2 19 1 20
REMARK H PARENT
REMARK Flexibility Score: inf
ROOT
ATOM      1  C   UNL     1       2.122  -3.901  -7.037  1.00  0.00    -0.031 C 
ATOM      2  C   UNL     1       2.995  -2.964  -7.437  1.00  0.00    -0.031 C 
ENDROOT
BRANCH   1   3
ATOM      3  C   UNL     1       2.259  -5.338  -7.458  1.00  0.00     0.027 C 
BRANCH   3   4
ATOM      4  C   UNL     1       3.697  -5.840  -7.258  1.00  0.00     0.004 C 
BRANCH   4   5
ATOM      5  C   UNL     1       3.850  -6.704  -5.995  1.00  0.00     0.000 C 
BRANCH   5   6
ATOM      6  C   UNL     1       5.093  -6.326  -5.171  1.00  0.00     0.000 C 
BRANCH   6   7
ATOM      7  C   UNL     1       5.677  -4.961  -5.572  1.00  0.00     0.000 C 
BRANCH   7   8
ATOM      8  C   UNL     1       5.695  -3.959  -4.407  1.00  0.00     0.006 C 
BRANCH   8   9
ATOM      9  C   UNL     1       5.832  -2.522  -4.920  1.00  0.00     0.053 C 
BRANCH   9  10
ATOM     10  C   UNL     1       7.225  -2.023  -4.705  1.00  0.00     0.041 C 
ATOM     11  O   UNL     1       7.939  -1.692  -5.689  1.00  0.00    -0.550 OA
ATOM     12  O   UNL     1       7.759  -1.981  -3.422  1.00  0.00    -0.550 OA
ENDBRANCH   9  10
ENDBRANCH   8   9
ENDBRANCH   7   8
ENDBRANCH   6   7
ENDBRANCH   5   6
ENDBRANCH   4   5
ENDBRANCH   3   4
ENDBRANCH   1   3
BRANCH   2  13
ATOM     13  C   UNL     1       2.860  -1.525  -7.014  1.00  0.00     0.027 C 
BRANCH  13  14
ATOM     14  C   UNL     1       1.465  -0.958  -7.314  1.00  0.00     0.004 C 
BRANCH  14  15
ATOM     15  C   UNL     1       1.407  -0.264  -8.686  1.00  0.00     0.000 C 
BRANCH  15  16
ATOM     16  C   UNL     1       0.045  -0.438  -9.378  1.00  0.00     0.000 C 
BRANCH  16  17
ATOM     17  C   UNL     1      -0.714  -1.684  -8.886  1.00  0.00    -0.000 C 
BRANCH  17  18
ATOM     18  C   UNL     1      -0.951  -2.716 -10.003  1.00  0.00    -0.000 C 
BRANCH  18  19
ATOM     19  C   UNL     1       0.050  -3.885 -10.022  1.00  0.00    -0.003 C 
ATOM     20  C   UNL     1       1.332  -3.561 -10.789  1.00  0.00     0.004 C 
ENDBRANCH  18  19
ENDBRANCH  17  18
ENDBRANCH  16  17
ENDBRANCH  15  16
ENDBRANCH  14  15
ENDBRANCH  13  14
ENDBRANCH   2  13
TORSDOF 15
ENDMDL
MODEL 3
REMARK VINA RESULT:    -3.609      1.380      2.587
REMARK INTER + INTRA:          -8.982
REMARK INTER:                  -7.082
REMARK INTRA:                  -1.900
REMARK UNBOUND:                -2.208
REMARK SMILES CCCCCCCCC=CCCCCCCCC(=O)[O-]
REMARK SMILES IDX 10 1 9 2 11 3 12 4 13 5 14 6 15 7 16 8 17 9 18 10 19 11
REMARK SMILES IDX 20 12 8 13 7 14 6 15 5 16 4 17 3 18 2 19 1 20
REMARK H PARENT
REMARK Flexibility Score: inf
ROOT
ATOM      1  C   UNL     1       2.378  -7.349  -7.031  1.00  0.00    -0.031 C 
ATOM      2  C   UNL     1       2.929  -8.311  -6.274  1.00  0.00    -0.031 C 
ENDROOT
BRANCH   1   3
ATOM      3  C   UNL     1       1.314  -7.658  -8.047  1.00  0.00     0.027 C 
BRANCH   3   4
ATOM      4  C   UNL     1       1.439  -6.747  -9.277  1.00  0.00     0.004 C 
BRANCH   4   5
ATOM      5  C   UNL     1       2.897  -6.363  -9.582  1.00  0.00     0.000 C 
BRANCH   5   6
ATOM      6  C   UNL     1       3.130  -4.844  -9.521  1.00  0.00     0.000 C 
BRANCH   6   7
ATOM      7  C   UNL     1       3.999  -4.425  -8.324  1.00  0.00     0.000 C 
BRANCH   7   8
ATOM      8  C   UNL     1       3.325  -3.359  -7.446  1.00  0.00     0.006 C 
BRANCH   8   9
ATOM      9  C   UNL     1       1.814  -3.600  -7.352  1.00  0.00     0.053 C 
BRANCH   9  10
ATOM     10  C   UNL     1       1.065  -2.348  -7.681  1.00  0.00     0.041 C 
ATOM     11  O   UNL     1       0.327  -2.301  -8.701  1.00  0.00    -0.550 OA
ATOM     12  O   UNL     1       1.230  -1.213  -6.897  1.00  0.00    -0.550 OA
ENDBRANCH   9  10
ENDBRANCH   8   9
ENDBRANCH   7   8
ENDBRANCH   6   7
ENDBRANCH   5   6
ENDBRANCH   4   5
ENDBRANCH   3   4
ENDBRANCH   1   3
BRANCH   2  13
ATOM     13  C   UNL     1       3.992  -8.002  -5.254  1.00  0.00     0.027 C 
BRANCH  13  14
ATOM     14  C   UNL     1       4.525  -6.568  -5.384  1.00  0.00     0.004 C 
BRANCH  14  15
ATOM     15  C   UNL     1       5.811  -6.354  -4.567  1.00  0.00     0.000 C 
BRANCH  15  16
ATOM     16  C   UNL     1       5.890  -4.948  -3.949  1.00  0.00     0.000 C 
BRANCH  16  17
ATOM     17  C   UNL     1       5.867  -3.834  -5.010  1.00  0.00    -0.000 C 
BRANCH  17  18
ATOM     18  C   UNL     1       5.912  -2.423  -4.394  1.00  0.00    -0.000 C 
BRANCH  18  19
ATOM     19  C   UNL     1       6.961  -2.239  -3.284  1.00  0.00    -0.003 C 
ATOM     20  C   UNL     1       8.198  -1.475  -3.752  1.00  0.00     0.004 C 
ENDBRANCH  18  19
ENDBRANCH  17  18
ENDBRANCH  16  17
ENDBRANCH  15  16
ENDBRANCH  14  15
ENDBRANCH  13  14
ENDBRANCH   2  13
TORSDOF 15
ENDMDL
MODEL 4
REMARK VINA RESULT:    -3.592      2.122      5.486
REMARK INTER + INTRA:          -8.950
REMARK INTER:                  -6.407
REMARK INTRA:                  -2.543
REMARK UNBOUND:                -2.208
REMARK SMILES CCCCCCCCC=CCCCCCCCC(=O)[O-]
REMARK SMILES IDX 10 1 9 2 11 3 12 4 13 5 14 6 15 7 16 8 17 9 18 10 19 11
REMARK SMILES IDX 20 12 8 13 7 14 6 15 5 16 4 17 3 18 2 19 1 20
REMARK H PARENT
REMARK Flexibility Score: inf
ROOT
ATOM      1  C   UNL     1       4.956  -6.752  -4.942  1.00  0.00    -0.031 C 
ATOM      2  C   UNL     1       3.915  -7.018  -5.746  1.00  0.00    -0.031 C 
ENDROOT
BRANCH   1   3
ATOM      3  C   UNL     1       5.540  -5.370  -4.839  1.00  0.00     0.027 C 
BRANCH   3   4
ATOM      4  C   UNL     1       5.425  -4.617  -6.173  1.00  0.00     0.004 C 
BRANCH   4   5
ATOM      5  C   UNL     1       5.410  -3.091  -5.989  1.00  0.00     0.000 C 
BRANCH   5   6
ATOM      6  C   UNL     1       4.162  -2.436  -6.605  1.00  0.00     0.000 C 
BRANCH   6   7
ATOM      7  C   UNL     1       3.449  -3.351  -7.614  1.00  0.00     0.000 C 
BRANCH   7   8
ATOM      8  C   UNL     1       1.962  -3.555  -7.282  1.00  0.00     0.006 C 
BRANCH   8   9
ATOM      9  C   UNL     1       1.070  -3.017  -8.406  1.00  0.00     0.053 C 
BRANCH   9  10
ATOM     10  C   UNL     1       0.535  -1.667  -8.045  1.00  0.00     0.041 C 
ATOM     11  O   UNL     1      -0.254  -1.070  -8.824  1.00  0.00    -0.550 OA
ATOM     12  O   UNL     1       0.957  -1.041  -6.878  1.00  0.00    -0.550 OA
ENDBRANCH   9  10
ENDBRANCH   8   9
ENDBRANCH   7   8
ENDBRANCH   6   7
ENDBRANCH   5   6
ENDBRANCH   4   5
ENDBRANCH   3   4
ENDBRANCH   1   3
BRANCH   2  13
ATOM     13  C   UNL     1       3.328  -8.401  -5.847  1.00  0.00     0.027 C 
BRANCH  13  14
ATOM     14  C   UNL     1       2.032  -8.425  -6.671  1.00  0.00     0.004 C 
BRANCH  14  15
ATOM     15  C   UNL     1       1.667  -7.033  -7.213  1.00  0.00     0.000 C 
BRANCH  15  16
ATOM     16  C   UNL     1       1.339  -7.052  -8.715  1.00  0.00     0.000 C 
BRANCH  16  17
ATOM     17  C   UNL     1       2.238  -8.021  -9.504  1.00  0.00    -0.000 C 
BRANCH  17  18
ATOM     18  C   UNL     1       3.215  -7.294 -10.446  1.00  0.00    -0.000 C 
BRANCH  18  19
ATOM     19  C   UNL     1       4.085  -6.222  -9.768  1.00  0.00    -0.003 C 
ATOM     20  C   UNL     1       5.308  -6.805  -9.062  1.00  0.00     0.004 C 
ENDBRANCH  18  19
ENDBRANCH  17  18
ENDBRANCH  16  17
ENDBRANCH  15  16
ENDBRANCH  14  15
ENDBRANCH  13  14
ENDBRANCH   2  13
TORSDOF 15
ENDMDL
MODEL 5
REMARK VINA RESULT:    -3.573      2.860      6.269
REMARK INTER + INTRA:          -8.914
REMARK INTER:                  -7.068
REMARK INTRA:                  -1.846
REMARK UNBOUND:                -2.208
REMARK SMILES CCCCCCCCC=CCCCCCCCC(=O)[O-]
REMARK SMILES IDX 10 1 9 2 11 3 12 4 13 5 14 6 15 7 16 8 17 9 18 10 19 11
REMARK SMILES IDX 20 12 8 13 7 14 6 15 5 16 4 17 3 18 2 19 1 20
REMARK H PARENT
REMARK Flexibility Score: inf
ROOT
ATOM      1  C   UNL     1       3.059  -7.479  -6.889  1.00  0.00    -0.031 C 
ATOM      2  C   UNL     1       1.842  -6.967  -7.133  1.00  0.00    -0.031 C 
ENDROOT
BRANCH   1   3
ATOM      3  C   UNL     1       3.367  -8.206  -5.609  1.00  0.00     0.027 C 
BRANCH   3   4
ATOM      4  C   UNL     1       4.628  -7.641  -4.938  1.00  0.00     0.004 C 
BRANCH   4   5
ATOM      5  C   UNL     1       5.279  -6.517  -5.760  1.00  0.00     0.000 C 
BRANCH   5   6
ATOM      6  C   UNL     1       5.334  -5.184  -4.993  1.00  0.00     0.000 C 
BRANCH   6   7
ATOM      7  C   UNL     1       5.604  -3.982  -5.913  1.00  0.00     0.000 C 
BRANCH   7   8
ATOM      8  C   UNL     1       5.746  -2.662  -5.137  1.00  0.00     0.006 C 
BRANCH   8   9
ATOM      9  C   UNL     1       5.902  -2.922  -3.635  1.00  0.00     0.053 C 
BRANCH   9  10
ATOM     10  C   UNL     1       7.308  -2.652  -3.203  1.00  0.00     0.041 C 
ATOM     11  O   UNL     1       7.750  -1.472  -3.186  1.00  0.00    -0.550 OA
ATOM     12  O   UNL     1       8.151  -3.708  -2.878  1.00  0.00    -0.550 OA
ENDBRANCH   9  10
ENDBRANCH   8   9
ENDBRANCH   7   8
ENDBRANCH   6   7
ENDBRANCH   5   6
ENDBRANCH   4   5
ENDBRANCH   3   4
ENDBRANCH   1   3
BRANCH   2  13
ATOM     13  C   UNL     1       1.533  -6.242  -8.415  1.00  0.00     0.027 C 
BRANCH  13  14
ATOM     14  C   UNL     1       2.298  -4.916  -8.534  1.00  0.00     0.004 C 
BRANCH  14  15
ATOM     15  C   UNL     1       2.055  -4.000  -7.321  1.00  0.00     0.000 C 
BRANCH  15  16
ATOM     16  C   UNL     1       2.633  -2.590  -7.522  1.00  0.00     0.000 C 
BRANCH  16  17
ATOM     17  C   UNL     1       1.593  -1.484  -7.272  1.00  0.00    -0.000 C 
BRANCH  17  18
ATOM     18  C   UNL     1       0.945  -0.971  -8.571  1.00  0.00    -0.000 C 
BRANCH  18  19
ATOM     19  C   UNL     1      -0.542  -1.331  -8.734  1.00  0.00    -0.003 C 
ATOM     20  C   UNL     1      -0.759  -2.643  -9.486  1.00  0.00     0.004 C 
ENDBRANCH  18  19
ENDBRANCH  17  18
ENDBRANCH  16  17
ENDBRANCH  15  16
ENDBRANCH  14  15
ENDBRANCH  13  14
ENDBRANCH   2  13
TORSDOF 15
ENDMDL
MODEL 6
REMARK VINA RESULT:    -3.558      1.215      2.480
REMARK INTER + INTRA:          -8.885
REMARK INTER:                  -6.331
REMARK INTRA:                  -2.554
REMARK UNBOUND:                -2.208
REMARK SMILES CCCCCCCCC=CCCCCCCCC(=O)[O-]
REMARK SMILES IDX 10 1 9 2 11 3 12 4 13 5 14 6 15 7 16 8 17 9 18 10 19 11
REMARK SMILES IDX 20 12 8 13 7 14 6 15 5 16 4 17 3 18 2 19 1 20
REMARK H PARENT
REMARK Flexibility Score: inf
ROOT
ATOM      1  C   UNL     1       5.460  -4.947  -4.870  1.00  0.00    -0.031 C 
ATOM      2  C   UNL     1       5.665  -3.821  -5.571  1.00  0.00    -0.031 C 
ENDROOT
BRANCH   1   3
ATOM      3  C   UNL     1       5.559  -6.304  -5.510  1.00  0.00     0.027 C 
BRANCH   3   4
ATOM      4  C   UNL     1       4.209  -7.037  -5.471  1.00  0.00     0.004 C 
BRANCH   4   5
ATOM      5  C   UNL     1       3.558  -7.147  -6.859  1.00  0.00     0.000 C 
BRANCH   5   6
ATOM      6  C   UNL     1       2.358  -6.199  -7.023  1.00  0.00     0.000 C 
BRANCH   6   7
ATOM      7  C   UNL     1       2.696  -4.952  -7.857  1.00  0.00     0.000 C 
BRANCH   7   8
ATOM      8  C   UNL     1       2.094  -3.666  -7.272  1.00  0.00     0.006 C 
BRANCH   8   9
ATOM      9  C   UNL     1       2.967  -2.451  -7.602  1.00  0.00     0.053 C 
BRANCH   9  10
ATOM     10  C   UNL     1       2.148  -1.199  -7.582  1.00  0.00     0.041 C 
ATOM     11  O   UNL     1       1.190  -1.082  -6.771  1.00  0.00    -0.550 OA
ATOM     12  O   UNL     1       2.401  -0.187  -8.499  1.00  0.00    -0.550 OA
ENDBRANCH   9  10
ENDBRANCH   8   9
ENDBRANCH   7   8
ENDBRANCH   6   7
ENDBRANCH   5   6
ENDBRANCH   4   5
ENDBRANCH   3   4
ENDBRANCH   1   3
BRANCH   2  13
ATOM     13  C   UNL     1       5.570  -2.463  -4.930  1.00  0.00     0.027 C 
BRANCH  13  14
ATOM     14  C   UNL     1       6.004  -2.481  -3.457  1.00  0.00     0.004 C 
BRANCH  14  15
ATOM     15  C   UNL     1       7.500  -2.162  -3.294  1.00  0.00     0.000 C 
BRANCH  15  16
ATOM     16  C   UNL     1       8.296  -3.345  -2.716  1.00  0.00     0.000 C 
BRANCH  16  17
ATOM     17  C   UNL     1       9.013  -4.163  -3.804  1.00  0.00    -0.000 C 
BRANCH  17  18
ATOM     18  C   UNL     1       9.479  -3.298  -4.989  1.00  0.00    -0.000 C 
BRANCH  18  19
ATOM     19  C   UNL     1       9.175  -3.890  -6.377  1.00  0.00    -0.003 C 
ATOM     20  C   UNL     1       9.105  -5.416  -6.371  1.00  0.00     0.004 C 
ENDBRANCH  18  19
ENDBRANCH  17  18
ENDBRANCH  16  17
ENDBRANCH  15  16
ENDBRANCH  14  15
ENDBRANCH  13  14
ENDBRANCH   2  13
TORSDOF 15
ENDMDL
MODEL 7
REMARK VINA RESULT:    -3.534      1.085      1.665
REMARK INTER + INTRA:          -8.840
REMARK INTER:                  -6.768
REMARK INTRA:                  -2.072
REMARK UNBOUND:                -2.208
REMARK SMILES CCCCCCCCC=CCCCCCCCC(=O)[O-]
REMARK SMILES IDX 10 1 9 2 11 3 12 4 13 5 14 6 15 7 16 8 17 9 18 10 19 11
REMARK SMILES IDX 20 12 8 13 7 14 6 15 5 16 4 17 3 18 2 19 1 20
REMARK H PARENT
REMARK Flexibility Score: inf
ROOT
ATOM      1  C   UNL     1       3.267  -7.844  -6.059  1.00  0.00    -0.031 C 
ATOM      2  C   UNL     1       4.048  -6.816  -5.692  1.00  0.00    -0.031 C 
ENDROOT
BRANCH   1   3
ATOM      3  C   UNL     1       2.133  -7.665  -7.030  1.00  0.00     0.027 C 
BRANCH   3   4
ATOM      4  C   UNL     1       1.906  -6.180  -7.353  1.00  0.00     0.004 C 
BRANCH   4   5
ATOM      5  C   UNL     1       1.601  -5.940  -8.841  1.00  0.00     0.000 C 
BRANCH   5   6
ATOM      6  C   UNL     1       2.676  -5.082  -9.530  1.00  0.00     0.000 C 
BRANCH   6   7
ATOM      7  C   UNL     1       3.809  -4.671  -8.575  1.00  0.00     0.000 C 
BRANCH   7   8
ATOM      8  C   UNL     1       4.047  -3.153  -8.556  1.00  0.00     0.006 C 
BRANCH   8   9
ATOM      9  C   UNL     1       2.767  -2.392  -8.918  1.00  0.00     0.053 C 
BRANCH   9  10
ATOM     10  C   UNL     1       2.079  -1.911  -7.679  1.00  0.00     0.041 C 
ATOM     11  O   UNL     1       1.415  -2.715  -6.971  1.00  0.00    -0.550 OA
ATOM     12  O   UNL     1       2.119  -0.564  -7.340  1.00  0.00    -0.550 OA
ENDBRANCH   9  10
ENDBRANCH   8   9
ENDBRANCH   7   8
ENDBRANCH   6   7
ENDBRANCH   5   6
ENDBRANCH   4   5
ENDBRANCH   3   4
ENDBRANCH   1   3
BRANCH   2  13
ATOM     13  C   UNL     1       5.185  -6.995  -4.722  1.00  0.00     0.027 C 
BRANCH  13  14
ATOM     14  C   UNL     1       5.839  -5.660  -4.337  1.00  0.00     0.004 C 
BRANCH  14  15
ATOM     15  C   UNL     1       5.854  -4.666  -5.511  1.00  0.00     0.000 C 
BRANCH  15  16
ATOM     16  C   UNL     1       5.844  -3.201  -5.043  1.00  0.00     0.000 C 
BRANCH  16  17
ATOM     17  C   UNL     1       5.895  -3.069  -3.510  1.00  0.00    -0.000 C 
BRANCH  17  18
ATOM     18  C   UNL     1       7.048  -2.171  -3.027  1.00  0.00    -0.000 C 
BRANCH  18  19
ATOM     19  C   UNL     1       8.456  -2.706  -3.343  1.00  0.00    -0.003 C 
ATOM     20  C   UNL     1       8.794  -3.985  -2.576  1.00  0.00     0.004 C 
ENDBRANCH  18  19
ENDBRANCH  17  18
ENDBRANCH  16  17
ENDBRANCH  15  16
ENDBRANCH  14  15
ENDBRANCH  13  14
ENDBRANCH   2  13
TORSDOF 15
ENDMDL
MODEL 8
REMARK VINA RESULT:    -3.523      1.329      2.675
REMARK INTER + INTRA:          -8.820
REMARK INTER:                  -6.578
REMARK INTRA:                  -2.243
REMARK UNBOUND:                -2.208
REMARK SMILES CCCCCCCCC=CCCCCCCCC(=O)[O-]
REMARK SMILES IDX 10 1 9 2 11 3 12 4 13 5 14 6 15 7 16 8 17 9 18 10 19 11
REMARK SMILES IDX 20 12 8 13 7 14 6 15 5 16 4 17 3 18 2 19 1 20
REMARK H PARENT
REMARK Flexibility Score: inf
ROOT
ATOM      1  C   UNL     1       5.893  -4.960  -6.277  1.00  0.00    -0.031 C 
ATOM      2  C   UNL     1       5.258  -4.039  -5.535  1.00  0.00    -0.031 C 
ENDROOT
BRANCH   1   3
ATOM      3  C   UNL     1       5.226  -6.247  -6.677  1.00  0.00     0.027 C 
BRANCH   3   4
ATOM      4  C   UNL     1       4.517  -6.900  -5.480  1.00  0.00     0.004 C 
BRANCH   4   5
ATOM      5  C   UNL     1       3.304  -7.745  -5.903  1.00  0.00     0.000 C 
BRANCH   5   6
ATOM      6  C   UNL     1       2.894  -7.496  -7.365  1.00  0.00     0.000 C 
BRANCH   6   7
ATOM      7  C   UNL     1       1.615  -6.650  -7.486  1.00  0.00     0.000 C 
BRANCH   7   8
ATOM      8  C   UNL     1       1.842  -5.340  -8.255  1.00  0.00     0.006 C 
BRANCH   8   9
ATOM      9  C   UNL     1       2.075  -4.171  -7.291  1.00  0.00     0.053 C 
BRANCH   9  10
ATOM     10  C   UNL     1       1.351  -2.951  -7.767  1.00  0.00     0.041 C 
ATOM     11  O   UNL     1       0.812  -2.938  -8.906  1.00  0.00    -0.550 OA
ATOM     12  O   UNL     1       1.325  -1.807  -6.978  1.00  0.00    -0.550 OA
ENDBRANCH   9  10
ENDBRANCH   8   9
ENDBRANCH   7   8
ENDBRANCH   6   7
ENDBRANCH   5   6
ENDBRANCH   4   5
ENDBRANCH   3   4
ENDBRANCH   1   3
BRANCH   2  13
ATOM     13  C   UNL     1       5.925  -2.749  -5.138  1.00  0.00     0.027 C 
BRANCH  13  14
ATOM     14  C   UNL     1       6.001  -2.577  -3.614  1.00  0.00     0.004 C 
BRANCH  14  15
ATOM     15  C   UNL     1       7.348  -1.982  -3.167  1.00  0.00     0.000 C 
BRANCH  15  16
ATOM     16  C   UNL     1       8.539  -2.892  -3.511  1.00  0.00     0.000 C 
BRANCH  16  17
ATOM     17  C   UNL     1       8.598  -4.148  -2.623  1.00  0.00    -0.000 C 
BRANCH  17  18
ATOM     18  C   UNL     1       8.293  -5.442  -3.400  1.00  0.00    -0.000 C 
BRANCH  18  19
ATOM     19  C   UNL     1       6.991  -6.150  -2.984  1.00  0.00    -0.003 C 
ATOM     20  C   UNL     1       7.237  -7.453  -2.225  1.00  0.00     0.004 C 
ENDBRANCH  18  19
ENDBRANCH  17  18
ENDBRANCH  16  17
ENDBRANCH  15  16
ENDBRANCH  14  15
ENDBRANCH  13  14
ENDBRANCH   2  13
TORSDOF 15
ENDMDL
MODEL 9
REMARK VINA RESULT:    -3.470      1.596      2.774
REMARK INTER + INTRA:          -8.721
REMARK INTER:                  -5.613
REMARK INTRA:                  -3.108
REMARK UNBOUND:                -2.208
REMARK SMILES CCCCCCCCC=CCCCCCCCC(=O)[O-]
REMARK SMILES IDX 10 1 9 2 11 3 12 4 13 5 14 6 15 7 16 8 17 9 18 10 19 11
REMARK SMILES IDX 20 12 8 13 7 14 6 15 5 16 4 17 3 18 2 19 1 20
REMARK H PARENT
REMARK Flexibility Score: inf
ROOT
ATOM      1  C   UNL     1       6.126  -4.888  -3.654  1.00  0.00    -0.031 C 
ATOM      2  C   UNL     1       5.965  -3.673  -4.202  1.00  0.00    -0.031 C 
ENDROOT
BRANCH   1   3
ATOM      3  C   UNL     1       5.520  -6.118  -4.269  1.00  0.00     0.027 C 
BRANCH   3   4
ATOM      4  C   UNL     1       5.377  -5.965  -5.791  1.00  0.00     0.004 C 
BRANCH   4   5
ATOM      5  C   UNL     1       3.921  -6.103  -6.264  1.00  0.00     0.000 C 
BRANCH   5   6
ATOM      6  C   UNL     1       3.428  -4.857  -7.020  1.00  0.00     0.000 C 
BRANCH   6   7
ATOM      7  C   UNL     1       4.580  -3.958  -7.497  1.00  0.00     0.000 C 
BRANCH   7   8
ATOM      8  C   UNL     1       4.120  -2.530  -7.831  1.00  0.00     0.006 C 
BRANCH   8   9
ATOM      9  C   UNL     1       3.418  -1.885  -6.631  1.00  0.00     0.053 C 
BRANCH   9  10
ATOM     10  C   UNL     1       2.079  -1.355  -7.035  1.00  0.00     0.041 C 
ATOM     11  O   UNL     1       1.861  -0.113  -7.032  1.00  0.00    -0.550 OA
ATOM     12  O   UNL     1       1.050  -2.233  -7.354  1.00  0.00    -0.550 OA
ENDBRANCH   9  10
ENDBRANCH   8   9
ENDBRANCH   7   8
ENDBRANCH   6   7
ENDBRANCH   5   6
ENDBRANCH   4   5
ENDBRANCH   3   4
ENDBRANCH   1   3
BRANCH   2  13
ATOM     13  C   UNL     1       6.575  -2.442  -3.587  1.00  0.00     0.027 C 
BRANCH  13  14
ATOM     14  C   UNL     1       7.624  -1.793  -4.501  1.00  0.00     0.004 C 
BRANCH  14  15
ATOM     15  C   UNL     1       7.446  -2.211  -5.971  1.00  0.00     0.000 C 
BRANCH  15  16
ATOM     16  C   UNL     1       8.690  -2.915  -6.539  1.00  0.00     0.000 C 
BRANCH  16  17
ATOM     17  C   UNL     1       8.408  -4.370  -6.954  1.00  0.00    -0.000 C 
BRANCH  17  18
ATOM     18  C   UNL     1       9.287  -5.385  -6.200  1.00  0.00    -0.000 C 
BRANCH  18  19
ATOM     19  C   UNL     1       9.590  -5.013  -4.738  1.00  0.00    -0.003 C 
ATOM     20  C   UNL     1       9.589  -6.221  -3.802  1.00  0.00     0.004 C 
ENDBRANCH  18  19
ENDBRANCH  17  18
ENDBRANCH  16  17
ENDBRANCH  15  16
ENDBRANCH  14  15
ENDBRANCH  13  14
ENDBRANCH   2  13
TORSDOF 15
ENDMDL
