MODEL 1
REMARK VINA RESULT:    -6.105      0.000      0.000
REMARK INTER + INTRA:          -7.300
REMARK INTER:                  -7.175
REMARK INTRA:                  -0.125
REMARK UNBOUND:                -0.125
REMARK SMILES O=C([O-])C=Cc1ccc(O)c(O)c1
REMARK SMILES IDX 6 1 13 2 7 3 11 4 8 5 9 6 5 7 4 8 2 9 1 10 3 11 12 12 10 14
REMARK H PARENT 12 13 10 15
REMARK Flexibility Score: inf
ROOT
ATOM      1  C   UNL     1      13.603 -13.219  28.486  1.00  0.00    -0.022 A 
ATOM      2  C   UNL     1      13.973 -14.046  29.566  1.00  0.00     0.058 A 
ATOM      3  C   UNL     1      13.943 -13.615  27.182  1.00  0.00     0.012 A 
ATOM      4  C   UNL     1      14.648 -15.254  29.338  1.00  0.00     0.157 A 
ATOM      5  C   UNL     1      14.614 -14.819  26.956  1.00  0.00     0.051 A 
ATOM      6  C   UNL     1      14.966 -15.644  28.032  1.00  0.00     0.157 A 
ENDROOT
BRANCH   1   7
ATOM      7  C   UNL     1      12.898 -11.926  28.674  1.00  0.00     0.010 C 
ATOM      8  C   UNL     1      11.834 -11.769  29.472  1.00  0.00     0.025 C 
BRANCH   8   9
ATOM      9  C   UNL     1      11.158 -10.470  29.619  1.00  0.00     0.064 C 
ATOM     10  O   UNL     1      11.834  -9.446  29.899  1.00  0.00    -0.545 OA
ATOM     11  O   UNL     1       9.783 -10.353  29.449  1.00  0.00    -0.545 OA
ENDBRANCH   8   9
ENDBRANCH   1   7
BRANCH   4  12
ATOM     12  O   UNL     1      15.011 -16.072  30.408  1.00  0.00    -0.504 OA
ATOM     13  H   UNL     1      14.676 -15.895  31.348  1.00  0.00     0.293 HD
ENDBRANCH   4  12
BRANCH   6  14
ATOM     14  O   UNL     1      15.633 -16.846  27.811  1.00  0.00    -0.504 OA
ATOM     15  H   UNL     1      16.369 -16.925  27.118  1.00  0.00     0.293 HD
ENDBRANCH   6  14
TORSDOF 4
ENDMDL
MODEL 2
REMARK VINA RESULT:    -5.988      1.192      5.759
REMARK INTER + INTRA:          -7.163
REMARK INTER:                  -7.035
REMARK INTRA:                  -0.128
REMARK UNBOUND:                -0.125
REMARK SMILES O=C([O-])C=Cc1ccc(O)c(O)c1
REMARK SMILES IDX 6 1 13 2 7 3 11 4 8 5 9 6 5 7 4 8 2 9 1 10 3 11 12 12 10 14
REMARK H PARENT 12 13 10 15
REMARK Flexibility Score: inf
ROOT
ATOM      1  C   UNL     1      12.747 -12.886  28.382  1.00  0.00    -0.022 A 
ATOM      2  C   UNL     1      13.101 -12.259  29.594  1.00  0.00     0.058 A 
ATOM      3  C   UNL     1      11.592 -12.455  27.708  1.00  0.00     0.012 A 
ATOM      4  C   UNL     1      12.325 -11.207  30.104  1.00  0.00     0.157 A 
ATOM      5  C   UNL     1      10.821 -11.406  28.216  1.00  0.00     0.051 A 
ATOM      6  C   UNL     1      11.187 -10.777  29.413  1.00  0.00     0.157 A 
ENDROOT
BRANCH   1   7
ATOM      7  C   UNL     1      13.526 -14.010  27.806  1.00  0.00     0.010 C 
ATOM      8  C   UNL     1      14.326 -14.807  28.527  1.00  0.00     0.025 C 
BRANCH   8   9
ATOM      9  C   UNL     1      15.091 -15.903  27.912  1.00  0.00     0.064 C 
ATOM     10  O   UNL     1      15.437 -15.819  26.705  1.00  0.00    -0.545 OA
ATOM     11  O   UNL     1      15.442 -17.033  28.643  1.00  0.00    -0.545 OA
ENDBRANCH   8   9
ENDBRANCH   1   7
BRANCH   4  12
ATOM     12  O   UNL     1      12.679 -10.587  31.302  1.00  0.00    -0.504 OA
ATOM     13  H   UNL     1      13.243  -9.745  31.317  1.00  0.00     0.293 HD
ENDBRANCH   4  12
BRANCH   6  14
ATOM     14  O   UNL     1      10.423  -9.730  29.922  1.00  0.00    -0.504 OA
ATOM     15  H   UNL     1       9.737  -9.881  30.654  1.00  0.00     0.293 HD
ENDBRANCH   6  14
TORSDOF 4
ENDMDL
MODEL 3
REMARK VINA RESULT:    -5.932      0.854      1.873
REMARK INTER + INTRA:          -7.098
REMARK INTER:                  -6.953
REMARK INTRA:                  -0.145
REMARK UNBOUND:                -0.125
REMARK SMILES O=C([O-])C=Cc1ccc(O)c(O)c1
REMARK SMILES IDX 6 1 13 2 7 3 11 4 8 5 9 6 5 7 4 8 2 9 1 10 3 11 12 12 10 14
REMARK H PARENT 12 13 10 15
REMARK Flexibility Score: inf
ROOT
ATOM      1  C   UNL     1      13.517 -12.936  28.583  1.00  0.00    -0.022 A 
ATOM      2  C   UNL     1      14.156 -13.311  27.384  1.00  0.00     0.058 A 
ATOM      3  C   UNL     1      13.638 -13.772  29.706  1.00  0.00     0.012 A 
ATOM      4  C   UNL     1      14.919 -14.487  27.321  1.00  0.00     0.157 A 
ATOM      5  C   UNL     1      14.400 -14.942  29.643  1.00  0.00     0.051 A 
ATOM      6  C   UNL     1      15.044 -15.301  28.452  1.00  0.00     0.157 A 
ENDROOT
BRANCH   1   7
ATOM      7  C   UNL     1      12.690 -11.709  28.698  1.00  0.00     0.010 C 
ATOM      8  C   UNL     1      11.575 -11.631  29.437  1.00  0.00     0.025 C 
BRANCH   8   9
ATOM      9  C   UNL     1      10.778 -10.396  29.514  1.00  0.00     0.064 C 
ATOM     10  O   UNL     1      11.322  -9.327  29.894  1.00  0.00    -0.545 OA
ATOM     11  O   UNL     1       9.431 -10.388  29.167  1.00  0.00    -0.545 OA
ENDBRANCH   8   9
ENDBRANCH   1   7
BRANCH   4  12
ATOM     12  O   UNL     1      15.552 -14.854  26.134  1.00  0.00    -0.504 OA
ATOM     13  H   UNL     1      16.551 -15.019  26.094  1.00  0.00     0.293 HD
ENDBRANCH   4  12
BRANCH   6  14
ATOM     14  O   UNL     1      15.806 -16.465  28.386  1.00  0.00    -0.504 OA
ATOM     15  H   UNL     1      16.790 -16.442  28.144  1.00  0.00     0.293 HD
ENDBRANCH   6  14
TORSDOF 4
ENDMDL
MODEL 4
REMARK VINA RESULT:    -5.887      1.161      6.005
REMARK INTER + INTRA:          -7.045
REMARK INTER:                  -6.894
REMARK INTRA:                  -0.151
REMARK UNBOUND:                -0.125
REMARK SMILES O=C([O-])C=Cc1ccc(O)c(O)c1
REMARK SMILES IDX 6 1 13 2 7 3 11 4 8 5 9 6 5 7 4 8 2 9 1 10 3 11 12 12 10 14
REMARK H PARENT 12 13 10 15
REMARK Flexibility Score: inf
ROOT
ATOM      1  C   UNL     1      13.023 -12.902  28.660  1.00  0.00    -0.022 A 
ATOM      2  C   UNL     1      11.915 -12.264  28.066  1.00  0.00     0.058 A 
ATOM      3  C   UNL     1      13.638 -12.298  29.769  1.00  0.00     0.012 A 
ATOM      4  C   UNL     1      11.421 -11.060  28.590  1.00  0.00     0.157 A 
ATOM      5  C   UNL     1      13.145 -11.099  30.291  1.00  0.00     0.051 A 
ATOM      6  C   UNL     1      12.035 -10.478  29.705  1.00  0.00     0.157 A 
ENDROOT
BRANCH   1   7
ATOM      7  C   UNL     1      13.590 -14.170  28.137  1.00  0.00     0.010 C 
ATOM      8  C   UNL     1      14.544 -14.871  28.764  1.00  0.00     0.025 C 
BRANCH   8   9
ATOM      9  C   UNL     1      15.086 -16.119  28.203  1.00  0.00     0.064 C 
ATOM     10  O   UNL     1      15.231 -17.124  28.947  1.00  0.00    -0.545 OA
ATOM     11  O   UNL     1      15.439 -16.210  26.861  1.00  0.00    -0.545 OA
ENDBRANCH   8   9
ENDBRANCH   1   7
BRANCH   4  12
ATOM     12  O   UNL     1      10.323 -10.433  28.002  1.00  0.00    -0.504 OA
ATOM     13  H   UNL     1      10.340 -10.129  27.035  1.00  0.00     0.293 HD
ENDBRANCH   4  12
BRANCH   6  14
ATOM     14  O   UNL     1      11.539  -9.284  30.224  1.00  0.00    -0.504 OA
ATOM     15  H   UNL     1      11.169  -9.228  31.166  1.00  0.00     0.293 HD
ENDBRANCH   6  14
TORSDOF 4
ENDMDL
