MODEL 1
REMARK VINA RESULT:    -5.054      0.000      0.000
REMARK INTER + INTRA:          -5.881
REMARK INTER:                  -5.792
REMARK INTRA:                  -0.089
REMARK UNBOUND:                -0.089
REMARK SMILES COc1cc(C(=O)[O-])ccc1O
REMARK SMILES IDX 5 1 9 2 4 3 10 4 3 5 11 6 6 7 7 8 8 9 2 10 1 11 12 12
REMARK H PARENT 12 13
REMARK Flexibility Score: inf
ROOT
ATOM      1  C   UNL     1     134.885 150.394 140.469  1.00  0.00     0.001 A 
ATOM      2  C   UNL     1     135.068 150.336 139.078  1.00  0.00     0.014 A 
ATOM      3  C   UNL     1     135.997 150.221 141.312  1.00  0.00     0.060 A 
ATOM      4  C   UNL     1     136.336 150.108 138.540  1.00  0.00     0.051 A 
ATOM      5  C   UNL     1     137.280 149.991 140.774  1.00  0.00     0.161 A 
ATOM      6  C   UNL     1     137.440 149.937 139.379  1.00  0.00     0.157 A 
ENDROOT
BRANCH   1   7
ATOM      7  C   UNL     1     133.542 150.635 141.041  1.00  0.00     0.072 C 
ATOM      8  O   UNL     1     132.553 149.950 140.667  1.00  0.00    -0.545 OA
ATOM      9  O   UNL     1     133.351 151.621 142.003  1.00  0.00    -0.545 OA
ENDBRANCH   1   7
BRANCH   5  10
ATOM     10  O   UNL     1     138.408 149.815 141.592  1.00  0.00    -0.493 OA
ATOM     11  C   UNL     1     138.527 148.819 142.604  1.00  0.00     0.278 C 
ENDBRANCH   5  10
BRANCH   6  12
ATOM     12  O   UNL     1     138.692 149.712 138.805  1.00  0.00    -0.504 OA
ATOM     13  H   UNL     1     139.015 148.783 138.560  1.00  0.00     0.293 HD
ENDBRANCH   6  12
TORSDOF 3
ENDMDL
MODEL 2
REMARK VINA RESULT:    -4.900      1.039      2.452
REMARK INTER + INTRA:          -5.705
REMARK INTER:                  -5.609
REMARK INTRA:                  -0.097
REMARK UNBOUND:                -0.089
REMARK SMILES COc1cc(C(=O)[O-])ccc1O
REMARK SMILES IDX 5 1 9 2 4 3 10 4 3 5 11 6 6 7 7 8 8 9 2 10 1 11 12 12
REMARK H PARENT 12 13
REMARK Flexibility Score: inf
ROOT
ATOM      1  C   UNL     1     134.845 150.245 141.344  1.00  0.00     0.001 A 
ATOM      2  C   UNL     1     135.488 149.799 142.511  1.00  0.00     0.014 A 
ATOM      3  C   UNL     1     135.591 150.377 140.160  1.00  0.00     0.060 A 
ATOM      4  C   UNL     1     136.850 149.492 142.494  1.00  0.00     0.051 A 
ATOM      5  C   UNL     1     136.966 150.067 140.137  1.00  0.00     0.161 A 
ATOM      6  C   UNL     1     137.591 149.623 141.316  1.00  0.00     0.157 A 
ENDROOT
BRANCH   1   7
ATOM      7  C   UNL     1     133.402 150.572 141.360  1.00  0.00     0.072 C 
ATOM      8  O   UNL     1     132.589 149.924 140.648  1.00  0.00    -0.545 OA
ATOM      9  O   UNL     1     132.921 151.600 142.164  1.00  0.00    -0.545 OA
ENDBRANCH   1   7
BRANCH   5  10
ATOM     10  O   UNL     1     137.737 150.189 138.969  1.00  0.00    -0.493 OA
ATOM     11  C   UNL     1     137.800 149.210 137.935  1.00  0.00     0.278 C 
ENDBRANCH   5  10
BRANCH   6  12
ATOM     12  O   UNL     1     138.949 149.305 141.337  1.00  0.00    -0.504 OA
ATOM     13  H   UNL     1     139.612 149.726 140.696  1.00  0.00     0.293 HD
ENDBRANCH   6  12
TORSDOF 3
ENDMDL
MODEL 3
REMARK VINA RESULT:    -4.628      1.181      4.297
REMARK INTER + INTRA:          -5.394
REMARK INTER:                  -5.299
REMARK INTRA:                  -0.095
REMARK UNBOUND:                -0.089
REMARK SMILES COc1cc(C(=O)[O-])ccc1O
REMARK SMILES IDX 5 1 9 2 4 3 10 4 3 5 11 6 6 7 7 8 8 9 2 10 1 11 12 12
REMARK H PARENT 12 13
REMARK Flexibility Score: inf
ROOT
ATOM      1  C   UNL     1     137.274 149.810 140.906  1.00  0.00     0.001 A 
ATOM      2  C   UNL     1     137.291 149.995 139.514  1.00  0.00     0.014 A 
ATOM      3  C   UNL     1     136.049 149.890 141.592  1.00  0.00     0.060 A 
ATOM      4  C   UNL     1     136.107 150.255 138.821  1.00  0.00     0.051 A 
ATOM      5  C   UNL     1     134.851 150.153 140.897  1.00  0.00     0.161 A 
ATOM      6  C   UNL     1     134.890 150.335 139.503  1.00  0.00     0.157 A 
ENDROOT
BRANCH   1   7
ATOM      7  C   UNL     1     138.528 149.534 141.643  1.00  0.00     0.072 C 
ATOM      8  O   UNL     1     139.638 149.909 141.182  1.00  0.00    -0.545 OA
ATOM      9  O   UNL     1     138.497 148.857 142.858  1.00  0.00    -0.545 OA
ENDBRANCH   1   7
BRANCH   5  10
ATOM     10  O   UNL     1     133.613 150.238 141.555  1.00  0.00    -0.493 OA
ATOM     11  C   UNL     1     133.079 151.431 142.123  1.00  0.00     0.278 C 
ENDBRANCH   5  10
BRANCH   6  12
ATOM     12  O   UNL     1     133.728 150.596 138.777  1.00  0.00    -0.504 OA
ATOM     13  H   UNL     1     133.164 149.856 138.374  1.00  0.00     0.293 HD
ENDBRANCH   6  12
TORSDOF 3
ENDMDL
MODEL 4
REMARK VINA RESULT:    -4.543     12.143     12.724
REMARK INTER + INTRA:          -5.295
REMARK INTER:                  -5.204
REMARK INTRA:                  -0.091
REMARK UNBOUND:                -0.089
REMARK SMILES COc1cc(C(=O)[O-])ccc1O
REMARK SMILES IDX 5 1 9 2 4 3 10 4 3 5 11 6 6 7 7 8 8 9 2 10 1 11 12 12
REMARK H PARENT 12 13
REMARK Flexibility Score: inf
ROOT
ATOM      1  C   UNL     1     148.263 148.032 140.169  1.00  0.00     0.001 A 
ATOM      2  C   UNL     1     148.351 148.413 138.819  1.00  0.00     0.014 A 
ATOM      3  C   UNL     1     148.060 149.021 141.147  1.00  0.00     0.060 A 
ATOM      4  C   UNL     1     148.239 149.757 138.456  1.00  0.00     0.051 A 
ATOM      5  C   UNL     1     147.946 150.379 140.785  1.00  0.00     0.161 A 
ATOM      6  C   UNL     1     148.037 150.739 139.429  1.00  0.00     0.157 A 
ENDROOT
BRANCH   1   7
ATOM      7  C   UNL     1     148.382 146.609 140.556  1.00  0.00     0.072 C 
ATOM      8  O   UNL     1     148.915 146.284 141.651  1.00  0.00    -0.545 OA
ATOM      9  O   UNL     1     147.905 145.607 139.717  1.00  0.00    -0.545 OA
ENDBRANCH   1   7
BRANCH   5  10
ATOM     10  O   UNL     1     147.743 151.389 141.741  1.00  0.00    -0.493 OA
ATOM     11  C   UNL     1     148.608 151.646 142.842  1.00  0.00     0.278 C 
ENDBRANCH   5  10
BRANCH   6  12
ATOM     12  O   UNL     1     147.929 152.071 139.027  1.00  0.00    -0.504 OA
ATOM     13  H   UNL     1     148.236 152.386 138.114  1.00  0.00     0.293 HD
ENDBRANCH   6  12
TORSDOF 3
ENDMDL
MODEL 5
REMARK VINA RESULT:    -4.434      1.719      4.466
REMARK INTER + INTRA:          -5.171
REMARK INTER:                  -5.088
REMARK INTRA:                  -0.083
REMARK UNBOUND:                -0.089
REMARK SMILES COc1cc(C(=O)[O-])ccc1O
REMARK SMILES IDX 5 1 9 2 4 3 10 4 3 5 11 6 6 7 7 8 8 9 2 10 1 11 12 12
REMARK H PARENT 12 13
REMARK Flexibility Score: inf
ROOT
ATOM      1  C   UNL     1     138.410 149.709 140.646  1.00  0.00     0.001 A 
ATOM      2  C   UNL     1     138.298 149.850 139.252  1.00  0.00     0.014 A 
ATOM      3  C   UNL     1     137.269 149.896 141.446  1.00  0.00     0.060 A 
ATOM      4  C   UNL     1     137.070 150.173 138.671  1.00  0.00     0.051 A 
ATOM      5  C   UNL     1     136.027 150.221 140.863  1.00  0.00     0.161 A 
ATOM      6  C   UNL     1     135.937 150.358 139.467  1.00  0.00     0.157 A 
ENDROOT
BRANCH   1   7
ATOM      7  C   UNL     1     139.711 149.368 141.264  1.00  0.00     0.072 C 
ATOM      8  O   UNL     1     139.882 149.489 142.506  1.00  0.00    -0.545 OA
ATOM      9  O   UNL     1     140.763 148.906 140.482  1.00  0.00    -0.545 OA
ENDBRANCH   1   7
BRANCH   5  10
ATOM     10  O   UNL     1     134.870 150.413 141.638  1.00  0.00    -0.493 OA
ATOM     11  C   UNL     1     134.858 150.967 142.950  1.00  0.00     0.278 C 
ENDBRANCH   5  10
BRANCH   6  12
ATOM     12  O   UNL     1     134.727 150.678 138.850  1.00  0.00    -0.504 OA
ATOM     13  H   UNL     1     134.192 149.997 138.324  1.00  0.00     0.293 HD
ENDBRANCH   6  12
TORSDOF 3
ENDMDL
MODEL 6
REMARK VINA RESULT:    -4.378     11.355     12.603
REMARK INTER + INTRA:          -5.107
REMARK INTER:                  -5.011
REMARK INTRA:                  -0.096
REMARK UNBOUND:                -0.089
REMARK SMILES COc1cc(C(=O)[O-])ccc1O
REMARK SMILES IDX 5 1 9 2 4 3 10 4 3 5 11 6 6 7 7 8 8 9 2 10 1 11 12 12
REMARK H PARENT 12 13
REMARK Flexibility Score: inf
ROOT
ATOM      1  C   UNL     1     148.007 147.493 141.863  1.00  0.00     0.001 A 
ATOM      2  C   UNL     1     148.465 146.949 140.652  1.00  0.00     0.014 A 
ATOM      3  C   UNL     1     147.844 148.885 141.969  1.00  0.00     0.060 A 
ATOM      4  C   UNL     1     148.754 147.781 139.568  1.00  0.00     0.051 A 
ATOM      5  C   UNL     1     148.134 149.730 140.878  1.00  0.00     0.161 A 
ATOM      6  C   UNL     1     148.591 149.164 139.674  1.00  0.00     0.157 A 
ENDROOT
BRANCH   1   7
ATOM      7  C   UNL     1     147.700 146.614 143.013  1.00  0.00     0.072 C 
ATOM      8  O   UNL     1     146.547 146.598 143.520  1.00  0.00    -0.545 OA
ATOM      9  O   UNL     1     148.682 145.789 143.551  1.00  0.00    -0.545 OA
ENDBRANCH   1   7
BRANCH   5  10
ATOM     10  O   UNL     1     147.979 151.124 140.954  1.00  0.00    -0.493 OA
ATOM     11  C   UNL     1     146.726 151.800 140.961  1.00  0.00     0.278 C 
ENDBRANCH   5  10
BRANCH   6  12
ATOM     12  O   UNL     1     148.889 149.963 138.570  1.00  0.00    -0.504 OA
ATOM     13  H   UNL     1     149.790 150.413 138.456  1.00  0.00     0.293 HD
ENDBRANCH   6  12
TORSDOF 3
ENDMDL
MODEL 7
REMARK VINA RESULT:    -4.370     11.337     11.975
REMARK INTER + INTRA:          -5.097
REMARK INTER:                  -5.022
REMARK INTRA:                  -0.075
REMARK UNBOUND:                -0.089
REMARK SMILES COc1cc(C(=O)[O-])ccc1O
REMARK SMILES IDX 5 1 9 2 4 3 10 4 3 5 11 6 6 7 7 8 8 9 2 10 1 11 12 12
REMARK H PARENT 12 13
REMARK Flexibility Score: inf
ROOT
ATOM      1  C   UNL     1     147.223 149.004 141.996  1.00  0.00     0.001 A 
ATOM      2  C   UNL     1     147.305 150.354 142.376  1.00  0.00     0.014 A 
ATOM      3  C   UNL     1     147.432 148.659 140.649  1.00  0.00     0.060 A 
ATOM      4  C   UNL     1     147.589 151.339 141.428  1.00  0.00     0.051 A 
ATOM      5  C   UNL     1     147.719 149.649 139.688  1.00  0.00     0.161 A 
ATOM      6  C   UNL     1     147.796 150.995 140.090  1.00  0.00     0.157 A 
ENDROOT
BRANCH   1   7
ATOM      7  C   UNL     1     146.923 147.958 142.999  1.00  0.00     0.072 C 
ATOM      8  O   UNL     1     145.874 148.019 143.695  1.00  0.00    -0.545 OA
ATOM      9  O   UNL     1     147.793 146.890 143.187  1.00  0.00    -0.545 OA
ENDBRANCH   1   7
BRANCH   5  10
ATOM     10  O   UNL     1     147.932 149.334 138.336  1.00  0.00    -0.493 OA
ATOM     11  C   UNL     1     147.604 148.085 137.735  1.00  0.00     0.278 C 
ENDBRANCH   5  10
BRANCH   6  12
ATOM     12  O   UNL     1     148.078 152.006 139.171  1.00  0.00    -0.504 OA
ATOM     13  H   UNL     1     147.418 152.748 138.965  1.00  0.00     0.293 HD
ENDBRANCH   6  12
TORSDOF 3
ENDMDL
MODEL 8
REMARK VINA RESULT:    -4.314      1.689      4.152
REMARK INTER + INTRA:          -5.033
REMARK INTER:                  -4.955
REMARK INTRA:                  -0.078
REMARK UNBOUND:                -0.089
REMARK SMILES COc1cc(C(=O)[O-])ccc1O
REMARK SMILES IDX 5 1 9 2 4 3 10 4 3 5 11 6 6 7 7 8 8 9 2 10 1 11 12 12
REMARK H PARENT 12 13
REMARK Flexibility Score: inf
ROOT
ATOM      1  C   UNL     1     136.991 149.203 142.060  1.00  0.00     0.001 A 
ATOM      2  C   UNL     1     135.690 149.594 142.416  1.00  0.00     0.014 A 
ATOM      3  C   UNL     1     137.413 149.364 140.729  1.00  0.00     0.060 A 
ATOM      4  C   UNL     1     134.828 150.136 141.461  1.00  0.00     0.051 A 
ATOM      5  C   UNL     1     136.547 149.911 139.760  1.00  0.00     0.161 A 
ATOM      6  C   UNL     1     135.249 150.296 140.138  1.00  0.00     0.157 A 
ENDROOT
BRANCH   1   7
ATOM      7  C   UNL     1     137.906 148.628 143.072  1.00  0.00     0.072 C 
ATOM      8  O   UNL     1     137.541 147.659 143.790  1.00  0.00    -0.545 OA
ATOM      9  O   UNL     1     139.184 149.149 143.243  1.00  0.00    -0.545 OA
ENDBRANCH   1   7
BRANCH   5  10
ATOM     10  O   UNL     1     136.942 150.085 138.423  1.00  0.00    -0.493 OA
ATOM     11  C   UNL     1     137.876 149.252 137.741  1.00  0.00     0.278 C 
ENDBRANCH   5  10
BRANCH   6  12
ATOM     12  O   UNL     1     134.360 150.841 139.211  1.00  0.00    -0.504 OA
ATOM     13  H   UNL     1     133.659 150.281 138.739  1.00  0.00     0.293 HD
ENDBRANCH   6  12
TORSDOF 3
ENDMDL
MODEL 9
REMARK VINA RESULT:    -4.267      1.414      2.005
REMARK INTER + INTRA:          -4.980
REMARK INTER:                  -4.893
REMARK INTRA:                  -0.087
REMARK UNBOUND:                -0.089
REMARK SMILES COc1cc(C(=O)[O-])ccc1O
REMARK SMILES IDX 5 1 9 2 4 3 10 4 3 5 11 6 6 7 7 8 8 9 2 10 1 11 12 12
REMARK H PARENT 12 13
REMARK Flexibility Score: inf
ROOT
ATOM      1  C   UNL     1     135.827 150.239 141.128  1.00  0.00     0.001 A 
ATOM      2  C   UNL     1     136.687 150.573 140.069  1.00  0.00     0.014 A 
ATOM      3  C   UNL     1     136.343 149.541 142.234  1.00  0.00     0.060 A 
ATOM      4  C   UNL     1     138.036 150.216 140.113  1.00  0.00     0.051 A 
ATOM      5  C   UNL     1     137.705 149.178 142.284  1.00  0.00     0.161 A 
ATOM      6  C   UNL     1     138.548 149.523 141.213  1.00  0.00     0.157 A 
ENDROOT
BRANCH   1   7
ATOM      7  C   UNL     1     134.396 150.616 141.082  1.00  0.00     0.072 C 
ATOM      8  O   UNL     1     133.797 150.985 142.127  1.00  0.00    -0.545 OA
ATOM      9  O   UNL     1     133.693 150.571 139.884  1.00  0.00    -0.545 OA
ENDBRANCH   1   7
BRANCH   5  10
ATOM     10  O   UNL     1     138.249 148.481 143.376  1.00  0.00    -0.493 OA
ATOM     11  C   UNL     1     137.693 147.296 143.937  1.00  0.00     0.278 C 
ENDBRANCH   5  10
BRANCH   6  12
ATOM     12  O   UNL     1     139.901 149.183 141.222  1.00  0.00    -0.504 OA
ATOM     13  H   UNL     1     140.266 148.433 141.798  1.00  0.00     0.293 HD
ENDBRANCH   6  12
TORSDOF 3
ENDMDL
