MODEL 1
REMARK VINA RESULT:    -5.134      0.000      0.000
REMARK INTER + INTRA:          -9.509
REMARK INTER:                  -8.135
REMARK INTRA:                  -1.375
REMARK UNBOUND:                -1.375
REMARK SMILES CCCCCCCCCCCC(=O)[O-]
REMARK SMILES IDX 7 1 8 2 9 3 10 4 11 5 12 6 13 7 14 8 6 9 5 10 4 11 3 12 2 13
REMARK SMILES IDX 1 14
REMARK H PARENT
REMARK Flexibility Score: inf
ROOT
ATOM      1  C   UNL     1      54.195  14.183   0.261  1.00  0.00     0.000 C 
ENDROOT
BRANCH   1   2
ATOM      2  C   UNL     1      53.245  14.625  -0.864  1.00  0.00     0.000 C 
BRANCH   2   3
ATOM      3  C   UNL     1      53.776  15.846  -1.637  1.00  0.00     0.000 C 
BRANCH   3   4
ATOM      4  C   UNL     1      52.648  16.758  -2.145  1.00  0.00     0.006 C 
BRANCH   4   5
ATOM      5  C   UNL     1      52.397  17.956  -1.220  1.00  0.00     0.053 C 
BRANCH   5   6
ATOM      6  C   UNL     1      50.975  18.405  -1.323  1.00  0.00     0.041 C 
ATOM      7  O   UNL     1      50.499  18.755  -2.435  1.00  0.00    -0.550 OA
ATOM      8  O   UNL     1      50.158  18.391  -0.199  1.00  0.00    -0.550 OA
ENDBRANCH   5   6
ENDBRANCH   4   5
ENDBRANCH   3   4
ENDBRANCH   2   3
ENDBRANCH   1   2
BRANCH   1   9
ATOM      9  C   UNL     1      53.697  14.608   1.654  1.00  0.00     0.000 C 
BRANCH   9  10
ATOM     10  C   UNL     1      52.594  15.676   1.585  1.00  0.00    -0.000 C 
BRANCH  10  11
ATOM     11  C   UNL     1      52.987  16.977   2.306  1.00  0.00    -0.000 C 
BRANCH  11  12
ATOM     12  C   UNL     1      54.502  17.085   2.545  1.00  0.00    -0.000 C 
BRANCH  12  13
ATOM     13  C   UNL     1      55.223  17.844   1.422  1.00  0.00    -0.003 C 
ATOM     14  C   UNL     1      56.461  17.085   0.954  1.00  0.00     0.004 C 
ENDBRANCH  12  13
ENDBRANCH  11  12
ENDBRANCH  10  11
ENDBRANCH   9  10
ENDBRANCH   1   9
TORSDOF 10
ENDMDL
MODEL 2
REMARK VINA RESULT:    -5.075      3.771      5.208
REMARK INTER + INTRA:          -9.417
REMARK INTER:                  -8.116
REMARK INTRA:                  -1.300
REMARK UNBOUND:                -1.375
REMARK SMILES CCCCCCCCCCCC(=O)[O-]
REMARK SMILES IDX 7 1 8 2 9 3 10 4 11 5 12 6 13 7 14 8 6 9 5 10 4 11 3 12 2 13
REMARK SMILES IDX 1 14
REMARK H PARENT
REMARK Flexibility Score: inf
ROOT
ATOM      1  C   UNL     1      52.856  16.900  -1.300  1.00  0.00     0.000 C 
ENDROOT
BRANCH   1   2
ATOM      2  C   UNL     1      53.310  15.473  -1.647  1.00  0.00     0.000 C 
BRANCH   2   3
ATOM      3  C   UNL     1      53.273  14.531  -0.431  1.00  0.00     0.000 C 
BRANCH   3   4
ATOM      4  C   UNL     1      54.294  13.387  -0.539  1.00  0.00     0.006 C 
BRANCH   4   5
ATOM      5  C   UNL     1      55.480  13.562   0.418  1.00  0.00     0.053 C 
BRANCH   5   6
ATOM      6  C   UNL     1      56.558  12.576   0.099  1.00  0.00     0.041 C 
ATOM      7  O   UNL     1      57.765  12.935   0.098  1.00  0.00    -0.550 OA
ATOM      8  O   UNL     1      56.233  11.249  -0.152  1.00  0.00    -0.550 OA
ENDBRANCH   5   6
ENDBRANCH   4   5
ENDBRANCH   3   4
ENDBRANCH   2   3
ENDBRANCH   1   2
BRANCH   1   9
ATOM      9  C   UNL     1      54.039  17.868  -1.122  1.00  0.00     0.000 C 
BRANCH   9  10
ATOM     10  C   UNL     1      55.396  17.145  -1.108  1.00  0.00    -0.000 C 
BRANCH  10  11
ATOM     11  C   UNL     1      56.014  17.078   0.299  1.00  0.00    -0.000 C 
BRANCH  11  12
ATOM     12  C   UNL     1      55.257  17.944   1.318  1.00  0.00    -0.000 C 
BRANCH  12  13
ATOM     13  C   UNL     1      54.640  17.115   2.454  1.00  0.00    -0.003 C 
ATOM     14  C   UNL     1      53.116  17.173   2.410  1.00  0.00     0.004 C 
ENDBRANCH  12  13
ENDBRANCH  11  12
ENDBRANCH  10  11
ENDBRANCH   9  10
ENDBRANCH   1   9
TORSDOF 10
ENDMDL
MODEL 3
REMARK VINA RESULT:    -5.033      2.877      4.442
REMARK INTER + INTRA:          -9.350
REMARK INTER:                  -7.948
REMARK INTRA:                  -1.402
REMARK UNBOUND:                -1.375
REMARK SMILES CCCCCCCCCCCC(=O)[O-]
REMARK SMILES IDX 7 1 8 2 9 3 10 4 11 5 12 6 13 7 14 8 6 9 5 10 4 11 3 12 2 13
REMARK SMILES IDX 1 14
REMARK H PARENT
REMARK Flexibility Score: inf
ROOT
ATOM      1  C   UNL     1      54.369  17.971  -1.108  1.00  0.00     0.000 C 
ENDROOT
BRANCH   1   2
ATOM      2  C   UNL     1      53.157  17.093  -1.458  1.00  0.00     0.000 C 
BRANCH   2   3
ATOM      3  C   UNL     1      53.561  15.668  -1.874  1.00  0.00     0.000 C 
BRANCH   3   4
ATOM      4  C   UNL     1      53.119  14.607  -0.854  1.00  0.00     0.006 C 
BRANCH   4   5
ATOM      5  C   UNL     1      54.156  13.490  -0.678  1.00  0.00     0.053 C 
BRANCH   5   6
ATOM      6  C   UNL     1      54.963  13.720   0.560  1.00  0.00     0.041 C 
ATOM      7  O   UNL     1      54.393  14.024   1.642  1.00  0.00    -0.550 OA
ATOM      8  O   UNL     1      56.342  13.550   0.533  1.00  0.00    -0.550 OA
ENDBRANCH   5   6
ENDBRANCH   4   5
ENDBRANCH   3   4
ENDBRANCH   2   3
ENDBRANCH   1   2
BRANCH   1   9
ATOM      9  C   UNL     1      55.657  17.149  -0.919  1.00  0.00     0.000 C 
BRANCH   9  10
ATOM     10  C   UNL     1      56.112  17.095   0.548  1.00  0.00    -0.000 C 
BRANCH  10  11
ATOM     11  C   UNL     1      55.287  18.023   1.456  1.00  0.00    -0.000 C 
BRANCH  11  12
ATOM     12  C   UNL     1      54.490  17.252   2.520  1.00  0.00    -0.000 C 
BRANCH  12  13
ATOM     13  C   UNL     1      53.018  17.684   2.583  1.00  0.00    -0.003 C 
ATOM     14  C   UNL     1      52.116  16.658   1.903  1.00  0.00     0.004 C 
ENDBRANCH  12  13
ENDBRANCH  11  12
ENDBRANCH  10  11
ENDBRANCH   9  10
ENDBRANCH   1   9
TORSDOF 10
ENDMDL
MODEL 4
REMARK VINA RESULT:    -5.032      2.632      4.931
REMARK INTER + INTRA:          -9.349
REMARK INTER:                  -7.843
REMARK INTRA:                  -1.505
REMARK UNBOUND:                -1.375
REMARK SMILES CCCCCCCCCCCC(=O)[O-]
REMARK SMILES IDX 7 1 8 2 9 3 10 4 11 5 12 6 13 7 14 8 6 9 5 10 4 11 3 12 2 13
REMARK SMILES IDX 1 14
REMARK H PARENT
REMARK Flexibility Score: inf
ROOT
ATOM      1  C   UNL     1      55.181  17.920   1.471  1.00  0.00     0.000 C 
ENDROOT
BRANCH   1   2
ATOM      2  C   UNL     1      54.514  16.976   2.485  1.00  0.00     0.000 C 
BRANCH   2   3
ATOM      3  C   UNL     1      53.025  16.738   2.178  1.00  0.00     0.000 C 
BRANCH   3   4
ATOM      4  C   UNL     1      52.763  15.360   1.552  1.00  0.00     0.006 C 
BRANCH   4   5
ATOM      5  C   UNL     1      53.971  14.420   1.669  1.00  0.00     0.053 C 
BRANCH   5   6
ATOM      6  C   UNL     1      54.372  13.918   0.319  1.00  0.00     0.041 C 
ATOM      7  O   UNL     1      53.536  13.892  -0.623  1.00  0.00    -0.550 OA
ATOM      8  O   UNL     1      55.684  13.523   0.086  1.00  0.00    -0.550 OA
ENDBRANCH   5   6
ENDBRANCH   4   5
ENDBRANCH   3   4
ENDBRANCH   2   3
ENDBRANCH   1   2
BRANCH   1   9
ATOM      9  C   UNL     1      56.110  17.176   0.495  1.00  0.00     0.000 C 
BRANCH   9  10
ATOM     10  C   UNL     1      55.551  17.135  -0.936  1.00  0.00    -0.000 C 
BRANCH  10  11
ATOM     11  C   UNL     1      54.286  17.995  -1.099  1.00  0.00    -0.000 C 
BRANCH  11  12
ATOM     12  C   UNL     1      53.083  17.185  -1.609  1.00  0.00    -0.000 C 
BRANCH  12  13
ATOM     13  C   UNL     1      51.741  17.755  -1.127  1.00  0.00    -0.003 C 
ATOM     14  C   UNL     1      50.925  18.299  -2.297  1.00  0.00     0.004 C 
ENDBRANCH  12  13
ENDBRANCH  11  12
ENDBRANCH  10  11
ENDBRANCH   9  10
ENDBRANCH   1   9
TORSDOF 10
ENDMDL
MODEL 5
REMARK VINA RESULT:    -4.986      1.639      3.947
REMARK INTER + INTRA:          -9.275
REMARK INTER:                  -7.963
REMARK INTRA:                  -1.312
REMARK UNBOUND:                -1.375
REMARK SMILES CCCCCCCCCCCC(=O)[O-]
REMARK SMILES IDX 7 1 8 2 9 3 10 4 11 5 12 6 13 7 14 8 6 9 5 10 4 11 3 12 2 13
REMARK SMILES IDX 1 14
REMARK H PARENT
REMARK Flexibility Score: inf
ROOT
ATOM      1  C   UNL     1      55.209  17.800   1.458  1.00  0.00     0.000 C 
ENDROOT
BRANCH   1   2
ATOM      2  C   UNL     1      54.360  16.959   2.425  1.00  0.00     0.000 C 
BRANCH   2   3
ATOM      3  C   UNL     1      52.970  17.571   2.673  1.00  0.00     0.000 C 
BRANCH   3   4
ATOM      4  C   UNL     1      51.897  16.999   1.733  1.00  0.00     0.006 C 
BRANCH   4   5
ATOM      5  C   UNL     1      51.186  18.088   0.918  1.00  0.00     0.053 C 
BRANCH   5   6
ATOM      6  C   UNL     1      49.796  18.295   1.428  1.00  0.00     0.041 C 
ATOM      7  O   UNL     1      49.331  17.545   2.327  1.00  0.00    -0.550 OA
ATOM      8  O   UNL     1      49.028  19.348   0.945  1.00  0.00    -0.550 OA
ENDBRANCH   5   6
ENDBRANCH   4   5
ENDBRANCH   3   4
ENDBRANCH   2   3
ENDBRANCH   1   2
BRANCH   1   9
ATOM      9  C   UNL     1      55.983  16.934   0.448  1.00  0.00     0.000 C 
BRANCH   9  10
ATOM     10  C   UNL     1      55.532  17.174  -1.002  1.00  0.00    -0.000 C 
BRANCH  10  11
ATOM     11  C   UNL     1      54.015  16.990  -1.186  1.00  0.00    -0.000 C 
BRANCH  11  12
ATOM     12  C   UNL     1      53.660  15.653  -1.854  1.00  0.00    -0.000 C 
BRANCH  12  13
ATOM     13  C   UNL     1      53.115  14.621  -0.856  1.00  0.00    -0.003 C 
ATOM     14  C   UNL     1      54.227  13.710  -0.346  1.00  0.00     0.004 C 
ENDBRANCH  12  13
ENDBRANCH  11  12
ENDBRANCH  10  11
ENDBRANCH   9  10
ENDBRANCH   1   9
TORSDOF 10
ENDMDL
MODEL 6
REMARK VINA RESULT:    -4.958      4.047      5.843
REMARK INTER + INTRA:          -9.231
REMARK INTER:                  -7.967
REMARK INTRA:                  -1.264
REMARK UNBOUND:                -1.375
REMARK SMILES CCCCCCCCCCCC(=O)[O-]
REMARK SMILES IDX 7 1 8 2 9 3 10 4 11 5 12 6 13 7 14 8 6 9 5 10 4 11 3 12 2 13
REMARK SMILES IDX 1 14
REMARK H PARENT
REMARK Flexibility Score: inf
ROOT
ATOM      1  C   UNL     1      54.487  17.128   2.264  1.00  0.00     0.000 C 
ENDROOT
BRANCH   1   2
ATOM      2  C   UNL     1      55.341  17.733   1.139  1.00  0.00     0.000 C 
BRANCH   2   3
ATOM      3  C   UNL     1      56.758  17.134   1.087  1.00  0.00     0.000 C 
BRANCH   3   4
ATOM      4  C   UNL     1      56.957  16.192  -0.111  1.00  0.00     0.006 C 
BRANCH   4   5
ATOM      5  C   UNL     1      57.842  14.985   0.229  1.00  0.00     0.053 C 
BRANCH   5   6
ATOM      6  C   UNL     1      59.287  15.367   0.176  1.00  0.00     0.041 C 
ATOM      7  O   UNL     1      59.845  15.585  -0.932  1.00  0.00    -0.550 OA
ATOM      8  O   UNL     1      60.007  15.529   1.353  1.00  0.00    -0.550 OA
ENDBRANCH   5   6
ENDBRANCH   4   5
ENDBRANCH   3   4
ENDBRANCH   2   3
ENDBRANCH   1   2
BRANCH   1   9
ATOM      9  C   UNL     1      53.326  16.272   1.727  1.00  0.00     0.000 C 
BRANCH   9  10
ATOM     10  C   UNL     1      53.661  14.772   1.704  1.00  0.00    -0.000 C 
BRANCH  10  11
ATOM     11  C   UNL     1      54.142  14.296   0.322  1.00  0.00    -0.000 C 
BRANCH  11  12
ATOM     12  C   UNL     1      53.109  14.557  -0.785  1.00  0.00    -0.000 C 
BRANCH  12  13
ATOM     13  C   UNL     1      53.574  15.623  -1.787  1.00  0.00    -0.003 C 
ATOM     14  C   UNL     1      52.583  16.782  -1.855  1.00  0.00     0.004 C 
ENDBRANCH  12  13
ENDBRANCH  11  12
ENDBRANCH  10  11
ENDBRANCH   9  10
ENDBRANCH   1   9
TORSDOF 10
ENDMDL
MODEL 7
REMARK VINA RESULT:    -4.948      2.017      4.164
REMARK INTER + INTRA:          -9.215
REMARK INTER:                  -7.866
REMARK INTRA:                  -1.349
REMARK UNBOUND:                -1.375
REMARK SMILES CCCCCCCCCCCC(=O)[O-]
REMARK SMILES IDX 7 1 8 2 9 3 10 4 11 5 12 6 13 7 14 8 6 9 5 10 4 11 3 12 2 13
REMARK SMILES IDX 1 14
REMARK H PARENT
REMARK Flexibility Score: inf
ROOT
ATOM      1  C   UNL     1      54.292  17.884  -1.123  1.00  0.00     0.000 C 
ENDROOT
BRANCH   1   2
ATOM      2  C   UNL     1      55.633  17.171  -0.891  1.00  0.00     0.000 C 
BRANCH   2   3
ATOM      3  C   UNL     1      55.946  16.975   0.603  1.00  0.00     0.000 C 
BRANCH   3   4
ATOM      4  C   UNL     1      55.101  17.886   1.508  1.00  0.00     0.006 C 
BRANCH   4   5
ATOM      5  C   UNL     1      54.377  17.109   2.616  1.00  0.00     0.053 C 
BRANCH   5   6
ATOM      6  C   UNL     1      52.897  17.172   2.414  1.00  0.00     0.041 C 
ATOM      7  O   UNL     1      52.301  16.250   1.796  1.00  0.00    -0.550 OA
ATOM      8  O   UNL     1      52.166  18.225   2.951  1.00  0.00    -0.550 OA
ENDBRANCH   5   6
ENDBRANCH   4   5
ENDBRANCH   3   4
ENDBRANCH   2   3
ENDBRANCH   1   2
BRANCH   1   9
ATOM      9  C   UNL     1      53.140  16.900  -1.396  1.00  0.00     0.000 C 
BRANCH   9  10
ATOM     10  C   UNL     1      53.638  15.530  -1.883  1.00  0.00    -0.000 C 
BRANCH  10  11
ATOM     11  C   UNL     1      53.068  14.366  -1.053  1.00  0.00    -0.000 C 
BRANCH  11  12
ATOM     12  C   UNL     1      54.000  13.948   0.094  1.00  0.00    -0.000 C 
BRANCH  12  13
ATOM     13  C   UNL     1      55.113  12.996  -0.366  1.00  0.00    -0.003 C 
ATOM     14  C   UNL     1      56.442  13.343   0.297  1.00  0.00     0.004 C 
ENDBRANCH  12  13
ENDBRANCH  11  12
ENDBRANCH  10  11
ENDBRANCH   9  10
ENDBRANCH   1   9
TORSDOF 10
ENDMDL
MODEL 8
REMARK VINA RESULT:    -4.936      3.346      5.337
REMARK INTER + INTRA:          -9.197
REMARK INTER:                  -7.862
REMARK INTRA:                  -1.335
REMARK UNBOUND:                -1.375
REMARK SMILES CCCCCCCCCCCC(=O)[O-]
REMARK SMILES IDX 7 1 8 2 9 3 10 4 11 5 12 6 13 7 14 8 6 9 5 10 4 11 3 12 2 13
REMARK SMILES IDX 1 14
REMARK H PARENT
REMARK Flexibility Score: inf
ROOT
ATOM      1  C   UNL     1      52.375  16.885   1.334  1.00  0.00     0.000 C 
ENDROOT
BRANCH   1   2
ATOM      2  C   UNL     1      53.409  17.485   2.299  1.00  0.00     0.000 C 
BRANCH   2   3
ATOM      3  C   UNL     1      54.756  16.742   2.256  1.00  0.00     0.000 C 
BRANCH   3   4
ATOM      4  C   UNL     1      55.824  17.501   1.453  1.00  0.00     0.006 C 
BRANCH   4   5
ATOM      5  C   UNL     1      56.261  16.745   0.191  1.00  0.00     0.053 C 
BRANCH   5   6
ATOM      6  C   UNL     1      57.511  15.968   0.457  1.00  0.00     0.041 C 
ATOM      7  O   UNL     1      58.562  16.562   0.817  1.00  0.00    -0.550 OA
ATOM      8  O   UNL     1      57.504  14.583   0.353  1.00  0.00    -0.550 OA
ENDBRANCH   5   6
ENDBRANCH   4   5
ENDBRANCH   3   4
ENDBRANCH   2   3
ENDBRANCH   1   2
BRANCH   1   9
ATOM      9  C   UNL     1      51.903  17.897   0.273  1.00  0.00     0.000 C 
BRANCH   9  10
ATOM     10  C   UNL     1      52.766  17.865  -0.998  1.00  0.00    -0.000 C 
BRANCH  10  11
ATOM     11  C   UNL     1      52.478  16.634  -1.875  1.00  0.00    -0.000 C 
BRANCH  11  12
ATOM     12  C   UNL     1      53.590  15.576  -1.792  1.00  0.00    -0.000 C 
BRANCH  12  13
ATOM     13  C   UNL     1      53.131  14.293  -1.085  1.00  0.00    -0.003 C 
ATOM     14  C   UNL     1      54.290  13.628  -0.349  1.00  0.00     0.004 C 
ENDBRANCH  12  13
ENDBRANCH  11  12
ENDBRANCH  10  11
ENDBRANCH   9  10
ENDBRANCH   1   9
TORSDOF 10
ENDMDL
MODEL 9
REMARK VINA RESULT:    -4.880      1.084      2.601
REMARK INTER + INTRA:          -9.108
REMARK INTER:                  -7.582
REMARK INTRA:                  -1.526
REMARK UNBOUND:                -1.375
REMARK SMILES CCCCCCCCCCCC(=O)[O-]
REMARK SMILES IDX 7 1 8 2 9 3 10 4 11 5 12 6 13 7 14 8 6 9 5 10 4 11 3 12 2 13
REMARK SMILES IDX 1 14
REMARK H PARENT
REMARK Flexibility Score: inf
ROOT
ATOM      1  C   UNL     1      55.486  16.743  -0.850  1.00  0.00     0.000 C 
ENDROOT
BRANCH   1   2
ATOM      2  C   UNL     1      54.196  17.536  -1.111  1.00  0.00     0.000 C 
BRANCH   2   3
ATOM      3  C   UNL     1      53.069  16.656  -1.680  1.00  0.00     0.000 C 
BRANCH   3   4
ATOM      4  C   UNL     1      51.759  17.433  -1.886  1.00  0.00     0.006 C 
BRANCH   4   5
ATOM      5  C   UNL     1      51.578  18.563  -0.864  1.00  0.00     0.053 C 
BRANCH   5   6
ATOM      6  C   UNL     1      50.166  18.599  -0.372  1.00  0.00     0.041 C 
ATOM      7  O   UNL     1      49.891  18.211   0.795  1.00  0.00    -0.550 OA
ATOM      8  O   UNL     1      49.159  19.107  -1.184  1.00  0.00    -0.550 OA
ENDBRANCH   5   6
ENDBRANCH   4   5
ENDBRANCH   3   4
ENDBRANCH   2   3
ENDBRANCH   1   2
BRANCH   1   9
ATOM      9  C   UNL     1      56.173  17.153   0.466  1.00  0.00     0.000 C 
BRANCH   9  10
ATOM     10  C   UNL     1      55.261  17.998   1.369  1.00  0.00    -0.000 C 
BRANCH  10  11
ATOM     11  C   UNL     1      54.619  17.172   2.497  1.00  0.00    -0.000 C 
BRANCH  11  12
ATOM     12  C   UNL     1      53.083  17.218   2.461  1.00  0.00    -0.000 C 
BRANCH  12  13
ATOM     13  C   UNL     1      52.471  15.981   1.789  1.00  0.00    -0.003 C 
ATOM     14  C   UNL     1      53.481  14.840   1.715  1.00  0.00     0.004 C 
ENDBRANCH  12  13
ENDBRANCH  11  12
ENDBRANCH  10  11
ENDBRANCH   9  10
ENDBRANCH   1   9
TORSDOF 10
ENDMDL
