MODEL 1
REMARK VINA RESULT:    -4.088      0.000      0.000
REMARK INTER + INTRA:          -9.927
REMARK INTER:                  -7.672
REMARK INTRA:                  -2.255
REMARK UNBOUND:                -2.255
REMARK SMILES O=C([O-])CCCCCCCCCCCCCCC(=O)[O-]
REMARK SMILES IDX 10 1 9 2 8 3 7 4 6 5 5 6 4 7 2 8 1 9 3 10 11 11 12 12 13 13
REMARK SMILES IDX 14 14 15 15 16 16 17 17 18 18 19 19 20 20
REMARK H PARENT
REMARK Flexibility Score: inf
ROOT
ATOM      1  C   UNL     1     105.082  97.856  91.909  1.00  0.00     0.000 C 
ENDROOT
BRANCH   1   2
ATOM      2  C   UNL     1     104.673  98.571  90.611  1.00  0.00     0.000 C 
BRANCH   2   3
ATOM      3  C   UNL     1     105.318  99.960  90.474  1.00  0.00     0.000 C 
BRANCH   3   4
ATOM      4  C   UNL     1     106.101 100.131  89.159  1.00  0.00     0.000 C 
BRANCH   4   5
ATOM      5  C   UNL     1     107.277  99.155  88.965  1.00  0.00     0.000 C 
BRANCH   5   6
ATOM      6  C   UNL     1     108.503  99.517  89.819  1.00  0.00     0.006 C 
BRANCH   6   7
ATOM      7  C   UNL     1     108.796  98.458  90.891  1.00  0.00     0.053 C 
BRANCH   7   8
ATOM      8  C   UNL     1     108.700  99.024  92.274  1.00  0.00     0.041 C 
ATOM      9  O   UNL     1     108.948 100.241  92.479  1.00  0.00    -0.550 OA
ATOM     10  O   UNL     1     108.362  98.201  93.340  1.00  0.00    -0.550 OA
ENDBRANCH   7   8
ENDBRANCH   6   7
ENDBRANCH   5   6
ENDBRANCH   4   5
ENDBRANCH   3   4
ENDBRANCH   2   3
ENDBRANCH   1   2
BRANCH   1  11
ATOM     11  C   UNL     1     105.727  96.482  91.648  1.00  0.00     0.000 C 
BRANCH  11  12
ATOM     12  C   UNL     1     105.588  96.035  90.183  1.00  0.00     0.000 C 
BRANCH  12  13
ATOM     13  C   UNL     1     105.293  94.530  90.051  1.00  0.00     0.000 C 
BRANCH  13  14
ATOM     14  C   UNL     1     103.802  94.231  89.807  1.00  0.00     0.000 C 
BRANCH  14  15
ATOM     15  C   UNL     1     102.957  95.438  89.360  1.00  0.00     0.000 C 
BRANCH  15  16
ATOM     16  C   UNL     1     101.628  95.555  90.119  1.00  0.00     0.006 C 
BRANCH  16  17
ATOM     17  C   UNL     1     101.834  96.209  91.488  1.00  0.00     0.053 C 
BRANCH  17  18
ATOM     18  C   UNL     1     100.617  96.980  91.889  1.00  0.00     0.041 C 
ATOM     19  O   UNL     1      99.519  96.386  92.061  1.00  0.00    -0.550 OA
ATOM     20  O   UNL     1     100.704  98.346  92.124  1.00  0.00    -0.550 OA
ENDBRANCH  17  18
ENDBRANCH  16  17
ENDBRANCH  15  16
ENDBRANCH  14  15
ENDBRANCH  13  14
ENDBRANCH  12  13
ENDBRANCH  11  12
ENDBRANCH   1  11
TORSDOF 15
ENDMDL
MODEL 2
REMARK VINA RESULT:    -4.070      8.806     12.113
REMARK INTER + INTRA:          -9.894
REMARK INTER:                  -7.928
REMARK INTRA:                  -1.966
REMARK UNBOUND:                -2.255
REMARK SMILES O=C([O-])CCCCCCCCCCCCCCC(=O)[O-]
REMARK SMILES IDX 10 1 9 2 8 3 7 4 6 5 5 6 4 7 2 8 1 9 3 10 11 11 12 12 13 13
REMARK SMILES IDX 14 14 15 15 16 16 17 17 18 18 19 19 20 20
REMARK H PARENT
REMARK Flexibility Score: inf
ROOT
ATOM      1  C   UNL     1      92.405 101.764  90.886  1.00  0.00     0.000 C 
ENDROOT
BRANCH   1   2
ATOM      2  C   UNL     1      92.532 103.132  90.196  1.00  0.00     0.000 C 
BRANCH   2   3
ATOM      3  C   UNL     1      93.918 103.768  90.395  1.00  0.00     0.000 C 
BRANCH   3   4
ATOM      4  C   UNL     1      94.930 103.353  89.312  1.00  0.00     0.000 C 
BRANCH   4   5
ATOM      5  C   UNL     1      96.158 102.580  89.826  1.00  0.00     0.000 C 
BRANCH   5   6
ATOM      6  C   UNL     1      96.010 102.120  91.285  1.00  0.00     0.006 C 
BRANCH   6   7
ATOM      7  C   UNL     1      96.549 100.699  91.502  1.00  0.00     0.053 C 
BRANCH   7   8
ATOM      8  C   UNL     1      98.007 100.704  91.847  1.00  0.00     0.041 C 
ATOM      9  O   UNL     1      98.559 101.760  92.252  1.00  0.00    -0.550 OA
ATOM     10  O   UNL     1      98.761  99.547  91.695  1.00  0.00    -0.550 OA
ENDBRANCH   7   8
ENDBRANCH   6   7
ENDBRANCH   5   6
ENDBRANCH   4   5
ENDBRANCH   3   4
ENDBRANCH   2   3
ENDBRANCH   1   2
BRANCH   1  11
ATOM     11  C   UNL     1      92.290 100.603  89.880  1.00  0.00     0.000 C 
BRANCH  11  12
ATOM     12  C   UNL     1      93.223  99.431  90.224  1.00  0.00     0.000 C 
BRANCH  12  13
ATOM     13  C   UNL     1      92.547  98.062  90.031  1.00  0.00     0.000 C 
BRANCH  13  14
ATOM     14  C   UNL     1      91.305  98.131  89.122  1.00  0.00     0.000 C 
BRANCH  14  15
ATOM     15  C   UNL     1      90.014  97.558  89.734  1.00  0.00     0.000 C 
BRANCH  15  16
ATOM     16  C   UNL     1      89.242  98.585  90.574  1.00  0.00     0.006 C 
BRANCH  16  17
ATOM     17  C   UNL     1      89.483  98.362  92.070  1.00  0.00     0.053 C 
BRANCH  17  18
ATOM     18  C   UNL     1      90.144  99.558  92.679  1.00  0.00     0.041 C 
ATOM     19  O   UNL     1      89.550 100.669  92.696  1.00  0.00    -0.550 OA
ATOM     20  O   UNL     1      91.394  99.436  93.272  1.00  0.00    -0.550 OA
ENDBRANCH  17  18
ENDBRANCH  16  17
ENDBRANCH  15  16
ENDBRANCH  14  15
ENDBRANCH  13  14
ENDBRANCH  12  13
ENDBRANCH  11  12
ENDBRANCH   1  11
TORSDOF 15
ENDMDL
MODEL 3
REMARK VINA RESULT:    -4.042      2.160      4.150
REMARK INTER + INTRA:          -9.842
REMARK INTER:                  -8.041
REMARK INTRA:                  -1.801
REMARK UNBOUND:                -2.255
REMARK SMILES O=C([O-])CCCCCCCCCCCCCCC(=O)[O-]
REMARK SMILES IDX 10 1 9 2 8 3 7 4 6 5 5 6 4 7 2 8 1 9 3 10 11 11 12 12 13 13
REMARK SMILES IDX 14 14 15 15 16 16 17 17 18 18 19 19 20 20
REMARK H PARENT
REMARK Flexibility Score: inf
ROOT
ATOM      1  C   UNL     1     103.172  92.872  89.685  1.00  0.00     0.000 C 
ENDROOT
BRANCH   1   2
ATOM      2  C   UNL     1     103.170  94.339  90.145  1.00  0.00     0.000 C 
BRANCH   2   3
ATOM      3  C   UNL     1     103.526  94.492  91.633  1.00  0.00     0.000 C 
BRANCH   3   4
ATOM      4  C   UNL     1     104.948  95.038  91.857  1.00  0.00     0.000 C 
BRANCH   4   5
ATOM      5  C   UNL     1     105.651  95.573  90.596  1.00  0.00     0.000 C 
BRANCH   5   6
ATOM      6  C   UNL     1     106.092  97.039  90.732  1.00  0.00     0.006 C 
BRANCH   6   7
ATOM      7  C   UNL     1     107.176  97.222  91.802  1.00  0.00     0.053 C 
BRANCH   7   8
ATOM      8  C   UNL     1     106.995  98.497  92.567  1.00  0.00     0.041 C 
ATOM      9  O   UNL     1     107.780  99.464  92.383  1.00  0.00    -0.550 OA
ATOM     10  O   UNL     1     105.974  98.607  93.502  1.00  0.00    -0.550 OA
ENDBRANCH   7   8
ENDBRANCH   6   7
ENDBRANCH   5   6
ENDBRANCH   4   5
ENDBRANCH   3   4
ENDBRANCH   2   3
ENDBRANCH   1   2
BRANCH   1  11
ATOM     11  C   UNL     1     101.766  92.370  89.307  1.00  0.00     0.000 C 
BRANCH  11  12
ATOM     12  C   UNL     1     100.838  93.507  88.849  1.00  0.00     0.000 C 
BRANCH  12  13
ATOM     13  C   UNL     1      99.416  93.376  89.423  1.00  0.00     0.000 C 
BRANCH  13  14
ATOM     14  C   UNL     1      98.883  94.697  90.008  1.00  0.00     0.000 C 
BRANCH  14  15
ATOM     15  C   UNL     1      99.893  95.859  90.029  1.00  0.00     0.000 C 
BRANCH  15  16
ATOM     16  C   UNL     1     100.248  96.322  91.449  1.00  0.00     0.006 C 
BRANCH  16  17
ATOM     17  C   UNL     1     100.692  97.787  91.453  1.00  0.00     0.053 C 
BRANCH  17  18
ATOM     18  C   UNL     1     102.158  97.892  91.175  1.00  0.00     0.041 C 
ATOM     19  O   UNL     1     102.982  97.922  92.127  1.00  0.00    -0.550 OA
ATOM     20  O   UNL     1     102.620  97.905  89.865  1.00  0.00    -0.550 OA
ENDBRANCH  17  18
ENDBRANCH  16  17
ENDBRANCH  15  16
ENDBRANCH  14  15
ENDBRANCH  13  14
ENDBRANCH  12  13
ENDBRANCH  11  12
ENDBRANCH   1  11
TORSDOF 15
ENDMDL
MODEL 4
REMARK VINA RESULT:    -4.014      9.162     11.830
REMARK INTER + INTRA:          -9.789
REMARK INTER:                  -7.830
REMARK INTRA:                  -1.959
REMARK UNBOUND:                -2.255
REMARK SMILES O=C([O-])CCCCCCCCCCCCCCC(=O)[O-]
REMARK SMILES IDX 10 1 9 2 8 3 7 4 6 5 5 6 4 7 2 8 1 9 3 10 11 11 12 12 13 13
REMARK SMILES IDX 14 14 15 15 16 16 17 17 18 18 19 19 20 20
REMARK H PARENT
REMARK Flexibility Score: inf
ROOT
ATOM      1  C   UNL     1      98.515 104.609  89.371  1.00  0.00     0.000 C 
ENDROOT
BRANCH   1   2
ATOM      2  C   UNL     1      99.249 103.279  89.137  1.00  0.00     0.000 C 
BRANCH   2   3
ATOM      3  C   UNL     1      98.460 102.068  89.664  1.00  0.00     0.000 C 
BRANCH   3   4
ATOM      4  C   UNL     1      98.415 102.004  91.202  1.00  0.00     0.000 C 
BRANCH   4   5
ATOM      5  C   UNL     1      97.056 101.599  91.801  1.00  0.00     0.000 C 
BRANCH   5   6
ATOM      6  C   UNL     1      96.617 100.184  91.389  1.00  0.00     0.006 C 
BRANCH   6   7
ATOM      7  C   UNL     1      95.090 100.054  91.303  1.00  0.00     0.053 C 
BRANCH   7   8
ATOM      8  C   UNL     1      94.644  99.635  89.936  1.00  0.00     0.041 C 
ATOM      9  O   UNL     1      95.026 100.273  88.920  1.00  0.00    -0.550 OA
ATOM     10  O   UNL     1      93.784  98.554  89.786  1.00  0.00    -0.550 OA
ENDBRANCH   7   8
ENDBRANCH   6   7
ENDBRANCH   5   6
ENDBRANCH   4   5
ENDBRANCH   3   4
ENDBRANCH   2   3
ENDBRANCH   1   2
BRANCH   1  11
ATOM     11  C   UNL     1      97.240 104.739  88.516  1.00  0.00     0.000 C 
BRANCH  11  12
ATOM     12  C   UNL     1      95.979 104.953  89.368  1.00  0.00     0.000 C 
BRANCH  12  13
ATOM     13  C   UNL     1      95.064 103.717  89.389  1.00  0.00     0.000 C 
BRANCH  13  14
ATOM     14  C   UNL     1      94.125 103.686  90.610  1.00  0.00     0.000 C 
BRANCH  14  15
ATOM     15  C   UNL     1      92.740 103.065  90.354  1.00  0.00     0.000 C 
BRANCH  15  16
ATOM     16  C   UNL     1      92.198 102.288  91.563  1.00  0.00     0.006 C 
BRANCH  16  17
ATOM     17  C   UNL     1      91.453 101.027  91.115  1.00  0.00     0.053 C 
BRANCH  17  18
ATOM     18  C   UNL     1      90.771 100.380  92.278  1.00  0.00     0.041 C 
ATOM     19  O   UNL     1      89.769 100.928  92.810  1.00  0.00    -0.550 OA
ATOM     20  O   UNL     1      91.209  99.147  92.745  1.00  0.00    -0.550 OA
ENDBRANCH  17  18
ENDBRANCH  16  17
ENDBRANCH  15  16
ENDBRANCH  14  15
ENDBRANCH  13  14
ENDBRANCH  12  13
ENDBRANCH  11  12
ENDBRANCH   1  11
TORSDOF 15
ENDMDL
MODEL 5
REMARK VINA RESULT:    -4.012      2.232      3.776
REMARK INTER + INTRA:          -9.786
REMARK INTER:                  -7.708
REMARK INTRA:                  -2.078
REMARK UNBOUND:                -2.255
REMARK SMILES O=C([O-])CCCCCCCCCCCCCCC(=O)[O-]
REMARK SMILES IDX 10 1 9 2 8 3 7 4 6 5 5 6 4 7 2 8 1 9 3 10 11 11 12 12 13 13
REMARK SMILES IDX 14 14 15 15 16 16 17 17 18 18 19 19 20 20
REMARK H PARENT
REMARK Flexibility Score: inf
ROOT
ATOM      1  C   UNL     1     103.456  94.086  90.450  1.00  0.00     0.000 C 
ENDROOT
BRANCH   1   2
ATOM      2  C   UNL     1     104.850  94.651  90.132  1.00  0.00     0.000 C 
BRANCH   2   3
ATOM      3  C   UNL     1     104.789  95.920  89.265  1.00  0.00     0.000 C 
BRANCH   3   4
ATOM      4  C   UNL     1     103.542  96.780  89.546  1.00  0.00     0.000 C 
BRANCH   4   5
ATOM      5  C   UNL     1     103.776  97.991  90.467  1.00  0.00     0.000 C 
BRANCH   5   6
ATOM      6  C   UNL     1     103.676  97.637  91.960  1.00  0.00     0.006 C 
BRANCH   6   7
ATOM      7  C   UNL     1     104.796  98.286  92.785  1.00  0.00     0.053 C 
BRANCH   7   8
ATOM      8  C   UNL     1     106.145  98.037  92.185  1.00  0.00     0.041 C 
ATOM      9  O   UNL     1     106.767  98.970  91.612  1.00  0.00    -0.550 OA
ATOM     10  O   UNL     1     106.705  96.766  92.235  1.00  0.00    -0.550 OA
ENDBRANCH   7   8
ENDBRANCH   6   7
ENDBRANCH   5   6
ENDBRANCH   4   5
ENDBRANCH   3   4
ENDBRANCH   2   3
ENDBRANCH   1   2
BRANCH   1  11
ATOM     11  C   UNL     1     103.141  92.806  89.652  1.00  0.00     0.000 C 
BRANCH  11  12
ATOM     12  C   UNL     1     101.637  92.634  89.384  1.00  0.00     0.000 C 
BRANCH  12  13
ATOM     13  C   UNL     1     100.988  93.910  88.820  1.00  0.00     0.000 C 
BRANCH  13  14
ATOM     14  C   UNL     1      99.478  93.993  89.110  1.00  0.00     0.000 C 
BRANCH  14  15
ATOM     15  C   UNL     1      99.072  95.026  90.176  1.00  0.00     0.000 C 
BRANCH  15  16
ATOM     16  C   UNL     1     100.239  95.917  90.624  1.00  0.00     0.006 C 
BRANCH  16  17
ATOM     17  C   UNL     1      99.848  96.765  91.838  1.00  0.00     0.053 C 
BRANCH  17  18
ATOM     18  C   UNL     1      99.932  98.222  91.509  1.00  0.00     0.041 C 
ATOM     19  O   UNL     1     100.306  98.592  90.365  1.00  0.00    -0.550 OA
ATOM     20  O   UNL     1      99.549  99.170  92.449  1.00  0.00    -0.550 OA
ENDBRANCH  17  18
ENDBRANCH  16  17
ENDBRANCH  15  16
ENDBRANCH  14  15
ENDBRANCH  13  14
ENDBRANCH  12  13
ENDBRANCH  11  12
ENDBRANCH   1  11
TORSDOF 15
ENDMDL
MODEL 6
REMARK VINA RESULT:    -3.979      8.100     11.124
REMARK INTER + INTRA:          -9.723
REMARK INTER:                  -8.152
REMARK INTRA:                  -1.571
REMARK UNBOUND:                -2.255
REMARK SMILES O=C([O-])CCCCCCCCCCCCCCC(=O)[O-]
REMARK SMILES IDX 10 1 9 2 8 3 7 4 6 5 5 6 4 7 2 8 1 9 3 10 11 11 12 12 13 13
REMARK SMILES IDX 14 14 15 15 16 16 17 17 18 18 19 19 20 20
REMARK H PARENT
REMARK Flexibility Score: inf
ROOT
ATOM      1  C   UNL     1      94.933 104.984  89.892  1.00  0.00     0.000 C 
ENDROOT
BRANCH   1   2
ATOM      2  C   UNL     1      96.111 105.505  89.053  1.00  0.00     0.000 C 
BRANCH   2   3
ATOM      3  C   UNL     1      97.110 104.395  88.683  1.00  0.00     0.000 C 
BRANCH   3   4
ATOM      4  C   UNL     1      98.517 104.638  89.260  1.00  0.00     0.000 C 
BRANCH   4   5
ATOM      5  C   UNL     1      99.159 103.422  89.954  1.00  0.00     0.000 C 
BRANCH   5   6
ATOM      6  C   UNL     1      98.187 102.242  90.117  1.00  0.00     0.006 C 
BRANCH   6   7
ATOM      7  C   UNL     1      98.355 101.536  91.469  1.00  0.00     0.053 C 
BRANCH   7   8
ATOM      8  C   UNL     1      98.175 100.054  91.348  1.00  0.00     0.041 C 
ATOM      9  O   UNL     1      97.838  99.372  92.352  1.00  0.00    -0.550 OA
ATOM     10  O   UNL     1      98.406  99.422  90.133  1.00  0.00    -0.550 OA
ENDBRANCH   7   8
ENDBRANCH   6   7
ENDBRANCH   5   6
ENDBRANCH   4   5
ENDBRANCH   3   4
ENDBRANCH   2   3
ENDBRANCH   1   2
BRANCH   1  11
ATOM     11  C   UNL     1      94.433 103.607  89.416  1.00  0.00     0.000 C 
BRANCH  11  12
ATOM     12  C   UNL     1      93.197 103.128  90.195  1.00  0.00     0.000 C 
BRANCH  12  13
ATOM     13  C   UNL     1      93.553 102.579  91.587  1.00  0.00     0.000 C 
BRANCH  13  14
ATOM     14  C   UNL     1      94.726 101.581  91.555  1.00  0.00     0.000 C 
BRANCH  14  15
ATOM     15  C   UNL     1      94.344 100.113  91.820  1.00  0.00     0.000 C 
BRANCH  15  16
ATOM     16  C   UNL     1      93.232  99.962  92.868  1.00  0.00     0.006 C 
BRANCH  16  17
ATOM     17  C   UNL     1      92.135  99.016  92.372  1.00  0.00     0.053 C 
BRANCH  17  18
ATOM     18  C   UNL     1      90.789  99.652  92.517  1.00  0.00     0.041 C 
ATOM     19  O   UNL     1      90.682 100.907  92.552  1.00  0.00    -0.550 OA
ATOM     20  O   UNL     1      89.647  98.863  92.563  1.00  0.00    -0.550 OA
ENDBRANCH  17  18
ENDBRANCH  16  17
ENDBRANCH  15  16
ENDBRANCH  14  15
ENDBRANCH  13  14
ENDBRANCH  12  13
ENDBRANCH  11  12
ENDBRANCH   1  11
TORSDOF 15
ENDMDL
MODEL 7
REMARK VINA RESULT:    -3.935      1.672      6.825
REMARK INTER + INTRA:          -9.641
REMARK INTER:                  -7.654
REMARK INTRA:                  -1.987
REMARK UNBOUND:                -2.255
REMARK SMILES O=C([O-])CCCCCCCCCCCCCCC(=O)[O-]
REMARK SMILES IDX 10 1 9 2 8 3 7 4 6 5 5 6 4 7 2 8 1 9 3 10 11 11 12 12 13 13
REMARK SMILES IDX 14 14 15 15 16 16 17 17 18 18 19 19 20 20
REMARK H PARENT
REMARK Flexibility Score: inf
ROOT
ATOM      1  C   UNL     1     103.737  94.371  90.536  1.00  0.00     0.000 C 
ENDROOT
BRANCH   1   2
ATOM      2  C   UNL     1     103.421  93.100  89.730  1.00  0.00     0.000 C 
BRANCH   2   3
ATOM      3  C   UNL     1     101.944  93.020  89.308  1.00  0.00     0.000 C 
BRANCH   3   4
ATOM      4  C   UNL     1     101.287  94.404  89.156  1.00  0.00     0.000 C 
BRANCH   4   5
ATOM      5  C   UNL     1      99.805  94.476  89.569  1.00  0.00     0.000 C 
BRANCH   5   6
ATOM      6  C   UNL     1      99.416  95.835  90.172  1.00  0.00     0.006 C 
BRANCH   6   7
ATOM      7  C   UNL     1     100.469  96.353  91.161  1.00  0.00     0.053 C 
BRANCH   7   8
ATOM      8  C   UNL     1     100.502  97.850  91.205  1.00  0.00     0.041 C 
ATOM      9  O   UNL     1     100.412  98.455  92.305  1.00  0.00    -0.550 OA
ATOM     10  O   UNL     1     100.605  98.578  90.026  1.00  0.00    -0.550 OA
ENDBRANCH   7   8
ENDBRANCH   6   7
ENDBRANCH   5   6
ENDBRANCH   4   5
ENDBRANCH   3   4
ENDBRANCH   2   3
ENDBRANCH   1   2
BRANCH   1  11
ATOM     11  C   UNL     1     105.170  94.881  90.296  1.00  0.00     0.000 C 
BRANCH  11  12
ATOM     12  C   UNL     1     105.200  96.268  89.634  1.00  0.00     0.000 C 
BRANCH  12  13
ATOM     13  C   UNL     1     103.906  97.065  89.877  1.00  0.00     0.000 C 
BRANCH  13  14
ATOM     14  C   UNL     1     104.115  98.277  90.805  1.00  0.00     0.000 C 
BRANCH  14  15
ATOM     15  C   UNL     1     104.334  97.935  92.290  1.00  0.00     0.000 C 
BRANCH  15  16
ATOM     16  C   UNL     1     105.484  98.727  92.926  1.00  0.00     0.006 C 
BRANCH  16  17
ATOM     17  C   UNL     1     106.817  97.994  92.751  1.00  0.00     0.053 C 
BRANCH  17  18
ATOM     18  C   UNL     1     107.722  98.760  91.838  1.00  0.00     0.041 C 
ATOM     19  O   UNL     1     107.660  98.584  90.593  1.00  0.00    -0.550 OA
ATOM     20  O   UNL     1     108.597  99.705  92.358  1.00  0.00    -0.550 OA
ENDBRANCH  17  18
ENDBRANCH  16  17
ENDBRANCH  15  16
ENDBRANCH  14  15
ENDBRANCH  13  14
ENDBRANCH  12  13
ENDBRANCH  11  12
ENDBRANCH   1  11
TORSDOF 15
ENDMDL
MODEL 8
REMARK VINA RESULT:    -3.923      2.119      2.683
REMARK INTER + INTRA:          -9.618
REMARK INTER:                  -7.758
REMARK INTRA:                  -1.860
REMARK UNBOUND:                -2.255
REMARK SMILES O=C([O-])CCCCCCCCCCCCCCC(=O)[O-]
REMARK SMILES IDX 10 1 9 2 8 3 7 4 6 5 5 6 4 7 2 8 1 9 3 10 11 11 12 12 13 13
REMARK SMILES IDX 14 14 15 15 16 16 17 17 18 18 19 19 20 20
REMARK H PARENT
REMARK Flexibility Score: inf
ROOT
ATOM      1  C   UNL     1     105.636  97.426  89.030  1.00  0.00     0.000 C 
ENDROOT
BRANCH   1   2
ATOM      2  C   UNL     1     104.759  98.402  89.832  1.00  0.00     0.000 C 
BRANCH   2   3
ATOM      3  C   UNL     1     105.389  99.801  89.950  1.00  0.00     0.000 C 
BRANCH   3   4
ATOM      4  C   UNL     1     106.589 100.001  89.007  1.00  0.00     0.000 C 
BRANCH   4   5
ATOM      5  C   UNL     1     107.911 100.378  89.701  1.00  0.00     0.000 C 
BRANCH   5   6
ATOM      6  C   UNL     1     108.564  99.194  90.433  1.00  0.00     0.006 C 
BRANCH   6   7
ATOM      7  C   UNL     1     108.508  99.354  91.958  1.00  0.00     0.053 C 
BRANCH   7   8
ATOM      8  C   UNL     1     107.820  98.196  92.614  1.00  0.00     0.041 C 
ATOM      9  O   UNL     1     108.431  97.109  92.785  1.00  0.00    -0.550 OA
ATOM     10  O   UNL     1     106.494  98.310  93.013  1.00  0.00    -0.550 OA
ENDBRANCH   7   8
ENDBRANCH   6   7
ENDBRANCH   5   6
ENDBRANCH   4   5
ENDBRANCH   3   4
ENDBRANCH   2   3
ENDBRANCH   1   2
BRANCH   1  11
ATOM     11  C   UNL     1     105.357  95.954  89.386  1.00  0.00     0.000 C 
BRANCH  11  12
ATOM     12  C   UNL     1     105.967  95.549  90.738  1.00  0.00     0.000 C 
BRANCH  12  13
ATOM     13  C   UNL     1     104.898  95.282  91.812  1.00  0.00     0.000 C 
BRANCH  13  14
ATOM     14  C   UNL     1     103.574  94.761  91.222  1.00  0.00     0.000 C 
BRANCH  14  15
ATOM     15  C   UNL     1     102.388  95.738  91.314  1.00  0.00     0.000 C 
BRANCH  15  16
ATOM     16  C   UNL     1     101.313  95.480  90.249  1.00  0.00     0.006 C 
BRANCH  16  17
ATOM     17  C   UNL     1     101.854  94.584  89.131  1.00  0.00     0.053 C 
BRANCH  17  18
ATOM     18  C   UNL     1     101.088  93.300  89.071  1.00  0.00     0.041 C 
ATOM     19  O   UNL     1     101.642  92.217  89.398  1.00  0.00    -0.550 OA
ATOM     20  O   UNL     1      99.749  93.304  88.703  1.00  0.00    -0.550 OA
ENDBRANCH  17  18
ENDBRANCH  16  17
ENDBRANCH  15  16
ENDBRANCH  14  15
ENDBRANCH  13  14
ENDBRANCH  12  13
ENDBRANCH  11  12
ENDBRANCH   1  11
TORSDOF 15
ENDMDL
MODEL 9
REMARK VINA RESULT:    -3.921      8.907     13.272
REMARK INTER + INTRA:          -9.615
REMARK INTER:                  -7.975
REMARK INTRA:                  -1.640
REMARK UNBOUND:                -2.255
REMARK SMILES O=C([O-])CCCCCCCCCCCCCCC(=O)[O-]
REMARK SMILES IDX 10 1 9 2 8 3 7 4 6 5 5 6 4 7 2 8 1 9 3 10 11 11 12 12 13 13
REMARK SMILES IDX 14 14 15 15 16 16 17 17 18 18 19 19 20 20
REMARK H PARENT
REMARK Flexibility Score: inf
ROOT
ATOM      1  C   UNL     1      94.875 103.842  91.145  1.00  0.00     0.000 C 
ENDROOT
BRANCH   1   2
ATOM      2  C   UNL     1      93.618 103.066  91.570  1.00  0.00     0.000 C 
BRANCH   2   3
ATOM      3  C   UNL     1      92.624 102.872  90.413  1.00  0.00     0.000 C 
BRANCH   3   4
ATOM      4  C   UNL     1      92.289 101.392  90.150  1.00  0.00     0.000 C 
BRANCH   4   5
ATOM      5  C   UNL     1      92.777 100.409  91.230  1.00  0.00     0.000 C 
BRANCH   5   6
ATOM      6  C   UNL     1      91.711 100.114  92.298  1.00  0.00     0.006 C 
BRANCH   6   7
ATOM      7  C   UNL     1      90.303 100.003  91.696  1.00  0.00     0.053 C 
BRANCH   7   8
ATOM      8  C   UNL     1      89.897  98.576  91.490  1.00  0.00     0.041 C 
ATOM      9  O   UNL     1      89.101  98.021  92.292  1.00  0.00    -0.550 OA
ATOM     10  O   UNL     1      90.418  97.852  90.425  1.00  0.00    -0.550 OA
ENDBRANCH   7   8
ENDBRANCH   6   7
ENDBRANCH   5   6
ENDBRANCH   4   5
ENDBRANCH   3   4
ENDBRANCH   2   3
ENDBRANCH   1   2
BRANCH   1  11
ATOM     11  C   UNL     1      94.708 104.534  89.779  1.00  0.00     0.000 C 
BRANCH  11  12
ATOM     12  C   UNL     1      95.976 105.284  89.340  1.00  0.00     0.000 C 
BRANCH  12  13
ATOM     13  C   UNL     1      97.014 104.356  88.687  1.00  0.00     0.000 C 
BRANCH  13  14
ATOM     14  C   UNL     1      98.454 104.649  89.150  1.00  0.00     0.000 C 
BRANCH  14  15
ATOM     15  C   UNL     1      99.049 103.618  90.127  1.00  0.00     0.000 C 
BRANCH  15  16
ATOM     16  C   UNL     1      98.486 102.204  89.924  1.00  0.00     0.006 C 
BRANCH  16  17
ATOM     17  C   UNL     1      97.979 101.621  91.247  1.00  0.00     0.053 C 
BRANCH  17  18
ATOM     18  C   UNL     1      96.751 100.798  91.020  1.00  0.00     0.041 C 
ATOM     19  O   UNL     1      96.278 100.097  91.954  1.00  0.00    -0.550 OA
ATOM     20  O   UNL     1      96.100 100.841  89.794  1.00  0.00    -0.550 OA
ENDBRANCH  17  18
ENDBRANCH  16  17
ENDBRANCH  15  16
ENDBRANCH  14  15
ENDBRANCH  13  14
ENDBRANCH  12  13
ENDBRANCH  11  12
ENDBRANCH   1  11
TORSDOF 15
ENDMDL
