MODEL 1
REMARK VINA RESULT:    -3.062      0.000      0.000
REMARK INTER + INTRA:          -7.434
REMARK INTER:                  -5.389
REMARK INTRA:                  -2.045
REMARK UNBOUND:                -2.045
REMARK SMILES CCCCCCCCCCCCCCC(=O)[O-]
REMARK SMILES IDX 9 1 10 2 11 3 12 4 13 5 14 6 15 7 16 8 17 9 8 10 7 11 6 12
REMARK SMILES IDX 5 13 4 14 3 15 2 16 1 17
REMARK H PARENT
REMARK Flexibility Score: inf
ROOT
ATOM      1  C   UNL     1      49.175  31.403  87.130  1.00  0.00     0.000 C 
ENDROOT
BRANCH   1   2
ATOM      2  C   UNL     1      49.823  31.812  88.464  1.00  0.00     0.000 C 
BRANCH   2   3
ATOM      3  C   UNL     1      49.914  30.641  89.456  1.00  0.00     0.000 C 
BRANCH   3   4
ATOM      4  C   UNL     1      48.532  30.175  89.945  1.00  0.00     0.000 C 
BRANCH   4   5
ATOM      5  C   UNL     1      47.737  31.287  90.654  1.00  0.00     0.006 C 
BRANCH   5   6
ATOM      6  C   UNL     1      46.309  31.476  90.111  1.00  0.00     0.053 C 
BRANCH   6   7
ATOM      7  C   UNL     1      45.262  30.925  91.031  1.00  0.00     0.041 C 
ATOM      8  O   UNL     1      45.334  29.733  91.434  1.00  0.00    -0.550 OA
ATOM      9  O   UNL     1      44.190  31.717  91.419  1.00  0.00    -0.550 OA
ENDBRANCH   6   7
ENDBRANCH   5   6
ENDBRANCH   4   5
ENDBRANCH   3   4
ENDBRANCH   2   3
ENDBRANCH   1   2
BRANCH   1  10
ATOM     10  C   UNL     1      48.207  32.471  86.595  1.00  0.00     0.000 C 
BRANCH  10  11
ATOM     11  C   UNL     1      48.173  33.731  87.478  1.00  0.00    -0.000 C 
BRANCH  11  12
ATOM     12  C   UNL     1      48.568  35.007  86.713  1.00  0.00    -0.000 C 
BRANCH  12  13
ATOM     13  C   UNL     1      49.605  35.893  87.427  1.00  0.00    -0.000 C 
BRANCH  13  14
ATOM     14  C   UNL     1      51.008  35.263  87.457  1.00  0.00    -0.000 C 
BRANCH  14  15
ATOM     15  C   UNL     1      51.542  34.942  86.053  1.00  0.00    -0.000 C 
BRANCH  15  16
ATOM     16  C   UNL     1      52.000  33.482  85.916  1.00  0.00    -0.003 C 
ATOM     17  C   UNL     1      51.511  32.872  84.606  1.00  0.00     0.004 C 
ENDBRANCH  15  16
ENDBRANCH  14  15
ENDBRANCH  13  14
ENDBRANCH  12  13
ENDBRANCH  11  12
ENDBRANCH  10  11
ENDBRANCH   1  10
TORSDOF 13
ENDMDL
MODEL 2
REMARK VINA RESULT:    -2.994      3.840      5.670
REMARK INTER + INTRA:          -7.314
REMARK INTER:                  -5.495
REMARK INTRA:                  -1.819
REMARK UNBOUND:                -2.045
REMARK SMILES CCCCCCCCCCCCCCC(=O)[O-]
REMARK SMILES IDX 9 1 10 2 11 3 12 4 13 5 14 6 15 7 16 8 17 9 8 10 7 11 6 12
REMARK SMILES IDX 5 13 4 14 3 15 2 16 1 17
REMARK H PARENT
REMARK Flexibility Score: inf
ROOT
ATOM      1  C   UNL     1      49.203  29.949  90.508  1.00  0.00     0.000 C 
ENDROOT
BRANCH   1   2
ATOM      2  C   UNL     1      49.788  31.205  91.176  1.00  0.00     0.000 C 
BRANCH   2   3
ATOM      3  C   UNL     1      50.922  31.835  90.351  1.00  0.00     0.000 C 
BRANCH   3   4
ATOM      4  C   UNL     1      50.934  31.344  88.894  1.00  0.00     0.000 C 
BRANCH   4   5
ATOM      5  C   UNL     1      51.856  32.177  87.984  1.00  0.00     0.006 C 
BRANCH   5   6
ATOM      6  C   UNL     1      52.053  33.629  88.457  1.00  0.00     0.053 C 
BRANCH   6   7
ATOM      7  C   UNL     1      53.498  34.012  88.563  1.00  0.00     0.041 C 
ATOM      8  O   UNL     1      54.002  34.285  89.685  1.00  0.00    -0.550 OA
ATOM      9  O   UNL     1      54.281  34.098  87.420  1.00  0.00    -0.550 OA
ENDBRANCH   6   7
ENDBRANCH   5   6
ENDBRANCH   4   5
ENDBRANCH   3   4
ENDBRANCH   2   3
ENDBRANCH   1   2
BRANCH   1  10
ATOM     10  C   UNL     1      47.667  29.931  90.531  1.00  0.00     0.000 C 
BRANCH  10  11
ATOM     11  C   UNL     1      47.059  31.335  90.364  1.00  0.00    -0.000 C 
BRANCH  11  12
ATOM     12  C   UNL     1      46.430  31.552  88.976  1.00  0.00    -0.000 C 
BRANCH  12  13
ATOM     13  C   UNL     1      47.433  31.897  87.859  1.00  0.00    -0.000 C 
BRANCH  13  14
ATOM     14  C   UNL     1      47.922  33.354  87.926  1.00  0.00    -0.000 C 
BRANCH  14  15
ATOM     15  C   UNL     1      48.718  33.767  86.679  1.00  0.00    -0.000 C 
BRANCH  15  16
ATOM     16  C   UNL     1      48.597  35.268  86.373  1.00  0.00    -0.003 C 
ATOM     17  C   UNL     1      49.161  36.109  87.514  1.00  0.00     0.004 C 
ENDBRANCH  15  16
ENDBRANCH  14  15
ENDBRANCH  13  14
ENDBRANCH  12  13
ENDBRANCH  11  12
ENDBRANCH  10  11
ENDBRANCH   1  10
TORSDOF 13
ENDMDL
MODEL 3
REMARK VINA RESULT:    -2.969     16.725     18.413
REMARK INTER + INTRA:          -7.270
REMARK INTER:                  -5.581
REMARK INTRA:                  -1.689
REMARK UNBOUND:                -2.045
REMARK SMILES CCCCCCCCCCCCCCC(=O)[O-]
REMARK SMILES IDX 9 1 10 2 11 3 12 4 13 5 14 6 15 7 16 8 17 9 8 10 7 11 6 12
REMARK SMILES IDX 5 13 4 14 3 15 2 16 1 17
REMARK H PARENT
REMARK Flexibility Score: inf
ROOT
ATOM      1  C   UNL     1      40.375  22.636  76.810  1.00  0.00     0.000 C 
ENDROOT
BRANCH   1   2
ATOM      2  C   UNL     1      41.293  21.874  75.839  1.00  0.00     0.000 C 
BRANCH   2   3
ATOM      3  C   UNL     1      42.760  22.323  75.943  1.00  0.00     0.000 C 
BRANCH   3   4
ATOM      4  C   UNL     1      43.723  21.144  76.158  1.00  0.00     0.000 C 
BRANCH   4   5
ATOM      5  C   UNL     1      44.315  21.100  77.579  1.00  0.00     0.006 C 
BRANCH   5   6
ATOM      6  C   UNL     1      44.378  19.687  78.186  1.00  0.00     0.053 C 
BRANCH   6   7
ATOM      7  C   UNL     1      45.561  18.903  77.705  1.00  0.00     0.041 C 
ATOM      8  O   UNL     1      45.443  18.104  76.739  1.00  0.00    -0.550 OA
ATOM      9  O   UNL     1      46.787  19.031  78.344  1.00  0.00    -0.550 OA
ENDBRANCH   6   7
ENDBRANCH   5   6
ENDBRANCH   4   5
ENDBRANCH   3   4
ENDBRANCH   2   3
ENDBRANCH   1   2
BRANCH   1  10
ATOM     10  C   UNL     1      40.466  22.100  78.248  1.00  0.00     0.000 C 
BRANCH  10  11
ATOM     11  C   UNL     1      40.423  20.563  78.308  1.00  0.00    -0.000 C 
BRANCH  11  12
ATOM     12  C   UNL     1      40.990  20.001  79.624  1.00  0.00    -0.000 C 
BRANCH  12  13
ATOM     13  C   UNL     1      39.952  19.325  80.538  1.00  0.00    -0.000 C 
BRANCH  13  14
ATOM     14  C   UNL     1      38.683  18.894  79.783  1.00  0.00    -0.000 C 
BRANCH  14  15
ATOM     15  C   UNL     1      37.401  19.465  80.407  1.00  0.00    -0.000 C 
BRANCH  15  16
ATOM     16  C   UNL     1      37.590  20.894  80.937  1.00  0.00    -0.003 C 
ATOM     17  C   UNL     1      37.190  21.927  79.888  1.00  0.00     0.004 C 
ENDBRANCH  15  16
ENDBRANCH  14  15
ENDBRANCH  13  14
ENDBRANCH  12  13
ENDBRANCH  11  12
ENDBRANCH  10  11
ENDBRANCH   1  10
TORSDOF 13
ENDMDL
MODEL 4
REMARK VINA RESULT:    -2.966      3.805      6.889
REMARK INTER + INTRA:          -7.265
REMARK INTER:                  -5.547
REMARK INTRA:                  -1.718
REMARK UNBOUND:                -2.045
REMARK SMILES CCCCCCCCCCCCCCC(=O)[O-]
REMARK SMILES IDX 9 1 10 2 11 3 12 4 13 5 14 6 15 7 16 8 17 9 8 10 7 11 6 12
REMARK SMILES IDX 5 13 4 14 3 15 2 16 1 17
REMARK H PARENT
REMARK Flexibility Score: inf
ROOT
ATOM      1  C   UNL     1      48.488  32.448  86.817  1.00  0.00     0.000 C 
ENDROOT
BRANCH   1   2
ATOM      2  C   UNL     1      48.176  33.745  87.584  1.00  0.00     0.000 C 
BRANCH   2   3
ATOM      3  C   UNL     1      48.606  35.002  86.810  1.00  0.00     0.000 C 
BRANCH   3   4
ATOM      4  C   UNL     1      49.828  35.691  87.439  1.00  0.00     0.000 C 
BRANCH   4   5
ATOM      5  C   UNL     1      51.158  35.279  86.780  1.00  0.00     0.006 C 
BRANCH   5   6
ATOM      6  C   UNL     1      52.329  35.142  87.769  1.00  0.00     0.053 C 
BRANCH   6   7
ATOM      7  C   UNL     1      53.413  34.241  87.262  1.00  0.00     0.041 C 
ATOM      8  O   UNL     1      54.298  33.807  88.047  1.00  0.00    -0.550 OA
ATOM      9  O   UNL     1      53.465  33.905  85.916  1.00  0.00    -0.550 OA
ENDBRANCH   6   7
ENDBRANCH   5   6
ENDBRANCH   4   5
ENDBRANCH   3   4
ENDBRANCH   2   3
ENDBRANCH   1   2
BRANCH   1  10
ATOM     10  C   UNL     1      49.835  31.832  87.227  1.00  0.00     0.000 C 
BRANCH  10  11
ATOM     11  C   UNL     1      50.232  32.191  88.670  1.00  0.00    -0.000 C 
BRANCH  11  12
ATOM     12  C   UNL     1      50.537  30.952  89.531  1.00  0.00    -0.000 C 
BRANCH  12  13
ATOM     13  C   UNL     1      49.307  30.099  89.893  1.00  0.00    -0.000 C 
BRANCH  13  14
ATOM     14  C   UNL     1      48.129  30.940  90.413  1.00  0.00    -0.000 C 
BRANCH  14  15
ATOM     15  C   UNL     1      46.832  30.686  89.632  1.00  0.00    -0.000 C 
BRANCH  15  16
ATOM     16  C   UNL     1      45.775  31.775  89.873  1.00  0.00    -0.003 C 
ATOM     17  C   UNL     1      45.017  31.528  91.174  1.00  0.00     0.004 C 
ENDBRANCH  15  16
ENDBRANCH  14  15
ENDBRANCH  13  14
ENDBRANCH  12  13
ENDBRANCH  11  12
ENDBRANCH  10  11
ENDBRANCH   1  10
TORSDOF 13
ENDMDL
MODEL 5
REMARK VINA RESULT:    -2.960     15.813     17.228
REMARK INTER + INTRA:          -7.254
REMARK INTER:                  -5.503
REMARK INTRA:                  -1.750
REMARK UNBOUND:                -2.045
REMARK SMILES CCCCCCCCCCCCCCC(=O)[O-]
REMARK SMILES IDX 9 1 10 2 11 3 12 4 13 5 14 6 15 7 16 8 17 9 8 10 7 11 6 12
REMARK SMILES IDX 5 13 4 14 3 15 2 16 1 17
REMARK H PARENT
REMARK Flexibility Score: inf
ROOT
ATOM      1  C   UNL     1      44.062  22.310  77.307  1.00  0.00     0.000 C 
ENDROOT
BRANCH   1   2
ATOM      2  C   UNL     1      43.236  21.603  76.219  1.00  0.00     0.000 C 
BRANCH   2   3
ATOM      3  C   UNL     1      41.860  22.256  76.008  1.00  0.00     0.000 C 
BRANCH   3   4
ATOM      4  C   UNL     1      40.703  21.348  76.459  1.00  0.00     0.000 C 
BRANCH   4   5
ATOM      5  C   UNL     1      40.369  21.497  77.955  1.00  0.00     0.006 C 
BRANCH   5   6
ATOM      6  C   UNL     1      40.453  20.180  78.747  1.00  0.00     0.053 C 
BRANCH   6   7
ATOM      7  C   UNL     1      39.450  20.106  79.857  1.00  0.00     0.041 C 
ATOM      8  O   UNL     1      38.871  19.018  80.119  1.00  0.00    -0.550 OA
ATOM      9  O   UNL     1      39.131  21.246  80.584  1.00  0.00    -0.550 OA
ENDBRANCH   6   7
ENDBRANCH   5   6
ENDBRANCH   4   5
ENDBRANCH   3   4
ENDBRANCH   2   3
ENDBRANCH   1   2
BRANCH   1  10
ATOM     10  C   UNL     1      44.296  21.421  78.538  1.00  0.00     0.000 C 
BRANCH  10  11
ATOM     11  C   UNL     1      44.035  19.932  78.248  1.00  0.00    -0.000 C 
BRANCH  11  12
ATOM     12  C   UNL     1      45.332  19.119  78.084  1.00  0.00    -0.000 C 
BRANCH  12  13
ATOM     13  C   UNL     1      45.542  18.513  76.684  1.00  0.00    -0.000 C 
BRANCH  13  14
ATOM     14  C   UNL     1      46.257  19.474  75.719  1.00  0.00    -0.000 C 
BRANCH  14  15
ATOM     15  C   UNL     1      47.298  20.355  76.427  1.00  0.00    -0.000 C 
BRANCH  15  16
ATOM     16  C   UNL     1      47.553  21.677  75.687  1.00  0.00    -0.003 C 
ATOM     17  C   UNL     1      48.866  21.628  74.911  1.00  0.00     0.004 C 
ENDBRANCH  15  16
ENDBRANCH  14  15
ENDBRANCH  13  14
ENDBRANCH  12  13
ENDBRANCH  11  12
ENDBRANCH  10  11
ENDBRANCH   1  10
TORSDOF 13
ENDMDL
MODEL 6
REMARK VINA RESULT:    -2.943     15.440     17.461
REMARK INTER + INTRA:          -7.224
REMARK INTER:                  -5.402
REMARK INTRA:                  -1.822
REMARK UNBOUND:                -2.045
REMARK SMILES CCCCCCCCCCCCCCC(=O)[O-]
REMARK SMILES IDX 9 1 10 2 11 3 12 4 13 5 14 6 15 7 16 8 17 9 8 10 7 11 6 12
REMARK SMILES IDX 5 13 4 14 3 15 2 16 1 17
REMARK H PARENT
REMARK Flexibility Score: inf
ROOT
ATOM      1  C   UNL     1      47.847  21.912  77.368  1.00  0.00     0.000 C 
ENDROOT
BRANCH   1   2
ATOM      2  C   UNL     1      48.774  20.705  77.590  1.00  0.00     0.000 C 
BRANCH   2   3
ATOM      3  C   UNL     1      49.315  20.637  79.028  1.00  0.00     0.000 C 
BRANCH   3   4
ATOM      4  C   UNL     1      50.843  20.806  79.090  1.00  0.00     0.000 C 
BRANCH   4   5
ATOM      5  C   UNL     1      51.347  22.030  78.305  1.00  0.00     0.006 C 
BRANCH   5   6
ATOM      6  C   UNL     1      52.442  21.703  77.274  1.00  0.00     0.053 C 
BRANCH   6   7
ATOM      7  C   UNL     1      52.193  22.343  75.942  1.00  0.00     0.041 C 
ATOM      8  O   UNL     1      52.991  23.208  75.494  1.00  0.00    -0.550 OA
ATOM      9  O   UNL     1      51.063  22.006  75.209  1.00  0.00    -0.550 OA
ENDBRANCH   6   7
ENDBRANCH   5   6
ENDBRANCH   4   5
ENDBRANCH   3   4
ENDBRANCH   2   3
ENDBRANCH   1   2
BRANCH   1  10
ATOM     10  C   UNL     1      47.274  21.958  75.942  1.00  0.00     0.000 C 
BRANCH  10  11
ATOM     11  C   UNL     1      47.791  20.807  75.062  1.00  0.00    -0.000 C 
BRANCH  11  12
ATOM     12  C   UNL     1      46.656  19.952  74.469  1.00  0.00    -0.000 C 
BRANCH  12  13
ATOM     13  C   UNL     1      45.497  19.655  75.439  1.00  0.00    -0.000 C 
BRANCH  13  14
ATOM     14  C   UNL     1      45.783  18.456  76.359  1.00  0.00    -0.000 C 
BRANCH  14  15
ATOM     15  C   UNL     1      45.654  18.810  77.848  1.00  0.00    -0.000 C 
BRANCH  15  16
ATOM     16  C   UNL     1      44.414  19.668  78.145  1.00  0.00    -0.003 C 
ATOM     17  C   UNL     1      44.781  20.898  78.970  1.00  0.00     0.004 C 
ENDBRANCH  15  16
ENDBRANCH  14  15
ENDBRANCH  13  14
ENDBRANCH  12  13
ENDBRANCH  11  12
ENDBRANCH  10  11
ENDBRANCH   1  10
TORSDOF 13
ENDMDL
MODEL 7
REMARK VINA RESULT:    -2.933      3.875      6.299
REMARK INTER + INTRA:          -7.208
REMARK INTER:                  -5.154
REMARK INTRA:                  -2.053
REMARK UNBOUND:                -2.045
REMARK SMILES CCCCCCCCCCCCCCC(=O)[O-]
REMARK SMILES IDX 9 1 10 2 11 3 12 4 13 5 14 6 15 7 16 8 17 9 8 10 7 11 6 12
REMARK SMILES IDX 5 13 4 14 3 15 2 16 1 17
REMARK H PARENT
REMARK Flexibility Score: inf
ROOT
ATOM      1  C   UNL     1      48.042  32.763  87.862  1.00  0.00     0.000 C 
ENDROOT
BRANCH   1   2
ATOM      2  C   UNL     1      48.857  32.613  86.566  1.00  0.00     0.000 C 
BRANCH   2   3
ATOM      3  C   UNL     1      49.772  33.820  86.304  1.00  0.00     0.000 C 
BRANCH   3   4
ATOM      4  C   UNL     1      49.825  34.789  87.497  1.00  0.00     0.000 C 
BRANCH   4   5
ATOM      5  C   UNL     1      51.069  35.697  87.482  1.00  0.00     0.006 C 
BRANCH   5   6
ATOM      6  C   UNL     1      52.261  35.109  86.707  1.00  0.00     0.053 C 
BRANCH   6   7
ATOM      7  C   UNL     1      53.457  34.870  87.577  1.00  0.00     0.041 C 
ATOM      8  O   UNL     1      54.297  33.982  87.273  1.00  0.00    -0.550 OA
ATOM      9  O   UNL     1      53.628  35.607  88.742  1.00  0.00    -0.550 OA
ENDBRANCH   6   7
ENDBRANCH   5   6
ENDBRANCH   4   5
ENDBRANCH   3   4
ENDBRANCH   2   3
ENDBRANCH   1   2
BRANCH   1  10
ATOM     10  C   UNL     1      47.007  31.641  88.039  1.00  0.00     0.000 C 
BRANCH  10  11
ATOM     11  C   UNL     1      46.492  31.538  89.485  1.00  0.00    -0.000 C 
BRANCH  11  12
ATOM     12  C   UNL     1      47.618  31.293  90.505  1.00  0.00    -0.000 C 
BRANCH  12  13
ATOM     13  C   UNL     1      48.380  29.967  90.321  1.00  0.00    -0.000 C 
BRANCH  13  14
ATOM     14  C   UNL     1      49.865  30.176  89.977  1.00  0.00    -0.000 C 
BRANCH  14  15
ATOM     15  C   UNL     1      50.483  31.366  90.725  1.00  0.00    -0.000 C 
BRANCH  15  16
ATOM     16  C   UNL     1      51.223  32.332  89.787  1.00  0.00    -0.003 C 
ATOM     17  C   UNL     1      51.864  31.584  88.622  1.00  0.00     0.004 C 
ENDBRANCH  15  16
ENDBRANCH  14  15
ENDBRANCH  13  14
ENDBRANCH  12  13
ENDBRANCH  11  12
ENDBRANCH  10  11
ENDBRANCH   1  10
TORSDOF 13
ENDMDL
MODEL 8
REMARK VINA RESULT:    -2.911      0.960      2.511
REMARK INTER + INTRA:          -7.168
REMARK INTER:                  -5.113
REMARK INTRA:                  -2.056
REMARK UNBOUND:                -2.045
REMARK SMILES CCCCCCCCCCCCCCC(=O)[O-]
REMARK SMILES IDX 9 1 10 2 11 3 12 4 13 5 14 6 15 7 16 8 17 9 8 10 7 11 6 12
REMARK SMILES IDX 5 13 4 14 3 15 2 16 1 17
REMARK H PARENT
REMARK Flexibility Score: inf
ROOT
ATOM      1  C   UNL     1      51.447  31.847  88.800  1.00  0.00     0.000 C 
ENDROOT
BRANCH   1   2
ATOM      2  C   UNL     1      50.370  31.640  89.879  1.00  0.00     0.000 C 
BRANCH   2   3
ATOM      3  C   UNL     1      49.958  30.166  90.022  1.00  0.00     0.000 C 
BRANCH   3   4
ATOM      4  C   UNL     1      48.456  30.000  90.309  1.00  0.00     0.000 C 
BRANCH   4   5
ATOM      5  C   UNL     1      47.722  31.343  90.478  1.00  0.00     0.006 C 
BRANCH   5   6
ATOM      6  C   UNL     1      46.295  31.352  89.900  1.00  0.00     0.053 C 
BRANCH   6   7
ATOM      7  C   UNL     1      45.262  30.944  90.905  1.00  0.00     0.041 C 
ATOM      8  O   UNL     1      44.842  29.757  90.938  1.00  0.00    -0.550 OA
ATOM      9  O   UNL     1      44.739  31.882  91.786  1.00  0.00    -0.550 OA
ENDBRANCH   6   7
ENDBRANCH   5   6
ENDBRANCH   4   5
ENDBRANCH   3   4
ENDBRANCH   2   3
ENDBRANCH   1   2
BRANCH   1  10
ATOM     10  C   UNL     1      51.845  33.323  88.643  1.00  0.00     0.000 C 
BRANCH  10  11
ATOM     11  C   UNL     1      52.229  33.679  87.196  1.00  0.00    -0.000 C 
BRANCH  11  12
ATOM     12  C   UNL     1      51.198  34.595  86.512  1.00  0.00    -0.000 C 
BRANCH  12  13
ATOM     13  C   UNL     1      50.164  35.226  87.463  1.00  0.00    -0.000 C 
BRANCH  13  14
ATOM     14  C   UNL     1      48.712  34.947  87.035  1.00  0.00    -0.000 C 
BRANCH  14  15
ATOM     15  C   UNL     1      48.235  33.546  87.446  1.00  0.00    -0.000 C 
BRANCH  15  16
ATOM     16  C   UNL     1      48.209  32.563  86.265  1.00  0.00    -0.003 C 
ATOM     17  C   UNL     1      48.487  31.136  86.731  1.00  0.00     0.004 C 
ENDBRANCH  15  16
ENDBRANCH  14  15
ENDBRANCH  13  14
ENDBRANCH  12  13
ENDBRANCH  11  12
ENDBRANCH  10  11
ENDBRANCH   1  10
TORSDOF 13
ENDMDL
MODEL 9
REMARK VINA RESULT:    -2.906      4.940      6.876
REMARK INTER + INTRA:          -7.159
REMARK INTER:                  -5.203
REMARK INTRA:                  -1.956
REMARK UNBOUND:                -2.045
REMARK SMILES CCCCCCCCCCCCCCC(=O)[O-]
REMARK SMILES IDX 9 1 10 2 11 3 12 4 13 5 14 6 15 7 16 8 17 9 8 10 7 11 6 12
REMARK SMILES IDX 5 13 4 14 3 15 2 16 1 17
REMARK H PARENT
REMARK Flexibility Score: inf
ROOT
ATOM      1  C   UNL     1      51.146  34.845  87.597  1.00  0.00     0.000 C 
ENDROOT
BRANCH   1   2
ATOM      2  C   UNL     1      49.941  35.791  87.461  1.00  0.00     0.000 C 
BRANCH   2   3
ATOM      3  C   UNL     1      48.640  35.042  87.128  1.00  0.00     0.000 C 
BRANCH   3   4
ATOM      4  C   UNL     1      48.825  34.019  85.994  1.00  0.00     0.000 C 
BRANCH   4   5
ATOM      5  C   UNL     1      48.839  34.664  84.596  1.00  0.00     0.006 C 
BRANCH   5   6
ATOM      6  C   UNL     1      50.156  34.457  83.827  1.00  0.00     0.053 C 
BRANCH   6   7
ATOM      7  C   UNL     1      49.977  34.532  82.341  1.00  0.00     0.041 C 
ATOM      8  O   UNL     1      48.827  34.443  81.834  1.00  0.00    -0.550 OA
ATOM      9  O   UNL     1      51.083  34.670  81.513  1.00  0.00    -0.550 OA
ENDBRANCH   6   7
ENDBRANCH   5   6
ENDBRANCH   4   5
ENDBRANCH   3   4
ENDBRANCH   2   3
ENDBRANCH   1   2
BRANCH   1  10
ATOM     10  C   UNL     1      52.404  35.392  86.904  1.00  0.00     0.000 C 
BRANCH  10  11
ATOM     11  C   UNL     1      53.122  34.325  86.058  1.00  0.00    -0.000 C 
BRANCH  11  12
ATOM     12  C   UNL     1      52.635  32.897  86.360  1.00  0.00    -0.000 C 
BRANCH  12  13
ATOM     13  C   UNL     1      53.739  31.917  86.798  1.00  0.00    -0.000 C 
BRANCH  13  14
ATOM     14  C   UNL     1      54.229  32.173  88.233  1.00  0.00    -0.000 C 
BRANCH  14  15
ATOM     15  C   UNL     1      53.097  32.082  89.268  1.00  0.00    -0.000 C 
BRANCH  15  16
ATOM     16  C   UNL     1      53.312  33.026  90.461  1.00  0.00    -0.003 C 
ATOM     17  C   UNL     1      54.109  34.260  90.049  1.00  0.00     0.004 C 
ENDBRANCH  15  16
ENDBRANCH  14  15
ENDBRANCH  13  14
ENDBRANCH  12  13
ENDBRANCH  11  12
ENDBRANCH  10  11
ENDBRANCH   1  10
TORSDOF 13
ENDMDL
