MODEL 1
REMARK VINA RESULT:    -4.604      0.000      0.000
REMARK INTER + INTRA:          -4.897
REMARK INTER:                  -4.873
REMARK INTRA:                  -0.024
REMARK UNBOUND:                -0.024
REMARK SMILES O=C([O-])c1cccnc1
REMARK SMILES IDX 4 1 5 2 9 3 6 4 8 5 7 6 2 7 1 8 3 9
REMARK H PARENT
REMARK Flexibility Score: inf
ROOT
ATOM      1  C   UNL     1     -12.230 -28.153  11.615  1.00  0.00     0.016 A 
ATOM      2  C   UNL     1     -12.545 -27.203  10.630  1.00  0.00     0.013 A 
ATOM      3  C   UNL     1     -11.210 -29.083  11.344  1.00  0.00     0.120 A 
ATOM      4  C   UNL     1     -11.853 -27.193   9.418  1.00  0.00     0.021 A 
ATOM      5  N   UNL     1     -10.551 -29.052  10.155  1.00  0.00    -0.264 NA
ATOM      6  C   UNL     1     -10.848 -28.136   9.196  1.00  0.00     0.111 A 
ENDROOT
BRANCH   1   7
ATOM      7  C   UNL     1     -12.956 -28.174  12.903  1.00  0.00     0.073 C 
ATOM      8  O   UNL     1     -13.850 -27.321  13.148  1.00  0.00    -0.545 OA
ATOM      9  O   UNL     1     -12.662 -29.137  13.861  1.00  0.00    -0.545 OA
ENDBRANCH   1   7
TORSDOF 1
ENDMDL
MODEL 2
REMARK VINA RESULT:    -4.531      2.893      3.612
REMARK INTER + INTRA:          -4.819
REMARK INTER:                  -4.803
REMARK INTRA:                  -0.016
REMARK UNBOUND:                -0.024
REMARK SMILES O=C([O-])c1cccnc1
REMARK SMILES IDX 4 1 5 2 9 3 6 4 8 5 7 6 2 7 1 8 3 9
REMARK H PARENT
REMARK Flexibility Score: inf
ROOT
ATOM      1  C   UNL     1     -13.588 -27.151   9.489  1.00  0.00     0.016 A 
ATOM      2  C   UNL     1     -13.315 -27.413  10.842  1.00  0.00     0.013 A 
ATOM      3  C   UNL     1     -12.663 -27.586   8.523  1.00  0.00     0.120 A 
ATOM      4  C   UNL     1     -12.150 -28.092  11.202  1.00  0.00     0.021 A 
ATOM      5  N   UNL     1     -11.536 -28.246   8.902  1.00  0.00    -0.264 NA
ATOM      6  C   UNL     1     -11.262 -28.505  10.208  1.00  0.00     0.111 A 
ENDROOT
BRANCH   1   7
ATOM      7  C   UNL     1     -14.819 -26.432   9.094  1.00  0.00     0.073 C 
ATOM      8  O   UNL     1     -15.802 -27.058   8.617  1.00  0.00    -0.545 OA
ATOM      9  O   UNL     1     -14.908 -25.053   9.246  1.00  0.00    -0.545 OA
ENDBRANCH   1   7
TORSDOF 1
ENDMDL
MODEL 3
REMARK VINA RESULT:    -4.513      2.530      3.590
REMARK INTER + INTRA:          -4.801
REMARK INTER:                  -4.778
REMARK INTRA:                  -0.023
REMARK UNBOUND:                -0.024
REMARK SMILES O=C([O-])c1cccnc1
REMARK SMILES IDX 4 1 5 2 9 3 6 4 8 5 7 6 2 7 1 8 3 9
REMARK H PARENT
REMARK Flexibility Score: inf
ROOT
ATOM      1  C   UNL     1     -11.904 -28.142  10.508  1.00  0.00     0.016 A 
ATOM      2  C   UNL     1     -10.939 -29.137  10.285  1.00  0.00     0.013 A 
ATOM      3  C   UNL     1     -12.593 -28.141  11.734  1.00  0.00     0.120 A 
ATOM      4  C   UNL     1     -10.681 -30.096  11.267  1.00  0.00     0.021 A 
ATOM      5  N   UNL     1     -12.322 -29.086  12.674  1.00  0.00    -0.264 NA
ATOM      6  C   UNL     1     -11.390 -30.054  12.468  1.00  0.00     0.111 A 
ENDROOT
BRANCH   1   7
ATOM      7  C   UNL     1     -12.187 -27.122   9.476  1.00  0.00     0.073 C 
ATOM      8  O   UNL     1     -11.348 -26.879   8.568  1.00  0.00    -0.545 OA
ATOM      9  O   UNL     1     -13.385 -26.417   9.492  1.00  0.00    -0.545 OA
ENDBRANCH   1   7
TORSDOF 1
ENDMDL
MODEL 4
REMARK VINA RESULT:    -4.496      2.568      3.494
REMARK INTER + INTRA:          -4.783
REMARK INTER:                  -4.760
REMARK INTRA:                  -0.023
REMARK UNBOUND:                -0.024
REMARK SMILES O=C([O-])c1cccnc1
REMARK SMILES IDX 4 1 5 2 9 3 6 4 8 5 7 6 2 7 1 8 3 9
REMARK H PARENT
REMARK Flexibility Score: inf
ROOT
ATOM      1  C   UNL     1     -12.161 -28.060  10.930  1.00  0.00     0.016 A 
ATOM      2  C   UNL     1     -13.094 -27.439  11.777  1.00  0.00     0.013 A 
ATOM      3  C   UNL     1     -11.520 -29.227  11.384  1.00  0.00     0.120 A 
ATOM      4  C   UNL     1     -13.369 -27.981  13.034  1.00  0.00     0.021 A 
ATOM      5  N   UNL     1     -11.805 -29.734  12.613  1.00  0.00    -0.264 NA
ATOM      6  C   UNL     1     -12.707 -29.141  13.440  1.00  0.00     0.111 A 
ENDROOT
BRANCH   1   7
ATOM      7  C   UNL     1     -11.861 -27.497   9.597  1.00  0.00     0.073 C 
ATOM      8  O   UNL     1     -12.656 -26.687   9.050  1.00  0.00    -0.545 OA
ATOM      9  O   UNL     1     -10.696 -27.853   8.928  1.00  0.00    -0.545 OA
ENDBRANCH   1   7
TORSDOF 1
ENDMDL
MODEL 5
REMARK VINA RESULT:    -4.476      3.021      3.964
REMARK INTER + INTRA:          -4.761
REMARK INTER:                  -4.738
REMARK INTRA:                  -0.024
REMARK UNBOUND:                -0.024
REMARK SMILES O=C([O-])c1cccnc1
REMARK SMILES IDX 4 1 5 2 9 3 6 4 8 5 7 6 2 7 1 8 3 9
REMARK H PARENT
REMARK Flexibility Score: inf
ROOT
ATOM      1  C   UNL     1     -12.207 -27.790  10.281  1.00  0.00     0.016 A 
ATOM      2  C   UNL     1     -12.025 -28.268  11.589  1.00  0.00     0.013 A 
ATOM      3  C   UNL     1     -13.411 -27.134   9.970  1.00  0.00     0.120 A 
ATOM      4  C   UNL     1     -13.024 -28.085  12.547  1.00  0.00     0.021 A 
ATOM      5  N   UNL     1     -14.368 -26.969  10.922  1.00  0.00    -0.264 NA
ATOM      6  C   UNL     1     -14.202 -27.427  12.191  1.00  0.00     0.111 A 
ENDROOT
BRANCH   1   7
ATOM      7  C   UNL     1     -11.157 -27.978   9.257  1.00  0.00     0.073 C 
ATOM      8  O   UNL     1     -11.317 -27.540   8.087  1.00  0.00    -0.545 OA
ATOM      9  O   UNL     1      -9.976 -28.640   9.573  1.00  0.00    -0.545 OA
ENDBRANCH   1   7
TORSDOF 1
ENDMDL
MODEL 6
REMARK VINA RESULT:    -4.451      2.964      3.598
REMARK INTER + INTRA:          -4.735
REMARK INTER:                  -4.719
REMARK INTRA:                  -0.016
REMARK UNBOUND:                -0.024
REMARK SMILES O=C([O-])c1cccnc1
REMARK SMILES IDX 4 1 5 2 9 3 6 4 8 5 7 6 2 7 1 8 3 9
REMARK H PARENT
REMARK Flexibility Score: inf
ROOT
ATOM      1  C   UNL     1     -13.628 -27.152   9.634  1.00  0.00     0.016 A 
ATOM      2  C   UNL     1     -12.563 -27.480   8.779  1.00  0.00     0.013 A 
ATOM      3  C   UNL     1     -13.536 -27.520  10.989  1.00  0.00     0.120 A 
ATOM      4  C   UNL     1     -11.447 -28.154   9.278  1.00  0.00     0.021 A 
ATOM      5  N   UNL     1     -12.438 -28.176  11.448  1.00  0.00    -0.264 NA
ATOM      6  C   UNL     1     -11.402 -28.498  10.629  1.00  0.00     0.111 A 
ENDROOT
BRANCH   1   7
ATOM      7  C   UNL     1     -14.816 -26.438   9.119  1.00  0.00     0.073 C 
ATOM      8  O   UNL     1     -15.742 -27.068   8.541  1.00  0.00    -0.545 OA
ATOM      9  O   UNL     1     -14.929 -25.060   9.265  1.00  0.00    -0.545 OA
ENDBRANCH   1   7
TORSDOF 1
ENDMDL
MODEL 7
REMARK VINA RESULT:    -4.435      2.743      3.795
REMARK INTER + INTRA:          -4.718
REMARK INTER:                  -4.695
REMARK INTRA:                  -0.023
REMARK UNBOUND:                -0.024
REMARK SMILES O=C([O-])c1cccnc1
REMARK SMILES IDX 4 1 5 2 9 3 6 4 8 5 7 6 2 7 1 8 3 9
REMARK H PARENT
REMARK Flexibility Score: inf
ROOT
ATOM      1  C   UNL     1     -12.561 -27.893  11.151  1.00  0.00     0.016 A 
ATOM      2  C   UNL     1     -11.733 -29.021  11.277  1.00  0.00     0.013 A 
ATOM      3  C   UNL     1     -13.390 -27.547  12.233  1.00  0.00     0.120 A 
ATOM      4  C   UNL     1     -11.744 -29.769  12.456  1.00  0.00     0.021 A 
ATOM      5  N   UNL     1     -13.382 -28.293  13.370  1.00  0.00    -0.264 NA
ATOM      6  C   UNL     1     -12.584 -29.386  13.503  1.00  0.00     0.111 A 
ENDROOT
BRANCH   1   7
ATOM      7  C   UNL     1     -12.559 -27.093   9.907  1.00  0.00     0.073 C 
ATOM      8  O   UNL     1     -11.553 -27.088   9.150  1.00  0.00    -0.545 OA
ATOM      9  O   UNL     1     -13.670 -26.334   9.557  1.00  0.00    -0.545 OA
ENDBRANCH   1   7
TORSDOF 1
ENDMDL
MODEL 8
REMARK VINA RESULT:    -4.390      1.534      2.255
REMARK INTER + INTRA:          -4.671
REMARK INTER:                  -4.647
REMARK INTRA:                  -0.024
REMARK UNBOUND:                -0.024
REMARK SMILES O=C([O-])c1cccnc1
REMARK SMILES IDX 4 1 5 2 9 3 6 4 8 5 7 6 2 7 1 8 3 9
REMARK H PARENT
REMARK Flexibility Score: inf
ROOT
ATOM      1  C   UNL     1     -13.019 -27.596  10.952  1.00  0.00     0.016 A 
ATOM      2  C   UNL     1     -11.763 -28.210  10.823  1.00  0.00     0.013 A 
ATOM      3  C   UNL     1     -13.659 -27.133   9.789  1.00  0.00     0.120 A 
ATOM      4  C   UNL     1     -11.178 -28.351   9.563  1.00  0.00     0.021 A 
ATOM      5  N   UNL     1     -13.068 -27.282   8.573  1.00  0.00    -0.264 NA
ATOM      6  C   UNL     1     -11.852 -27.876   8.437  1.00  0.00     0.111 A 
ENDROOT
BRANCH   1   7
ATOM      7  C   UNL     1     -13.649 -27.440  12.281  1.00  0.00     0.073 C 
ATOM      8  O   UNL     1     -13.152 -27.999  13.294  1.00  0.00    -0.545 OA
ATOM      9  O   UNL     1     -14.798 -26.673  12.429  1.00  0.00    -0.545 OA
ENDBRANCH   1   7
TORSDOF 1
ENDMDL
