MODEL 1
REMARK VINA RESULT:    -9.386      0.000      0.000
REMARK INTER + INTRA:         -11.998
REMARK INTER:                 -11.855
REMARK INTRA:                  -0.143
REMARK UNBOUND:                -0.143
REMARK SMILES CC(C)[C@@H](C)C=C[C@H](C)[C@@H]1CC[C@@H]2C3=CC=C4C[C@H](O)CC[C@@]4(C)[C@H]3CC[C@@]21C
REMARK SMILES IDX 8 1 9 2 7 3 6 4 4 5 5 6 2 7 1 8 3 9 10 10 11 11 28 12 12 13
REMARK SMILES IDX 13 14 27 15 29 16 14 17 26 18 25 19 15 20 23 21 16 22 17 23
REMARK SMILES IDX 22 24 24 25 18 26 21 27 19 28 20 29
REMARK H PARENT 20 30
REMARK Flexibility Score: inf
ROOT
ATOM      1  C   UNL     1     134.687 131.069 135.766  1.00  0.00     0.012 C 
ATOM      2  C   UNL     1     136.130 131.565 135.945  1.00  0.00     0.012 C 
ENDROOT
BRANCH   1   3
ATOM      3  C   UNL     1     134.703 129.667 135.187  1.00  0.00    -0.028 C 
ATOM      4  C   UNL     1     135.831 129.072 134.763  1.00  0.00    -0.028 C 
BRANCH   4   5
ATOM      5  C   UNL     1     135.814 127.662 134.206  1.00  0.00     0.011 C 
ATOM      6  C   UNL     1     134.435 127.345 133.609  1.00  0.00     0.012 C 
BRANCH   5   7
ATOM      7  C   UNL     1     136.260 126.587 135.243  1.00  0.00    -0.011 C 
ATOM      8  C   UNL     1     136.582 125.249 134.558  1.00  0.00     0.008 C 
ATOM      9  C   UNL     1     137.433 127.027 136.137  1.00  0.00     0.008 C 
ENDBRANCH   5   7
ENDBRANCH   4   5
ENDBRANCH   1   3
BRANCH   1  10
ATOM     10  C   UNL     1     133.845 131.116 137.088  1.00  0.00     0.002 C 
ATOM     11  C   UNL     1     134.620 131.805 138.231  1.00  0.00     0.005 C 
ATOM     12  C   UNL     1     133.356 129.765 137.697  1.00  0.00    -0.023 C 
ATOM     13  C   UNL     1     134.137 131.193 139.545  1.00  0.00     0.009 C 
ATOM     14  C   UNL     1     133.070 130.168 139.164  1.00  0.00     0.021 C 
ATOM     15  C   UNL     1     134.459 128.656 137.616  1.00  0.00     0.008 C 
ATOM     16  C   UNL     1     132.044 129.268 137.039  1.00  0.00     0.012 C 
ATOM     17  C   UNL     1     133.006 128.963 140.083  1.00  0.00    -0.063 C 
ATOM     18  C   UNL     1     134.242 127.472 138.581  1.00  0.00     0.009 C 
ATOM     19  C   UNL     1     134.152 127.969 140.039  1.00  0.00     0.025 C 
ATOM     20  C   UNL     1     131.820 128.608 140.604  1.00  0.00    -0.000 C 
ATOM     21  C   UNL     1     134.045 126.864 141.170  1.00  0.00    -0.005 C 
ATOM     22  C   UNL     1     131.598 127.288 141.203  1.00  0.00    -0.000 C 
ATOM     23  C   UNL     1     132.600 126.418 141.391  1.00  0.00    -0.061 C 
ATOM     24  C   UNL     1     134.931 125.621 140.845  1.00  0.00     0.014 C 
ATOM     25  C   UNL     1     134.540 127.506 142.494  1.00  0.00     0.017 C 
ATOM     26  C   UNL     1     132.311 125.147 142.164  1.00  0.00     0.063 C 
ATOM     27  C   UNL     1     134.712 124.448 141.808  1.00  0.00     0.033 C 
ATOM     28  C   UNL     1     133.245 124.000 141.765  1.00  0.00     0.118 C 
BRANCH  28  29
ATOM     29  O   UNL     1     133.049 122.923 142.645  1.00  0.00    -0.393 OA
ATOM     30  H   UNL     1     132.368 123.212 143.306  1.00  0.00     0.210 HD
ENDBRANCH  28  29
ENDBRANCH   1  10
TORSDOF 5
ENDMDL
MODEL 2
REMARK VINA RESULT:    -8.645      2.227      3.593
REMARK INTER + INTRA:         -11.063
REMARK INTER:                 -10.865
REMARK INTRA:                  -0.198
REMARK UNBOUND:                -0.143
REMARK SMILES CC(C)[C@@H](C)C=C[C@H](C)[C@@H]1CC[C@@H]2C3=CC=C4C[C@H](O)CC[C@@]4(C)[C@H]3CC[C@@]21C
REMARK SMILES IDX 8 1 9 2 7 3 6 4 4 5 5 6 2 7 1 8 3 9 10 10 11 11 28 12 12 13
REMARK SMILES IDX 13 14 27 15 29 16 14 17 26 18 25 19 15 20 23 21 16 22 17 23
REMARK SMILES IDX 22 24 24 25 18 26 21 27 19 28 20 29
REMARK H PARENT 20 30
REMARK Flexibility Score: inf
ROOT
ATOM      1  C   UNL     1     132.105 130.546 136.628  1.00  0.00     0.012 C 
ATOM      2  C   UNL     1     131.938 132.005 137.082  1.00  0.00     0.012 C 
ENDROOT
BRANCH   1   3
ATOM      3  C   UNL     1     133.522 130.332 136.130  1.00  0.00    -0.028 C 
ATOM      4  C   UNL     1     133.840 129.377 135.239  1.00  0.00    -0.028 C 
BRANCH   4   5
ATOM      5  C   UNL     1     135.263 129.203 134.748  1.00  0.00     0.011 C 
ATOM      6  C   UNL     1     135.400 127.883 133.975  1.00  0.00     0.012 C 
BRANCH   5   7
ATOM      7  C   UNL     1     136.323 129.323 135.884  1.00  0.00    -0.011 C 
ATOM      8  C   UNL     1     137.157 128.038 136.009  1.00  0.00     0.008 C 
ATOM      9  C   UNL     1     137.245 130.549 135.754  1.00  0.00     0.008 C 
ENDBRANCH   5   7
ENDBRANCH   4   5
ENDBRANCH   1   3
BRANCH   1  10
ATOM     10  C   UNL     1     131.741 129.503 137.740  1.00  0.00     0.002 C 
ATOM     11  C   UNL     1     130.669 130.051 138.704  1.00  0.00     0.005 C 
ATOM     12  C   UNL     1     132.885 128.989 138.668  1.00  0.00    -0.023 C 
ATOM     13  C   UNL     1     130.898 129.395 140.065  1.00  0.00     0.009 C 
ATOM     14  C   UNL     1     132.087 128.453 139.882  1.00  0.00     0.021 C 
ATOM     15  C   UNL     1     133.856 130.143 139.091  1.00  0.00     0.008 C 
ATOM     16  C   UNL     1     133.680 127.825 138.026  1.00  0.00     0.012 C 
ATOM     17  C   UNL     1     132.958 128.300 141.114  1.00  0.00    -0.063 C 
ATOM     18  C   UNL     1     134.709 129.832 140.339  1.00  0.00     0.009 C 
ATOM     19  C   UNL     1     133.805 129.486 141.541  1.00  0.00     0.025 C 
ATOM     20  C   UNL     1     133.250 127.065 141.552  1.00  0.00    -0.000 C 
ATOM     21  C   UNL     1     134.521 129.253 142.936  1.00  0.00    -0.005 C 
ATOM     22  C   UNL     1     134.343 126.814 142.498  1.00  0.00    -0.000 C 
ATOM     23  C   UNL     1     135.015 127.814 143.084  1.00  0.00    -0.061 C 
ATOM     24  C   UNL     1     135.713 130.238 143.141  1.00  0.00     0.014 C 
ATOM     25  C   UNL     1     133.465 129.499 144.047  1.00  0.00     0.017 C 
ATOM     26  C   UNL     1     136.015 127.467 144.169  1.00  0.00     0.063 C 
ATOM     27  C   UNL     1     136.556 129.924 144.383  1.00  0.00     0.033 C 
ATOM     28  C   UNL     1     137.134 128.507 144.282  1.00  0.00     0.118 C 
BRANCH  28  29
ATOM     29  O   UNL     1     137.908 128.225 145.419  1.00  0.00    -0.393 OA
ATOM     30  H   UNL     1     137.816 127.253 145.596  1.00  0.00     0.210 HD
ENDBRANCH  28  29
ENDBRANCH   1  10
TORSDOF 5
ENDMDL
MODEL 3
REMARK VINA RESULT:    -7.783      2.779      6.603
REMARK INTER + INTRA:          -9.974
REMARK INTER:                  -9.204
REMARK INTRA:                  -0.771
REMARK UNBOUND:                -0.143
REMARK SMILES CC(C)[C@@H](C)C=C[C@H](C)[C@@H]1CC[C@@H]2C3=CC=C4C[C@H](O)CC[C@@]4(C)[C@H]3CC[C@@]21C
REMARK SMILES IDX 8 1 9 2 7 3 6 4 4 5 5 6 2 7 1 8 3 9 10 10 11 11 28 12 12 13
REMARK SMILES IDX 13 14 27 15 29 16 14 17 26 18 25 19 15 20 23 21 16 22 17 23
REMARK SMILES IDX 22 24 24 25 18 26 21 27 19 28 20 29
REMARK H PARENT 20 30
REMARK Flexibility Score: inf
ROOT
ATOM      1  C   UNL     1     134.140 131.945 142.983  1.00  0.00     0.012 C 
ATOM      2  C   UNL     1     133.660 132.892 144.094  1.00  0.00     0.012 C 
ENDROOT
BRANCH   1   3
ATOM      3  C   UNL     1     134.206 130.529 143.521  1.00  0.00    -0.028 C 
ATOM      4  C   UNL     1     135.346 129.816 143.546  1.00  0.00    -0.028 C 
BRANCH   4   5
ATOM      5  C   UNL     1     135.381 128.409 144.109  1.00  0.00     0.011 C 
ATOM      6  C   UNL     1     136.558 128.257 145.084  1.00  0.00     0.012 C 
BRANCH   5   7
ATOM      7  C   UNL     1     135.393 127.308 143.007  1.00  0.00    -0.011 C 
ATOM      8  C   UNL     1     135.747 125.932 143.594  1.00  0.00     0.008 C 
ATOM      9  C   UNL     1     134.091 127.222 142.191  1.00  0.00     0.008 C 
ENDBRANCH   5   7
ENDBRANCH   4   5
ENDBRANCH   1   3
BRANCH   1  10
ATOM     10  C   UNL     1     133.259 132.009 141.688  1.00  0.00     0.002 C 
ATOM     11  C   UNL     1     131.993 131.136 141.818  1.00  0.00     0.005 C 
ATOM     12  C   UNL     1     133.905 131.573 140.337  1.00  0.00    -0.023 C 
ATOM     13  C   UNL     1     131.621 130.658 140.416  1.00  0.00     0.009 C 
ATOM     14  C   UNL     1     132.655 131.272 139.474  1.00  0.00     0.021 C 
ATOM     15  C   UNL     1     134.802 130.300 140.503  1.00  0.00     0.008 C 
ATOM     16  C   UNL     1     134.714 132.719 139.679  1.00  0.00     0.012 C 
ATOM     17  C   UNL     1     132.989 130.413 138.268  1.00  0.00    -0.063 C 
ATOM     18  C   UNL     1     135.091 129.549 139.187  1.00  0.00     0.009 C 
ATOM     19  C   UNL     1     133.774 129.135 138.498  1.00  0.00     0.025 C 
ATOM     20  C   UNL     1     132.932 130.965 137.046  1.00  0.00    -0.000 C 
ATOM     21  C   UNL     1     133.895 128.250 137.188  1.00  0.00    -0.005 C 
ATOM     22  C   UNL     1     133.560 130.335 135.879  1.00  0.00    -0.000 C 
ATOM     23  C   UNL     1     134.101 129.110 135.942  1.00  0.00    -0.061 C 
ATOM     24  C   UNL     1     135.052 127.210 137.302  1.00  0.00     0.014 C 
ATOM     25  C   UNL     1     132.550 127.494 137.013  1.00  0.00     0.017 C 
ATOM     26  C   UNL     1     134.581 128.472 134.653  1.00  0.00     0.063 C 
ATOM     27  C   UNL     1     135.334 126.466 135.990  1.00  0.00     0.033 C 
ATOM     28  C   UNL     1     135.712 127.466 134.889  1.00  0.00     0.118 C 
BRANCH  28  29
ATOM     29  O   UNL     1     135.973 126.781 133.692  1.00  0.00    -0.393 OA
ATOM     30  H   UNL     1     135.251 126.108 133.582  1.00  0.00     0.210 HD
ENDBRANCH  28  29
ENDBRANCH   1  10
TORSDOF 5
ENDMDL
MODEL 4
REMARK VINA RESULT:    -7.708      3.029      7.079
REMARK INTER + INTRA:          -9.879
REMARK INTER:                 -10.081
REMARK INTRA:                   0.202
REMARK UNBOUND:                -0.143
REMARK SMILES CC(C)[C@@H](C)C=C[C@H](C)[C@@H]1CC[C@@H]2C3=CC=C4C[C@H](O)CC[C@@]4(C)[C@H]3CC[C@@]21C
REMARK SMILES IDX 8 1 9 2 7 3 6 4 4 5 5 6 2 7 1 8 3 9 10 10 11 11 28 12 12 13
REMARK SMILES IDX 13 14 27 15 29 16 14 17 26 18 25 19 15 20 23 21 16 22 17 23
REMARK SMILES IDX 22 24 24 25 18 26 21 27 19 28 20 29
REMARK H PARENT 20 30
REMARK Flexibility Score: inf
ROOT
ATOM      1  C   UNL     1     131.299 130.852 140.117  1.00  0.00     0.012 C 
ATOM      2  C   UNL     1     130.500 129.543 140.037  1.00  0.00     0.012 C 
ENDROOT
BRANCH   1   3
ATOM      3  C   UNL     1     132.285 130.772 141.268  1.00  0.00    -0.028 C 
ATOM      4  C   UNL     1     132.913 131.854 141.760  1.00  0.00    -0.028 C 
BRANCH   4   5
ATOM      5  C   UNL     1     133.877 131.741 142.924  1.00  0.00     0.011 C 
ATOM      6  C   UNL     1     133.500 130.543 143.810  1.00  0.00     0.012 C 
BRANCH   5   7
ATOM      7  C   UNL     1     134.002 133.057 143.748  1.00  0.00    -0.011 C 
ATOM      8  C   UNL     1     134.443 134.233 142.862  1.00  0.00     0.008 C 
ATOM      9  C   UNL     1     132.732 133.427 144.535  1.00  0.00     0.008 C 
ENDBRANCH   5   7
ENDBRANCH   4   5
ENDBRANCH   1   3
BRANCH   1  10
ATOM     10  C   UNL     1     132.033 131.216 138.780  1.00  0.00     0.002 C 
ATOM     11  C   UNL     1     131.157 130.902 137.548  1.00  0.00     0.005 C 
ATOM     12  C   UNL     1     133.400 130.527 138.480  1.00  0.00    -0.023 C 
ATOM     13  C   UNL     1     132.097 130.567 136.391  1.00  0.00     0.009 C 
ATOM     14  C   UNL     1     133.513 130.708 136.947  1.00  0.00     0.021 C 
ATOM     15  C   UNL     1     133.389 129.012 138.875  1.00  0.00     0.008 C 
ATOM     16  C   UNL     1     134.583 131.254 139.168  1.00  0.00     0.012 C 
ATOM     17  C   UNL     1     134.522 129.755 136.334  1.00  0.00    -0.063 C 
ATOM     18  C   UNL     1     134.496 128.171 138.205  1.00  0.00     0.009 C 
ATOM     19  C   UNL     1     134.404 128.279 136.669  1.00  0.00     0.025 C 
ATOM     20  C   UNL     1     135.672 130.252 135.851  1.00  0.00    -0.000 C 
ATOM     21  C   UNL     1     135.400 127.380 135.824  1.00  0.00    -0.005 C 
ATOM     22  C   UNL     1     136.829 129.396 135.568  1.00  0.00    -0.000 C 
ATOM     23  C   UNL     1     136.757 128.060 135.640  1.00  0.00    -0.061 C 
ATOM     24  C   UNL     1     135.603 125.978 136.476  1.00  0.00     0.014 C 
ATOM     25  C   UNL     1     134.778 127.198 134.413  1.00  0.00     0.017 C 
ATOM     26  C   UNL     1     137.950 127.250 135.174  1.00  0.00     0.063 C 
ATOM     27  C   UNL     1     136.704 125.147 135.805  1.00  0.00     0.033 C 
ATOM     28  C   UNL     1     138.043 125.893 135.877  1.00  0.00     0.118 C 
BRANCH  28  29
ATOM     29  O   UNL     1     139.048 125.128 135.266  1.00  0.00    -0.393 OA
ATOM     30  H   UNL     1     139.773 125.017 135.935  1.00  0.00     0.210 HD
ENDBRANCH  28  29
ENDBRANCH   1  10
TORSDOF 5
ENDMDL
MODEL 5
REMARK VINA RESULT:    -7.669      2.428      6.549
REMARK INTER + INTRA:          -9.830
REMARK INTER:                  -9.456
REMARK INTRA:                  -0.374
REMARK UNBOUND:                -0.143
REMARK SMILES CC(C)[C@@H](C)C=C[C@H](C)[C@@H]1CC[C@@H]2C3=CC=C4C[C@H](O)CC[C@@]4(C)[C@H]3CC[C@@]21C
REMARK SMILES IDX 8 1 9 2 7 3 6 4 4 5 5 6 2 7 1 8 3 9 10 10 11 11 28 12 12 13
REMARK SMILES IDX 13 14 27 15 29 16 14 17 26 18 25 19 15 20 23 21 16 22 17 23
REMARK SMILES IDX 22 24 24 25 18 26 21 27 19 28 20 29
REMARK H PARENT 20 30
REMARK Flexibility Score: inf
ROOT
ATOM      1  C   UNL     1     131.276 130.848 140.171  1.00  0.00     0.012 C 
ATOM      2  C   UNL     1     130.497 129.532 140.023  1.00  0.00     0.012 C 
ENDROOT
BRANCH   1   3
ATOM      3  C   UNL     1     132.219 130.746 141.355  1.00  0.00    -0.028 C 
ATOM      4  C   UNL     1     132.534 129.573 141.931  1.00  0.00    -0.028 C 
BRANCH   4   5
ATOM      5  C   UNL     1     133.495 129.506 143.101  1.00  0.00     0.011 C 
ATOM      6  C   UNL     1     133.904 130.922 143.534  1.00  0.00     0.012 C 
BRANCH   5   7
ATOM      7  C   UNL     1     134.734 128.602 142.828  1.00  0.00    -0.011 C 
ATOM      8  C   UNL     1     135.481 128.267 144.129  1.00  0.00     0.008 C 
ATOM      9  C   UNL     1     134.410 127.313 142.050  1.00  0.00     0.008 C 
ENDBRANCH   5   7
ENDBRANCH   4   5
ENDBRANCH   1   3
BRANCH   1  10
ATOM     10  C   UNL     1     132.054 131.259 138.873  1.00  0.00     0.002 C 
ATOM     11  C   UNL     1     131.204 131.034 137.606  1.00  0.00     0.005 C 
ATOM     12  C   UNL     1     133.411 130.549 138.573  1.00  0.00    -0.023 C 
ATOM     13  C   UNL     1     132.165 130.733 136.457  1.00  0.00     0.009 C 
ATOM     14  C   UNL     1     133.569 130.806 137.054  1.00  0.00     0.021 C 
ATOM     15  C   UNL     1     133.348 129.016 138.888  1.00  0.00     0.008 C 
ATOM     16  C   UNL     1     134.594 131.206 139.327  1.00  0.00     0.012 C 
ATOM     17  C   UNL     1     134.568 129.858 136.418  1.00  0.00    -0.063 C 
ATOM     18  C   UNL     1     134.451 128.181 138.203  1.00  0.00     0.009 C 
ATOM     19  C   UNL     1     134.402 128.370 136.672  1.00  0.00     0.025 C 
ATOM     20  C   UNL     1     135.743 130.346 135.991  1.00  0.00    -0.000 C 
ATOM     21  C   UNL     1     135.397 127.489 135.807  1.00  0.00    -0.005 C 
ATOM     22  C   UNL     1     136.885 129.475 135.692  1.00  0.00    -0.000 C 
ATOM     23  C   UNL     1     136.775 128.139 135.694  1.00  0.00    -0.061 C 
ATOM     24  C   UNL     1     135.544 126.049 136.390  1.00  0.00     0.014 C 
ATOM     25  C   UNL     1     134.807 127.396 134.374  1.00  0.00     0.017 C 
ATOM     26  C   UNL     1     137.959 127.322 135.215  1.00  0.00     0.063 C 
ATOM     27  C   UNL     1     136.640 125.224 135.705  1.00  0.00     0.033 C 
ATOM     28  C   UNL     1     137.996 125.928 135.849  1.00  0.00     0.118 C 
BRANCH  28  29
ATOM     29  O   UNL     1     138.997 125.167 135.225  1.00  0.00    -0.393 OA
ATOM     30  H   UNL     1     139.868 125.524 135.539  1.00  0.00     0.210 HD
ENDBRANCH  28  29
ENDBRANCH   1  10
TORSDOF 5
ENDMDL
MODEL 6
REMARK VINA RESULT:    -7.434      1.691      4.114
REMARK INTER + INTRA:          -9.533
REMARK INTER:                  -9.091
REMARK INTRA:                  -0.442
REMARK UNBOUND:                -0.143
REMARK SMILES CC(C)[C@@H](C)C=C[C@H](C)[C@@H]1CC[C@@H]2C3=CC=C4C[C@H](O)CC[C@@]4(C)[C@H]3CC[C@@]21C
REMARK SMILES IDX 8 1 9 2 7 3 6 4 4 5 5 6 2 7 1 8 3 9 10 10 11 11 28 12 12 13
REMARK SMILES IDX 13 14 27 15 29 16 14 17 26 18 25 19 15 20 23 21 16 22 17 23
REMARK SMILES IDX 22 24 24 25 18 26 21 27 19 28 20 29
REMARK H PARENT 20 30
REMARK Flexibility Score: inf
ROOT
ATOM      1  C   UNL     1     136.104 128.089 135.038  1.00  0.00     0.012 C 
ATOM      2  C   UNL     1     136.050 128.153 133.504  1.00  0.00     0.012 C 
ENDROOT
BRANCH   1   3
ATOM      3  C   UNL     1     135.907 129.481 135.609  1.00  0.00    -0.028 C 
ATOM      4  C   UNL     1     134.747 130.151 135.499  1.00  0.00    -0.028 C 
BRANCH   4   5
ATOM      5  C   UNL     1     134.579 131.533 136.097  1.00  0.00     0.011 C 
ATOM      6  C   UNL     1     135.933 132.067 136.588  1.00  0.00     0.012 C 
BRANCH   5   7
ATOM      7  C   UNL     1     133.493 131.591 137.214  1.00  0.00    -0.011 C 
ATOM      8  C   UNL     1     132.090 131.322 136.645  1.00  0.00     0.008 C 
ATOM      9  C   UNL     1     133.773 130.663 138.409  1.00  0.00     0.008 C 
ENDBRANCH   5   7
ENDBRANCH   4   5
ENDBRANCH   1   3
BRANCH   1  10
ATOM     10  C   UNL     1     135.072 127.083 135.655  1.00  0.00     0.002 C 
ATOM     11  C   UNL     1     133.724 127.769 135.963  1.00  0.00     0.005 C 
ATOM     12  C   UNL     1     135.458 126.352 136.978  1.00  0.00    -0.023 C 
ATOM     13  C   UNL     1     133.098 127.036 137.149  1.00  0.00     0.009 C 
ATOM     14  C   UNL     1     134.071 125.915 137.511  1.00  0.00     0.021 C 
ATOM     15  C   UNL     1     136.177 127.311 137.985  1.00  0.00     0.008 C 
ATOM     16  C   UNL     1     136.324 125.094 136.719  1.00  0.00     0.012 C 
ATOM     17  C   UNL     1     134.110 125.575 138.989  1.00  0.00    -0.063 C 
ATOM     18  C   UNL     1     136.173 126.818 139.447  1.00  0.00     0.009 C 
ATOM     19  C   UNL     1     134.728 126.586 139.937  1.00  0.00     0.025 C 
ATOM     20  C   UNL     1     133.965 124.294 139.362  1.00  0.00    -0.000 C 
ATOM     21  C   UNL     1     134.541 126.187 141.460  1.00  0.00    -0.005 C 
ATOM     22  C   UNL     1     134.331 123.830 140.705  1.00  0.00    -0.000 C 
ATOM     23  C   UNL     1     134.695 124.682 141.674  1.00  0.00    -0.061 C 
ATOM     24  C   UNL     1     135.542 126.951 142.382  1.00  0.00     0.014 C 
ATOM     25  C   UNL     1     133.091 126.567 141.864  1.00  0.00     0.017 C 
ATOM     26  C   UNL     1     134.897 124.134 143.072  1.00  0.00     0.063 C 
ATOM     27  C   UNL     1     135.532 126.457 143.833  1.00  0.00     0.033 C 
ATOM     28  C   UNL     1     135.894 124.967 143.884  1.00  0.00     0.118 C 
BRANCH  28  29
ATOM     29  O   UNL     1     135.888 124.519 145.215  1.00  0.00    -0.393 OA
ATOM     30  H   UNL     1     136.830 124.320 145.456  1.00  0.00     0.210 HD
ENDBRANCH  28  29
ENDBRANCH   1  10
TORSDOF 5
ENDMDL
MODEL 7
REMARK VINA RESULT:    -7.357      2.978      5.424
REMARK INTER + INTRA:          -9.436
REMARK INTER:                  -8.644
REMARK INTRA:                  -0.792
REMARK UNBOUND:                -0.143
REMARK SMILES CC(C)[C@@H](C)C=C[C@H](C)[C@@H]1CC[C@@H]2C3=CC=C4C[C@H](O)CC[C@@]4(C)[C@H]3CC[C@@]21C
REMARK SMILES IDX 8 1 9 2 7 3 6 4 4 5 5 6 2 7 1 8 3 9 10 10 11 11 28 12 12 13
REMARK SMILES IDX 13 14 27 15 29 16 14 17 26 18 25 19 15 20 23 21 16 22 17 23
REMARK SMILES IDX 22 24 24 25 18 26 21 27 19 28 20 29
REMARK H PARENT 20 30
REMARK Flexibility Score: inf
ROOT
ATOM      1  C   UNL     1     134.768 125.388 138.421  1.00  0.00     0.012 C 
ATOM      2  C   UNL     1     134.424 123.929 138.083  1.00  0.00     0.012 C 
ENDROOT
BRANCH   1   3
ATOM      3  C   UNL     1     135.628 125.972 137.315  1.00  0.00    -0.028 C 
ATOM      4  C   UNL     1     135.754 125.389 136.110  1.00  0.00    -0.028 C 
BRANCH   4   5
ATOM      5  C   UNL     1     136.606 126.010 135.022  1.00  0.00     0.011 C 
ATOM      6  C   UNL     1     138.062 126.139 135.498  1.00  0.00     0.012 C 
BRANCH   5   7
ATOM      7  C   UNL     1     136.044 127.366 134.500  1.00  0.00    -0.011 C 
ATOM      8  C   UNL     1     134.605 127.212 133.981  1.00  0.00     0.008 C 
ATOM      9  C   UNL     1     136.124 128.513 135.523  1.00  0.00     0.008 C 
ENDBRANCH   5   7
ENDBRANCH   4   5
ENDBRANCH   1   3
BRANCH   1  10
ATOM     10  C   UNL     1     133.506 126.282 138.676  1.00  0.00     0.002 C 
ATOM     11  C   UNL     1     133.098 127.064 137.410  1.00  0.00     0.005 C 
ATOM     12  C   UNL     1     133.584 127.360 139.802  1.00  0.00    -0.023 C 
ATOM     13  C   UNL     1     132.435 128.362 137.868  1.00  0.00     0.009 C 
ATOM     14  C   UNL     1     132.440 128.320 139.395  1.00  0.00     0.021 C 
ATOM     15  C   UNL     1     134.967 128.094 139.811  1.00  0.00     0.008 C 
ATOM     16  C   UNL     1     133.280 126.767 141.200  1.00  0.00     0.012 C 
ATOM     17  C   UNL     1     132.575 129.679 140.057  1.00  0.00    -0.063 C 
ATOM     18  C   UNL     1     134.965 129.446 140.554  1.00  0.00     0.009 C 
ATOM     19  C   UNL     1     133.909 130.396 139.949  1.00  0.00     0.025 C 
ATOM     20  C   UNL     1     131.692 130.028 141.006  1.00  0.00    -0.000 C 
ATOM     21  C   UNL     1     133.856 131.872 140.524  1.00  0.00    -0.005 C 
ATOM     22  C   UNL     1     131.941 131.141 141.927  1.00  0.00    -0.000 C 
ATOM     23  C   UNL     1     132.994 131.958 141.783  1.00  0.00    -0.061 C 
ATOM     24  C   UNL     1     135.284 132.421 140.830  1.00  0.00     0.014 C 
ATOM     25  C   UNL     1     133.191 132.767 139.444  1.00  0.00     0.017 C 
ATOM     26  C   UNL     1     133.085 133.178 142.679  1.00  0.00     0.063 C 
ATOM     27  C   UNL     1     135.275 133.766 141.568  1.00  0.00     0.033 C 
ATOM     28  C   UNL     1     134.531 133.628 142.903  1.00  0.00     0.118 C 
BRANCH  28  29
ATOM     29  O   UNL     1     134.528 134.859 143.577  1.00  0.00    -0.393 OA
ATOM     30  H   UNL     1     134.177 135.535 142.940  1.00  0.00     0.210 HD
ENDBRANCH  28  29
ENDBRANCH   1  10
TORSDOF 5
ENDMDL
MODEL 8
REMARK VINA RESULT:    -7.247      3.255      5.569
REMARK INTER + INTRA:          -9.297
REMARK INTER:                  -8.284
REMARK INTRA:                  -1.013
REMARK UNBOUND:                -0.143
REMARK SMILES CC(C)[C@@H](C)C=C[C@H](C)[C@@H]1CC[C@@H]2C3=CC=C4C[C@H](O)CC[C@@]4(C)[C@H]3CC[C@@]21C
REMARK SMILES IDX 8 1 9 2 7 3 6 4 4 5 5 6 2 7 1 8 3 9 10 10 11 11 28 12 12 13
REMARK SMILES IDX 13 14 27 15 29 16 14 17 26 18 25 19 15 20 23 21 16 22 17 23
REMARK SMILES IDX 22 24 24 25 18 26 21 27 19 28 20 29
REMARK H PARENT 20 30
REMARK Flexibility Score: inf
ROOT
ATOM      1  C   UNL     1     134.924 126.000 138.168  1.00  0.00     0.012 C 
ATOM      2  C   UNL     1     134.944 124.526 137.735  1.00  0.00     0.012 C 
ENDROOT
BRANCH   1   3
ATOM      3  C   UNL     1     134.455 126.859 137.009  1.00  0.00    -0.028 C 
ATOM      4  C   UNL     1     135.301 127.372 136.098  1.00  0.00    -0.028 C 
BRANCH   4   5
ATOM      5  C   UNL     1     134.796 128.211 134.941  1.00  0.00     0.011 C 
ATOM      6  C   UNL     1     135.363 127.682 133.615  1.00  0.00     0.012 C 
BRANCH   5   7
ATOM      7  C   UNL     1     135.069 129.734 135.123  1.00  0.00    -0.011 C 
ATOM      8  C   UNL     1     134.057 130.373 136.088  1.00  0.00     0.008 C 
ATOM      9  C   UNL     1     136.507 130.065 135.560  1.00  0.00     0.008 C 
ENDBRANCH   5   7
ENDBRANCH   4   5
ENDBRANCH   1   3
BRANCH   1  10
ATOM     10  C   UNL     1     134.053 126.262 139.444  1.00  0.00     0.002 C 
ATOM     11  C   UNL     1     132.590 126.588 139.076  1.00  0.00     0.005 C 
ATOM     12  C   UNL     1     134.486 127.410 140.407  1.00  0.00    -0.023 C 
ATOM     13  C   UNL     1     132.037 127.504 140.167  1.00  0.00     0.009 C 
ATOM     14  C   UNL     1     133.170 127.689 141.175  1.00  0.00     0.021 C 
ATOM     15  C   UNL     1     134.966 128.678 139.624  1.00  0.00     0.008 C 
ATOM     16  C   UNL     1     135.574 126.952 141.410  1.00  0.00     0.012 C 
ATOM     17  C   UNL     1     133.185 129.043 141.857  1.00  0.00    -0.063 C 
ATOM     18  C   UNL     1     134.966 129.978 140.456  1.00  0.00     0.009 C 
ATOM     19  C   UNL     1     133.560 130.257 141.026  1.00  0.00     0.025 C 
ATOM     20  C   UNL     1     133.247 129.093 143.197  1.00  0.00    -0.000 C 
ATOM     21  C   UNL     1     133.359 131.620 141.811  1.00  0.00    -0.005 C 
ATOM     22  C   UNL     1     133.612 130.320 143.913  1.00  0.00    -0.000 C 
ATOM     23  C   UNL     1     133.765 131.491 143.279  1.00  0.00    -0.061 C 
ATOM     24  C   UNL     1     134.156 132.787 141.149  1.00  0.00     0.014 C 
ATOM     25  C   UNL     1     131.844 131.957 141.775  1.00  0.00     0.017 C 
ATOM     26  C   UNL     1     133.981 132.737 144.114  1.00  0.00     0.063 C 
ATOM     27  C   UNL     1     134.151 134.076 141.980  1.00  0.00     0.033 C 
ATOM     28  C   UNL     1     134.767 133.814 143.360  1.00  0.00     0.118 C 
BRANCH  28  29
ATOM     29  O   UNL     1     134.765 134.997 144.116  1.00  0.00    -0.393 OA
ATOM     30  H   UNL     1     135.221 135.688 143.570  1.00  0.00     0.210 HD
ENDBRANCH  28  29
ENDBRANCH   1  10
TORSDOF 5
ENDMDL
MODEL 9
REMARK VINA RESULT:    -7.112      2.593      4.409
REMARK INTER + INTRA:          -9.126
REMARK INTER:                  -9.064
REMARK INTRA:                  -0.062
REMARK UNBOUND:                -0.143
REMARK SMILES CC(C)[C@@H](C)C=C[C@H](C)[C@@H]1CC[C@@H]2C3=CC=C4C[C@H](O)CC[C@@]4(C)[C@H]3CC[C@@]21C
REMARK SMILES IDX 8 1 9 2 7 3 6 4 4 5 5 6 2 7 1 8 3 9 10 10 11 11 28 12 12 13
REMARK SMILES IDX 13 14 27 15 29 16 14 17 26 18 25 19 15 20 23 21 16 22 17 23
REMARK SMILES IDX 22 24 24 25 18 26 21 27 19 28 20 29
REMARK H PARENT 20 30
REMARK Flexibility Score: inf
ROOT
ATOM      1  C   UNL     1     134.627 128.235 134.693  1.00  0.00     0.012 C 
ATOM      2  C   UNL     1     135.732 128.139 133.630  1.00  0.00     0.012 C 
ENDROOT
BRANCH   1   3
ATOM      3  C   UNL     1     134.975 127.337 135.865  1.00  0.00    -0.028 C 
ATOM      4  C   UNL     1     135.805 126.286 135.750  1.00  0.00    -0.028 C 
BRANCH   4   5
ATOM      5  C   UNL     1     136.146 125.420 136.947  1.00  0.00     0.011 C 
ATOM      6  C   UNL     1     136.655 124.047 136.480  1.00  0.00     0.012 C 
BRANCH   5   7
ATOM      7  C   UNL     1     134.973 125.289 137.964  1.00  0.00    -0.011 C 
ATOM      8  C   UNL     1     134.495 123.833 138.082  1.00  0.00     0.008 C 
ATOM      9  C   UNL     1     135.284 125.865 139.357  1.00  0.00     0.008 C 
ENDBRANCH   5   7
ENDBRANCH   4   5
ENDBRANCH   1   3
BRANCH   1  10
ATOM     10  C   UNL     1     134.355 129.701 135.177  1.00  0.00     0.002 C 
ATOM     11  C   UNL     1     135.647 130.544 135.193  1.00  0.00     0.005 C 
ATOM     12  C   UNL     1     133.730 129.905 136.592  1.00  0.00    -0.023 C 
ATOM     13  C   UNL     1     135.495 131.595 136.290  1.00  0.00     0.009 C 
ATOM     14  C   UNL     1     134.108 131.376 136.893  1.00  0.00     0.021 C 
ATOM     15  C   UNL     1     134.351 128.930 137.649  1.00  0.00     0.008 C 
ATOM     16  C   UNL     1     132.187 129.768 136.575  1.00  0.00     0.012 C 
ATOM     17  C   UNL     1     134.013 131.698 138.372  1.00  0.00    -0.063 C 
ATOM     18  C   UNL     1     134.142 129.364 139.115  1.00  0.00     0.009 C 
ATOM     19  C   UNL     1     134.719 130.776 139.350  1.00  0.00     0.025 C 
ATOM     20  C   UNL     1     133.035 132.515 138.795  1.00  0.00    -0.000 C 
ATOM     21  C   UNL     1     134.690 131.327 140.837  1.00  0.00    -0.005 C 
ATOM     22  C   UNL     1     132.653 132.603 140.209  1.00  0.00    -0.000 C 
ATOM     23  C   UNL     1     133.350 131.982 141.170  1.00  0.00    -0.061 C 
ATOM     24  C   UNL     1     134.993 130.200 141.873  1.00  0.00     0.014 C 
ATOM     25  C   UNL     1     135.783 132.423 140.947  1.00  0.00     0.017 C 
ATOM     26  C   UNL     1     132.984 132.259 142.615  1.00  0.00     0.063 C 
ATOM     27  C   UNL     1     134.784 130.638 143.327  1.00  0.00     0.033 C 
ATOM     28  C   UNL     1     133.332 131.088 143.538  1.00  0.00     0.118 C 
BRANCH  28  29
ATOM     29  O   UNL     1     133.144 131.484 144.871  1.00  0.00    -0.393 OA
ATOM     30  H   UNL     1     133.722 132.277 145.020  1.00  0.00     0.210 HD
ENDBRANCH  28  29
ENDBRANCH   1  10
TORSDOF 5
ENDMDL
