MODEL 1
REMARK VINA RESULT:     3.684      0.000      0.000
REMARK INTER + INTRA:           5.950
REMARK INTER:                   4.546
REMARK INTRA:                   1.404
REMARK UNBOUND:                 1.404
REMARK SMILES C=CCc1ccc(OC)c(OC)c1
REMARK SMILES IDX 7 1 10 2 13 3 4 4 5 5 6 6 8 7 9 8 11 9 12 10 3 11 2 12 1 13
REMARK H PARENT
REMARK Flexibility Score: inf
ROOT
ATOM      1  C   UNL     1      85.656  18.769 121.070  1.00  0.00     0.160 A 
ATOM      2  C   UNL     1      86.278  17.510 121.052  1.00  0.00     0.160 A 
ATOM      3  C   UNL     1      87.684  17.428 121.074  1.00  0.00     0.054 A 
ATOM      4  C   UNL     1      88.466  18.593 121.118  1.00  0.00    -0.040 A 
ATOM      5  C   UNL     1      87.837  19.844 121.125  1.00  0.00     0.008 A 
ATOM      6  C   UNL     1      86.444  19.935 121.105  1.00  0.00     0.051 A 
ENDROOT
BRANCH   1   7
ATOM      7  O   UNL     1      84.253  18.820 121.050  1.00  0.00    -0.493 OA
ATOM      8  C   UNL     1      83.421  17.902 120.345  1.00  0.00     0.278 C 
ENDBRANCH   1   7
BRANCH   2   9
ATOM      9  O   UNL     1      85.465  16.366 121.011  1.00  0.00    -0.493 OA
ATOM     10  C   UNL     1      85.069  15.701 119.816  1.00  0.00     0.278 C 
ENDBRANCH   2   9
BRANCH   4  11
ATOM     11  C   UNL     1      89.969  18.503 121.109  1.00  0.00     0.062 C 
BRANCH  11  12
ATOM     12  C   UNL     1      90.461  17.947 119.802  1.00  0.00    -0.030 C 
ATOM     13  C   UNL     1      91.701  17.472 119.663  1.00  0.00     0.004 C 
ENDBRANCH  11  12
ENDBRANCH   4  11
TORSDOF 4
ENDMDL
MODEL 2
REMARK VINA RESULT:     5.224     14.518     16.534
REMARK INTER + INTRA:           7.850
REMARK INTER:                   8.110
REMARK INTRA:                  -0.260
REMARK UNBOUND:                 1.404
REMARK SMILES C=CCc1ccc(OC)c(OC)c1
REMARK SMILES IDX 7 1 10 2 13 3 4 4 5 5 6 6 8 7 9 8 11 9 12 10 3 11 2 12 1 13
REMARK H PARENT
REMARK Flexibility Score: inf
ROOT
ATOM      1  C   UNL     1      90.833   7.967 107.825  1.00  0.00     0.160 A 
ATOM      2  C   UNL     1      89.949   9.058 107.844  1.00  0.00     0.160 A 
ATOM      3  C   UNL     1      88.851   9.049 108.728  1.00  0.00     0.054 A 
ATOM      4  C   UNL     1      88.639   7.963 109.591  1.00  0.00    -0.040 A 
ATOM      5  C   UNL     1      89.520   6.875 109.558  1.00  0.00     0.008 A 
ATOM      6  C   UNL     1      90.611   6.876 108.686  1.00  0.00     0.051 A 
ENDROOT
BRANCH   1   7
ATOM      7  O   UNL     1      91.918   8.004 106.935  1.00  0.00    -0.493 OA
ATOM      8  C   UNL     1      93.113   7.243 107.086  1.00  0.00     0.278 C 
ENDBRANCH   1   7
BRANCH   2   9
ATOM      9  O   UNL     1      90.193  10.128 106.969  1.00  0.00    -0.493 OA
ATOM     10  C   UNL     1      89.520  10.327 105.730  1.00  0.00     0.278 C 
ENDBRANCH   2   9
BRANCH   4  11
ATOM     11  C   UNL     1      87.448   7.943 110.512  1.00  0.00     0.062 C 
BRANCH  11  12
ATOM     12  C   UNL     1      87.737   7.124 111.738  1.00  0.00    -0.030 C 
ATOM     13  C   UNL     1      86.963   7.189 112.825  1.00  0.00     0.004 C 
ENDBRANCH  11  12
ENDBRANCH   4  11
TORSDOF 4
ENDMDL
MODEL 3
REMARK VINA RESULT:     5.718      1.221      2.705
REMARK INTER + INTRA:           8.459
REMARK INTER:                   8.692
REMARK INTRA:                  -0.233
REMARK UNBOUND:                 1.404
REMARK SMILES C=CCc1ccc(OC)c(OC)c1
REMARK SMILES IDX 7 1 10 2 13 3 4 4 5 5 6 6 8 7 9 8 11 9 12 10 3 11 2 12 1 13
REMARK H PARENT
REMARK Flexibility Score: inf
ROOT
ATOM      1  C   UNL     1      86.318  18.407 121.112  1.00  0.00     0.160 A 
ATOM      2  C   UNL     1      87.039  19.612 121.106  1.00  0.00     0.160 A 
ATOM      3  C   UNL     1      88.448  19.581 121.100  1.00  0.00     0.054 A 
ATOM      4  C   UNL     1      89.135  18.357 121.096  1.00  0.00    -0.040 A 
ATOM      5  C   UNL     1      88.407  17.160 121.115  1.00  0.00     0.008 A 
ATOM      6  C   UNL     1      87.011  17.182 121.119  1.00  0.00     0.051 A 
ENDROOT
BRANCH   1   7
ATOM      7  O   UNL     1      84.916  18.469 121.116  1.00  0.00    -0.493 OA
ATOM      8  C   UNL     1      84.057  17.342 120.963  1.00  0.00     0.278 C 
ENDBRANCH   1   7
BRANCH   2   9
ATOM      9  O   UNL     1      86.320  20.818 121.107  1.00  0.00    -0.493 OA
ATOM     10  C   UNL     1      86.843  22.069 120.673  1.00  0.00     0.278 C 
ENDBRANCH   2   9
BRANCH   4  11
ATOM     11  C   UNL     1      90.640  18.327 121.123  1.00  0.00     0.062 C 
BRANCH  11  12
ATOM     12  C   UNL     1      91.178  17.582 119.934  1.00  0.00    -0.030 C 
ATOM     13  C   UNL     1      92.484  17.552 119.655  1.00  0.00     0.004 C 
ENDBRANCH  11  12
ENDBRANCH   4  11
TORSDOF 4
ENDMDL
MODEL 4
REMARK VINA RESULT:     6.627      7.427      9.320
REMARK INTER + INTRA:           9.580
REMARK INTER:                   9.718
REMARK INTRA:                  -0.137
REMARK UNBOUND:                 1.404
REMARK SMILES C=CCc1ccc(OC)c(OC)c1
REMARK SMILES IDX 7 1 10 2 13 3 4 4 5 5 6 6 8 7 9 8 11 9 12 10 3 11 2 12 1 13
REMARK H PARENT
REMARK Flexibility Score: inf
ROOT
ATOM      1  C   UNL     1      93.379  10.131 120.869  1.00  0.00     0.160 A 
ATOM      2  C   UNL     1      92.243  10.948 120.750  1.00  0.00     0.160 A 
ATOM      3  C   UNL     1      92.382  12.348 120.816  1.00  0.00     0.054 A 
ATOM      4  C   UNL     1      93.645  12.932 120.995  1.00  0.00    -0.040 A 
ATOM      5  C   UNL     1      94.772  12.110 121.125  1.00  0.00     0.008 A 
ATOM      6  C   UNL     1      94.643  10.721 121.059  1.00  0.00     0.051 A 
ENDROOT
BRANCH   1   7
ATOM      7  O   UNL     1      93.211   8.739 120.798  1.00  0.00    -0.493 OA
ATOM      8  C   UNL     1      92.969   8.016 119.595  1.00  0.00     0.278 C 
ENDBRANCH   1   7
BRANCH   2   9
ATOM      9  O   UNL     1      90.996  10.330 120.568  1.00  0.00    -0.493 OA
ATOM     10  C   UNL     1      90.059  10.686 119.556  1.00  0.00     0.278 C 
ENDBRANCH   2   9
BRANCH   4  11
ATOM     11  C   UNL     1      93.786  14.428 121.097  1.00  0.00     0.062 C 
BRANCH  11  12
ATOM     12  C   UNL     1      94.274  15.006 119.799  1.00  0.00    -0.030 C 
ATOM     13  C   UNL     1      93.796  16.157 119.318  1.00  0.00     0.004 C 
ENDBRANCH  11  12
ENDBRANCH   4  11
TORSDOF 4
ENDMDL
MODEL 5
REMARK VINA RESULT:     6.629      4.262      6.757
REMARK INTER + INTRA:           9.583
REMARK INTER:                   3.001
REMARK INTRA:                   6.582
REMARK UNBOUND:                 1.404
REMARK SMILES C=CCc1ccc(OC)c(OC)c1
REMARK SMILES IDX 7 1 10 2 13 3 4 4 5 5 6 6 8 7 9 8 11 9 12 10 3 11 2 12 1 13
REMARK H PARENT
REMARK Flexibility Score: inf
ROOT
ATOM      1  C   UNL     1      92.233  16.854 119.137  1.00  0.00     0.160 A 
ATOM      2  C   UNL     1      92.436  17.242 120.471  1.00  0.00     0.160 A 
ATOM      3  C   UNL     1      93.650  16.925 121.112  1.00  0.00     0.054 A 
ATOM      4  C   UNL     1      94.658  16.230 120.427  1.00  0.00    -0.040 A 
ATOM      5  C   UNL     1      94.443  15.837 119.099  1.00  0.00     0.008 A 
ATOM      6  C   UNL     1      93.244  16.148 118.456  1.00  0.00     0.051 A 
ENDROOT
BRANCH   1   7
ATOM      7  O   UNL     1      91.015  17.185 118.523  1.00  0.00    -0.493 OA
ATOM      8  C   UNL     1      89.967  17.917 119.152  1.00  0.00     0.278 C 
ENDBRANCH   1   7
BRANCH   2   9
ATOM      9  O   UNL     1      91.407  17.938 121.125  1.00  0.00    -0.493 OA
ATOM     10  C   UNL     1      90.111  18.163 120.579  1.00  0.00     0.278 C 
ENDBRANCH   2   9
BRANCH   4  11
ATOM     11  C   UNL     1      95.942  15.865 121.125  1.00  0.00     0.062 C 
BRANCH  11  12
ATOM     12  C   UNL     1      96.919  17.006 121.073  1.00  0.00    -0.030 C 
ATOM     13  C   UNL     1      97.776  17.151 120.060  1.00  0.00     0.004 C 
ENDBRANCH  11  12
ENDBRANCH   4  11
TORSDOF 4
ENDMDL
