MODEL 1
REMARK VINA RESULT:    -5.355      0.000      0.000
REMARK INTER + INTRA:          -5.511
REMARK INTER:                  -5.511
REMARK INTRA:                   0.000
REMARK UNBOUND:                 0.000
REMARK SMILES C=C1[C@@H](O)C[C@@]23C[C@@H]1C(C)(C)[C@H]2CC[C@@H]3C
REMARK SMILES IDX 16 1 15 2 14 3 13 4 12 5 6 6 7 7 8 8 9 9 10 10 11 11 2 12
REMARK SMILES IDX 1 13 3 14 5 15 4 16
REMARK H PARENT 4 17
REMARK Flexibility Score: inf
ROOT
ATOM      1  C   UNL     1      13.443  -9.484  25.249  1.00  0.00     0.008 C 
ATOM      2  C   UNL     1      12.375 -10.588  25.336  1.00  0.00    -0.008 C 
ATOM      3  C   UNL     1      11.368 -10.537  24.142  1.00  0.00     0.004 C 
ATOM      4  C   UNL     1      11.637 -11.772  23.245  1.00  0.00     0.005 C 
ATOM      5  C   UNL     1      12.978 -12.246  23.762  1.00  0.00     0.002 C 
ATOM      6  C   UNL     1      12.936 -12.029  25.267  1.00  0.00    -0.020 C 
ATOM      7  C   UNL     1      14.375 -12.404  25.605  1.00  0.00     0.016 C 
ATOM      8  C   UNL     1      14.465 -13.778  24.886  1.00  0.00     0.023 C 
ATOM      9  C   UNL     1      13.674 -13.602  23.526  1.00  0.00    -0.025 C 
ATOM     10  C   UNL     1      14.686 -13.508  22.359  1.00  0.00     0.012 C 
ATOM     11  C   UNL     1      12.661 -14.722  23.173  1.00  0.00     0.012 C 
ATOM     12  C   UNL     1      13.797 -14.786  25.793  1.00  0.00    -0.045 C 
ATOM     13  C   UNL     1      14.303 -16.021  25.936  1.00  0.00     0.011 C 
ATOM     14  C   UNL     1      12.501 -14.403  26.481  1.00  0.00     0.140 C 
ATOM     15  C   UNL     1      11.958 -12.992  26.070  1.00  0.00     0.044 C 
ENDROOT
BRANCH  14  16
ATOM     16  O   UNL     1      12.649 -14.494  27.877  1.00  0.00    -0.389 OA
ATOM     17  H   UNL     1      12.379 -13.622  28.265  1.00  0.00     0.211 HD
ENDBRANCH  14  16
TORSDOF 1
ENDMDL
MODEL 2
REMARK VINA RESULT:    -5.315     11.166     13.643
REMARK INTER + INTRA:          -5.471
REMARK INTER:                  -5.471
REMARK INTRA:                   0.000
REMARK UNBOUND:                 0.000
REMARK SMILES C=C1[C@@H](O)C[C@@]23C[C@@H]1C(C)(C)[C@H]2CC[C@@H]3C
REMARK SMILES IDX 16 1 15 2 14 3 13 4 12 5 6 6 7 7 8 8 9 9 10 10 11 11 2 12
REMARK SMILES IDX 1 13 3 14 5 15 4 16
REMARK H PARENT 4 17
REMARK Flexibility Score: inf
ROOT
ATOM      1  C   UNL     1      17.003  -0.844  26.837  1.00  0.00     0.008 C 
ATOM      2  C   UNL     1      16.033  -1.201  25.696  1.00  0.00    -0.008 C 
ATOM      3  C   UNL     1      15.490  -2.663  25.814  1.00  0.00     0.004 C 
ATOM      4  C   UNL     1      13.989  -2.579  26.189  1.00  0.00     0.005 C 
ATOM      5  C   UNL     1      13.853  -1.131  26.609  1.00  0.00     0.002 C 
ATOM      6  C   UNL     1      14.744  -0.344  25.660  1.00  0.00    -0.020 C 
ATOM      7  C   UNL     1      14.615   1.035  26.297  1.00  0.00     0.016 C 
ATOM      8  C   UNL     1      13.069   1.139  26.389  1.00  0.00     0.023 C 
ATOM      9  C   UNL     1      12.566  -0.304  26.801  1.00  0.00    -0.025 C 
ATOM     10  C   UNL     1      12.137  -0.285  28.289  1.00  0.00     0.012 C 
ATOM     11  C   UNL     1      11.379  -0.875  25.984  1.00  0.00     0.012 C 
ATOM     12  C   UNL     1      12.578   1.528  25.013  1.00  0.00    -0.045 C 
ATOM     13  C   UNL     1      11.569   2.400  24.865  1.00  0.00     0.011 C 
ATOM     14  C   UNL     1      13.196   0.857  23.801  1.00  0.00     0.140 C 
ATOM     15  C   UNL     1      14.236  -0.260  24.156  1.00  0.00     0.044 C 
ENDROOT
BRANCH  14  16
ATOM     16  O   UNL     1      13.770   1.822  22.954  1.00  0.00    -0.389 OA
ATOM     17  H   UNL     1      14.354   1.346  22.308  1.00  0.00     0.211 HD
ENDBRANCH  14  16
TORSDOF 1
ENDMDL
MODEL 3
REMARK VINA RESULT:    -4.900      2.375      3.919
REMARK INTER + INTRA:          -5.044
REMARK INTER:                  -5.044
REMARK INTRA:                   0.000
REMARK UNBOUND:                 0.000
REMARK SMILES C=C1[C@@H](O)C[C@@]23C[C@@H]1C(C)(C)[C@H]2CC[C@@H]3C
REMARK SMILES IDX 16 1 15 2 14 3 13 4 12 5 6 6 7 7 8 8 9 9 10 10 11 11 2 12
REMARK SMILES IDX 1 13 3 14 5 15 4 16
REMARK H PARENT 4 17
REMARK Flexibility Score: inf
ROOT
ATOM      1  C   UNL     1      11.876 -13.347  23.440  1.00  0.00     0.008 C 
ATOM      2  C   UNL     1      12.657 -12.976  24.713  1.00  0.00    -0.008 C 
ATOM      3  C   UNL     1      12.140 -13.743  25.973  1.00  0.00     0.004 C 
ATOM      4  C   UNL     1      13.231 -14.764  26.385  1.00  0.00     0.005 C 
ATOM      5  C   UNL     1      14.123 -14.776  25.162  1.00  0.00     0.002 C 
ATOM      6  C   UNL     1      14.162 -13.337  24.669  1.00  0.00    -0.020 C 
ATOM      7  C   UNL     1      14.955 -13.545  23.383  1.00  0.00     0.016 C 
ATOM      8  C   UNL     1      16.161 -14.347  23.944  1.00  0.00     0.023 C 
ATOM      9  C   UNL     1      15.554 -15.334  25.023  1.00  0.00    -0.025 C 
ATOM     10  C   UNL     1      15.534 -16.770  24.442  1.00  0.00     0.012 C 
ATOM     11  C   UNL     1      16.290 -15.395  26.386  1.00  0.00     0.012 C 
ATOM     12  C   UNL     1      17.096 -13.341  24.573  1.00  0.00    -0.045 C 
ATOM     13  C   UNL     1      18.426 -13.470  24.451  1.00  0.00     0.011 C 
ATOM     14  C   UNL     1      16.507 -12.222  25.412  1.00  0.00     0.140 C 
ATOM     15  C   UNL     1      14.954 -12.318  25.597  1.00  0.00     0.044 C 
ENDROOT
BRANCH  14  16
ATOM     16  O   UNL     1      16.871 -10.973  24.876  1.00  0.00    -0.389 OA
ATOM     17  H   UNL     1      17.773 -11.071  24.473  1.00  0.00     0.211 HD
ENDBRANCH  14  16
TORSDOF 1
ENDMDL
MODEL 4
REMARK VINA RESULT:    -4.900     10.655     12.538
REMARK INTER + INTRA:          -5.043
REMARK INTER:                  -5.043
REMARK INTRA:                   0.000
REMARK UNBOUND:                 0.000
REMARK SMILES C=C1[C@@H](O)C[C@@]23C[C@@H]1C(C)(C)[C@H]2CC[C@@H]3C
REMARK SMILES IDX 16 1 15 2 14 3 13 4 12 5 6 6 7 7 8 8 9 9 10 10 11 11 2 12
REMARK SMILES IDX 1 13 3 14 5 15 4 16
REMARK H PARENT 4 17
REMARK Flexibility Score: inf
ROOT
ATOM      1  C   UNL     1       1.996  -5.523  26.126  1.00  0.00     0.008 C 
ATOM      2  C   UNL     1       3.033  -6.337  25.332  1.00  0.00    -0.008 C 
ATOM      3  C   UNL     1       2.390  -7.553  24.588  1.00  0.00     0.004 C 
ATOM      4  C   UNL     1       2.428  -7.249  23.069  1.00  0.00     0.005 C 
ATOM      5  C   UNL     1       2.747  -5.770  23.055  1.00  0.00     0.002 C 
ATOM      6  C   UNL     1       3.730  -5.552  24.195  1.00  0.00    -0.020 C 
ATOM      7  C   UNL     1       3.829  -4.031  24.141  1.00  0.00     0.016 C 
ATOM      8  C   UNL     1       4.132  -3.841  22.630  1.00  0.00     0.023 C 
ATOM      9  C   UNL     1       3.233  -4.903  21.875  1.00  0.00    -0.025 C 
ATOM     10  C   UNL     1       2.046  -4.174  21.199  1.00  0.00     0.012 C 
ATOM     11  C   UNL     1       3.941  -5.748  20.785  1.00  0.00     0.012 C 
ATOM     12  C   UNL     1       5.605  -4.124  22.444  1.00  0.00    -0.045 C 
ATOM     13  C   UNL     1       6.344  -3.388  21.601  1.00  0.00     0.011 C 
ATOM     14  C   UNL     1       6.217  -5.307  23.170  1.00  0.00     0.140 C 
ATOM     15  C   UNL     1       5.180  -6.164  23.974  1.00  0.00     0.044 C 
ENDROOT
BRANCH  14  16
ATOM     16  O   UNL     1       7.262  -4.872  24.007  1.00  0.00    -0.389 OA
ATOM     17  H   UNL     1       6.891  -4.179  24.613  1.00  0.00     0.211 HD
ENDBRANCH  14  16
TORSDOF 1
ENDMDL
MODEL 5
REMARK VINA RESULT:    -4.899     10.467     12.541
REMARK INTER + INTRA:          -5.042
REMARK INTER:                  -5.042
REMARK INTRA:                   0.000
REMARK UNBOUND:                 0.000
REMARK SMILES C=C1[C@@H](O)C[C@@]23C[C@@H]1C(C)(C)[C@H]2CC[C@@H]3C
REMARK SMILES IDX 16 1 15 2 14 3 13 4 12 5 6 6 7 7 8 8 9 9 10 10 11 11 2 12
REMARK SMILES IDX 1 13 3 14 5 15 4 16
REMARK H PARENT 4 17
REMARK Flexibility Score: inf
ROOT
ATOM      1  C   UNL     1      17.395  -1.065  24.021  1.00  0.00     0.008 C 
ATOM      2  C   UNL     1      16.659  -1.991  25.006  1.00  0.00    -0.008 C 
ATOM      3  C   UNL     1      17.366  -2.061  26.399  1.00  0.00     0.004 C 
ATOM      4  C   UNL     1      16.462  -1.330  27.424  1.00  0.00     0.005 C 
ATOM      5  C   UNL     1      15.498  -0.593  26.519  1.00  0.00     0.002 C 
ATOM      6  C   UNL     1      15.221  -1.538  25.359  1.00  0.00    -0.020 C 
ATOM      7  C   UNL     1      14.378  -0.611  24.489  1.00  0.00     0.016 C 
ATOM      8  C   UNL     1      13.341  -0.134  25.541  1.00  0.00     0.023 C 
ATOM      9  C   UNL     1      14.154   0.071  26.883  1.00  0.00    -0.025 C 
ATOM     10  C   UNL     1      14.338   1.587  27.139  1.00  0.00     0.012 C 
ATOM     11  C   UNL     1      13.531  -0.543  28.163  1.00  0.00     0.012 C 
ATOM     12  C   UNL     1      12.318  -1.239  25.673  1.00  0.00    -0.045 C 
ATOM     13  C   UNL     1      11.014  -0.954  25.816  1.00  0.00     0.011 C 
ATOM     14  C   UNL     1      12.799  -2.677  25.719  1.00  0.00     0.140 C 
ATOM     15  C   UNL     1      14.359  -2.824  25.716  1.00  0.00     0.044 C 
ENDROOT
BRANCH  14  16
ATOM     16  O   UNL     1      12.226  -3.412  24.665  1.00  0.00    -0.389 OA
ATOM     17  H   UNL     1      11.518  -2.849  24.257  1.00  0.00     0.211 HD
ENDBRANCH  14  16
TORSDOF 1
ENDMDL
MODEL 6
REMARK VINA RESULT:    -4.881      1.999      4.267
REMARK INTER + INTRA:          -5.023
REMARK INTER:                  -5.023
REMARK INTRA:                   0.000
REMARK UNBOUND:                 0.000
REMARK SMILES C=C1[C@@H](O)C[C@@]23C[C@@H]1C(C)(C)[C@H]2CC[C@@H]3C
REMARK SMILES IDX 16 1 15 2 14 3 13 4 12 5 6 6 7 7 8 8 9 9 10 10 11 11 2 12
REMARK SMILES IDX 1 13 3 14 5 15 4 16
REMARK H PARENT 4 17
REMARK Flexibility Score: inf
ROOT
ATOM      1  C   UNL     1      16.062 -13.994  21.259  1.00  0.00     0.008 C 
ATOM      2  C   UNL     1      14.822 -14.734  21.792  1.00  0.00    -0.008 C 
ATOM      3  C   UNL     1      15.121 -16.233  22.120  1.00  0.00     0.004 C 
ATOM      4  C   UNL     1      15.076 -16.397  23.661  1.00  0.00     0.005 C 
ATOM      5  C   UNL     1      15.114 -14.958  24.128  1.00  0.00     0.002 C 
ATOM      6  C   UNL     1      14.271 -14.180  23.129  1.00  0.00    -0.020 C 
ATOM      7  C   UNL     1      14.530 -12.768  23.642  1.00  0.00     0.016 C 
ATOM      8  C   UNL     1      14.202 -12.970  25.146  1.00  0.00     0.023 C 
ATOM      9  C   UNL     1      14.785 -14.392  25.525  1.00  0.00    -0.025 C 
ATOM     10  C   UNL     1      16.073 -14.206  26.364  1.00  0.00     0.012 C 
ATOM     11  C   UNL     1      13.842 -15.328  26.324  1.00  0.00     0.012 C 
ATOM     12  C   UNL     1      12.696 -12.934  25.270  1.00  0.00    -0.045 C 
ATOM     13  C   UNL     1      12.107 -12.328  26.312  1.00  0.00     0.011 C 
ATOM     14  C   UNL     1      11.861 -13.663  24.234  1.00  0.00     0.140 C 
ATOM     15  C   UNL     1      12.708 -14.464  23.186  1.00  0.00     0.044 C 
ENDROOT
BRANCH  14  16
ATOM     16  O   UNL     1      10.993 -12.761  23.591  1.00  0.00    -0.389 OA
ATOM     17  H   UNL     1      10.573 -13.240  22.830  1.00  0.00     0.211 HD
ENDBRANCH  14  16
TORSDOF 1
ENDMDL
MODEL 7
REMARK VINA RESULT:    -4.825      1.903      3.031
REMARK INTER + INTRA:          -4.966
REMARK INTER:                  -4.966
REMARK INTRA:                   0.000
REMARK UNBOUND:                 0.000
REMARK SMILES C=C1[C@@H](O)C[C@@]23C[C@@H]1C(C)(C)[C@H]2CC[C@@H]3C
REMARK SMILES IDX 16 1 15 2 14 3 13 4 12 5 6 6 7 7 8 8 9 9 10 10 11 11 2 12
REMARK SMILES IDX 1 13 3 14 5 15 4 16
REMARK H PARENT 4 17
REMARK Flexibility Score: inf
ROOT
ATOM      1  C   UNL     1      16.470 -11.486  22.809  1.00  0.00     0.008 C 
ATOM      2  C   UNL     1      16.181 -11.653  24.312  1.00  0.00    -0.008 C 
ATOM      3  C   UNL     1      15.182 -10.577  24.848  1.00  0.00     0.004 C 
ATOM      4  C   UNL     1      13.847 -11.295  25.176  1.00  0.00     0.005 C 
ATOM      5  C   UNL     1      14.036 -12.631  24.489  1.00  0.00     0.002 C 
ATOM      6  C   UNL     1      15.500 -12.991  24.689  1.00  0.00    -0.020 C 
ATOM      7  C   UNL     1      15.557 -14.251  23.832  1.00  0.00     0.016 C 
ATOM      8  C   UNL     1      14.342 -15.022  24.417  1.00  0.00     0.023 C 
ATOM      9  C   UNL     1      13.227 -13.930  24.678  1.00  0.00    -0.025 C 
ATOM     10  C   UNL     1      12.127 -14.059  23.596  1.00  0.00     0.012 C 
ATOM     11  C   UNL     1      12.526 -13.984  26.060  1.00  0.00     0.012 C 
ATOM     12  C   UNL     1      14.812 -15.658  25.706  1.00  0.00    -0.045 C 
ATOM     13  C   UNL     1      14.411 -16.892  26.049  1.00  0.00     0.011 C 
ATOM     14  C   UNL     1      15.685 -14.846  26.644  1.00  0.00     0.140 C 
ATOM     15  C   UNL     1      15.915 -13.368  26.176  1.00  0.00     0.044 C 
ENDROOT
BRANCH  14  16
ATOM     16  O   UNL     1      16.913 -15.501  26.850  1.00  0.00    -0.389 OA
ATOM     17  H   UNL     1      17.625 -14.936  26.452  1.00  0.00     0.211 HD
ENDBRANCH  14  16
TORSDOF 1
ENDMDL
MODEL 8
REMARK VINA RESULT:    -4.808     10.727     13.291
REMARK INTER + INTRA:          -4.948
REMARK INTER:                  -4.948
REMARK INTRA:                   0.000
REMARK UNBOUND:                 0.000
REMARK SMILES C=C1[C@@H](O)C[C@@]23C[C@@H]1C(C)(C)[C@H]2CC[C@@H]3C
REMARK SMILES IDX 16 1 15 2 14 3 13 4 12 5 6 6 7 7 8 8 9 9 10 10 11 11 2 12
REMARK SMILES IDX 1 13 3 14 5 15 4 16
REMARK H PARENT 4 17
REMARK Flexibility Score: inf
ROOT
ATOM      1  C   UNL     1      13.607   1.252  23.358  1.00  0.00     0.008 C 
ATOM      2  C   UNL     1      13.104   1.441  24.800  1.00  0.00    -0.008 C 
ATOM      3  C   UNL     1      11.628   0.958  24.984  1.00  0.00     0.004 C 
ATOM      4  C   UNL     1      11.656  -0.324  25.854  1.00  0.00     0.005 C 
ATOM      5  C   UNL     1      13.124  -0.695  25.815  1.00  0.00     0.002 C 
ATOM      6  C   UNL     1      13.880   0.624  25.862  1.00  0.00    -0.020 C 
ATOM      7  C   UNL     1      15.297   0.096  25.667  1.00  0.00     0.016 C 
ATOM      8  C   UNL     1      15.321  -1.006  26.761  1.00  0.00     0.023 C 
ATOM      9  C   UNL     1      13.889  -1.681  26.720  1.00  0.00    -0.025 C 
ATOM     10  C   UNL     1      14.004  -3.072  26.050  1.00  0.00     0.012 C 
ATOM     11  C   UNL     1      13.187  -1.881  28.088  1.00  0.00     0.012 C 
ATOM     12  C   UNL     1      15.568  -0.304  28.077  1.00  0.00    -0.045 C 
ATOM     13  C   UNL     1      16.366  -0.851  29.007  1.00  0.00     0.011 C 
ATOM     14  C   UNL     1      14.837   0.995  28.361  1.00  0.00     0.140 C 
ATOM     15  C   UNL     1      13.813   1.402  27.246  1.00  0.00     0.044 C 
ENDROOT
BRANCH  14  16
ATOM     16  O   UNL     1      15.762   2.029  28.592  1.00  0.00    -0.389 OA
ATOM     17  H   UNL     1      15.909   2.499  27.730  1.00  0.00     0.211 HD
ENDBRANCH  14  16
TORSDOF 1
ENDMDL
MODEL 9
REMARK VINA RESULT:    -4.792      1.736      2.779
REMARK INTER + INTRA:          -4.932
REMARK INTER:                  -4.932
REMARK INTRA:                   0.000
REMARK UNBOUND:                 0.000
REMARK SMILES C=C1[C@@H](O)C[C@@]23C[C@@H]1C(C)(C)[C@H]2CC[C@@H]3C
REMARK SMILES IDX 16 1 15 2 14 3 13 4 12 5 6 6 7 7 8 8 9 9 10 10 11 11 2 12
REMARK SMILES IDX 1 13 3 14 5 15 4 16
REMARK H PARENT 4 17
REMARK Flexibility Score: inf
ROOT
ATOM      1  C   UNL     1      11.729 -10.774  27.534  1.00  0.00     0.008 C 
ATOM      2  C   UNL     1      11.909 -10.744  26.006  1.00  0.00    -0.008 C 
ATOM      3  C   UNL     1      12.755  -9.518  25.531  1.00  0.00     0.004 C 
ATOM      4  C   UNL     1      14.120 -10.053  25.028  1.00  0.00     0.005 C 
ATOM      5  C   UNL     1      14.116 -11.469  25.564  1.00  0.00     0.002 C 
ATOM      6  C   UNL     1      12.681 -11.955  25.427  1.00  0.00    -0.020 C 
ATOM      7  C   UNL     1      12.814 -13.301  26.131  1.00  0.00     0.016 C 
ATOM      8  C   UNL     1      14.044 -13.873  25.375  1.00  0.00     0.023 C 
ATOM      9  C   UNL     1      15.026 -12.649  25.167  1.00  0.00    -0.025 C 
ATOM     10  C   UNL     1      16.217 -12.782  26.146  1.00  0.00     0.012 C 
ATOM     11  C   UNL     1      15.613 -12.477  23.743  1.00  0.00     0.012 C 
ATOM     12  C   UNL     1      13.532 -14.408  24.057  1.00  0.00    -0.045 C 
ATOM     13  C   UNL     1      14.019 -15.548  23.544  1.00  0.00     0.011 C 
ATOM     14  C   UNL     1      12.513 -13.592  23.285  1.00  0.00     0.140 C 
ATOM     15  C   UNL     1      12.183 -12.206  23.938  1.00  0.00     0.044 C 
ENDROOT
BRANCH  14  16
ATOM     16  O   UNL     1      11.340 -14.344  23.090  1.00  0.00    -0.389 OA
ATOM     17  H   UNL     1      11.610 -15.243  22.767  1.00  0.00     0.211 HD
ENDBRANCH  14  16
TORSDOF 1
ENDMDL
