MODEL 1
REMARK VINA RESULT:    -4.542      0.000      0.000
REMARK INTER + INTRA:         -12.321
REMARK INTER:                  -9.853
REMARK INTRA:                  -2.468
REMARK UNBOUND:                -2.468
REMARK SMILES CCCCCCCCCCCCCCCCCCCCCC(=O)[O-]
REMARK SMILES IDX 12 1 11 2 10 3 9 4 8 5 7 6 6 7 5 8 4 9 3 10 2 11 1 12 13 13
REMARK SMILES IDX 14 14 15 15 16 16 17 17 18 18 19 19 20 20 21 21 22 22 23 23
REMARK SMILES IDX 24 24
REMARK H PARENT
REMARK Flexibility Score: inf
ROOT
ATOM      1  C   UNL     1     193.065  -0.954 102.105  1.00  0.00     0.000 C 
ENDROOT
BRANCH   1   2
ATOM      2  C   UNL     1     193.204  -1.344 103.587  1.00  0.00     0.000 C 
BRANCH   2   3
ATOM      3  C   UNL     1     191.983  -2.132 104.115  1.00  0.00     0.000 C 
BRANCH   3   4
ATOM      4  C   UNL     1     191.970  -2.301 105.644  1.00  0.00    -0.000 C 
BRANCH   4   5
ATOM      5  C   UNL     1     192.384  -1.047 106.435  1.00  0.00    -0.000 C 
BRANCH   5   6
ATOM      6  C   UNL     1     191.257  -0.469 107.322  1.00  0.00    -0.000 C 
BRANCH   6   7
ATOM      7  C   UNL     1     191.172   1.065 107.244  1.00  0.00    -0.000 C 
BRANCH   7   8
ATOM      8  C   UNL     1     189.865   1.556 106.601  1.00  0.00    -0.000 C 
BRANCH   8   9
ATOM      9  C   UNL     1     190.101   2.341 105.302  1.00  0.00    -0.000 C 
BRANCH   9  10
ATOM     10  C   UNL     1     191.253   1.731 104.494  1.00  0.00    -0.000 C 
BRANCH  10  11
ATOM     11  C   UNL     1     192.410   2.726 104.347  1.00  0.00    -0.003 C 
ATOM     12  C   UNL     1     193.740   2.085 104.733  1.00  0.00     0.004 C 
ENDBRANCH  10  11
ENDBRANCH   9  10
ENDBRANCH   8   9
ENDBRANCH   7   8
ENDBRANCH   6   7
ENDBRANCH   5   6
ENDBRANCH   4   5
ENDBRANCH   3   4
ENDBRANCH   2   3
ENDBRANCH   1   2
BRANCH   1  13
ATOM     13  C   UNL     1     191.645  -0.495 101.739  1.00  0.00     0.000 C 
BRANCH  13  14
ATOM     14  C   UNL     1     191.642   0.736 100.815  1.00  0.00     0.000 C 
BRANCH  14  15
ATOM     15  C   UNL     1     192.844   1.661 101.061  1.00  0.00     0.000 C 
BRANCH  15  16
ATOM     16  C   UNL     1     192.973   2.762  99.995  1.00  0.00     0.000 C 
BRANCH  16  17
ATOM     17  C   UNL     1     192.154   2.415  98.747  1.00  0.00     0.000 C 
BRANCH  17  18
ATOM     18  C   UNL     1     191.621   3.687  98.067  1.00  0.00     0.000 C 
BRANCH  18  19
ATOM     19  C   UNL     1     190.110   3.881  98.275  1.00  0.00     0.000 C 
BRANCH  19  20
ATOM     20  C   UNL     1     189.534   5.015  97.408  1.00  0.00     0.006 C 
BRANCH  20  21
ATOM     21  C   UNL     1     189.291   4.569  95.960  1.00  0.00     0.053 C 
BRANCH  21  22
ATOM     22  C   UNL     1     187.868   4.159  95.736  1.00  0.00     0.041 C 
ATOM     23  O   UNL     1     187.235   4.582  94.732  1.00  0.00    -0.550 OA
ATOM     24  O   UNL     1     187.246   3.290  96.624  1.00  0.00    -0.550 OA
ENDBRANCH  21  22
ENDBRANCH  20  21
ENDBRANCH  19  20
ENDBRANCH  18  19
ENDBRANCH  17  18
ENDBRANCH  16  17
ENDBRANCH  15  16
ENDBRANCH  14  15
ENDBRANCH  13  14
ENDBRANCH   1  13
TORSDOF 20
ENDMDL
MODEL 2
REMARK VINA RESULT:    -4.503      1.134      2.739
REMARK INTER + INTRA:         -12.236
REMARK INTER:                  -9.909
REMARK INTRA:                  -2.327
REMARK UNBOUND:                -2.468
REMARK SMILES CCCCCCCCCCCCCCCCCCCCCC(=O)[O-]
REMARK SMILES IDX 12 1 11 2 10 3 9 4 8 5 7 6 6 7 5 8 4 9 3 10 2 11 1 12 13 13
REMARK SMILES IDX 14 14 15 15 16 16 17 17 18 18 19 19 20 20 21 21 22 22 23 23
REMARK SMILES IDX 24 24
REMARK H PARENT
REMARK Flexibility Score: inf
ROOT
ATOM      1  C   UNL     1     191.523   1.052 101.167  1.00  0.00     0.000 C 
ENDROOT
BRANCH   1   2
ATOM      2  C   UNL     1     191.493  -0.457 101.469  1.00  0.00     0.000 C 
BRANCH   2   3
ATOM      3  C   UNL     1     192.872  -1.131 101.282  1.00  0.00     0.000 C 
BRANCH   3   4
ATOM      4  C   UNL     1     193.443  -1.738 102.576  1.00  0.00    -0.000 C 
BRANCH   4   5
ATOM      5  C   UNL     1     192.394  -2.055 103.658  1.00  0.00    -0.000 C 
BRANCH   5   6
ATOM      6  C   UNL     1     192.402  -1.062 104.843  1.00  0.00    -0.000 C 
BRANCH   6   7
ATOM      7  C   UNL     1     193.489   0.017 104.702  1.00  0.00    -0.000 C 
BRANCH   7   8
ATOM      8  C   UNL     1     193.100   1.345 105.372  1.00  0.00    -0.000 C 
BRANCH   8   9
ATOM      9  C   UNL     1     192.078   2.147 104.552  1.00  0.00    -0.000 C 
BRANCH   9  10
ATOM     10  C   UNL     1     190.674   2.028 105.158  1.00  0.00    -0.000 C 
BRANCH  10  11
ATOM     11  C   UNL     1     190.745   1.821 106.676  1.00  0.00    -0.003 C 
ATOM     12  C   UNL     1     189.411   1.328 107.227  1.00  0.00     0.004 C 
ENDBRANCH  10  11
ENDBRANCH   9  10
ENDBRANCH   8   9
ENDBRANCH   7   8
ENDBRANCH   6   7
ENDBRANCH   5   6
ENDBRANCH   4   5
ENDBRANCH   3   4
ENDBRANCH   2   3
ENDBRANCH   1   2
BRANCH   1  13
ATOM     13  C   UNL     1     192.949   1.598 100.998  1.00  0.00     0.000 C 
BRANCH  13  14
ATOM     14  C   UNL     1     193.022   2.757  99.988  1.00  0.00     0.000 C 
BRANCH  14  15
ATOM     15  C   UNL     1     191.865   2.733  98.977  1.00  0.00     0.000 C 
BRANCH  15  16
ATOM     16  C   UNL     1     191.703   4.066  98.228  1.00  0.00     0.000 C 
BRANCH  16  17
ATOM     17  C   UNL     1     191.441   3.828  96.736  1.00  0.00     0.000 C 
BRANCH  17  18
ATOM     18  C   UNL     1     190.105   4.454  96.305  1.00  0.00     0.000 C 
BRANCH  18  19
ATOM     19  C   UNL     1     189.477   5.327  97.405  1.00  0.00     0.000 C 
BRANCH  19  20
ATOM     20  C   UNL     1     188.072   4.848  97.811  1.00  0.00     0.006 C 
BRANCH  20  21
ATOM     21  C   UNL     1     187.838   3.373  97.455  1.00  0.00     0.053 C 
BRANCH  21  22
ATOM     22  C   UNL     1     186.494   3.159  96.830  1.00  0.00     0.041 C 
ATOM     23  O   UNL     1     186.213   3.699  95.727  1.00  0.00    -0.550 OA
ATOM     24  O   UNL     1     185.559   2.342  97.454  1.00  0.00    -0.550 OA
ENDBRANCH  21  22
ENDBRANCH  20  21
ENDBRANCH  19  20
ENDBRANCH  18  19
ENDBRANCH  17  18
ENDBRANCH  16  17
ENDBRANCH  15  16
ENDBRANCH  14  15
ENDBRANCH  13  14
ENDBRANCH   1  13
TORSDOF 20
ENDMDL
MODEL 3
REMARK VINA RESULT:    -4.476      4.174      7.583
REMARK INTER + INTRA:         -12.178
REMARK INTER:                  -8.921
REMARK INTRA:                  -3.257
REMARK UNBOUND:                -2.468
REMARK SMILES CCCCCCCCCCCCCCCCCCCCCC(=O)[O-]
REMARK SMILES IDX 12 1 11 2 10 3 9 4 8 5 7 6 6 7 5 8 4 9 3 10 2 11 1 12 13 13
REMARK SMILES IDX 14 14 15 15 16 16 17 17 18 18 19 19 20 20 21 21 22 22 23 23
REMARK SMILES IDX 24 24
REMARK H PARENT
REMARK Flexibility Score: inf
ROOT
ATOM      1  C   UNL     1     193.309  -1.709 103.362  1.00  0.00     0.000 C 
ENDROOT
BRANCH   1   2
ATOM      2  C   UNL     1     194.147  -2.748 102.596  1.00  0.00     0.000 C 
BRANCH   2   3
ATOM      3  C   UNL     1     195.007  -2.116 101.477  1.00  0.00     0.000 C 
BRANCH   3   4
ATOM      4  C   UNL     1     194.778  -2.744 100.091  1.00  0.00    -0.000 C 
BRANCH   4   5
ATOM      5  C   UNL     1     194.161  -4.155 100.117  1.00  0.00    -0.000 C 
BRANCH   5   6
ATOM      6  C   UNL     1     192.793  -4.249  99.403  1.00  0.00    -0.000 C 
BRANCH   6   7
ATOM      7  C   UNL     1     191.671  -4.734 100.337  1.00  0.00    -0.000 C 
BRANCH   7   8
ATOM      8  C   UNL     1     192.184  -5.664 101.448  1.00  0.00    -0.000 C 
BRANCH   8   9
ATOM      9  C   UNL     1     191.048  -6.398 102.178  1.00  0.00    -0.000 C 
BRANCH   9  10
ATOM     10  C   UNL     1     189.692  -6.092 101.531  1.00  0.00    -0.000 C 
BRANCH  10  11
ATOM     11  C   UNL     1     188.540  -6.644 102.378  1.00  0.00    -0.003 C 
ATOM     12  C   UNL     1     188.681  -6.225 103.838  1.00  0.00     0.004 C 
ENDBRANCH  10  11
ENDBRANCH   9  10
ENDBRANCH   8   9
ENDBRANCH   7   8
ENDBRANCH   6   7
ENDBRANCH   5   6
ENDBRANCH   4   5
ENDBRANCH   3   4
ENDBRANCH   2   3
ENDBRANCH   1   2
BRANCH   1  13
ATOM     13  C   UNL     1     191.818  -1.759 102.998  1.00  0.00     0.000 C 
BRANCH  13  14
ATOM     14  C   UNL     1     191.505  -1.025 101.682  1.00  0.00     0.000 C 
BRANCH  14  15
ATOM     15  C   UNL     1     191.616   0.502 101.818  1.00  0.00     0.000 C 
BRANCH  15  16
ATOM     16  C   UNL     1     192.814   1.080 101.047  1.00  0.00     0.000 C 
BRANCH  16  17
ATOM     17  C   UNL     1     193.827   1.718 102.005  1.00  0.00     0.000 C 
BRANCH  17  18
ATOM     18  C   UNL     1     193.127   2.274 103.256  1.00  0.00     0.000 C 
BRANCH  18  19
ATOM     19  C   UNL     1     193.771   1.783 104.563  1.00  0.00     0.000 C 
BRANCH  19  20
ATOM     20  C   UNL     1     192.806   1.850 105.760  1.00  0.00     0.006 C 
BRANCH  20  21
ATOM     21  C   UNL     1     191.525   1.041 105.517  1.00  0.00     0.053 C 
BRANCH  21  22
ATOM     22  C   UNL     1     190.296   1.869 105.729  1.00  0.00     0.041 C 
ATOM     23  O   UNL     1     189.702   1.854 106.840  1.00  0.00    -0.550 OA
ATOM     24  O   UNL     1     189.817   2.678 104.705  1.00  0.00    -0.550 OA
ENDBRANCH  21  22
ENDBRANCH  20  21
ENDBRANCH  19  20
ENDBRANCH  18  19
ENDBRANCH  17  18
ENDBRANCH  16  17
ENDBRANCH  15  16
ENDBRANCH  14  15
ENDBRANCH  13  14
ENDBRANCH   1  13
TORSDOF 20
ENDMDL
MODEL 4
REMARK VINA RESULT:    -4.454      2.595      5.198
REMARK INTER + INTRA:         -12.130
REMARK INTER:                  -9.885
REMARK INTRA:                  -2.245
REMARK UNBOUND:                -2.468
REMARK SMILES CCCCCCCCCCCCCCCCCCCCCC(=O)[O-]
REMARK SMILES IDX 12 1 11 2 10 3 9 4 8 5 7 6 6 7 5 8 4 9 3 10 2 11 1 12 13 13
REMARK SMILES IDX 14 14 15 15 16 16 17 17 18 18 19 19 20 20 21 21 22 22 23 23
REMARK SMILES IDX 24 24
REMARK H PARENT
REMARK Flexibility Score: inf
ROOT
ATOM      1  C   UNL     1     192.077  -0.466 104.056  1.00  0.00     0.000 C 
ENDROOT
BRANCH   1   2
ATOM      2  C   UNL     1     193.568  -0.741 104.320  1.00  0.00     0.000 C 
BRANCH   2   3
ATOM      3  C   UNL     1     194.092  -1.977 103.552  1.00  0.00     0.000 C 
BRANCH   3   4
ATOM      4  C   UNL     1     194.908  -1.624 102.296  1.00  0.00    -0.000 C 
BRANCH   4   5
ATOM      5  C   UNL     1     194.551  -2.446 101.043  1.00  0.00    -0.000 C 
BRANCH   5   6
ATOM      6  C   UNL     1     193.074  -2.311 100.609  1.00  0.00    -0.000 C 
BRANCH   6   7
ATOM      7  C   UNL     1     192.346  -3.665 100.560  1.00  0.00    -0.000 C 
BRANCH   7   8
ATOM      8  C   UNL     1     191.393  -3.871 101.749  1.00  0.00    -0.000 C 
BRANCH   8   9
ATOM      9  C   UNL     1     191.188  -5.353 102.095  1.00  0.00    -0.000 C 
BRANCH   9  10
ATOM     10  C   UNL     1     190.417  -6.074 100.982  1.00  0.00    -0.000 C 
BRANCH  10  11
ATOM     11  C   UNL     1     189.316  -6.968 101.565  1.00  0.00    -0.003 C 
ATOM     12  C   UNL     1     188.684  -6.330 102.799  1.00  0.00     0.004 C 
ENDBRANCH  10  11
ENDBRANCH   9  10
ENDBRANCH   8   9
ENDBRANCH   7   8
ENDBRANCH   6   7
ENDBRANCH   5   6
ENDBRANCH   4   5
ENDBRANCH   3   4
ENDBRANCH   2   3
ENDBRANCH   1   2
BRANCH   1  13
ATOM     13  C   UNL     1     191.831   0.895 103.385  1.00  0.00     0.000 C 
BRANCH  13  14
ATOM     14  C   UNL     1     193.087   1.784 103.372  1.00  0.00     0.000 C 
BRANCH  14  15
ATOM     15  C   UNL     1     193.477   2.234 101.955  1.00  0.00     0.000 C 
BRANCH  15  16
ATOM     16  C   UNL     1     193.041   1.231 100.874  1.00  0.00     0.000 C 
BRANCH  16  17
ATOM     17  C   UNL     1     192.424   1.955  99.671  1.00  0.00     0.000 C 
BRANCH  17  18
ATOM     18  C   UNL     1     192.803   3.445  99.672  1.00  0.00     0.000 C 
BRANCH  18  19
ATOM     19  C   UNL     1     192.074   4.242  98.578  1.00  0.00     0.000 C 
BRANCH  19  20
ATOM     20  C   UNL     1     190.740   3.596  98.163  1.00  0.00     0.006 C 
BRANCH  20  21
ATOM     21  C   UNL     1     189.812   4.590  97.453  1.00  0.00     0.053 C 
BRANCH  21  22
ATOM     22  C   UNL     1     188.836   3.895  96.554  1.00  0.00     0.041 C 
ATOM     23  O   UNL     1     187.987   3.097  97.034  1.00  0.00    -0.550 OA
ATOM     24  O   UNL     1     188.849   4.145  95.187  1.00  0.00    -0.550 OA
ENDBRANCH  21  22
ENDBRANCH  20  21
ENDBRANCH  19  20
ENDBRANCH  18  19
ENDBRANCH  17  18
ENDBRANCH  16  17
ENDBRANCH  15  16
ENDBRANCH  14  15
ENDBRANCH  13  14
ENDBRANCH   1  13
TORSDOF 20
ENDMDL
MODEL 5
REMARK VINA RESULT:    -4.427      3.355      8.436
REMARK INTER + INTRA:         -12.071
REMARK INTER:                  -9.901
REMARK INTRA:                  -2.170
REMARK UNBOUND:                -2.468
REMARK SMILES CCCCCCCCCCCCCCCCCCCCCC(=O)[O-]
REMARK SMILES IDX 12 1 11 2 10 3 9 4 8 5 7 6 6 7 5 8 4 9 3 10 2 11 1 12 13 13
REMARK SMILES IDX 14 14 15 15 16 16 17 17 18 18 19 19 20 20 21 21 22 22 23 23
REMARK SMILES IDX 24 24
REMARK H PARENT
REMARK Flexibility Score: inf
ROOT
ATOM      1  C   UNL     1     193.339   2.587 101.700  1.00  0.00     0.000 C 
ENDROOT
BRANCH   1   2
ATOM      2  C   UNL     1     192.901   1.525 100.676  1.00  0.00     0.000 C 
BRANCH   2   3
ATOM      3  C   UNL     1     192.359   2.145  99.367  1.00  0.00     0.000 C 
BRANCH   3   4
ATOM      4  C   UNL     1     192.699   3.637  99.202  1.00  0.00    -0.000 C 
BRANCH   4   5
ATOM      5  C   UNL     1     191.645   4.457  98.436  1.00  0.00    -0.000 C 
BRANCH   5   6
ATOM      6  C   UNL     1     190.271   3.757  98.324  1.00  0.00    -0.000 C 
BRANCH   6   7
ATOM      7  C   UNL     1     189.144   4.725  97.927  1.00  0.00    -0.000 C 
BRANCH   7   8
ATOM      8  C   UNL     1     189.140   5.048  96.424  1.00  0.00    -0.000 C 
BRANCH   8   9
ATOM      9  C   UNL     1     189.244   3.792  95.546  1.00  0.00    -0.000 C 
BRANCH   9  10
ATOM     10  C   UNL     1     190.201   4.023  94.370  1.00  0.00    -0.000 C 
BRANCH  10  11
ATOM     11  C   UNL     1     191.654   4.114  94.851  1.00  0.00    -0.003 C 
ATOM     12  C   UNL     1     192.199   2.738  95.219  1.00  0.00     0.004 C 
ENDBRANCH  10  11
ENDBRANCH   9  10
ENDBRANCH   8   9
ENDBRANCH   7   8
ENDBRANCH   6   7
ENDBRANCH   5   6
ENDBRANCH   4   5
ENDBRANCH   3   4
ENDBRANCH   2   3
ENDBRANCH   1   2
BRANCH   1  13
ATOM     13  C   UNL     1     193.783   1.978 103.038  1.00  0.00     0.000 C 
BRANCH  13  14
ATOM     14  C   UNL     1     192.974   2.518 104.231  1.00  0.00     0.000 C 
BRANCH  14  15
ATOM     15  C   UNL     1     191.789   1.610 104.599  1.00  0.00     0.000 C 
BRANCH  15  16
ATOM     16  C   UNL     1     191.830   0.258 103.869  1.00  0.00     0.000 C 
BRANCH  16  17
ATOM     17  C   UNL     1     192.368  -0.846 104.788  1.00  0.00     0.000 C 
BRANCH  17  18
ATOM     18  C   UNL     1     193.093  -1.932 103.978  1.00  0.00     0.000 C 
BRANCH  18  19
ATOM     19  C   UNL     1     193.261  -1.555 102.497  1.00  0.00     0.000 C 
BRANCH  19  20
ATOM     20  C   UNL     1     193.903  -2.681 101.667  1.00  0.00     0.006 C 
BRANCH  20  21
ATOM     21  C   UNL     1     193.326  -2.755 100.247  1.00  0.00     0.053 C 
BRANCH  21  22
ATOM     22  C   UNL     1     192.380  -3.905 100.090  1.00  0.00     0.041 C 
ATOM     23  O   UNL     1     192.536  -4.733  99.154  1.00  0.00    -0.550 OA
ATOM     24  O   UNL     1     191.337  -4.076 100.992  1.00  0.00    -0.550 OA
ENDBRANCH  21  22
ENDBRANCH  20  21
ENDBRANCH  19  20
ENDBRANCH  18  19
ENDBRANCH  17  18
ENDBRANCH  16  17
ENDBRANCH  15  16
ENDBRANCH  14  15
ENDBRANCH  13  14
ENDBRANCH   1  13
TORSDOF 20
ENDMDL
MODEL 6
REMARK VINA RESULT:    -4.383      4.100      8.229
REMARK INTER + INTRA:         -11.977
REMARK INTER:                  -9.773
REMARK INTRA:                  -2.204
REMARK UNBOUND:                -2.468
REMARK SMILES CCCCCCCCCCCCCCCCCCCCCC(=O)[O-]
REMARK SMILES IDX 12 1 11 2 10 3 9 4 8 5 7 6 6 7 5 8 4 9 3 10 2 11 1 12 13 13
REMARK SMILES IDX 14 14 15 15 16 16 17 17 18 18 19 19 20 20 21 21 22 22 23 23
REMARK SMILES IDX 24 24
REMARK H PARENT
REMARK Flexibility Score: inf
ROOT
ATOM      1  C   UNL     1     191.715   0.581 104.714  1.00  0.00     0.000 C 
ENDROOT
BRANCH   1   2
ATOM      2  C   UNL     1     191.707   1.605 103.565  1.00  0.00     0.000 C 
BRANCH   2   3
ATOM      3  C   UNL     1     193.102   2.216 103.299  1.00  0.00     0.000 C 
BRANCH   3   4
ATOM      4  C   UNL     1     193.594   2.029 101.853  1.00  0.00    -0.000 C 
BRANCH   4   5
ATOM      5  C   UNL     1     192.609   1.290 100.928  1.00  0.00    -0.000 C 
BRANCH   5   6
ATOM      6  C   UNL     1     192.395   1.985  99.564  1.00  0.00    -0.000 C 
BRANCH   6   7
ATOM      7  C   UNL     1     192.720   3.488  99.609  1.00  0.00    -0.000 C 
BRANCH   7   8
ATOM      8  C   UNL     1     192.014   4.282  98.499  1.00  0.00    -0.000 C 
BRANCH   8   9
ATOM      9  C   UNL     1     190.554   3.850  98.296  1.00  0.00    -0.000 C 
BRANCH   9  10
ATOM     10  C   UNL     1     190.266   3.572  96.815  1.00  0.00    -0.000 C 
BRANCH  10  11
ATOM     11  C   UNL     1     191.522   3.778  95.961  1.00  0.00    -0.003 C 
ATOM     12  C   UNL     1     191.917   2.492  95.242  1.00  0.00     0.004 C 
ENDBRANCH  10  11
ENDBRANCH   9  10
ENDBRANCH   8   9
ENDBRANCH   7   8
ENDBRANCH   6   7
ENDBRANCH   5   6
ENDBRANCH   4   5
ENDBRANCH   3   4
ENDBRANCH   2   3
ENDBRANCH   1   2
BRANCH   1  13
ATOM     13  C   UNL     1     193.111   0.377 105.321  1.00  0.00     0.000 C 
BRANCH  13  14
ATOM     14  C   UNL     1     193.580  -1.087 105.246  1.00  0.00     0.000 C 
BRANCH  14  15
ATOM     15  C   UNL     1     194.729  -1.287 104.245  1.00  0.00     0.000 C 
BRANCH  15  16
ATOM     16  C   UNL     1     194.237  -1.413 102.794  1.00  0.00     0.000 C 
BRANCH  16  17
ATOM     17  C   UNL     1     193.388  -2.677 102.610  1.00  0.00     0.000 C 
BRANCH  17  18
ATOM     18  C   UNL     1     193.071  -2.916 101.125  1.00  0.00     0.000 C 
BRANCH  18  19
ATOM     19  C   UNL     1     191.664  -3.495 100.905  1.00  0.00     0.000 C 
BRANCH  19  20
ATOM     20  C   UNL     1     191.230  -4.441 102.039  1.00  0.00     0.006 C 
BRANCH  20  21
ATOM     21  C   UNL     1     190.613  -5.740 101.503  1.00  0.00     0.053 C 
BRANCH  21  22
ATOM     22  C   UNL     1     189.789  -6.435 102.544  1.00  0.00     0.041 C 
ATOM     23  O   UNL     1     190.313  -7.299 103.296  1.00  0.00    -0.550 OA
ATOM     24  O   UNL     1     188.447  -6.111 102.700  1.00  0.00    -0.550 OA
ENDBRANCH  21  22
ENDBRANCH  20  21
ENDBRANCH  19  20
ENDBRANCH  18  19
ENDBRANCH  17  18
ENDBRANCH  16  17
ENDBRANCH  15  16
ENDBRANCH  14  15
ENDBRANCH  13  14
ENDBRANCH   1  13
TORSDOF 20
ENDMDL
MODEL 7
REMARK VINA RESULT:    -4.378      4.480      6.828
REMARK INTER + INTRA:         -11.966
REMARK INTER:                  -8.206
REMARK INTRA:                  -3.760
REMARK UNBOUND:                -2.468
REMARK SMILES CCCCCCCCCCCCCCCCCCCCCC(=O)[O-]
REMARK SMILES IDX 12 1 11 2 10 3 9 4 8 5 7 6 6 7 5 8 4 9 3 10 2 11 1 12 13 13
REMARK SMILES IDX 14 14 15 15 16 16 17 17 18 18 19 19 20 20 21 21 22 22 23 23
REMARK SMILES IDX 24 24
REMARK H PARENT
REMARK Flexibility Score: inf
ROOT
ATOM      1  C   UNL     1     191.681  -1.172 103.047  1.00  0.00     0.000 C 
ENDROOT
BRANCH   1   2
ATOM      2  C   UNL     1     191.523  -0.743 101.578  1.00  0.00     0.000 C 
BRANCH   2   3
ATOM      3  C   UNL     1     191.586   0.790 101.393  1.00  0.00     0.000 C 
BRANCH   3   4
ATOM      4  C   UNL     1     192.987   1.312 101.028  1.00  0.00    -0.000 C 
BRANCH   4   5
ATOM      5  C   UNL     1     193.696   2.096 102.149  1.00  0.00    -0.000 C 
BRANCH   5   6
ATOM      6  C   UNL     1     192.804   2.358 103.384  1.00  0.00    -0.000 C 
BRANCH   6   7
ATOM      7  C   UNL     1     193.597   2.328 104.702  1.00  0.00    -0.000 C 
BRANCH   7   8
ATOM      8  C   UNL     1     193.139   1.205 105.646  1.00  0.00    -0.000 C 
BRANCH   8   9
ATOM      9  C   UNL     1     191.615   1.172 105.834  1.00  0.00    -0.000 C 
BRANCH   9  10
ATOM     10  C   UNL     1     191.215   0.132 106.888  1.00  0.00    -0.000 C 
BRANCH  10  11
ATOM     11  C   UNL     1     192.135  -1.093 106.829  1.00  0.00    -0.003 C 
ATOM     12  C   UNL     1     191.326  -2.387 106.781  1.00  0.00     0.004 C 
ENDBRANCH  10  11
ENDBRANCH   9  10
ENDBRANCH   8   9
ENDBRANCH   7   8
ENDBRANCH   6   7
ENDBRANCH   5   6
ENDBRANCH   4   5
ENDBRANCH   3   4
ENDBRANCH   2   3
ENDBRANCH   1   2
BRANCH   1  13
ATOM     13  C   UNL     1     192.843  -2.155 103.260  1.00  0.00     0.000 C 
BRANCH  13  14
ATOM     14  C   UNL     1     194.197  -1.442 103.426  1.00  0.00     0.000 C 
BRANCH  14  15
ATOM     15  C   UNL     1     195.062  -1.518 102.157  1.00  0.00     0.000 C 
BRANCH  15  16
ATOM     16  C   UNL     1     195.371  -2.964 101.735  1.00  0.00     0.000 C 
BRANCH  16  17
ATOM     17  C   UNL     1     195.277  -3.123 100.213  1.00  0.00     0.000 C 
BRANCH  17  18
ATOM     18  C   UNL     1     193.836  -2.908  99.725  1.00  0.00     0.000 C 
BRANCH  18  19
ATOM     19  C   UNL     1     193.385  -3.978  98.717  1.00  0.00     0.000 C 
BRANCH  19  20
ATOM     20  C   UNL     1     192.441  -5.020  99.342  1.00  0.00     0.006 C 
BRANCH  20  21
ATOM     21  C   UNL     1     191.709  -4.472 100.574  1.00  0.00     0.053 C 
BRANCH  21  22
ATOM     22  C   UNL     1     191.105  -5.569 101.395  1.00  0.00     0.041 C 
ATOM     23  O   UNL     1     191.830  -6.271 102.149  1.00  0.00    -0.550 OA
ATOM     24  O   UNL     1     189.736  -5.801 101.347  1.00  0.00    -0.550 OA
ENDBRANCH  21  22
ENDBRANCH  20  21
ENDBRANCH  19  20
ENDBRANCH  18  19
ENDBRANCH  17  18
ENDBRANCH  16  17
ENDBRANCH  15  16
ENDBRANCH  14  15
ENDBRANCH  13  14
ENDBRANCH   1  13
TORSDOF 20
ENDMDL
MODEL 8
REMARK VINA RESULT:    -4.354      3.730      7.988
REMARK INTER + INTRA:         -11.913
REMARK INTER:                  -9.740
REMARK INTRA:                  -2.173
REMARK UNBOUND:                -2.468
REMARK SMILES CCCCCCCCCCCCCCCCCCCCCC(=O)[O-]
REMARK SMILES IDX 12 1 11 2 10 3 9 4 8 5 7 6 6 7 5 8 4 9 3 10 2 11 1 12 13 13
REMARK SMILES IDX 14 14 15 15 16 16 17 17 18 18 19 19 20 20 21 21 22 22 23 23
REMARK SMILES IDX 24 24
REMARK H PARENT
REMARK Flexibility Score: inf
ROOT
ATOM      1  C   UNL     1     193.489   1.527 104.356  1.00  0.00     0.000 C 
ENDROOT
BRANCH   1   2
ATOM      2  C   UNL     1     193.187   2.466 103.175  1.00  0.00     0.000 C 
BRANCH   2   3
ATOM      3  C   UNL     1     193.495   1.821 101.804  1.00  0.00     0.000 C 
BRANCH   3   4
ATOM      4  C   UNL     1     192.238   1.478 100.985  1.00  0.00    -0.000 C 
BRANCH   4   5
ATOM      5  C   UNL     1     192.269   1.962  99.524  1.00  0.00    -0.000 C 
BRANCH   5   6
ATOM      6  C   UNL     1     192.776   3.413  99.359  1.00  0.00    -0.000 C 
BRANCH   6   7
ATOM      7  C   UNL     1     191.768   4.311  98.622  1.00  0.00    -0.000 C 
BRANCH   7   8
ATOM      8  C   UNL     1     190.701   3.508  97.861  1.00  0.00    -0.000 C 
BRANCH   8   9
ATOM      9  C   UNL     1     189.596   4.398  97.273  1.00  0.00    -0.000 C 
BRANCH   9  10
ATOM     10  C   UNL     1     189.480   4.197  95.757  1.00  0.00    -0.000 C 
BRANCH  10  11
ATOM     11  C   UNL     1     190.741   3.534  95.190  1.00  0.00    -0.003 C 
ATOM     12  C   UNL     1     191.623   4.552  94.473  1.00  0.00     0.004 C 
ENDBRANCH  10  11
ENDBRANCH   9  10
ENDBRANCH   8   9
ENDBRANCH   7   8
ENDBRANCH   6   7
ENDBRANCH   5   6
ENDBRANCH   4   5
ENDBRANCH   3   4
ENDBRANCH   2   3
ENDBRANCH   1   2
BRANCH   1  13
ATOM     13  C   UNL     1     192.404   0.458 104.561  1.00  0.00     0.000 C 
BRANCH  13  14
ATOM     14  C   UNL     1     192.993  -0.934 104.853  1.00  0.00     0.000 C 
BRANCH  14  15
ATOM     15  C   UNL     1     193.648  -1.568 103.616  1.00  0.00     0.000 C 
BRANCH  15  16
ATOM     16  C   UNL     1     192.637  -1.865 102.496  1.00  0.00     0.000 C 
BRANCH  16  17
ATOM     17  C   UNL     1     193.343  -2.005 101.142  1.00  0.00     0.000 C 
BRANCH  17  18
ATOM     18  C   UNL     1     194.844  -1.699 101.270  1.00  0.00     0.000 C 
BRANCH  18  19
ATOM     19  C   UNL     1     195.718  -2.669 100.457  1.00  0.00     0.000 C 
BRANCH  19  20
ATOM     20  C   UNL     1     194.900  -3.508  99.458  1.00  0.00     0.006 C 
BRANCH  20  21
ATOM     21  C   UNL     1     195.583  -3.602  98.088  1.00  0.00     0.053 C 
BRANCH  21  22
ATOM     22  C   UNL     1     194.599  -3.882  96.994  1.00  0.00     0.041 C 
ATOM     23  O   UNL     1     194.569  -3.156  95.965  1.00  0.00    -0.550 OA
ATOM     24  O   UNL     1     193.729  -4.961  97.100  1.00  0.00    -0.550 OA
ENDBRANCH  21  22
ENDBRANCH  20  21
ENDBRANCH  19  20
ENDBRANCH  18  19
ENDBRANCH  17  18
ENDBRANCH  16  17
ENDBRANCH  15  16
ENDBRANCH  14  15
ENDBRANCH  13  14
ENDBRANCH   1  13
TORSDOF 20
ENDMDL
MODEL 9
REMARK VINA RESULT:    -4.327      3.216      5.964
REMARK INTER + INTRA:         -11.856
REMARK INTER:                  -9.324
REMARK INTRA:                  -2.532
REMARK UNBOUND:                -2.468
REMARK SMILES CCCCCCCCCCCCCCCCCCCCCC(=O)[O-]
REMARK SMILES IDX 12 1 11 2 10 3 9 4 8 5 7 6 6 7 5 8 4 9 3 10 2 11 1 12 13 13
REMARK SMILES IDX 14 14 15 15 16 16 17 17 18 18 19 19 20 20 21 21 22 22 23 23
REMARK SMILES IDX 24 24
REMARK H PARENT
REMARK Flexibility Score: inf
ROOT
ATOM      1  C   UNL     1     192.271  -1.417 101.669  1.00  0.00     0.000 C 
ENDROOT
BRANCH   1   2
ATOM      2  C   UNL     1     193.645  -1.693 102.303  1.00  0.00     0.000 C 
BRANCH   2   3
ATOM      3  C   UNL     1     194.798  -1.649 101.273  1.00  0.00     0.000 C 
BRANCH   3   4
ATOM      4  C   UNL     1     195.071  -3.002 100.592  1.00  0.00    -0.000 C 
BRANCH   4   5
ATOM      5  C   UNL     1     194.264  -3.250  99.304  1.00  0.00    -0.000 C 
BRANCH   5   6
ATOM      6  C   UNL     1     193.775  -4.708  99.146  1.00  0.00    -0.000 C 
BRANCH   6   7
ATOM      7  C   UNL     1     193.109  -5.249 100.422  1.00  0.00    -0.000 C 
BRANCH   7   8
ATOM      8  C   UNL     1     191.606  -4.931 100.490  1.00  0.00    -0.000 C 
BRANCH   8   9
ATOM      9  C   UNL     1     191.072  -4.892 101.929  1.00  0.00    -0.000 C 
BRANCH   9  10
ATOM     10  C   UNL     1     190.056  -6.017 102.168  1.00  0.00    -0.000 C 
BRANCH  10  11
ATOM     11  C   UNL     1     189.712  -6.735 100.858  1.00  0.00    -0.003 C 
ATOM     12  C   UNL     1     188.202  -6.872 100.686  1.00  0.00     0.004 C 
ENDBRANCH  10  11
ENDBRANCH   9  10
ENDBRANCH   8   9
ENDBRANCH   7   8
ENDBRANCH   6   7
ENDBRANCH   5   6
ENDBRANCH   4   5
ENDBRANCH   3   4
ENDBRANCH   2   3
ENDBRANCH   1   2
BRANCH   1  13
ATOM     13  C   UNL     1     191.295  -0.730 102.637  1.00  0.00     0.000 C 
BRANCH  13  14
ATOM     14  C   UNL     1     192.016   0.073 103.734  1.00  0.00     0.000 C 
BRANCH  14  15
ATOM     15  C   UNL     1     192.068   1.578 103.425  1.00  0.00     0.000 C 
BRANCH  15  16
ATOM     16  C   UNL     1     193.479   2.057 103.047  1.00  0.00     0.000 C 
BRANCH  16  17
ATOM     17  C   UNL     1     193.475   2.751 101.679  1.00  0.00     0.000 C 
BRANCH  17  18
ATOM     18  C   UNL     1     193.183   1.747 100.553  1.00  0.00     0.000 C 
BRANCH  18  19
ATOM     19  C   UNL     1     191.894   2.077  99.783  1.00  0.00     0.000 C 
BRANCH  19  20
ATOM     20  C   UNL     1     192.030   3.341  98.914  1.00  0.00     0.006 C 
BRANCH  20  21
ATOM     21  C   UNL     1     191.359   3.175  97.544  1.00  0.00     0.053 C 
BRANCH  21  22
ATOM     22  C   UNL     1     190.077   3.944  97.456  1.00  0.00     0.041 C 
ATOM     23  O   UNL     1     189.926   5.006  98.118  1.00  0.00    -0.550 OA
ATOM     24  O   UNL     1     189.056   3.501  96.625  1.00  0.00    -0.550 OA
ENDBRANCH  21  22
ENDBRANCH  20  21
ENDBRANCH  19  20
ENDBRANCH  18  19
ENDBRANCH  17  18
ENDBRANCH  16  17
ENDBRANCH  15  16
ENDBRANCH  14  15
ENDBRANCH  13  14
ENDBRANCH   1  13
TORSDOF 20
ENDMDL
