MODEL 1
REMARK VINA RESULT:    -5.336      0.000      0.000
REMARK INTER + INTRA:          -8.522
REMARK INTER:                  -8.144
REMARK INTRA:                  -0.378
REMARK UNBOUND:                -0.378
REMARK SMILES O=C([O-])CCCCCCCCC(=O)[O-]
REMARK SMILES IDX 7 1 6 2 5 3 4 4 2 5 1 6 3 7 8 8 9 9 10 10 11 11 12 12 13 13
REMARK SMILES IDX 14 14
REMARK H PARENT
REMARK Flexibility Score: inf
ROOT
ATOM      1  C   UNL     1      94.312 122.287 122.683  1.00  0.00     0.000 C 
ENDROOT
BRANCH   1   2
ATOM      2  C   UNL     1      95.830 122.125 122.447  1.00  0.00     0.000 C 
BRANCH   2   3
ATOM      3  C   UNL     1      96.655 122.534 123.676  1.00  0.00     0.006 C 
BRANCH   3   4
ATOM      4  C   UNL     1      95.834 123.421 124.618  1.00  0.00     0.053 C 
BRANCH   4   5
ATOM      5  C   UNL     1      96.660 124.568 125.109  1.00  0.00     0.041 C 
ATOM      6  O   UNL     1      96.881 125.557 124.360  1.00  0.00    -0.550 OA
ATOM      7  O   UNL     1      97.228 124.524 126.376  1.00  0.00    -0.550 OA
ENDBRANCH   4   5
ENDBRANCH   3   4
ENDBRANCH   2   3
ENDBRANCH   1   2
BRANCH   1   8
ATOM      8  C   UNL     1      93.447 121.750 121.529  1.00  0.00     0.000 C 
BRANCH   8   9
ATOM      9  C   UNL     1      94.241 120.875 120.547  1.00  0.00     0.000 C 
BRANCH   9  10
ATOM     10  C   UNL     1      94.535 121.591 119.215  1.00  0.00     0.006 C 
BRANCH  10  11
ATOM     11  C   UNL     1      93.975 120.875 117.974  1.00  0.00     0.053 C 
BRANCH  11  12
ATOM     12  C   UNL     1      92.851 121.639 117.346  1.00  0.00     0.041 C 
ATOM     13  O   UNL     1      92.353 121.252 116.256  1.00  0.00    -0.550 OA
ATOM     14  O   UNL     1      92.374 122.796 117.949  1.00  0.00    -0.550 OA
ENDBRANCH  11  12
ENDBRANCH  10  11
ENDBRANCH   9  10
ENDBRANCH   8   9
ENDBRANCH   1   8
TORSDOF 9
ENDMDL
MODEL 2
REMARK VINA RESULT:    -5.304      1.189      7.498
REMARK INTER + INTRA:          -8.472
REMARK INTER:                  -8.325
REMARK INTRA:                  -0.147
REMARK UNBOUND:                -0.378
REMARK SMILES O=C([O-])CCCCCCCCC(=O)[O-]
REMARK SMILES IDX 7 1 6 2 5 3 4 4 2 5 1 6 3 7 8 8 9 9 10 10 11 11 12 12 13 13
REMARK SMILES IDX 14 14
REMARK H PARENT
REMARK Flexibility Score: inf
ROOT
ATOM      1  C   UNL     1      94.978 121.284 120.410  1.00  0.00     0.000 C 
ENDROOT
BRANCH   1   2
ATOM      2  C   UNL     1      94.000 120.994 119.250  1.00  0.00     0.000 C 
BRANCH   2   3
ATOM      3  C   UNL     1      92.738 121.866 119.324  1.00  0.00     0.006 C 
BRANCH   3   4
ATOM      4  C   UNL     1      91.811 121.593 118.135  1.00  0.00     0.053 C 
BRANCH   4   5
ATOM      5  C   UNL     1      92.387 122.168 116.880  1.00  0.00     0.041 C 
ATOM      6  O   UNL     1      92.614 123.404 116.795  1.00  0.00    -0.550 OA
ATOM      7  O   UNL     1      92.626 121.348 115.784  1.00  0.00    -0.550 OA
ENDBRANCH   4   5
ENDBRANCH   3   4
ENDBRANCH   2   3
ENDBRANCH   1   2
BRANCH   1   8
ATOM      8  C   UNL     1      94.285 121.451 121.774  1.00  0.00     0.000 C 
BRANCH   8   9
ATOM      9  C   UNL     1      95.259 121.859 122.890  1.00  0.00     0.000 C 
BRANCH   9  10
ATOM     10  C   UNL     1      94.819 123.139 123.626  1.00  0.00     0.006 C 
BRANCH  10  11
ATOM     11  C   UNL     1      95.950 124.153 123.863  1.00  0.00     0.053 C 
BRANCH  11  12
ATOM     12  C   UNL     1      96.817 123.765 125.021  1.00  0.00     0.041 C 
ATOM     13  O   UNL     1      97.371 122.635 125.046  1.00  0.00    -0.550 OA
ATOM     14  O   UNL     1      96.987 124.640 126.086  1.00  0.00    -0.550 OA
ENDBRANCH  11  12
ENDBRANCH  10  11
ENDBRANCH   9  10
ENDBRANCH   8   9
ENDBRANCH   1   8
TORSDOF 9
ENDMDL
MODEL 3
REMARK VINA RESULT:    -5.292      2.591      8.074
REMARK INTER + INTRA:          -8.454
REMARK INTER:                  -8.120
REMARK INTRA:                  -0.334
REMARK UNBOUND:                -0.378
REMARK SMILES O=C([O-])CCCCCCCCC(=O)[O-]
REMARK SMILES IDX 7 1 6 2 5 3 4 4 2 5 1 6 3 7 8 8 9 9 10 10 11 11 12 12 13 13
REMARK SMILES IDX 14 14
REMARK H PARENT
REMARK Flexibility Score: inf
ROOT
ATOM      1  C   UNL     1      95.665 123.396 123.768  1.00  0.00     0.000 C 
ENDROOT
BRANCH   1   2
ATOM      2  C   UNL     1      94.143 123.463 124.019  1.00  0.00     0.000 C 
BRANCH   2   3
ATOM      3  C   UNL     1      93.377 122.396 123.225  1.00  0.00     0.006 C 
BRANCH   3   4
ATOM      4  C   UNL     1      94.342 121.452 122.500  1.00  0.00     0.053 C 
BRANCH   4   5
ATOM      5  C   UNL     1      94.060 121.442 121.031  1.00  0.00     0.041 C 
ATOM      6  O   UNL     1      94.983 121.196 120.210  1.00  0.00    -0.550 OA
ATOM      7  O   UNL     1      92.789 121.753 120.564  1.00  0.00    -0.550 OA
ENDBRANCH   4   5
ENDBRANCH   3   4
ENDBRANCH   2   3
ENDBRANCH   1   2
BRANCH   1   8
ATOM      8  C   UNL     1      96.443 124.580 124.370  1.00  0.00     0.000 C 
BRANCH   8   9
ATOM      9  C   UNL     1      97.096 124.241 125.719  1.00  0.00     0.000 C 
BRANCH   9  10
ATOM     10  C   UNL     1      98.096 125.316 126.183  1.00  0.00     0.006 C 
BRANCH  10  11
ATOM     11  C   UNL     1      97.997 126.646 125.418  1.00  0.00     0.053 C 
BRANCH  11  12
ATOM     12  C   UNL     1      98.403 127.812 126.265  1.00  0.00     0.041 C 
ATOM     13  O   UNL     1      97.559 128.382 127.005  1.00  0.00    -0.550 OA
ATOM     14  O   UNL     1      99.707 128.289 126.213  1.00  0.00    -0.550 OA
ENDBRANCH  11  12
ENDBRANCH  10  11
ENDBRANCH   9  10
ENDBRANCH   8   9
ENDBRANCH   1   8
TORSDOF 9
ENDMDL
MODEL 4
REMARK VINA RESULT:    -5.270      2.814      8.273
REMARK INTER + INTRA:          -8.421
REMARK INTER:                  -8.106
REMARK INTRA:                  -0.315
REMARK UNBOUND:                -0.378
REMARK SMILES O=C([O-])CCCCCCCCC(=O)[O-]
REMARK SMILES IDX 7 1 6 2 5 3 4 4 2 5 1 6 3 7 8 8 9 9 10 10 11 11 12 12 13 13
REMARK SMILES IDX 14 14
REMARK H PARENT
REMARK Flexibility Score: inf
ROOT
ATOM      1  C   UNL     1      96.129 124.443 124.279  1.00  0.00     0.000 C 
ENDROOT
BRANCH   1   2
ATOM      2  C   UNL     1      94.999 123.498 123.815  1.00  0.00     0.000 C 
BRANCH   2   3
ATOM      3  C   UNL     1      95.495 122.457 122.801  1.00  0.00     0.006 C 
BRANCH   3   4
ATOM      4  C   UNL     1      94.421 121.399 122.529  1.00  0.00     0.053 C 
BRANCH   4   5
ATOM      5  C   UNL     1      94.025 121.414 121.086  1.00  0.00     0.041 C 
ATOM      6  O   UNL     1      92.850 121.721 120.755  1.00  0.00    -0.550 OA
ATOM      7  O   UNL     1      94.940 121.041 120.109  1.00  0.00    -0.550 OA
ENDBRANCH   4   5
ENDBRANCH   3   4
ENDBRANCH   2   3
ENDBRANCH   1   2
BRANCH   1   8
ATOM      8  C   UNL     1      96.874 123.946 125.530  1.00  0.00     0.000 C 
BRANCH   8   9
ATOM      9  C   UNL     1      97.735 125.037 126.185  1.00  0.00     0.000 C 
BRANCH   9  10
ATOM     10  C   UNL     1      97.883 126.289 125.300  1.00  0.00     0.006 C 
BRANCH  10  11
ATOM     11  C   UNL     1      98.395 127.533 126.045  1.00  0.00     0.053 C 
BRANCH  11  12
ATOM     12  C   UNL     1      99.774 127.920 125.607  1.00  0.00     0.041 C 
ATOM     13  O   UNL     1     100.219 129.071 125.858  1.00  0.00    -0.550 OA
ATOM     14  O   UNL     1     100.555 127.020 124.893  1.00  0.00    -0.550 OA
ENDBRANCH  11  12
ENDBRANCH  10  11
ENDBRANCH   9  10
ENDBRANCH   8   9
ENDBRANCH   1   8
TORSDOF 9
ENDMDL
MODEL 5
REMARK VINA RESULT:    -5.227      2.934      4.659
REMARK INTER + INTRA:          -8.354
REMARK INTER:                  -8.061
REMARK INTRA:                  -0.293
REMARK UNBOUND:                -0.378
REMARK SMILES O=C([O-])CCCCCCCCC(=O)[O-]
REMARK SMILES IDX 7 1 6 2 5 3 4 4 2 5 1 6 3 7 8 8 9 9 10 10 11 11 12 12 13 13
REMARK SMILES IDX 14 14
REMARK H PARENT
REMARK Flexibility Score: inf
ROOT
ATOM      1  C   UNL     1      97.038 124.157 125.732  1.00  0.00     0.000 C 
ENDROOT
BRANCH   1   2
ATOM      2  C   UNL     1      97.950 125.266 126.300  1.00  0.00     0.000 C 
BRANCH   2   3
ATOM      3  C   UNL     1      97.967 126.516 125.408  1.00  0.00     0.006 C 
BRANCH   3   4
ATOM      4  C   UNL     1      98.413 127.750 126.199  1.00  0.00     0.053 C 
BRANCH   4   5
ATOM      5  C   UNL     1      99.774 128.188 125.762  1.00  0.00     0.041 C 
ATOM      6  O   UNL     1     100.338 129.163 126.325  1.00  0.00    -0.550 OA
ATOM      7  O   UNL     1     100.402 127.552 124.698  1.00  0.00    -0.550 OA
ENDBRANCH   4   5
ENDBRANCH   3   4
ENDBRANCH   2   3
ENDBRANCH   1   2
BRANCH   1   8
ATOM      8  C   UNL     1      96.392 124.520 124.383  1.00  0.00     0.000 C 
BRANCH   8   9
ATOM      9  C   UNL     1      95.221 123.596 124.015  1.00  0.00     0.000 C 
BRANCH   9  10
ATOM     10  C   UNL     1      95.564 122.626 122.869  1.00  0.00     0.006 C 
BRANCH  10  11
ATOM     11  C   UNL     1      94.502 121.543 122.616  1.00  0.00     0.053 C 
BRANCH  11  12
ATOM     12  C   UNL     1      94.138 121.443 121.167  1.00  0.00     0.041 C 
ATOM     13  O   UNL     1      95.022 121.193 120.307  1.00  0.00    -0.550 OA
ATOM     14  O   UNL     1      92.826 121.659 120.764  1.00  0.00    -0.550 OA
ENDBRANCH  11  12
ENDBRANCH  10  11
ENDBRANCH   9  10
ENDBRANCH   8   9
ENDBRANCH   1   8
TORSDOF 9
ENDMDL
MODEL 6
REMARK VINA RESULT:    -5.097      2.596      4.219
REMARK INTER + INTRA:          -8.156
REMARK INTER:                  -7.801
REMARK INTRA:                  -0.355
REMARK UNBOUND:                -0.378
REMARK SMILES O=C([O-])CCCCCCCCC(=O)[O-]
REMARK SMILES IDX 7 1 6 2 5 3 4 4 2 5 1 6 3 7 8 8 9 9 10 10 11 11 12 12 13 13
REMARK SMILES IDX 14 14
REMARK H PARENT
REMARK Flexibility Score: inf
ROOT
ATOM      1  C   UNL     1      96.876 123.447 124.962  1.00  0.00     0.000 C 
ENDROOT
BRANCH   1   2
ATOM      2  C   UNL     1      97.300 124.544 125.962  1.00  0.00     0.000 C 
BRANCH   2   3
ATOM      3  C   UNL     1      97.601 125.879 125.265  1.00  0.00     0.006 C 
BRANCH   3   4
ATOM      4  C   UNL     1      98.936 126.459 125.740  1.00  0.00     0.053 C 
BRANCH   4   5
ATOM      5  C   UNL     1      98.758 127.870 126.205  1.00  0.00     0.041 C 
ATOM      6  O   UNL     1      97.668 128.236 126.719  1.00  0.00    -0.550 OA
ATOM      7  O   UNL     1      99.779 128.796 126.027  1.00  0.00    -0.550 OA
ENDBRANCH   4   5
ENDBRANCH   3   4
ENDBRANCH   2   3
ENDBRANCH   1   2
BRANCH   1   8
ATOM      8  C   UNL     1      95.819 123.913 123.945  1.00  0.00     0.000 C 
BRANCH   8   9
ATOM      9  C   UNL     1      94.393 123.498 124.335  1.00  0.00     0.000 C 
BRANCH   9  10
ATOM     10  C   UNL     1      93.603 122.899 123.156  1.00  0.00     0.006 C 
BRANCH  10  11
ATOM     11  C   UNL     1      94.235 121.637 122.547  1.00  0.00     0.053 C 
BRANCH  11  12
ATOM     12  C   UNL     1      93.918 121.498 121.090  1.00  0.00     0.041 C 
ATOM     13  O   UNL     1      92.733 121.628 120.684  1.00  0.00    -0.550 OA
ATOM     14  O   UNL     1      94.927 121.193 120.185  1.00  0.00    -0.550 OA
ENDBRANCH  11  12
ENDBRANCH  10  11
ENDBRANCH   9  10
ENDBRANCH   8   9
ENDBRANCH   1   8
TORSDOF 9
ENDMDL
MODEL 7
REMARK VINA RESULT:    -4.963      1.477      7.903
REMARK INTER + INTRA:          -7.952
REMARK INTER:                  -7.657
REMARK INTRA:                  -0.295
REMARK UNBOUND:                -0.378
REMARK SMILES O=C([O-])CCCCCCCCC(=O)[O-]
REMARK SMILES IDX 7 1 6 2 5 3 4 4 2 5 1 6 3 7 8 8 9 9 10 10 11 11 12 12 13 13
REMARK SMILES IDX 14 14
REMARK H PARENT
REMARK Flexibility Score: inf
ROOT
ATOM      1  C   UNL     1      93.666 122.768 123.619  1.00  0.00     0.000 C 
ENDROOT
BRANCH   1   2
ATOM      2  C   UNL     1      94.426 121.988 122.524  1.00  0.00     0.000 C 
BRANCH   2   3
ATOM      3  C   UNL     1      93.530 121.654 121.322  1.00  0.00     0.006 C 
BRANCH   3   4
ATOM      4  C   UNL     1      94.330 120.958 120.217  1.00  0.00     0.053 C 
BRANCH   4   5
ATOM      5  C   UNL     1      93.700 121.202 118.882  1.00  0.00     0.041 C 
ATOM      6  O   UNL     1      94.303 120.875 117.826  1.00  0.00    -0.550 OA
ATOM      7  O   UNL     1      92.466 121.835 118.801  1.00  0.00    -0.550 OA
ENDBRANCH   4   5
ENDBRANCH   3   4
ENDBRANCH   2   3
ENDBRANCH   1   2
BRANCH   1   8
ATOM      8  C   UNL     1      94.582 123.608 124.526  1.00  0.00     0.000 C 
BRANCH   8   9
ATOM      9  C   UNL     1      95.960 123.874 123.901  1.00  0.00     0.000 C 
BRANCH   9  10
ATOM     10  C   UNL     1      96.865 124.740 124.798  1.00  0.00     0.006 C 
BRANCH  10  11
ATOM     11  C   UNL     1      97.599 123.957 125.899  1.00  0.00     0.053 C 
BRANCH  11  12
ATOM     12  C   UNL     1      98.225 124.868 126.910  1.00  0.00     0.041 C 
ATOM     13  O   UNL     1      98.833 124.389 127.903  1.00  0.00    -0.550 OA
ATOM     14  O   UNL     1      98.109 126.245 126.772  1.00  0.00    -0.550 OA
ENDBRANCH  11  12
ENDBRANCH  10  11
ENDBRANCH   9  10
ENDBRANCH   8   9
ENDBRANCH   1   8
TORSDOF 9
ENDMDL
MODEL 8
REMARK VINA RESULT:    -4.905      3.835      8.593
REMARK INTER + INTRA:          -7.864
REMARK INTER:                  -7.433
REMARK INTRA:                  -0.430
REMARK UNBOUND:                -0.378
REMARK SMILES O=C([O-])CCCCCCCCC(=O)[O-]
REMARK SMILES IDX 7 1 6 2 5 3 4 4 2 5 1 6 3 7 8 8 9 9 10 10 11 11 12 12 13 13
REMARK SMILES IDX 14 14
REMARK H PARENT
REMARK Flexibility Score: inf
ROOT
ATOM      1  C   UNL     1      97.633 125.079 126.176  1.00  0.00     0.000 C 
ENDROOT
BRANCH   1   2
ATOM      2  C   UNL     1      96.812 123.936 125.539  1.00  0.00     0.000 C 
BRANCH   2   3
ATOM      3  C   UNL     1      96.033 124.403 124.301  1.00  0.00     0.006 C 
BRANCH   3   4
ATOM      4  C   UNL     1      94.770 123.560 124.096  1.00  0.00     0.053 C 
BRANCH   4   5
ATOM      5  C   UNL     1      94.952 122.617 122.949  1.00  0.00     0.041 C 
ATOM      6  O   UNL     1      94.009 121.862 122.594  1.00  0.00    -0.550 OA
ATOM      7  O   UNL     1      96.179 122.535 122.303  1.00  0.00    -0.550 OA
ENDBRANCH   4   5
ENDBRANCH   3   4
ENDBRANCH   2   3
ENDBRANCH   1   2
BRANCH   1   8
ATOM      8  C   UNL     1      97.867 126.272 125.232  1.00  0.00     0.000 C 
BRANCH   8   9
ATOM      9  C   UNL     1      98.144 127.582 125.985  1.00  0.00     0.000 C 
BRANCH   9  10
ATOM     10  C   UNL     1      99.594 127.681 126.495  1.00  0.00     0.006 C 
BRANCH  10  11
ATOM     11  C   UNL     1     100.418 128.807 125.850  1.00  0.00     0.053 C 
BRANCH  11  12
ATOM     12  C   UNL     1     101.032 128.379 124.552  1.00  0.00     0.041 C 
ATOM     13  O   UNL     1     101.261 127.161 124.331  1.00  0.00    -0.550 OA
ATOM     14  O   UNL     1     101.380 129.330 123.601  1.00  0.00    -0.550 OA
ENDBRANCH  11  12
ENDBRANCH  10  11
ENDBRANCH   9  10
ENDBRANCH   8   9
ENDBRANCH   1   8
TORSDOF 9
ENDMDL
