MODEL 1
REMARK VINA RESULT:     7.918      0.000      0.000
REMARK INTER + INTRA:          15.303
REMARK INTER:                  14.861
REMARK INTRA:                   0.441
REMARK UNBOUND:                 0.441
REMARK SMILES O=C([O-])CCCCCCCCCCCCCCC(=O)[O-]
REMARK SMILES IDX 10 1 9 2 8 3 7 4 6 5 5 6 4 7 2 8 1 9 3 10 11 11 12 12 13 13
REMARK SMILES IDX 14 14 15 15 16 16 17 17 18 18 19 19 20 20
REMARK H PARENT
REMARK Flexibility Score: inf
ROOT
ATOM      1  C   UNL     1      88.803  82.680  19.831  1.00  0.00     0.000 C 
ENDROOT
BRANCH   1   2
ATOM      2  C   UNL     1      89.889  81.636  19.529  1.00  0.00     0.000 C 
BRANCH   2   3
ATOM      3  C   UNL     1      89.909  81.219  18.049  1.00  0.00     0.000 C 
BRANCH   3   4
ATOM      4  C   UNL     1      88.561  81.458  17.347  1.00  0.00     0.000 C 
BRANCH   4   5
ATOM      5  C   UNL     1      87.363  81.042  18.229  1.00  0.00     0.000 C 
BRANCH   5   6
ATOM      6  C   UNL     1      86.028  81.677  17.791  1.00  0.00     0.006 C 
BRANCH   6   7
ATOM      7  C   UNL     1      84.786  80.974  18.355  1.00  0.00     0.053 C 
BRANCH   7   8
ATOM      8  C   UNL     1      84.157  81.760  19.466  1.00  0.00     0.041 C 
ATOM      9  O   UNL     1      84.635  82.872  19.808  1.00  0.00    -0.550 OA
ATOM     10  O   UNL     1      83.026  81.269  20.109  1.00  0.00    -0.550 OA
ENDBRANCH   7   8
ENDBRANCH   6   7
ENDBRANCH   5   6
ENDBRANCH   4   5
ENDBRANCH   3   4
ENDBRANCH   2   3
ENDBRANCH   1   2
BRANCH   1  11
ATOM     11  C   UNL     1      89.407  84.087  19.927  1.00  0.00     0.000 C 
BRANCH  11  12
ATOM     12  C   UNL     1      90.289  84.391  18.709  1.00  0.00     0.000 C 
BRANCH  12  13
ATOM     13  C   UNL     1      90.753  85.853  18.716  1.00  0.00     0.000 C 
BRANCH  13  14
ATOM     14  C   UNL     1      92.272  85.950  18.540  1.00  0.00     0.000 C 
BRANCH  14  15
ATOM     15  C   UNL     1      92.758  87.392  18.731  1.00  0.00     0.000 C 
BRANCH  15  16
ATOM     16  C   UNL     1      92.756  88.155  17.399  1.00  0.00     0.006 C 
BRANCH  16  17
ATOM     17  C   UNL     1      92.413  87.246  16.210  1.00  0.00     0.053 C 
BRANCH  17  18
ATOM     18  C   UNL     1      91.045  87.532  15.671  1.00  0.00     0.041 C 
ATOM     19  O   UNL     1      90.238  88.240  16.330  1.00  0.00    -0.550 OA
ATOM     20  O   UNL     1      90.672  87.045  14.425  1.00  0.00    -0.550 OA
ENDBRANCH  17  18
ENDBRANCH  16  17
ENDBRANCH  15  16
ENDBRANCH  14  15
ENDBRANCH  13  14
ENDBRANCH  12  13
ENDBRANCH  11  12
ENDBRANCH   1  11
TORSDOF 15
ENDMDL
MODEL 2
REMARK VINA RESULT:    10.130      1.258      7.964
REMARK INTER + INTRA:          19.454
REMARK INTER:                  20.150
REMARK INTRA:                  -0.696
REMARK UNBOUND:                 0.441
REMARK SMILES O=C([O-])CCCCCCCCCCCCCCC(=O)[O-]
REMARK SMILES IDX 10 1 9 2 8 3 7 4 6 5 5 6 4 7 2 8 1 9 3 10 11 11 12 12 13 13
REMARK SMILES IDX 14 14 15 15 16 16 17 17 18 18 19 19 20 20
REMARK H PARENT
REMARK Flexibility Score: inf
ROOT
ATOM      1  C   UNL     1      90.172  84.850  19.528  1.00  0.00     0.000 C 
ENDROOT
BRANCH   1   2
ATOM      2  C   UNL     1      91.271  84.395  18.556  1.00  0.00     0.000 C 
BRANCH   2   3
ATOM      3  C   UNL     1      92.492  85.331  18.567  1.00  0.00     0.000 C 
BRANCH   3   4
ATOM      4  C   UNL     1      92.101  86.813  18.699  1.00  0.00     0.000 C 
BRANCH   4   5
ATOM      5  C   UNL     1      92.905  87.715  17.737  1.00  0.00     0.000 C 
BRANCH   5   6
ATOM      6  C   UNL     1      92.017  88.561  16.803  1.00  0.00     0.006 C 
BRANCH   6   7
ATOM      7  C   UNL     1      90.710  87.870  16.387  1.00  0.00     0.053 C 
BRANCH   7   8
ATOM      8  C   UNL     1      90.867  87.103  15.109  1.00  0.00     0.041 C 
ATOM      9  O   UNL     1      91.565  86.056  15.077  1.00  0.00    -0.550 OA
ATOM     10  O   UNL     1      90.223  87.536  13.956  1.00  0.00    -0.550 OA
ENDBRANCH   7   8
ENDBRANCH   6   7
ENDBRANCH   5   6
ENDBRANCH   4   5
ENDBRANCH   3   4
ENDBRANCH   2   3
ENDBRANCH   1   2
BRANCH   1  11
ATOM     11  C   UNL     1      88.987  83.876  19.508  1.00  0.00     0.000 C 
BRANCH  11  12
ATOM     12  C   UNL     1      89.403  82.492  20.023  1.00  0.00     0.000 C 
BRANCH  12  13
ATOM     13  C   UNL     1      89.541  81.493  18.868  1.00  0.00     0.000 C 
BRANCH  13  14
ATOM     14  C   UNL     1      88.181  80.900  18.486  1.00  0.00     0.000 C 
BRANCH  14  15
ATOM     15  C   UNL     1      87.232  80.877  19.691  1.00  0.00     0.000 C 
BRANCH  15  16
ATOM     16  C   UNL     1      86.095  81.895  19.516  1.00  0.00     0.006 C 
BRANCH  16  17
ATOM     17  C   UNL     1      84.722  81.293  19.843  1.00  0.00     0.053 C 
BRANCH  17  18
ATOM     18  C   UNL     1      83.688  81.692  18.835  1.00  0.00     0.041 C 
ATOM     19  O   UNL     1      83.401  80.922  17.881  1.00  0.00    -0.550 OA
ATOM     20  O   UNL     1      83.017  82.901  18.968  1.00  0.00    -0.550 OA
ENDBRANCH  17  18
ENDBRANCH  16  17
ENDBRANCH  15  16
ENDBRANCH  14  15
ENDBRANCH  13  14
ENDBRANCH  12  13
ENDBRANCH  11  12
ENDBRANCH   1  11
TORSDOF 15
ENDMDL
MODEL 3
REMARK VINA RESULT:    10.809     15.785     19.197
REMARK INTER + INTRA:          20.729
REMARK INTER:                  20.463
REMARK INTRA:                   0.266
REMARK UNBOUND:                 0.441
REMARK SMILES O=C([O-])CCCCCCCCCCCCCCC(=O)[O-]
REMARK SMILES IDX 10 1 9 2 8 3 7 4 6 5 5 6 4 7 2 8 1 9 3 10 11 11 12 12 13 13
REMARK SMILES IDX 14 14 15 15 16 16 17 17 18 18 19 19 20 20
REMARK H PARENT
REMARK Flexibility Score: inf
ROOT
ATOM      1  C   UNL     1     101.614 100.066  10.575  1.00  0.00     0.000 C 
ENDROOT
BRANCH   1   2
ATOM      2  C   UNL     1     102.010  98.746   9.895  1.00  0.00     0.000 C 
BRANCH   2   3
ATOM      3  C   UNL     1     101.233  97.541  10.452  1.00  0.00     0.000 C 
BRANCH   3   4
ATOM      4  C   UNL     1     101.998  96.217  10.288  1.00  0.00     0.000 C 
BRANCH   4   5
ATOM      5  C   UNL     1     101.076  94.987  10.440  1.00  0.00     0.000 C 
BRANCH   5   6
ATOM      6  C   UNL     1      99.580  95.348  10.521  1.00  0.00     0.006 C 
BRANCH   6   7
ATOM      7  C   UNL     1      98.750  94.386  11.383  1.00  0.00     0.053 C 
BRANCH   7   8
ATOM      8  C   UNL     1      98.388  94.993  12.705  1.00  0.00     0.041 C 
ATOM      9  O   UNL     1      98.101  96.216  12.787  1.00  0.00    -0.550 OA
ATOM     10  O   UNL     1      98.349  94.200  13.845  1.00  0.00    -0.550 OA
ENDBRANCH   7   8
ENDBRANCH   6   7
ENDBRANCH   5   6
ENDBRANCH   4   5
ENDBRANCH   3   4
ENDBRANCH   2   3
ENDBRANCH   1   2
BRANCH   1  11
ATOM     11  C   UNL     1     100.127 100.370  10.357  1.00  0.00     0.000 C 
BRANCH  11  12
ATOM     12  C   UNL     1      99.264  99.136  10.650  1.00  0.00     0.000 C 
BRANCH  12  13
ATOM     13  C   UNL     1      97.771  99.487  10.617  1.00  0.00     0.000 C 
BRANCH  13  14
ATOM     14  C   UNL     1      97.198  99.327   9.205  1.00  0.00     0.000 C 
BRANCH  14  15
ATOM     15  C   UNL     1      95.699  99.648   9.179  1.00  0.00     0.000 C 
BRANCH  15  16
ATOM     16  C   UNL     1      95.069  99.229   7.843  1.00  0.00     0.006 C 
BRANCH  16  17
ATOM     17  C   UNL     1      93.541  99.126   7.928  1.00  0.00     0.053 C 
BRANCH  17  18
ATOM     18  C   UNL     1      92.881  99.618   6.677  1.00  0.00     0.041 C 
ATOM     19  O   UNL     1      93.474  99.527   5.569  1.00  0.00    -0.550 OA
ATOM     20  O   UNL     1      91.598 100.146   6.728  1.00  0.00    -0.550 OA
ENDBRANCH  17  18
ENDBRANCH  16  17
ENDBRANCH  15  16
ENDBRANCH  14  15
ENDBRANCH  13  14
ENDBRANCH  12  13
ENDBRANCH  11  12
ENDBRANCH   1  11
TORSDOF 15
ENDMDL
MODEL 4
REMARK VINA RESULT:    10.812     15.405     18.454
REMARK INTER + INTRA:          20.734
REMARK INTER:                  21.252
REMARK INTRA:                  -0.518
REMARK UNBOUND:                 0.441
REMARK SMILES O=C([O-])CCCCCCCCCCCCCCC(=O)[O-]
REMARK SMILES IDX 10 1 9 2 8 3 7 4 6 5 5 6 4 7 2 8 1 9 3 10 11 11 12 12 13 13
REMARK SMILES IDX 14 14 15 15 16 16 17 17 18 18 19 19 20 20
REMARK H PARENT
REMARK Flexibility Score: inf
ROOT
ATOM      1  C   UNL     1      98.913  94.048  11.395  1.00  0.00     0.000 C 
ENDROOT
BRANCH   1   2
ATOM      2  C   UNL     1      98.459  95.401  11.965  1.00  0.00     0.000 C 
BRANCH   2   3
ATOM      3  C   UNL     1      98.172  95.338  13.474  1.00  0.00     0.000 C 
BRANCH   3   4
ATOM      4  C   UNL     1      98.503  93.965  14.084  1.00  0.00     0.000 C 
BRANCH   4   5
ATOM      5  C   UNL     1      98.933  94.071  15.563  1.00  0.00     0.000 C 
BRANCH   5   6
ATOM      6  C   UNL     1      99.538  95.441  15.930  1.00  0.00     0.006 C 
BRANCH   6   7
ATOM      7  C   UNL     1      99.565  95.729  17.437  1.00  0.00     0.053 C 
BRANCH   7   8
ATOM      8  C   UNL     1      99.803  97.181  17.723  1.00  0.00     0.041 C 
ATOM      9  O   UNL     1     100.965  97.661  17.655  1.00  0.00    -0.550 OA
ATOM     10  O   UNL     1      98.735  98.010  18.045  1.00  0.00    -0.550 OA
ENDBRANCH   7   8
ENDBRANCH   6   7
ENDBRANCH   5   6
ENDBRANCH   4   5
ENDBRANCH   3   4
ENDBRANCH   2   3
ENDBRANCH   1   2
BRANCH   1  11
ATOM     11  C   UNL     1     100.310  94.158  10.771  1.00  0.00     0.000 C 
BRANCH  11  12
ATOM     12  C   UNL     1     100.673  95.621  10.487  1.00  0.00     0.000 C 
BRANCH  12  13
ATOM     13  C   UNL     1     102.120  95.745   9.994  1.00  0.00     0.000 C 
BRANCH  13  14
ATOM     14  C   UNL     1     102.636  97.178  10.156  1.00  0.00     0.000 C 
BRANCH  14  15
ATOM     15  C   UNL     1     101.572  98.198   9.732  1.00  0.00     0.000 C 
BRANCH  15  16
ATOM     16  C   UNL     1     100.823  98.752  10.953  1.00  0.00     0.006 C 
BRANCH  16  17
ATOM     17  C   UNL     1     100.750 100.285  10.944  1.00  0.00     0.053 C 
BRANCH  17  18
ATOM     18  C   UNL     1     101.669 100.877   9.920  1.00  0.00     0.041 C 
ATOM     19  O   UNL     1     102.869 101.125  10.212  1.00  0.00    -0.550 OA
ATOM     20  O   UNL     1     101.209 101.125   8.633  1.00  0.00    -0.550 OA
ENDBRANCH  17  18
ENDBRANCH  16  17
ENDBRANCH  15  16
ENDBRANCH  14  15
ENDBRANCH  13  14
ENDBRANCH  12  13
ENDBRANCH  11  12
ENDBRANCH   1  11
TORSDOF 15
ENDMDL
