MODEL 1
REMARK VINA RESULT:    -5.096      0.000      0.000
REMARK INTER + INTRA:          -5.245
REMARK INTER:                  -5.245
REMARK INTRA:                   0.000
REMARK UNBOUND:                 0.000
REMARK SMILES Cc1cccc(O)c1C
REMARK SMILES IDX 1 1 2 2 8 3 6 4 5 5 4 6 3 7 9 8 7 9
REMARK H PARENT 7 10
REMARK Flexibility Score: inf
ROOT
ATOM      1  C   UNL     1      -6.824  68.825 -27.220  1.00  0.00     0.045 C 
ATOM      2  C   UNL     1      -5.535  68.546 -26.493  1.00  0.00    -0.045 A 
ATOM      3  C   UNL     1      -4.576  67.634 -27.006  1.00  0.00    -0.006 A 
ATOM      4  C   UNL     1      -3.372  67.425 -26.296  1.00  0.00     0.118 A 
ATOM      5  C   UNL     1      -3.153  68.081 -25.078  1.00  0.00     0.046 A 
ATOM      6  C   UNL     1      -4.112  68.950 -24.564  1.00  0.00     0.004 A 
ATOM      7  C   UNL     1      -5.295  69.183 -25.263  1.00  0.00     0.004 A 
ATOM      8  C   UNL     1      -4.807  66.937 -28.325  1.00  0.00     0.048 C 
ENDROOT
BRANCH   4   9
ATOM      9  O   UNL     1      -2.395  66.567 -26.801  1.00  0.00    -0.508 OA
ATOM     10  H   UNL     1      -2.589  65.589 -26.984  1.00  0.00     0.293 HD
ENDBRANCH   4   9
TORSDOF 1
ENDMDL
MODEL 2
REMARK VINA RESULT:    -5.067      0.851      2.597
REMARK INTER + INTRA:          -5.215
REMARK INTER:                  -5.215
REMARK INTRA:                   0.000
REMARK UNBOUND:                 0.000
REMARK SMILES Cc1cccc(O)c1C
REMARK SMILES IDX 1 1 2 2 8 3 6 4 5 5 4 6 3 7 9 8 7 9
REMARK H PARENT 7 10
REMARK Flexibility Score: inf
ROOT
ATOM      1  C   UNL     1      -5.794  69.548 -25.209  1.00  0.00     0.045 C 
ATOM      2  C   UNL     1      -5.168  68.529 -26.124  1.00  0.00    -0.045 A 
ATOM      3  C   UNL     1      -3.884  67.986 -25.861  1.00  0.00    -0.006 A 
ATOM      4  C   UNL     1      -3.351  67.015 -26.740  1.00  0.00     0.118 A 
ATOM      5  C   UNL     1      -4.069  66.629 -27.878  1.00  0.00     0.046 A 
ATOM      6  C   UNL     1      -5.316  67.189 -28.147  1.00  0.00     0.004 A 
ATOM      7  C   UNL     1      -5.864  68.132 -27.279  1.00  0.00     0.004 A 
ATOM      8  C   UNL     1      -3.114  68.393 -24.628  1.00  0.00     0.048 C 
ENDROOT
BRANCH   4   9
ATOM      9  O   UNL     1      -2.109  66.435 -26.480  1.00  0.00    -0.508 OA
ATOM     10  H   UNL     1      -2.020  65.597 -25.918  1.00  0.00     0.293 HD
ENDBRANCH   4   9
TORSDOF 1
ENDMDL
MODEL 3
REMARK VINA RESULT:    -4.717     14.217     15.124
REMARK INTER + INTRA:          -4.855
REMARK INTER:                  -4.855
REMARK INTRA:                   0.000
REMARK UNBOUND:                 0.000
REMARK SMILES Cc1cccc(O)c1C
REMARK SMILES IDX 1 1 2 2 8 3 6 4 5 5 4 6 3 7 9 8 7 9
REMARK H PARENT 7 10
REMARK Flexibility Score: inf
ROOT
ATOM      1  C   UNL     1      -4.711  60.720 -16.124  1.00  0.00     0.045 C 
ATOM      2  C   UNL     1      -4.645  60.574 -14.626  1.00  0.00    -0.045 A 
ATOM      3  C   UNL     1      -5.821  60.526 -13.833  1.00  0.00    -0.006 A 
ATOM      4  C   UNL     1      -5.704  60.365 -12.434  1.00  0.00     0.118 A 
ATOM      5  C   UNL     1      -4.439  60.298 -11.838  1.00  0.00     0.046 A 
ATOM      6  C   UNL     1      -3.288  60.378 -12.618  1.00  0.00     0.004 A 
ATOM      7  C   UNL     1      -3.387  60.516 -14.002  1.00  0.00     0.004 A 
ATOM      8  C   UNL     1      -7.186  60.585 -14.476  1.00  0.00     0.048 C 
ENDROOT
BRANCH   4   9
ATOM      9  O   UNL     1      -6.846  60.271 -11.637  1.00  0.00    -0.508 OA
ATOM     10  H   UNL     1      -7.685  60.800 -11.846  1.00  0.00     0.293 HD
ENDBRANCH   4   9
TORSDOF 1
ENDMDL
MODEL 4
REMARK VINA RESULT:    -4.713     15.925     17.147
REMARK INTER + INTRA:          -4.851
REMARK INTER:                  -4.851
REMARK INTRA:                   0.000
REMARK UNBOUND:                 0.000
REMARK SMILES Cc1cccc(O)c1C
REMARK SMILES IDX 1 1 2 2 8 3 6 4 5 5 4 6 3 7 9 8 7 9
REMARK H PARENT 7 10
REMARK Flexibility Score: inf
ROOT
ATOM      1  C   UNL     1      -2.437  64.789 -10.752  1.00  0.00     0.045 C 
ATOM      2  C   UNL     1      -1.902  63.430 -10.380  1.00  0.00    -0.045 A 
ATOM      3  C   UNL     1      -2.243  62.271 -11.123  1.00  0.00    -0.006 A 
ATOM      4  C   UNL     1      -1.696  61.023 -10.747  1.00  0.00     0.118 A 
ATOM      5  C   UNL     1      -0.862  60.932  -9.626  1.00  0.00     0.046 A 
ATOM      6  C   UNL     1      -0.556  62.069  -8.881  1.00  0.00     0.004 A 
ATOM      7  C   UNL     1      -1.071  63.310  -9.253  1.00  0.00     0.004 A 
ATOM      8  C   UNL     1      -3.133  62.369 -12.339  1.00  0.00     0.048 C 
ENDROOT
BRANCH   4   9
ATOM      9  O   UNL     1      -1.982  59.875 -11.487  1.00  0.00    -0.508 OA
ATOM     10  H   UNL     1      -1.701  59.784 -12.456  1.00  0.00     0.293 HD
ENDBRANCH   4   9
TORSDOF 1
ENDMDL
MODEL 5
REMARK VINA RESULT:    -4.664     13.013     13.872
REMARK INTER + INTRA:          -4.801
REMARK INTER:                  -4.801
REMARK INTRA:                   0.000
REMARK UNBOUND:                 0.000
REMARK SMILES Cc1cccc(O)c1C
REMARK SMILES IDX 1 1 2 2 8 3 6 4 5 5 4 6 3 7 9 8 7 9
REMARK H PARENT 7 10
REMARK Flexibility Score: inf
ROOT
ATOM      1  C   UNL     1      -6.849  60.270 -14.146  1.00  0.00     0.045 C 
ATOM      2  C   UNL     1      -5.449  60.806 -13.999  1.00  0.00    -0.045 A 
ATOM      3  C   UNL     1      -4.523  60.764 -15.074  1.00  0.00    -0.006 A 
ATOM      4  C   UNL     1      -3.228  61.302 -14.892  1.00  0.00     0.118 A 
ATOM      5  C   UNL     1      -2.856  61.829 -13.650  1.00  0.00     0.046 A 
ATOM      6  C   UNL     1      -3.759  61.838 -12.589  1.00  0.00     0.004 A 
ATOM      7  C   UNL     1      -5.046  61.331 -12.760  1.00  0.00     0.004 A 
ATOM      8  C   UNL     1      -4.927  60.207 -16.418  1.00  0.00     0.048 C 
ENDROOT
BRANCH   4   9
ATOM      9  O   UNL     1      -2.314  61.311 -15.946  1.00  0.00    -0.508 OA
ATOM     10  H   UNL     1      -2.569  60.996 -16.875  1.00  0.00     0.293 HD
ENDBRANCH   4   9
TORSDOF 1
ENDMDL
MODEL 6
REMARK VINA RESULT:    -4.639      1.097      2.943
REMARK INTER + INTRA:          -4.775
REMARK INTER:                  -4.775
REMARK INTRA:                   0.000
REMARK UNBOUND:                 0.000
REMARK SMILES Cc1cccc(O)c1C
REMARK SMILES IDX 1 1 2 2 8 3 6 4 5 5 4 6 3 7 9 8 7 9
REMARK H PARENT 7 10
REMARK Flexibility Score: inf
ROOT
ATOM      1  C   UNL     1      -4.678  68.463 -22.578  1.00  0.00     0.045 C 
ATOM      2  C   UNL     1      -4.538  68.216 -24.058  1.00  0.00    -0.045 A 
ATOM      3  C   UNL     1      -3.443  67.484 -24.587  1.00  0.00    -0.006 A 
ATOM      4  C   UNL     1      -3.371  67.261 -25.981  1.00  0.00     0.118 A 
ATOM      5  C   UNL     1      -4.349  67.795 -26.829  1.00  0.00     0.046 A 
ATOM      6  C   UNL     1      -5.404  68.540 -26.306  1.00  0.00     0.004 A 
ATOM      7  C   UNL     1      -5.500  68.750 -24.932  1.00  0.00     0.004 A 
ATOM      8  C   UNL     1      -2.395  66.897 -23.672  1.00  0.00     0.048 C 
ENDROOT
BRANCH   4   9
ATOM      9  O   UNL     1      -2.328  66.508 -26.521  1.00  0.00    -0.508 OA
ATOM     10  H   UNL     1      -1.483  66.944 -26.871  1.00  0.00     0.293 HD
ENDBRANCH   4   9
TORSDOF 1
ENDMDL
MODEL 7
REMARK VINA RESULT:    -4.623     13.689     14.707
REMARK INTER + INTRA:          -4.758
REMARK INTER:                  -4.758
REMARK INTRA:                   0.000
REMARK UNBOUND:                 0.000
REMARK SMILES Cc1cccc(O)c1C
REMARK SMILES IDX 1 1 2 2 8 3 6 4 5 5 4 6 3 7 9 8 7 9
REMARK H PARENT 7 10
REMARK Flexibility Score: inf
ROOT
ATOM      1  C   UNL     1      -2.711  61.887 -13.199  1.00  0.00     0.045 C 
ATOM      2  C   UNL     1      -4.045  61.193 -13.292  1.00  0.00    -0.045 A 
ATOM      3  C   UNL     1      -4.766  61.136 -14.513  1.00  0.00    -0.006 A 
ATOM      4  C   UNL     1      -6.003  60.454 -14.553  1.00  0.00     0.118 A 
ATOM      5  C   UNL     1      -6.526  59.879 -13.388  1.00  0.00     0.046 A 
ATOM      6  C   UNL     1      -5.828  59.967 -12.185  1.00  0.00     0.004 A 
ATOM      7  C   UNL     1      -4.597  60.618 -12.135  1.00  0.00     0.004 A 
ATOM      8  C   UNL     1      -4.198  61.744 -15.773  1.00  0.00     0.048 C 
ENDROOT
BRANCH   4   9
ATOM      9  O   UNL     1      -6.712  60.346 -15.750  1.00  0.00    -0.508 OA
ATOM     10  H   UNL     1      -7.330  59.565 -15.934  1.00  0.00     0.293 HD
ENDBRANCH   4   9
TORSDOF 1
ENDMDL
MODEL 8
REMARK VINA RESULT:    -4.605      1.802      2.793
REMARK INTER + INTRA:          -4.739
REMARK INTER:                  -4.739
REMARK INTRA:                   0.000
REMARK UNBOUND:                 0.000
REMARK SMILES Cc1cccc(O)c1C
REMARK SMILES IDX 1 1 2 2 8 3 6 4 5 5 4 6 3 7 9 8 7 9
REMARK H PARENT 7 10
REMARK Flexibility Score: inf
ROOT
ATOM      1  C   UNL     1      -4.923  67.005 -28.650  1.00  0.00     0.045 C 
ATOM      2  C   UNL     1      -4.628  67.484 -27.253  1.00  0.00    -0.045 A 
ATOM      3  C   UNL     1      -5.482  68.403 -26.589  1.00  0.00    -0.006 A 
ATOM      4  C   UNL     1      -5.172  68.804 -25.269  1.00  0.00     0.118 A 
ATOM      5  C   UNL     1      -4.011  68.329 -24.646  1.00  0.00     0.046 A 
ATOM      6  C   UNL     1      -3.160  67.453 -25.316  1.00  0.00     0.004 A 
ATOM      7  C   UNL     1      -3.464  67.032 -26.609  1.00  0.00     0.004 A 
ATOM      8  C   UNL     1      -6.740  68.905 -27.255  1.00  0.00     0.048 C 
ENDROOT
BRANCH   4   9
ATOM      9  O   UNL     1      -6.018  69.672 -24.579  1.00  0.00    -0.508 OA
ATOM     10  H   UNL     1      -5.946  70.678 -24.681  1.00  0.00     0.293 HD
ENDBRANCH   4   9
TORSDOF 1
ENDMDL
MODEL 9
REMARK VINA RESULT:    -2.207     16.190     17.436
REMARK INTER + INTRA:          -2.271
REMARK INTER:                  -2.271
REMARK INTRA:                   0.000
REMARK UNBOUND:                 0.000
REMARK SMILES Cc1cccc(O)c1C
REMARK SMILES IDX 1 1 2 2 8 3 6 4 5 5 4 6 3 7 9 8 7 9
REMARK H PARENT 7 10
REMARK Flexibility Score: inf
ROOT
ATOM      1  C   UNL     1      -2.749  60.575 -12.022  1.00  0.00     0.045 C 
ATOM      2  C   UNL     1      -1.972  61.271 -10.935  1.00  0.00    -0.045 A 
ATOM      3  C   UNL     1      -1.892  62.686 -10.872  1.00  0.00    -0.006 A 
ATOM      4  C   UNL     1      -1.169  63.291  -9.818  1.00  0.00     0.118 A 
ATOM      5  C   UNL     1      -0.506  62.496  -8.875  1.00  0.00     0.046 A 
ATOM      6  C   UNL     1      -0.562  61.106  -8.961  1.00  0.00     0.004 A 
ATOM      7  C   UNL     1      -1.289  60.496  -9.982  1.00  0.00     0.004 A 
ATOM      8  C   UNL     1      -2.616  63.545 -11.881  1.00  0.00     0.048 C 
ENDROOT
BRANCH   4   9
ATOM      9  O   UNL     1      -1.110  64.681  -9.709  1.00  0.00    -0.508 OA
ATOM     10  H   UNL     1      -0.352  65.215 -10.117  1.00  0.00     0.293 HD
ENDBRANCH   4   9
TORSDOF 1
ENDMDL
