MODEL 1
REMARK VINA RESULT:    -5.182      0.000      0.000
REMARK INTER + INTRA:         -12.788
REMARK INTER:                 -10.029
REMARK INTRA:                  -2.759
REMARK UNBOUND:                -2.759
REMARK SMILES CCCCCCCCCCCCCCCCCC(=O)[O-]
REMARK SMILES IDX 10 1 11 2 12 3 13 4 14 5 15 6 16 7 17 8 18 9 19 10 20 11
REMARK SMILES IDX 9 12 8 13 7 14 6 15 5 16 4 17 3 18 2 19 1 20
REMARK H PARENT
REMARK Flexibility Score: inf
ROOT
ATOM      1  C   UNL     1     -14.489   5.545 -22.603  1.00  0.00     0.000 C 
ENDROOT
BRANCH   1   2
ATOM      2  C   UNL     1     -13.646   5.889 -21.366  1.00  0.00     0.000 C 
BRANCH   2   3
ATOM      3  C   UNL     1     -14.125   7.173 -20.669  1.00  0.00     0.000 C 
BRANCH   3   4
ATOM      4  C   UNL     1     -15.479   6.948 -19.981  1.00  0.00     0.000 C 
BRANCH   4   5
ATOM      5  C   UNL     1     -16.616   7.778 -20.604  1.00  0.00     0.000 C 
BRANCH   5   6
ATOM      6  C   UNL     1     -17.696   6.960 -21.336  1.00  0.00     0.000 C 
BRANCH   6   7
ATOM      7  C   UNL     1     -17.811   7.314 -22.826  1.00  0.00     0.006 C 
BRANCH   7   8
ATOM      8  C   UNL     1     -17.696   8.825 -23.041  1.00  0.00     0.053 C 
BRANCH   8   9
ATOM      9  C   UNL     1     -16.959   9.119 -24.311  1.00  0.00     0.041 C 
ATOM     10  O   UNL     1     -17.300  10.093 -25.032  1.00  0.00    -0.550 OA
ATOM     11  O   UNL     1     -15.930   8.282 -24.725  1.00  0.00    -0.550 OA
ENDBRANCH   8   9
ENDBRANCH   7   8
ENDBRANCH   6   7
ENDBRANCH   5   6
ENDBRANCH   4   5
ENDBRANCH   3   4
ENDBRANCH   2   3
ENDBRANCH   1   2
BRANCH   1  12
ATOM     12  C   UNL     1     -14.083   4.206 -23.242  1.00  0.00     0.000 C 
BRANCH  12  13
ATOM     13  C   UNL     1     -15.306   3.307 -23.526  1.00  0.00    -0.000 C 
BRANCH  13  14
ATOM     14  C   UNL     1     -16.599   3.794 -22.852  1.00  0.00    -0.000 C 
BRANCH  14  15
ATOM     15  C   UNL     1     -17.025   2.914 -21.665  1.00  0.00    -0.000 C 
BRANCH  15  16
ATOM     16  C   UNL     1     -16.497   3.429 -20.314  1.00  0.00    -0.000 C 
BRANCH  16  17
ATOM     17  C   UNL     1     -15.147   2.837 -19.866  1.00  0.00    -0.000 C 
BRANCH  17  18
ATOM     18  C   UNL     1     -15.285   1.445 -19.225  1.00  0.00    -0.000 C 
BRANCH  18  19
ATOM     19  C   UNL     1     -14.619   0.341 -20.062  1.00  0.00    -0.003 C 
ATOM     20  C   UNL     1     -13.854   0.889 -21.267  1.00  0.00     0.004 C 
ENDBRANCH  18  19
ENDBRANCH  17  18
ENDBRANCH  16  17
ENDBRANCH  15  16
ENDBRANCH  14  15
ENDBRANCH  13  14
ENDBRANCH  12  13
ENDBRANCH   1  12
TORSDOF 16
ENDMDL
MODEL 2
REMARK VINA RESULT:    -5.169      2.942      6.104
REMARK INTER + INTRA:         -12.764
REMARK INTER:                  -9.648
REMARK INTRA:                  -3.116
REMARK UNBOUND:                -2.759
REMARK SMILES CCCCCCCCCCCCCCCCCC(=O)[O-]
REMARK SMILES IDX 10 1 11 2 12 3 13 4 14 5 15 6 16 7 17 8 18 9 19 10 20 11
REMARK SMILES IDX 9 12 8 13 7 14 6 15 5 16 4 17 3 18 2 19 1 20
REMARK H PARENT
REMARK Flexibility Score: inf
ROOT
ATOM      1  C   UNL     1     -14.245   6.050 -21.763  1.00  0.00     0.000 C 
ENDROOT
BRANCH   1   2
ATOM      2  C   UNL     1     -14.851   5.695 -20.396  1.00  0.00     0.000 C 
BRANCH   2   3
ATOM      3  C   UNL     1     -16.143   6.474 -20.107  1.00  0.00     0.000 C 
BRANCH   3   4
ATOM      4  C   UNL     1     -17.378   5.632 -20.454  1.00  0.00     0.000 C 
BRANCH   4   5
ATOM      5  C   UNL     1     -17.088   4.120 -20.480  1.00  0.00     0.000 C 
BRANCH   5   6
ATOM      6  C   UNL     1     -17.655   3.367 -21.698  1.00  0.00     0.000 C 
BRANCH   6   7
ATOM      7  C   UNL     1     -16.863   2.098 -22.043  1.00  0.00     0.006 C 
BRANCH   7   8
ATOM      8  C   UNL     1     -15.638   1.952 -21.136  1.00  0.00     0.053 C 
BRANCH   8   9
ATOM      9  C   UNL     1     -14.519   1.280 -21.869  1.00  0.00     0.041 C 
ATOM     10  O   UNL     1     -14.446   1.358 -23.124  1.00  0.00    -0.550 OA
ATOM     11  O   UNL     1     -13.589   0.520 -21.171  1.00  0.00    -0.550 OA
ENDBRANCH   8   9
ENDBRANCH   7   8
ENDBRANCH   6   7
ENDBRANCH   5   6
ENDBRANCH   4   5
ENDBRANCH   3   4
ENDBRANCH   2   3
ENDBRANCH   1   2
BRANCH   1  12
ATOM     12  C   UNL     1     -14.028   4.814 -22.653  1.00  0.00     0.000 C 
BRANCH  12  13
ATOM     13  C   UNL     1     -14.860   4.884 -23.951  1.00  0.00    -0.000 C 
BRANCH  13  14
ATOM     14  C   UNL     1     -16.035   5.874 -23.879  1.00  0.00    -0.000 C 
BRANCH  14  15
ATOM     15  C   UNL     1     -16.060   6.860 -25.059  1.00  0.00    -0.000 C 
BRANCH  15  16
ATOM     16  C   UNL     1     -15.822   8.319 -24.629  1.00  0.00    -0.000 C 
BRANCH  16  17
ATOM     17  C   UNL     1     -16.304   8.674 -23.209  1.00  0.00    -0.000 C 
BRANCH  17  18
ATOM     18  C   UNL     1     -17.747   9.207 -23.181  1.00  0.00    -0.000 C 
BRANCH  18  19
ATOM     19  C   UNL     1     -18.770   8.121 -22.809  1.00  0.00    -0.003 C 
ATOM     20  C   UNL     1     -19.622   7.676 -23.997  1.00  0.00     0.004 C 
ENDBRANCH  18  19
ENDBRANCH  17  18
ENDBRANCH  16  17
ENDBRANCH  15  16
ENDBRANCH  14  15
ENDBRANCH  13  14
ENDBRANCH  12  13
ENDBRANCH   1  12
TORSDOF 16
ENDMDL
MODEL 3
REMARK VINA RESULT:    -5.153      1.914      3.431
REMARK INTER + INTRA:         -12.731
REMARK INTER:                  -9.784
REMARK INTRA:                  -2.947
REMARK UNBOUND:                -2.759
REMARK SMILES CCCCCCCCCCCCCCCCCC(=O)[O-]
REMARK SMILES IDX 10 1 11 2 12 3 13 4 14 5 15 6 16 7 17 8 18 9 19 10 20 11
REMARK SMILES IDX 9 12 8 13 7 14 6 15 5 16 4 17 3 18 2 19 1 20
REMARK H PARENT
REMARK Flexibility Score: inf
ROOT
ATOM      1  C   UNL     1     -16.825   3.759 -23.216  1.00  0.00     0.000 C 
ENDROOT
BRANCH   1   2
ATOM      2  C   UNL     1     -15.604   3.029 -23.798  1.00  0.00     0.000 C 
BRANCH   2   3
ATOM      3  C   UNL     1     -14.281   3.727 -23.446  1.00  0.00     0.000 C 
BRANCH   3   4
ATOM      4  C   UNL     1     -14.498   5.231 -23.230  1.00  0.00     0.000 C 
BRANCH   4   5
ATOM      5  C   UNL     1     -14.042   5.712 -21.840  1.00  0.00     0.000 C 
BRANCH   5   6
ATOM      6  C   UNL     1     -14.867   6.869 -21.247  1.00  0.00     0.000 C 
BRANCH   6   7
ATOM      7  C   UNL     1     -15.733   7.588 -22.292  1.00  0.00     0.006 C 
BRANCH   7   8
ATOM      8  C   UNL     1     -17.214   7.251 -22.104  1.00  0.00     0.053 C 
BRANCH   8   9
ATOM      9  C   UNL     1     -17.921   8.371 -21.405  1.00  0.00     0.041 C 
ATOM     10  O   UNL     1     -17.297   9.419 -21.093  1.00  0.00    -0.550 OA
ATOM     11  O   UNL     1     -19.257   8.233 -21.047  1.00  0.00    -0.550 OA
ENDBRANCH   8   9
ENDBRANCH   7   8
ENDBRANCH   6   7
ENDBRANCH   5   6
ENDBRANCH   4   5
ENDBRANCH   3   4
ENDBRANCH   2   3
ENDBRANCH   1   2
BRANCH   1  12
ATOM     12  C   UNL     1     -17.390   3.064 -21.966  1.00  0.00     0.000 C 
BRANCH  12  13
ATOM     13  C   UNL     1     -16.849   3.690 -20.662  1.00  0.00    -0.000 C 
BRANCH  13  14
ATOM     14  C   UNL     1     -16.108   2.689 -19.759  1.00  0.00    -0.000 C 
BRANCH  14  15
ATOM     15  C   UNL     1     -14.613   2.568 -20.099  1.00  0.00    -0.000 C 
BRANCH  15  16
ATOM     16  C   UNL     1     -14.251   1.219 -20.746  1.00  0.00    -0.000 C 
BRANCH  16  17
ATOM     17  C   UNL     1     -14.878  -0.020 -20.079  1.00  0.00    -0.000 C 
BRANCH  17  18
ATOM     18  C   UNL     1     -15.382  -1.058 -21.096  1.00  0.00    -0.000 C 
BRANCH  18  19
ATOM     19  C   UNL     1     -15.789  -0.422 -22.436  1.00  0.00    -0.003 C 
ATOM     20  C   UNL     1     -17.304  -0.374 -22.635  1.00  0.00     0.004 C 
ENDBRANCH  18  19
ENDBRANCH  17  18
ENDBRANCH  16  17
ENDBRANCH  15  16
ENDBRANCH  14  15
ENDBRANCH  13  14
ENDBRANCH  12  13
ENDBRANCH   1  12
TORSDOF 16
ENDMDL
MODEL 4
REMARK VINA RESULT:    -5.142      1.305      2.305
REMARK INTER + INTRA:         -12.711
REMARK INTER:                  -9.638
REMARK INTRA:                  -3.073
REMARK UNBOUND:                -2.759
REMARK SMILES CCCCCCCCCCCCCCCCCC(=O)[O-]
REMARK SMILES IDX 10 1 11 2 12 3 13 4 14 5 15 6 16 7 17 8 18 9 19 10 20 11
REMARK SMILES IDX 9 12 8 13 7 14 6 15 5 16 4 17 3 18 2 19 1 20
REMARK H PARENT
REMARK Flexibility Score: inf
ROOT
ATOM      1  C   UNL     1     -13.733   5.951 -21.288  1.00  0.00     0.000 C 
ENDROOT
BRANCH   1   2
ATOM      2  C   UNL     1     -14.638   6.654 -20.265  1.00  0.00     0.000 C 
BRANCH   2   3
ATOM      3  C   UNL     1     -14.663   8.179 -20.455  1.00  0.00     0.000 C 
BRANCH   3   4
ATOM      4  C   UNL     1     -16.042   8.647 -20.941  1.00  0.00     0.000 C 
BRANCH   4   5
ATOM      5  C   UNL     1     -17.101   7.529 -20.913  1.00  0.00     0.000 C 
BRANCH   5   6
ATOM      6  C   UNL     1     -18.184   7.630 -22.003  1.00  0.00     0.000 C 
BRANCH   6   7
ATOM      7  C   UNL     1     -17.905   6.725 -23.212  1.00  0.00     0.006 C 
BRANCH   7   8
ATOM      8  C   UNL     1     -17.814   7.546 -24.502  1.00  0.00     0.053 C 
BRANCH   8   9
ATOM      9  C   UNL     1     -16.388   7.886 -24.806  1.00  0.00     0.041 C 
ATOM     10  O   UNL     1     -15.909   8.993 -24.446  1.00  0.00    -0.550 OA
ATOM     11  O   UNL     1     -15.605   7.001 -25.537  1.00  0.00    -0.550 OA
ENDBRANCH   8   9
ENDBRANCH   7   8
ENDBRANCH   6   7
ENDBRANCH   5   6
ENDBRANCH   4   5
ENDBRANCH   3   4
ENDBRANCH   2   3
ENDBRANCH   1   2
BRANCH   1  12
ATOM     12  C   UNL     1     -14.513   5.424 -22.505  1.00  0.00     0.000 C 
BRANCH  12  13
ATOM     13  C   UNL     1     -13.763   4.279 -23.220  1.00  0.00    -0.000 C 
BRANCH  13  14
ATOM     14  C   UNL     1     -14.672   3.109 -23.631  1.00  0.00    -0.000 C 
BRANCH  14  15
ATOM     15  C   UNL     1     -16.076   3.564 -24.064  1.00  0.00    -0.000 C 
BRANCH  15  16
ATOM     16  C   UNL     1     -17.176   2.550 -23.698  1.00  0.00    -0.000 C 
BRANCH  16  17
ATOM     17  C   UNL     1     -17.410   2.348 -22.189  1.00  0.00    -0.000 C 
BRANCH  17  18
ATOM     18  C   UNL     1     -17.667   3.667 -21.440  1.00  0.00    -0.000 C 
BRANCH  18  19
ATOM     19  C   UNL     1     -16.869   3.767 -20.130  1.00  0.00    -0.003 C 
ATOM     20  C   UNL     1     -15.752   2.729 -20.035  1.00  0.00     0.004 C 
ENDBRANCH  18  19
ENDBRANCH  17  18
ENDBRANCH  16  17
ENDBRANCH  15  16
ENDBRANCH  14  15
ENDBRANCH  13  14
ENDBRANCH  12  13
ENDBRANCH   1  12
TORSDOF 16
ENDMDL
MODEL 5
REMARK VINA RESULT:    -5.123      4.321      7.555
REMARK INTER + INTRA:         -12.673
REMARK INTER:                 -10.215
REMARK INTRA:                  -2.458
REMARK UNBOUND:                -2.759
REMARK SMILES CCCCCCCCCCCCCCCCCC(=O)[O-]
REMARK SMILES IDX 10 1 11 2 12 3 13 4 14 5 15 6 16 7 17 8 18 9 19 10 20 11
REMARK SMILES IDX 9 12 8 13 7 14 6 15 5 16 4 17 3 18 2 19 1 20
REMARK H PARENT
REMARK Flexibility Score: inf
ROOT
ATOM      1  C   UNL     1     -15.907   5.954 -19.986  1.00  0.00     0.000 C 
ENDROOT
BRANCH   1   2
ATOM      2  C   UNL     1     -17.019   5.091 -20.602  1.00  0.00     0.000 C 
BRANCH   2   3
ATOM      3  C   UNL     1     -16.948   3.627 -20.140  1.00  0.00     0.000 C 
BRANCH   3   4
ATOM      4  C   UNL     1     -16.820   2.681 -21.342  1.00  0.00     0.000 C 
BRANCH   4   5
ATOM      5  C   UNL     1     -15.447   1.989 -21.421  1.00  0.00     0.000 C 
BRANCH   5   6
ATOM      6  C   UNL     1     -14.780   1.706 -20.061  1.00  0.00     0.000 C 
BRANCH   6   7
ATOM      7  C   UNL     1     -14.914   0.240 -19.620  1.00  0.00     0.006 C 
BRANCH   7   8
ATOM      8  C   UNL     1     -14.565  -0.712 -20.768  1.00  0.00     0.053 C 
BRANCH   8   9
ATOM      9  C   UNL     1     -13.883  -1.936 -20.243  1.00  0.00     0.041 C 
ATOM     10  O   UNL     1     -13.530  -2.854 -21.030  1.00  0.00    -0.550 OA
ATOM     11  O   UNL     1     -13.686  -2.089 -18.876  1.00  0.00    -0.550 OA
ENDBRANCH   8   9
ENDBRANCH   7   8
ENDBRANCH   6   7
ENDBRANCH   5   6
ENDBRANCH   4   5
ENDBRANCH   3   4
ENDBRANCH   2   3
ENDBRANCH   1   2
BRANCH   1  12
ATOM     12  C   UNL     1     -14.500   5.498 -20.408  1.00  0.00     0.000 C 
BRANCH  12  13
ATOM     13  C   UNL     1     -14.156   5.940 -21.847  1.00  0.00    -0.000 C 
BRANCH  13  14
ATOM     14  C   UNL     1     -13.842   4.769 -22.794  1.00  0.00    -0.000 C 
BRANCH  14  15
ATOM     15  C   UNL     1     -14.783   4.713 -24.009  1.00  0.00    -0.000 C 
BRANCH  15  16
ATOM     16  C   UNL     1     -15.962   5.697 -23.903  1.00  0.00    -0.000 C 
BRANCH  16  17
ATOM     17  C   UNL     1     -16.083   6.706 -25.061  1.00  0.00    -0.000 C 
BRANCH  17  18
ATOM     18  C   UNL     1     -15.798   8.154 -24.626  1.00  0.00    -0.000 C 
BRANCH  18  19
ATOM     19  C   UNL     1     -16.805   8.666 -23.583  1.00  0.00    -0.003 C 
ATOM     20  C   UNL     1     -16.161   8.951 -22.227  1.00  0.00     0.004 C 
ENDBRANCH  18  19
ENDBRANCH  17  18
ENDBRANCH  16  17
ENDBRANCH  15  16
ENDBRANCH  14  15
ENDBRANCH  13  14
ENDBRANCH  12  13
ENDBRANCH   1  12
TORSDOF 16
ENDMDL
MODEL 6
REMARK VINA RESULT:    -5.117      2.866      5.992
REMARK INTER + INTRA:         -12.661
REMARK INTER:                  -9.741
REMARK INTRA:                  -2.920
REMARK UNBOUND:                -2.759
REMARK SMILES CCCCCCCCCCCCCCCCCC(=O)[O-]
REMARK SMILES IDX 10 1 11 2 12 3 13 4 14 5 15 6 16 7 17 8 18 9 19 10 20 11
REMARK SMILES IDX 9 12 8 13 7 14 6 15 5 16 4 17 3 18 2 19 1 20
REMARK H PARENT
REMARK Flexibility Score: inf
ROOT
ATOM      1  C   UNL     1     -15.625   6.152 -25.037  1.00  0.00     0.000 C 
ENDROOT
BRANCH   1   2
ATOM      2  C   UNL     1     -15.387   5.301 -23.781  1.00  0.00     0.000 C 
BRANCH   2   3
ATOM      3  C   UNL     1     -16.206   4.001 -23.790  1.00  0.00     0.000 C 
BRANCH   3   4
ATOM      4  C   UNL     1     -17.395   4.098 -22.823  1.00  0.00     0.000 C 
BRANCH   4   5
ATOM      5  C   UNL     1     -17.314   3.086 -21.666  1.00  0.00     0.000 C 
BRANCH   5   6
ATOM      6  C   UNL     1     -16.665   3.620 -20.375  1.00  0.00     0.000 C 
BRANCH   6   7
ATOM      7  C   UNL     1     -15.186   3.232 -20.241  1.00  0.00     0.006 C 
BRANCH   7   8
ATOM      8  C   UNL     1     -15.028   1.717 -20.087  1.00  0.00     0.053 C 
BRANCH   8   9
ATOM      9  C   UNL     1     -14.136   1.172 -21.158  1.00  0.00     0.041 C 
ATOM     10  O   UNL     1     -13.634   0.022 -21.043  1.00  0.00    -0.550 OA
ATOM     11  O   UNL     1     -13.814   1.956 -22.259  1.00  0.00    -0.550 OA
ENDBRANCH   8   9
ENDBRANCH   7   8
ENDBRANCH   6   7
ENDBRANCH   5   6
ENDBRANCH   4   5
ENDBRANCH   3   4
ENDBRANCH   2   3
ENDBRANCH   1   2
BRANCH   1  12
ATOM     12  C   UNL     1     -16.343   7.477 -24.728  1.00  0.00     0.000 C 
BRANCH  12  13
ATOM     13  C   UNL     1     -17.873   7.357 -24.890  1.00  0.00    -0.000 C 
BRANCH  13  14
ATOM     14  C   UNL     1     -18.649   7.532 -23.573  1.00  0.00    -0.000 C 
BRANCH  14  15
ATOM     15  C   UNL     1     -17.799   8.160 -22.456  1.00  0.00    -0.000 C 
BRANCH  15  16
ATOM     16  C   UNL     1     -17.779   7.314 -21.169  1.00  0.00    -0.000 C 
BRANCH  16  17
ATOM     17  C   UNL     1     -16.389   7.118 -20.532  1.00  0.00    -0.000 C 
BRANCH  17  18
ATOM     18  C   UNL     1     -15.300   7.982 -21.190  1.00  0.00    -0.000 C 
BRANCH  18  19
ATOM     19  C   UNL     1     -13.918   7.780 -20.547  1.00  0.00    -0.003 C 
ATOM     20  C   UNL     1     -13.339   6.390 -20.809  1.00  0.00     0.004 C 
ENDBRANCH  18  19
ENDBRANCH  17  18
ENDBRANCH  16  17
ENDBRANCH  15  16
ENDBRANCH  14  15
ENDBRANCH  13  14
ENDBRANCH  12  13
ENDBRANCH   1  12
TORSDOF 16
ENDMDL
MODEL 7
REMARK VINA RESULT:    -5.087      4.126      7.421
REMARK INTER + INTRA:         -12.604
REMARK INTER:                 -10.273
REMARK INTRA:                  -2.330
REMARK UNBOUND:                -2.759
REMARK SMILES CCCCCCCCCCCCCCCCCC(=O)[O-]
REMARK SMILES IDX 10 1 11 2 12 3 13 4 14 5 15 6 16 7 17 8 18 9 19 10 20 11
REMARK SMILES IDX 9 12 8 13 7 14 6 15 5 16 4 17 3 18 2 19 1 20
REMARK H PARENT
REMARK Flexibility Score: inf
ROOT
ATOM      1  C   UNL     1     -14.190   5.475 -22.037  1.00  0.00     0.000 C 
ENDROOT
BRANCH   1   2
ATOM      2  C   UNL     1     -15.587   4.835 -22.072  1.00  0.00     0.000 C 
BRANCH   2   3
ATOM      3  C   UNL     1     -16.251   4.804 -20.687  1.00  0.00     0.000 C 
BRANCH   3   4
ATOM      4  C   UNL     1     -16.711   3.383 -20.333  1.00  0.00     0.000 C 
BRANCH   4   5
ATOM      5  C   UNL     1     -15.692   2.619 -19.466  1.00  0.00     0.000 C 
BRANCH   5   6
ATOM      6  C   UNL     1     -14.567   1.917 -20.248  1.00  0.00     0.000 C 
BRANCH   6   7
ATOM      7  C   UNL     1     -14.988   0.552 -20.813  1.00  0.00     0.006 C 
BRANCH   7   8
ATOM      8  C   UNL     1     -13.788  -0.395 -20.911  1.00  0.00     0.053 C 
BRANCH   8   9
ATOM      9  C   UNL     1     -13.983  -1.580 -20.018  1.00  0.00     0.041 C 
ATOM     10  O   UNL     1     -14.201  -1.420 -18.788  1.00  0.00    -0.550 OA
ATOM     11  O   UNL     1     -13.869  -2.865 -20.536  1.00  0.00    -0.550 OA
ENDBRANCH   8   9
ENDBRANCH   7   8
ENDBRANCH   6   7
ENDBRANCH   5   6
ENDBRANCH   4   5
ENDBRANCH   3   4
ENDBRANCH   2   3
ENDBRANCH   1   2
BRANCH   1  12
ATOM     12  C   UNL     1     -13.774   5.911 -20.622  1.00  0.00     0.000 C 
BRANCH  12  13
ATOM     13  C   UNL     1     -12.933   7.206 -20.640  1.00  0.00    -0.000 C 
BRANCH  13  14
ATOM     14  C   UNL     1     -13.748   8.476 -20.344  1.00  0.00    -0.000 C 
BRANCH  14  15
ATOM     15  C   UNL     1     -15.153   8.172 -19.797  1.00  0.00    -0.000 C 
BRANCH  15  16
ATOM     16  C   UNL     1     -16.276   8.548 -20.781  1.00  0.00    -0.000 C 
BRANCH  16  17
ATOM     17  C   UNL     1     -15.817   8.847 -22.221  1.00  0.00    -0.000 C 
BRANCH  17  18
ATOM     18  C   UNL     1     -16.815   8.353 -23.283  1.00  0.00    -0.000 C 
BRANCH  18  19
ATOM     19  C   UNL     1     -18.033   7.649 -22.665  1.00  0.00    -0.003 C 
ATOM     20  C   UNL     1     -18.505   6.449 -23.485  1.00  0.00     0.004 C 
ENDBRANCH  18  19
ENDBRANCH  17  18
ENDBRANCH  16  17
ENDBRANCH  15  16
ENDBRANCH  14  15
ENDBRANCH  13  14
ENDBRANCH  12  13
ENDBRANCH   1  12
TORSDOF 16
ENDMDL
MODEL 8
REMARK VINA RESULT:    -5.075      2.592      4.465
REMARK INTER + INTRA:         -12.581
REMARK INTER:                 -10.195
REMARK INTRA:                  -2.386
REMARK UNBOUND:                -2.759
REMARK SMILES CCCCCCCCCCCCCCCCCC(=O)[O-]
REMARK SMILES IDX 10 1 11 2 12 3 13 4 14 5 15 6 16 7 17 8 18 9 19 10 20 11
REMARK SMILES IDX 9 12 8 13 7 14 6 15 5 16 4 17 3 18 2 19 1 20
REMARK H PARENT
REMARK Flexibility Score: inf
ROOT
ATOM      1  C   UNL     1     -14.473   1.977 -20.603  1.00  0.00     0.000 C 
ENDROOT
BRANCH   1   2
ATOM      2  C   UNL     1     -15.119   3.355 -20.388  1.00  0.00     0.000 C 
BRANCH   2   3
ATOM      3  C   UNL     1     -16.543   3.251 -19.820  1.00  0.00     0.000 C 
BRANCH   3   4
ATOM      4  C   UNL     1     -17.469   4.285 -20.476  1.00  0.00     0.000 C 
BRANCH   4   5
ATOM      5  C   UNL     1     -16.712   5.503 -21.036  1.00  0.00     0.000 C 
BRANCH   5   6
ATOM      6  C   UNL     1     -17.487   6.832 -20.987  1.00  0.00     0.000 C 
BRANCH   6   7
ATOM      7  C   UNL     1     -16.597   8.036 -20.644  1.00  0.00     0.006 C 
BRANCH   7   8
ATOM      8  C   UNL     1     -15.330   7.589 -19.910  1.00  0.00     0.053 C 
BRANCH   8   9
ATOM      9  C   UNL     1     -14.350   8.718 -19.821  1.00  0.00     0.041 C 
ATOM     10  O   UNL     1     -14.726   9.855 -19.432  1.00  0.00    -0.550 OA
ATOM     11  O   UNL     1     -13.033   8.527 -20.220  1.00  0.00    -0.550 OA
ENDBRANCH   8   9
ENDBRANCH   7   8
ENDBRANCH   6   7
ENDBRANCH   5   6
ENDBRANCH   4   5
ENDBRANCH   3   4
ENDBRANCH   2   3
ENDBRANCH   1   2
BRANCH   1  12
ATOM     12  C   UNL     1     -14.968   0.927 -19.594  1.00  0.00     0.000 C 
BRANCH  12  13
ATOM     13  C   UNL     1     -14.395  -0.475 -19.891  1.00  0.00    -0.000 C 
BRANCH  13  14
ATOM     14  C   UNL     1     -15.232  -1.284 -20.896  1.00  0.00    -0.000 C 
BRANCH  14  15
ATOM     15  C   UNL     1     -14.732  -1.142 -22.343  1.00  0.00    -0.000 C 
BRANCH  15  16
ATOM     16  C   UNL     1     -15.746  -0.439 -23.264  1.00  0.00    -0.000 C 
BRANCH  16  17
ATOM     17  C   UNL     1     -17.153  -0.243 -22.667  1.00  0.00    -0.000 C 
BRANCH  17  18
ATOM     18  C   UNL     1     -17.614   1.224 -22.686  1.00  0.00    -0.000 C 
BRANCH  18  19
ATOM     19  C   UNL     1     -16.679   2.125 -23.509  1.00  0.00    -0.003 C 
ATOM     20  C   UNL     1     -17.411   3.293 -24.170  1.00  0.00     0.004 C 
ENDBRANCH  18  19
ENDBRANCH  17  18
ENDBRANCH  16  17
ENDBRANCH  15  16
ENDBRANCH  14  15
ENDBRANCH  13  14
ENDBRANCH  12  13
ENDBRANCH   1  12
TORSDOF 16
ENDMDL
MODEL 9
REMARK VINA RESULT:    -5.045      2.344      4.641
REMARK INTER + INTRA:         -12.524
REMARK INTER:                  -9.759
REMARK INTRA:                  -2.765
REMARK UNBOUND:                -2.759
REMARK SMILES CCCCCCCCCCCCCCCCCC(=O)[O-]
REMARK SMILES IDX 10 1 11 2 12 3 13 4 14 5 15 6 16 7 17 8 18 9 19 10 20 11
REMARK SMILES IDX 9 12 8 13 7 14 6 15 5 16 4 17 3 18 2 19 1 20
REMARK H PARENT
REMARK Flexibility Score: inf
ROOT
ATOM      1  C   UNL     1     -17.360   3.711 -21.046  1.00  0.00     0.000 C 
ENDROOT
BRANCH   1   2
ATOM      2  C   UNL     1     -17.513   5.238 -21.121  1.00  0.00     0.000 C 
BRANCH   2   3
ATOM      3  C   UNL     1     -17.358   5.773 -22.553  1.00  0.00     0.000 C 
BRANCH   3   4
ATOM      4  C   UNL     1     -16.018   6.503 -22.721  1.00  0.00     0.000 C 
BRANCH   4   5
ATOM      5  C   UNL     1     -14.842   5.548 -23.001  1.00  0.00     0.000 C 
BRANCH   5   6
ATOM      6  C   UNL     1     -13.752   5.520 -21.913  1.00  0.00     0.000 C 
BRANCH   6   7
ATOM      7  C   UNL     1     -14.100   6.383 -20.691  1.00  0.00     0.006 C 
BRANCH   7   8
ATOM      8  C   UNL     1     -13.139   7.568 -20.566  1.00  0.00     0.053 C 
BRANCH   8   9
ATOM      9  C   UNL     1     -13.835   8.745 -19.957  1.00  0.00     0.041 C 
ATOM     10  O   UNL     1     -15.093   8.792 -19.926  1.00  0.00    -0.550 OA
ATOM     11  O   UNL     1     -13.094   9.816 -19.473  1.00  0.00    -0.550 OA
ENDBRANCH   8   9
ENDBRANCH   7   8
ENDBRANCH   6   7
ENDBRANCH   5   6
ENDBRANCH   4   5
ENDBRANCH   3   4
ENDBRANCH   2   3
ENDBRANCH   1   2
BRANCH   1  12
ATOM     12  C   UNL     1     -16.549   3.257 -19.820  1.00  0.00     0.000 C 
BRANCH  12  13
ATOM     13  C   UNL     1     -15.183   2.660 -20.220  1.00  0.00    -0.000 C 
BRANCH  13  14
ATOM     14  C   UNL     1     -15.279   1.561 -21.291  1.00  0.00    -0.000 C 
BRANCH  14  15
ATOM     15  C   UNL     1     -14.052   1.519 -22.218  1.00  0.00    -0.000 C 
BRANCH  15  16
ATOM     16  C   UNL     1     -14.333   2.101 -23.615  1.00  0.00    -0.000 C 
BRANCH  16  17
ATOM     17  C   UNL     1     -14.850   1.092 -24.658  1.00  0.00    -0.000 C 
BRANCH  17  18
ATOM     18  C   UNL     1     -16.299   1.369 -25.095  1.00  0.00    -0.000 C 
BRANCH  18  19
ATOM     19  C   UNL     1     -16.825   2.715 -24.570  1.00  0.00    -0.003 C 
ATOM     20  C   UNL     1     -17.140   3.707 -25.690  1.00  0.00     0.004 C 
ENDBRANCH  18  19
ENDBRANCH  17  18
ENDBRANCH  16  17
ENDBRANCH  15  16
ENDBRANCH  14  15
ENDBRANCH  13  14
ENDBRANCH  12  13
ENDBRANCH   1  12
TORSDOF 16
ENDMDL
