MODEL 1
REMARK VINA RESULT:    -4.190      0.000      0.000
REMARK INTER + INTRA:         -10.251
REMARK INTER:                  -7.620
REMARK INTRA:                  -2.630
REMARK UNBOUND:                -2.630
REMARK SMILES CCCCCCCCCCCCCC[C@H](C)C(=O)[O-]
REMARK SMILES IDX 9 1 10 2 11 3 12 4 13 5 14 6 15 7 16 8 17 9 18 10 19 11 8 12
REMARK SMILES IDX 7 13 6 14 5 15 4 16 3 17 2 18 1 19
REMARK H PARENT
REMARK Flexibility Score: inf
ROOT
ATOM      1  C   UNL     1      41.377  23.281 223.751  1.00  0.00     0.000 C 
ENDROOT
BRANCH   1   2
ATOM      2  C   UNL     1      41.847  23.924 225.068  1.00  0.00     0.000 C 
BRANCH   2   3
ATOM      3  C   UNL     1      41.287  23.210 226.308  1.00  0.00     0.000 C 
BRANCH   3   4
ATOM      4  C   UNL     1      40.602  21.875 225.964  1.00  0.00     0.000 C 
BRANCH   4   5
ATOM      5  C   UNL     1      39.073  21.937 226.168  1.00  0.00     0.001 C 
BRANCH   5   6
ATOM      6  C   UNL     1      38.302  20.877 225.358  1.00  0.00     0.009 C 
BRANCH   6   7
ATOM      7  C   UNL     1      37.721  19.728 226.214  1.00  0.00     0.032 C 
ATOM      8  C   UNL     1      38.405  18.403 225.864  1.00  0.00     0.014 C 
BRANCH   7   9
ATOM      9  C   UNL     1      36.233  19.591 226.033  1.00  0.00     0.044 C 
ATOM     10  O   UNL     1      35.760  18.739 225.234  1.00  0.00    -0.550 OA
ATOM     11  O   UNL     1      35.368  20.377 226.784  1.00  0.00    -0.550 OA
ENDBRANCH   7   9
ENDBRANCH   6   7
ENDBRANCH   5   6
ENDBRANCH   4   5
ENDBRANCH   3   4
ENDBRANCH   2   3
ENDBRANCH   1   2
BRANCH   1  12
ATOM     12  C   UNL     1      40.339  24.142 223.013  1.00  0.00     0.000 C 
BRANCH  12  13
ATOM     13  C   UNL     1      39.035  23.376 222.728  1.00  0.00    -0.000 C 
BRANCH  13  14
ATOM     14  C   UNL     1      37.790  24.128 223.222  1.00  0.00    -0.000 C 
BRANCH  14  15
ATOM     15  C   UNL     1      38.140  25.367 224.060  1.00  0.00    -0.000 C 
BRANCH  15  16
ATOM     16  C   UNL     1      37.633  25.217 225.500  1.00  0.00    -0.000 C 
BRANCH  16  17
ATOM     17  C   UNL     1      38.628  25.828 226.499  1.00  0.00    -0.000 C 
BRANCH  17  18
ATOM     18  C   UNL     1      39.610  26.804 225.831  1.00  0.00    -0.003 C 
ATOM     19  C   UNL     1      40.785  27.170 226.736  1.00  0.00     0.004 C 
ENDBRANCH  17  18
ENDBRANCH  16  17
ENDBRANCH  15  16
ENDBRANCH  14  15
ENDBRANCH  13  14
ENDBRANCH  12  13
ENDBRANCH   1  12
TORSDOF 14
ENDMDL
MODEL 2
REMARK VINA RESULT:    -4.132      1.946      5.456
REMARK INTER + INTRA:         -10.145
REMARK INTER:                  -7.755
REMARK INTRA:                  -2.390
REMARK UNBOUND:                -2.630
REMARK SMILES CCCCCCCCCCCCCC[C@H](C)C(=O)[O-]
REMARK SMILES IDX 9 1 10 2 11 3 12 4 13 5 14 6 15 7 16 8 17 9 18 10 19 11 8 12
REMARK SMILES IDX 7 13 6 14 5 15 4 16 3 17 2 18 1 19
REMARK H PARENT
REMARK Flexibility Score: inf
ROOT
ATOM      1  C   UNL     1      41.411  24.723 226.290  1.00  0.00     0.000 C 
ENDROOT
BRANCH   1   2
ATOM      2  C   UNL     1      42.055  24.468 224.916  1.00  0.00     0.000 C 
BRANCH   2   3
ATOM      3  C   UNL     1      41.877  23.018 224.440  1.00  0.00     0.000 C 
BRANCH   3   4
ATOM      4  C   UNL     1      40.886  22.898 223.269  1.00  0.00     0.000 C 
BRANCH   4   5
ATOM      5  C   UNL     1      40.015  24.163 223.111  1.00  0.00     0.001 C 
BRANCH   5   6
ATOM      6  C   UNL     1      38.538  23.944 223.487  1.00  0.00     0.009 C 
BRANCH   6   7
ATOM      7  C   UNL     1      37.776  25.242 223.837  1.00  0.00     0.032 C 
ATOM      8  C   UNL     1      38.600  26.103 224.798  1.00  0.00     0.014 C 
BRANCH   7   9
ATOM      9  C   UNL     1      36.428  24.956 224.445  1.00  0.00     0.044 C 
ATOM     10  O   UNL     1      35.830  23.874 224.199  1.00  0.00    -0.550 OA
ATOM     11  O   UNL     1      35.855  25.870 225.321  1.00  0.00    -0.550 OA
ENDBRANCH   7   9
ENDBRANCH   6   7
ENDBRANCH   5   6
ENDBRANCH   4   5
ENDBRANCH   3   4
ENDBRANCH   2   3
ENDBRANCH   1   2
BRANCH   1  12
ATOM     12  C   UNL     1      40.951  23.426 226.975  1.00  0.00     0.000 C 
BRANCH  12  13
ATOM     13  C   UNL     1      39.445  23.430 227.293  1.00  0.00    -0.000 C 
BRANCH  13  14
ATOM     14  C   UNL     1      38.704  22.248 226.650  1.00  0.00    -0.000 C 
BRANCH  14  15
ATOM     15  C   UNL     1      39.557  20.972 226.597  1.00  0.00    -0.000 C 
BRANCH  15  16
ATOM     16  C   UNL     1      39.307  20.197 225.297  1.00  0.00    -0.000 C 
BRANCH  16  17
ATOM     17  C   UNL     1      38.833  18.766 225.594  1.00  0.00    -0.000 C 
BRANCH  17  18
ATOM     18  C   UNL     1      37.524  18.732 226.398  1.00  0.00    -0.003 C 
ATOM     19  C   UNL     1      36.309  18.401 225.534  1.00  0.00     0.004 C 
ENDBRANCH  17  18
ENDBRANCH  16  17
ENDBRANCH  15  16
ENDBRANCH  14  15
ENDBRANCH  13  14
ENDBRANCH  12  13
ENDBRANCH   1  12
TORSDOF 14
ENDMDL
MODEL 3
REMARK VINA RESULT:    -4.127      1.786      3.853
REMARK INTER + INTRA:         -10.135
REMARK INTER:                  -7.926
REMARK INTRA:                  -2.209
REMARK UNBOUND:                -2.630
REMARK SMILES CCCCCCCCCCCCCC[C@H](C)C(=O)[O-]
REMARK SMILES IDX 9 1 10 2 11 3 12 4 13 5 14 6 15 7 16 8 17 9 18 10 19 11 8 12
REMARK SMILES IDX 7 13 6 14 5 15 4 16 3 17 2 18 1 19
REMARK H PARENT
REMARK Flexibility Score: inf
ROOT
ATOM      1  C   UNL     1      38.944  25.649 224.779  1.00  0.00     0.000 C 
ENDROOT
BRANCH   1   2
ATOM      2  C   UNL     1      40.117  24.662 224.915  1.00  0.00     0.000 C 
BRANCH   2   3
ATOM      3  C   UNL     1      40.375  23.869 223.624  1.00  0.00     0.000 C 
BRANCH   3   4
ATOM      4  C   UNL     1      40.305  22.348 223.840  1.00  0.00     0.000 C 
BRANCH   4   5
ATOM      5  C   UNL     1      39.789  21.983 225.249  1.00  0.00     0.001 C 
BRANCH   5   6
ATOM      6  C   UNL     1      38.672  20.922 225.239  1.00  0.00     0.009 C 
BRANCH   6   7
ATOM      7  C   UNL     1      37.900  20.806 226.573  1.00  0.00     0.032 C 
ATOM      8  C   UNL     1      38.629  19.860 227.532  1.00  0.00     0.014 C 
BRANCH   7   9
ATOM      9  C   UNL     1      36.489  20.324 226.365  1.00  0.00     0.044 C 
ATOM     10  O   UNL     1      35.560  20.713 227.121  1.00  0.00    -0.550 OA
ATOM     11  O   UNL     1      36.196  19.475 225.304  1.00  0.00    -0.550 OA
ENDBRANCH   7   9
ENDBRANCH   6   7
ENDBRANCH   5   6
ENDBRANCH   4   5
ENDBRANCH   3   4
ENDBRANCH   2   3
ENDBRANCH   1   2
BRANCH   1  12
ATOM     12  C   UNL     1      37.952  25.549 225.949  1.00  0.00     0.000 C 
BRANCH  12  13
ATOM     13  C   UNL     1      36.990  24.356 225.805  1.00  0.00    -0.000 C 
BRANCH  13  14
ATOM     14  C   UNL     1      36.193  24.396 224.492  1.00  0.00    -0.000 C 
BRANCH  14  15
ATOM     15  C   UNL     1      36.485  23.191 223.585  1.00  0.00    -0.000 C 
BRANCH  15  16
ATOM     16  C   UNL     1      36.929  23.648 222.190  1.00  0.00    -0.000 C 
BRANCH  16  17
ATOM     17  C   UNL     1      35.716  23.973 221.306  1.00  0.00    -0.000 C 
BRANCH  17  18
ATOM     18  C   UNL     1      36.070  24.018 219.812  1.00  0.00    -0.003 C 
ATOM     19  C   UNL     1      37.306  23.186 219.472  1.00  0.00     0.004 C 
ENDBRANCH  17  18
ENDBRANCH  16  17
ENDBRANCH  15  16
ENDBRANCH  14  15
ENDBRANCH  13  14
ENDBRANCH  12  13
ENDBRANCH   1  12
TORSDOF 14
ENDMDL
MODEL 4
REMARK VINA RESULT:    -4.059      2.109      5.780
REMARK INTER + INTRA:         -10.011
REMARK INTER:                  -7.597
REMARK INTRA:                  -2.414
REMARK UNBOUND:                -2.630
REMARK SMILES CCCCCCCCCCCCCC[C@H](C)C(=O)[O-]
REMARK SMILES IDX 9 1 10 2 11 3 12 4 13 5 14 6 15 7 16 8 17 9 18 10 19 11 8 12
REMARK SMILES IDX 7 13 6 14 5 15 4 16 3 17 2 18 1 19
REMARK H PARENT
REMARK Flexibility Score: inf
ROOT
ATOM      1  C   UNL     1      39.779  22.153 226.717  1.00  0.00     0.000 C 
ENDROOT
BRANCH   1   2
ATOM      2  C   UNL     1      40.168  21.541 225.361  1.00  0.00     0.000 C 
BRANCH   2   3
ATOM      3  C   UNL     1      41.081  22.462 224.536  1.00  0.00     0.000 C 
BRANCH   3   4
ATOM      4  C   UNL     1      40.551  22.697 223.111  1.00  0.00     0.000 C 
BRANCH   4   5
ATOM      5  C   UNL     1      39.850  24.066 222.969  1.00  0.00     0.001 C 
BRANCH   5   6
ATOM      6  C   UNL     1      38.346  24.022 223.298  1.00  0.00     0.009 C 
BRANCH   6   7
ATOM      7  C   UNL     1      37.800  25.321 223.931  1.00  0.00     0.032 C 
ATOM      8  C   UNL     1      38.730  25.804 225.048  1.00  0.00     0.014 C 
BRANCH   7   9
ATOM      9  C   UNL     1      36.409  25.139 224.477  1.00  0.00     0.044 C 
ATOM     10  O   UNL     1      35.946  25.939 225.334  1.00  0.00    -0.550 OA
ATOM     11  O   UNL     1      35.608  24.106 224.004  1.00  0.00    -0.550 OA
ENDBRANCH   7   9
ENDBRANCH   6   7
ENDBRANCH   5   6
ENDBRANCH   4   5
ENDBRANCH   3   4
ENDBRANCH   2   3
ENDBRANCH   1   2
BRANCH   1  12
ATOM     12  C   UNL     1      38.291  22.532 226.788  1.00  0.00     0.000 C 
BRANCH  12  13
ATOM     13  C   UNL     1      37.411  21.627 225.907  1.00  0.00    -0.000 C 
BRANCH  13  14
ATOM     14  C   UNL     1      36.483  20.724 226.734  1.00  0.00    -0.000 C 
BRANCH  14  15
ATOM     15  C   UNL     1      36.042  19.468 225.967  1.00  0.00    -0.000 C 
BRANCH  15  16
ATOM     16  C   UNL     1      36.827  18.236 226.434  1.00  0.00    -0.000 C 
BRANCH  16  17
ATOM     17  C   UNL     1      37.632  18.547 227.706  1.00  0.00    -0.000 C 
BRANCH  17  18
ATOM     18  C   UNL     1      39.137  18.295 227.527  1.00  0.00    -0.003 C 
ATOM     19  C   UNL     1      39.518  17.997 226.078  1.00  0.00     0.004 C 
ENDBRANCH  17  18
ENDBRANCH  16  17
ENDBRANCH  15  16
ENDBRANCH  14  15
ENDBRANCH  13  14
ENDBRANCH  12  13
ENDBRANCH   1  12
TORSDOF 14
ENDMDL
MODEL 5
REMARK VINA RESULT:    -3.940      1.364      3.947
REMARK INTER + INTRA:          -9.794
REMARK INTER:                  -7.986
REMARK INTRA:                  -1.809
REMARK UNBOUND:                -2.630
REMARK SMILES CCCCCCCCCCCCCC[C@H](C)C(=O)[O-]
REMARK SMILES IDX 9 1 10 2 11 3 12 4 13 5 14 6 15 7 16 8 17 9 18 10 19 11 8 12
REMARK SMILES IDX 7 13 6 14 5 15 4 16 3 17 2 18 1 19
REMARK H PARENT
REMARK Flexibility Score: inf
ROOT
ATOM      1  C   UNL     1      37.898  25.916 224.877  1.00  0.00     0.000 C 
ENDROOT
BRANCH   1   2
ATOM      2  C   UNL     1      36.533  25.249 225.123  1.00  0.00     0.000 C 
BRANCH   2   3
ATOM      3  C   UNL     1      36.100  24.341 223.962  1.00  0.00     0.000 C 
BRANCH   3   4
ATOM      4  C   UNL     1      36.795  22.968 223.994  1.00  0.00     0.000 C 
BRANCH   4   5
ATOM      5  C   UNL     1      37.073  22.490 225.435  1.00  0.00     0.001 C 
BRANCH   5   6
ATOM      6  C   UNL     1      37.311  20.972 225.544  1.00  0.00     0.009 C 
BRANCH   6   7
ATOM      7  C   UNL     1      36.733  20.333 226.826  1.00  0.00     0.032 C 
ATOM      8  C   UNL     1      37.854  20.034 227.827  1.00  0.00     0.014 C 
BRANCH   7   9
ATOM      9  C   UNL     1      35.972  19.068 226.530  1.00  0.00     0.044 C 
ATOM     10  O   UNL     1      35.724  18.239 227.446  1.00  0.00    -0.550 OA
ATOM     11  O   UNL     1      35.499  18.828 225.246  1.00  0.00    -0.550 OA
ENDBRANCH   7   9
ENDBRANCH   6   7
ENDBRANCH   5   6
ENDBRANCH   4   5
ENDBRANCH   3   4
ENDBRANCH   2   3
ENDBRANCH   1   2
BRANCH   1  12
ATOM     12  C   UNL     1      38.717  26.076 226.168  1.00  0.00     0.000 C 
BRANCH  12  13
ATOM     13  C   UNL     1      39.907  27.036 225.994  1.00  0.00    -0.000 C 
BRANCH  13  14
ATOM     14  C   UNL     1      41.182  26.526 226.683  1.00  0.00    -0.000 C 
BRANCH  14  15
ATOM     15  C   UNL     1      41.104  25.035 227.043  1.00  0.00    -0.000 C 
BRANCH  15  16
ATOM     16  C   UNL     1      42.210  24.241 226.337  1.00  0.00    -0.000 C 
BRANCH  16  17
ATOM     17  C   UNL     1      42.016  24.264 224.813  1.00  0.00    -0.000 C 
BRANCH  17  18
ATOM     18  C   UNL     1      40.766  23.489 224.367  1.00  0.00    -0.003 C 
ATOM     19  C   UNL     1      40.313  23.862 222.955  1.00  0.00     0.004 C 
ENDBRANCH  17  18
ENDBRANCH  16  17
ENDBRANCH  15  16
ENDBRANCH  14  15
ENDBRANCH  13  14
ENDBRANCH  12  13
ENDBRANCH   1  12
TORSDOF 14
ENDMDL
MODEL 6
REMARK VINA RESULT:    -3.937      2.787      4.375
REMARK INTER + INTRA:          -9.789
REMARK INTER:                  -7.379
REMARK INTRA:                  -2.410
REMARK UNBOUND:                -2.630
REMARK SMILES CCCCCCCCCCCCCC[C@H](C)C(=O)[O-]
REMARK SMILES IDX 9 1 10 2 11 3 12 4 13 5 14 6 15 7 16 8 17 9 18 10 19 11 8 12
REMARK SMILES IDX 7 13 6 14 5 15 4 16 3 17 2 18 1 19
REMARK H PARENT
REMARK Flexibility Score: inf
ROOT
ATOM      1  C   UNL     1      41.149  19.650 223.198  1.00  0.00     0.000 C 
ENDROOT
BRANCH   1   2
ATOM      2  C   UNL     1      40.931  19.867 224.705  1.00  0.00     0.000 C 
BRANCH   2   3
ATOM      3  C   UNL     1      39.455  19.744 225.113  1.00  0.00     0.000 C 
BRANCH   3   4
ATOM      4  C   UNL     1      38.901  21.042 225.726  1.00  0.00     0.000 C 
BRANCH   4   5
ATOM      5  C   UNL     1      37.915  21.759 224.778  1.00  0.00     0.001 C 
BRANCH   5   6
ATOM      6  C   UNL     1      37.271  23.014 225.397  1.00  0.00     0.009 C 
BRANCH   6   7
ATOM      7  C   UNL     1      36.381  23.814 224.419  1.00  0.00     0.032 C 
ATOM      8  C   UNL     1      36.695  23.426 222.971  1.00  0.00     0.014 C 
BRANCH   7   9
ATOM      9  C   UNL     1      36.551  25.300 224.591  1.00  0.00     0.044 C 
ATOM     10  O   UNL     1      37.365  25.940 223.873  1.00  0.00    -0.550 OA
ATOM     11  O   UNL     1      35.774  25.983 225.519  1.00  0.00    -0.550 OA
ENDBRANCH   7   9
ENDBRANCH   6   7
ENDBRANCH   5   6
ENDBRANCH   4   5
ENDBRANCH   3   4
ENDBRANCH   2   3
ENDBRANCH   1   2
BRANCH   1  12
ATOM     12  C   UNL     1      41.625  20.925 222.482  1.00  0.00     0.000 C 
BRANCH  12  13
ATOM     13  C   UNL     1      41.854  22.095 223.455  1.00  0.00    -0.000 C 
BRANCH  13  14
ATOM     14  C   UNL     1      40.889  23.265 223.208  1.00  0.00    -0.000 C 
BRANCH  14  15
ATOM     15  C   UNL     1      40.786  24.212 224.413  1.00  0.00    -0.000 C 
BRANCH  15  16
ATOM     16  C   UNL     1      42.178  24.575 224.946  1.00  0.00    -0.000 C 
BRANCH  16  17
ATOM     17  C   UNL     1      42.222  24.473 226.479  1.00  0.00    -0.000 C 
BRANCH  17  18
ATOM     18  C   UNL     1      41.276  23.392 227.026  1.00  0.00    -0.003 C 
ATOM     19  C   UNL     1      42.002  22.093 227.373  1.00  0.00     0.004 C 
ENDBRANCH  17  18
ENDBRANCH  16  17
ENDBRANCH  15  16
ENDBRANCH  14  15
ENDBRANCH  13  14
ENDBRANCH  12  13
ENDBRANCH   1  12
TORSDOF 14
ENDMDL
MODEL 7
REMARK VINA RESULT:    -3.890      2.509      4.067
REMARK INTER + INTRA:          -9.704
REMARK INTER:                  -6.673
REMARK INTRA:                  -3.030
REMARK UNBOUND:                -2.630
REMARK SMILES CCCCCCCCCCCCCC[C@H](C)C(=O)[O-]
REMARK SMILES IDX 9 1 10 2 11 3 12 4 13 5 14 6 15 7 16 8 17 9 18 10 19 11 8 12
REMARK SMILES IDX 7 13 6 14 5 15 4 16 3 17 2 18 1 19
REMARK H PARENT
REMARK Flexibility Score: inf
ROOT
ATOM      1  C   UNL     1      41.633  22.100 226.732  1.00  0.00     0.000 C 
ENDROOT
BRANCH   1   2
ATOM      2  C   UNL     1      40.937  22.027 225.362  1.00  0.00     0.000 C 
BRANCH   2   3
ATOM      3  C   UNL     1      41.785  22.638 224.235  1.00  0.00     0.000 C 
BRANCH   3   4
ATOM      4  C   UNL     1      40.967  23.552 223.307  1.00  0.00     0.000 C 
BRANCH   4   5
ATOM      5  C   UNL     1      39.521  23.044 223.117  1.00  0.00     0.001 C 
BRANCH   5   6
ATOM      6  C   UNL     1      38.454  24.132 223.339  1.00  0.00     0.009 C 
BRANCH   6   7
ATOM      7  C   UNL     1      37.505  23.852 224.526  1.00  0.00     0.032 C 
ATOM      8  C   UNL     1      37.176  22.358 224.608  1.00  0.00     0.014 C 
BRANCH   7   9
ATOM      9  C   UNL     1      36.228  24.644 224.423  1.00  0.00     0.044 C 
ATOM     10  O   UNL     1      35.293  24.258 223.672  1.00  0.00    -0.550 OA
ATOM     11  O   UNL     1      36.058  25.787 225.194  1.00  0.00    -0.550 OA
ENDBRANCH   7   9
ENDBRANCH   6   7
ENDBRANCH   5   6
ENDBRANCH   4   5
ENDBRANCH   3   4
ENDBRANCH   2   3
ENDBRANCH   1   2
BRANCH   1  12
ATOM     12  C   UNL     1      40.665  22.482 227.864  1.00  0.00     0.000 C 
BRANCH  12  13
ATOM     13  C   UNL     1      39.513  23.379 227.377  1.00  0.00    -0.000 C 
BRANCH  13  14
ATOM     14  C   UNL     1      39.507  24.754 228.062  1.00  0.00    -0.000 C 
BRANCH  14  15
ATOM     15  C   UNL     1      39.280  25.908 227.073  1.00  0.00    -0.000 C 
BRANCH  15  16
ATOM     16  C   UNL     1      40.338  25.894 225.963  1.00  0.00    -0.000 C 
BRANCH  16  17
ATOM     17  C   UNL     1      41.640  26.558 226.437  1.00  0.00    -0.000 C 
BRANCH  17  18
ATOM     18  C   UNL     1      42.845  25.606 226.370  1.00  0.00    -0.003 C 
ATOM     19  C   UNL     1      43.341  25.183 227.752  1.00  0.00     0.004 C 
ENDBRANCH  17  18
ENDBRANCH  16  17
ENDBRANCH  15  16
ENDBRANCH  14  15
ENDBRANCH  13  14
ENDBRANCH  12  13
ENDBRANCH   1  12
TORSDOF 14
ENDMDL
MODEL 8
REMARK VINA RESULT:    -3.883      1.320      3.030
REMARK INTER + INTRA:          -9.692
REMARK INTER:                  -6.821
REMARK INTRA:                  -2.872
REMARK UNBOUND:                -2.630
REMARK SMILES CCCCCCCCCCCCCC[C@H](C)C(=O)[O-]
REMARK SMILES IDX 9 1 10 2 11 3 12 4 13 5 14 6 15 7 16 8 17 9 18 10 19 11 8 12
REMARK SMILES IDX 7 13 6 14 5 15 4 16 3 17 2 18 1 19
REMARK H PARENT
REMARK Flexibility Score: inf
ROOT
ATOM      1  C   UNL     1      38.068  26.014 224.988  1.00  0.00     0.000 C 
ENDROOT
BRANCH   1   2
ATOM      2  C   UNL     1      38.990  25.682 226.173  1.00  0.00     0.000 C 
BRANCH   2   3
ATOM      3  C   UNL     1      38.442  24.544 227.048  1.00  0.00     0.000 C 
BRANCH   3   4
ATOM      4  C   UNL     1      39.539  23.565 227.502  1.00  0.00     0.000 C 
BRANCH   4   5
ATOM      5  C   UNL     1      39.121  22.091 227.304  1.00  0.00     0.001 C 
BRANCH   5   6
ATOM      6  C   UNL     1      37.596  21.890 227.226  1.00  0.00     0.009 C 
BRANCH   6   7
ATOM      7  C   UNL     1      37.143  20.423 227.398  1.00  0.00     0.032 C 
ATOM      8  C   UNL     1      38.158  19.646 228.242  1.00  0.00     0.014 C 
BRANCH   7   9
ATOM      9  C   UNL     1      36.955  19.734 226.073  1.00  0.00     0.044 C 
ATOM     10  O   UNL     1      37.900  19.087 225.547  1.00  0.00    -0.550 OA
ATOM     11  O   UNL     1      35.717  19.771 225.442  1.00  0.00    -0.550 OA
ENDBRANCH   7   9
ENDBRANCH   6   7
ENDBRANCH   5   6
ENDBRANCH   4   5
ENDBRANCH   3   4
ENDBRANCH   2   3
ENDBRANCH   1   2
BRANCH   1  12
ATOM     12  C   UNL     1      36.783  25.169 224.986  1.00  0.00     0.000 C 
BRANCH  12  13
ATOM     13  C   UNL     1      36.626  24.339 223.699  1.00  0.00    -0.000 C 
BRANCH  13  14
ATOM     14  C   UNL     1      37.005  22.864 223.900  1.00  0.00    -0.000 C 
BRANCH  14  15
ATOM     15  C   UNL     1      38.517  22.620 223.786  1.00  0.00    -0.000 C 
BRANCH  15  16
ATOM     16  C   UNL     1      39.115  23.415 222.619  1.00  0.00    -0.000 C 
BRANCH  16  17
ATOM     17  C   UNL     1      40.486  23.998 222.996  1.00  0.00    -0.000 C 
BRANCH  17  18
ATOM     18  C   UNL     1      41.186  23.191 224.100  1.00  0.00    -0.003 C 
ATOM     19  C   UNL     1      42.126  24.045 224.950  1.00  0.00     0.004 C 
ENDBRANCH  17  18
ENDBRANCH  16  17
ENDBRANCH  15  16
ENDBRANCH  14  15
ENDBRANCH  13  14
ENDBRANCH  12  13
ENDBRANCH   1  12
TORSDOF 14
ENDMDL
MODEL 9
REMARK VINA RESULT:    -3.858      1.570      3.056
REMARK INTER + INTRA:          -9.646
REMARK INTER:                  -7.384
REMARK INTRA:                  -2.262
REMARK UNBOUND:                -2.630
REMARK SMILES CCCCCCCCCCCCCC[C@H](C)C(=O)[O-]
REMARK SMILES IDX 9 1 10 2 11 3 12 4 13 5 14 6 15 7 16 8 17 9 18 10 19 11 8 12
REMARK SMILES IDX 7 13 6 14 5 15 4 16 3 17 2 18 1 19
REMARK H PARENT
REMARK Flexibility Score: inf
ROOT
ATOM      1  C   UNL     1      42.041  23.712 226.004  1.00  0.00     0.000 C 
ENDROOT
BRANCH   1   2
ATOM      2  C   UNL     1      41.059  23.313 227.120  1.00  0.00     0.000 C 
BRANCH   2   3
ATOM      3  C   UNL     1      39.937  24.343 227.317  1.00  0.00     0.000 C 
BRANCH   3   4
ATOM      4  C   UNL     1      38.535  23.727 227.172  1.00  0.00     0.000 C 
BRANCH   4   5
ATOM      5  C   UNL     1      38.578  22.331 226.512  1.00  0.00     0.001 C 
BRANCH   5   6
ATOM      6  C   UNL     1      37.183  21.728 226.259  1.00  0.00     0.009 C 
BRANCH   6   7
ATOM      7  C   UNL     1      36.902  20.433 227.052  1.00  0.00     0.032 C 
ATOM      8  C   UNL     1      38.176  19.945 227.750  1.00  0.00     0.014 C 
BRANCH   7   9
ATOM      9  C   UNL     1      36.361  19.339 226.169  1.00  0.00     0.044 C 
ATOM     10  O   UNL     1      37.139  18.515 225.619  1.00  0.00    -0.550 OA
ATOM     11  O   UNL     1      34.989  19.207 225.992  1.00  0.00    -0.550 OA
ENDBRANCH   7   9
ENDBRANCH   6   7
ENDBRANCH   5   6
ENDBRANCH   4   5
ENDBRANCH   3   4
ENDBRANCH   2   3
ENDBRANCH   1   2
BRANCH   1  12
ATOM     12  C   UNL     1      41.349  24.452 224.848  1.00  0.00     0.000 C 
BRANCH  12  13
ATOM     13  C   UNL     1      40.900  23.499 223.725  1.00  0.00    -0.000 C 
BRANCH  13  14
ATOM     14  C   UNL     1      39.564  23.920 223.094  1.00  0.00    -0.000 C 
BRANCH  14  15
ATOM     15  C   UNL     1      38.886  25.069 223.855  1.00  0.00    -0.000 C 
BRANCH  15  16
ATOM     16  C   UNL     1      37.365  25.039 223.654  1.00  0.00    -0.000 C 
BRANCH  16  17
ATOM     17  C   UNL     1      36.890  23.628 223.272  1.00  0.00    -0.000 C 
BRANCH  17  18
ATOM     18  C   UNL     1      35.854  23.642 222.137  1.00  0.00    -0.003 C 
ATOM     19  C   UNL     1      36.490  23.824 220.760  1.00  0.00     0.004 C 
ENDBRANCH  17  18
ENDBRANCH  16  17
ENDBRANCH  15  16
ENDBRANCH  14  15
ENDBRANCH  13  14
ENDBRANCH  12  13
ENDBRANCH   1  12
TORSDOF 14
ENDMDL
