MODEL 1
REMARK VINA RESULT:    -6.138      0.000      0.000
REMARK INTER + INTRA:         -10.319
REMARK INTER:                  -9.009
REMARK INTRA:                  -1.310
REMARK UNBOUND:                -1.310
REMARK SMILES O=c1c(OC[C@H]2O[C@H](O)[C@@H](O)[C@H](O)[C@H]2O)c(-c2ccc(O)c(O)c2)oc2cc(O)cc(O)c12
REMARK SMILES IDX 4 1 3 2 16 3 25 4 2 5 26 6 1 7 33 8 27 9 31 10 28 11 30 12
REMARK SMILES IDX 17 13 18 14 19 15 20 16 24 17 22 18 21 19 23 21 32 23 29 25
REMARK SMILES IDX 5 27 6 28 14 29 7 30 12 31 8 32 10 33 15 34 13 36 9 38 11 40
REMARK H PARENT 21 20 23 22 32 24 29 26 15 35 13 37 9 39 11 41
REMARK Flexibility Score: inf
ROOT
ATOM      1  O   UNL     1      -3.316   5.519  13.997  1.00  0.00    -0.483 OA
ENDROOT
BRANCH   1   2
ATOM      2  C   UNL     1      -3.709   4.514  14.891  1.00  0.00     0.211 A 
ATOM      3  C   UNL     1      -5.056   4.110  15.021  1.00  0.00     0.180 A 
ATOM      4  O   UNL     1      -5.390   3.224  15.955  1.00  0.00    -0.452 OA
ATOM      5  C   UNL     1      -2.741   3.908  15.700  1.00  0.00     0.239 A 
ATOM      6  C   UNL     1      -4.509   2.652  16.767  1.00  0.00     0.146 A 
ATOM      7  O   UNL     1      -1.531   4.238  15.561  1.00  0.00    -0.285 OA
ATOM      8  C   UNL     1      -3.131   2.961  16.668  1.00  0.00     0.111 A 
ATOM      9  C   UNL     1      -4.956   1.731  17.719  1.00  0.00     0.094 A 
ATOM     10  C   UNL     1      -2.216   2.326  17.541  1.00  0.00     0.134 A 
ATOM     11  C   UNL     1      -4.048   1.108  18.580  1.00  0.00     0.123 A 
ATOM     12  C   UNL     1      -2.686   1.404  18.489  1.00  0.00     0.093 A 
BRANCH   3  13
ATOM     13  C   UNL     1      -6.126   4.626  14.142  1.00  0.00     0.025 A 
ATOM     14  C   UNL     1      -6.926   5.714  14.531  1.00  0.00     0.016 A 
ATOM     15  C   UNL     1      -7.923   6.197  13.681  1.00  0.00     0.051 A 
ATOM     16  C   UNL     1      -8.127   5.610  12.424  1.00  0.00     0.157 A 
ATOM     17  C   UNL     1      -6.319   4.054  12.874  1.00  0.00     0.062 A 
ATOM     18  C   UNL     1      -7.317   4.536  12.019  1.00  0.00     0.158 A 
BRANCH  16  19
ATOM     19  O   UNL     1      -9.125   6.092  11.580  1.00  0.00    -0.504 OA
ATOM     20  H   UNL     1      -9.269   7.085  11.442  1.00  0.00     0.293 HD
ENDBRANCH  16  19
BRANCH  18  21
ATOM     21  O   UNL     1      -7.490   3.933  10.773  1.00  0.00    -0.504 OA
ATOM     22  H   UNL     1      -6.706   3.624  10.212  1.00  0.00     0.293 HD
ENDBRANCH  18  21
ENDBRANCH   3  13
BRANCH  10  23
ATOM     23  O   UNL     1      -0.850   2.604  17.477  1.00  0.00    -0.507 OA
ATOM     24  H   UNL     1      -0.498   3.456  17.058  1.00  0.00     0.293 HD
ENDBRANCH  10  23
BRANCH  11  25
ATOM     25  O   UNL     1      -4.488   0.189  19.531  1.00  0.00    -0.508 OA
ATOM     26  H   UNL     1      -3.872  -0.160  20.256  1.00  0.00     0.293 HD
ENDBRANCH  11  25
ENDBRANCH   1   2
BRANCH   1  27
ATOM     27  C   UNL     1      -3.467   6.911  14.280  1.00  0.00     0.265 C 
BRANCH  27  28
ATOM     28  C   UNL     1      -3.690   7.707  12.986  1.00  0.00     0.190 C 
ATOM     29  C   UNL     1      -3.951   9.204  13.283  1.00  0.00     0.178 C 
ATOM     30  O   UNL     1      -4.774   7.135  12.270  1.00  0.00    -0.340 OA
ATOM     31  C   UNL     1      -4.219   9.972  11.971  1.00  0.00     0.179 C 
ATOM     32  C   UNL     1      -4.918   7.723  10.987  1.00  0.00     0.279 C 
ATOM     33  C   UNL     1      -5.242   9.231  11.082  1.00  0.00     0.201 C 
BRANCH  29  34
ATOM     34  O   UNL     1      -5.003   9.395  14.201  1.00  0.00    -0.387 OA
ATOM     35  H   UNL     1      -5.777   8.850  13.907  1.00  0.00     0.211 HD
ENDBRANCH  29  34
BRANCH  31  36
ATOM     36  O   UNL     1      -3.020  10.124  11.254  1.00  0.00    -0.387 OA
ATOM     37  H   UNL     1      -3.167  10.850  10.593  1.00  0.00     0.211 HD
ENDBRANCH  31  36
BRANCH  32  38
ATOM     38  O   UNL     1      -3.772   7.492  10.203  1.00  0.00    -0.366 OA
ATOM     39  H   UNL     1      -3.713   6.511  10.058  1.00  0.00     0.213 HD
ENDBRANCH  32  38
BRANCH  33  40
ATOM     40  O   UNL     1      -6.541   9.390  11.594  1.00  0.00    -0.385 OA
ATOM     41  H   UNL     1      -6.939   8.483  11.660  1.00  0.00     0.211 HD
ENDBRANCH  33  40
ENDBRANCH  27  28
ENDBRANCH   1  27
TORSDOF 12
ENDMDL
MODEL 2
REMARK VINA RESULT:    -6.088      0.722      1.764
REMARK INTER + INTRA:         -10.245
REMARK INTER:                  -8.967
REMARK INTRA:                  -1.278
REMARK UNBOUND:                -1.310
REMARK SMILES O=c1c(OC[C@H]2O[C@H](O)[C@@H](O)[C@H](O)[C@H]2O)c(-c2ccc(O)c(O)c2)oc2cc(O)cc(O)c12
REMARK SMILES IDX 4 1 3 2 16 3 25 4 2 5 26 6 1 7 33 8 27 9 31 10 28 11 30 12
REMARK SMILES IDX 17 13 18 14 19 15 20 16 24 17 22 18 21 19 23 21 32 23 29 25
REMARK SMILES IDX 5 27 6 28 14 29 7 30 12 31 8 32 10 33 15 34 13 36 9 38 11 40
REMARK H PARENT 21 20 23 22 32 24 29 26 15 35 13 37 9 39 11 41
REMARK Flexibility Score: inf
ROOT
ATOM      1  O   UNL     1      -3.363   5.354  13.977  1.00  0.00    -0.483 OA
ENDROOT
BRANCH   1   2
ATOM      2  C   UNL     1      -3.736   4.351  14.881  1.00  0.00     0.211 A 
ATOM      3  C   UNL     1      -5.068   3.893  14.986  1.00  0.00     0.180 A 
ATOM      4  O   UNL     1      -5.387   3.011  15.930  1.00  0.00    -0.452 OA
ATOM      5  C   UNL     1      -2.765   3.803  15.726  1.00  0.00     0.239 A 
ATOM      6  C   UNL     1      -4.504   2.493  16.775  1.00  0.00     0.146 A 
ATOM      7  O   UNL     1      -1.567   4.182  15.610  1.00  0.00    -0.285 OA
ATOM      8  C   UNL     1      -3.139   2.859  16.703  1.00  0.00     0.111 A 
ATOM      9  C   UNL     1      -4.936   1.573  17.734  1.00  0.00     0.094 A 
ATOM     10  C   UNL     1      -2.220   2.281  17.611  1.00  0.00     0.134 A 
ATOM     11  C   UNL     1      -4.024   1.005  18.630  1.00  0.00     0.123 A 
ATOM     12  C   UNL     1      -2.674   1.358  18.566  1.00  0.00     0.093 A 
BRANCH   3  13
ATOM     13  C   UNL     1      -6.136   4.346  14.071  1.00  0.00     0.025 A 
ATOM     14  C   UNL     1      -7.244   5.068  14.547  1.00  0.00     0.016 A 
ATOM     15  C   UNL     1      -8.237   5.500  13.664  1.00  0.00     0.051 A 
ATOM     16  C   UNL     1      -8.132   5.229  12.293  1.00  0.00     0.157 A 
ATOM     17  C   UNL     1      -6.023   4.095  12.694  1.00  0.00     0.062 A 
ATOM     18  C   UNL     1      -7.016   4.526  11.807  1.00  0.00     0.158 A 
BRANCH  16  19
ATOM     19  O   UNL     1      -9.125   5.659  11.416  1.00  0.00    -0.504 OA
ATOM     20  H   UNL     1     -10.103   5.454  11.581  1.00  0.00     0.293 HD
ENDBRANCH  16  19
BRANCH  18  21
ATOM     21  O   UNL     1      -6.878   4.246  10.447  1.00  0.00    -0.504 OA
ATOM     22  H   UNL     1      -6.306   3.480  10.112  1.00  0.00     0.293 HD
ENDBRANCH  18  21
ENDBRANCH   3  13
BRANCH  10  23
ATOM     23  O   UNL     1      -0.866   2.615  17.575  1.00  0.00    -0.507 OA
ATOM     24  H   UNL     1      -0.164   1.964  17.245  1.00  0.00     0.293 HD
ENDBRANCH  10  23
BRANCH  11  25
ATOM     25  O   UNL     1      -4.449   0.087  19.587  1.00  0.00    -0.508 OA
ATOM     26  H   UNL     1      -4.064   0.081  20.525  1.00  0.00     0.293 HD
ENDBRANCH  11  25
ENDBRANCH   1   2
BRANCH   1  27
ATOM     27  C   UNL     1      -3.006   6.676  14.388  1.00  0.00     0.265 C 
BRANCH  27  28
ATOM     28  C   UNL     1      -4.026   7.700  13.871  1.00  0.00     0.190 C 
ATOM     29  C   UNL     1      -4.578   7.293  12.482  1.00  0.00     0.178 C 
ATOM     30  O   UNL     1      -3.414   8.980  13.820  1.00  0.00    -0.340 OA
ATOM     31  C   UNL     1      -5.564   8.363  11.964  1.00  0.00     0.179 C 
ATOM     32  C   UNL     1      -4.357   9.995  13.511  1.00  0.00     0.279 C 
ATOM     33  C   UNL     1      -4.984   9.786  12.114  1.00  0.00     0.201 C 
BRANCH  29  34
ATOM     34  O   UNL     1      -3.552   7.059  11.545  1.00  0.00    -0.387 OA
ATOM     35  H   UNL     1      -3.064   7.909  11.395  1.00  0.00     0.211 HD
ENDBRANCH  29  34
BRANCH  31  36
ATOM     36  O   UNL     1      -6.771   8.285  12.680  1.00  0.00    -0.387 OA
ATOM     37  H   UNL     1      -7.500   8.203  12.011  1.00  0.00     0.211 HD
ENDBRANCH  31  36
BRANCH  32  38
ATOM     38  O   UNL     1      -5.344  10.077  14.511  1.00  0.00    -0.366 OA
ATOM     39  H   UNL     1      -5.588  11.036  14.598  1.00  0.00     0.213 HD
ENDBRANCH  32  38
BRANCH  33  40
ATOM     40  O   UNL     1      -4.007  10.023  11.132  1.00  0.00    -0.385 OA
ATOM     41  H   UNL     1      -4.273   9.505  10.328  1.00  0.00     0.211 HD
ENDBRANCH  33  40
ENDBRANCH  27  28
ENDBRANCH   1  27
TORSDOF 12
ENDMDL
MODEL 3
REMARK VINA RESULT:    -5.583     12.013     15.998
REMARK INTER + INTRA:          -9.504
REMARK INTER:                  -8.850
REMARK INTRA:                  -0.654
REMARK UNBOUND:                -1.310
REMARK SMILES O=c1c(OC[C@H]2O[C@H](O)[C@@H](O)[C@H](O)[C@H]2O)c(-c2ccc(O)c(O)c2)oc2cc(O)cc(O)c12
REMARK SMILES IDX 4 1 3 2 16 3 25 4 2 5 26 6 1 7 33 8 27 9 31 10 28 11 30 12
REMARK SMILES IDX 17 13 18 14 19 15 20 16 24 17 22 18 21 19 23 21 32 23 29 25
REMARK SMILES IDX 5 27 6 28 14 29 7 30 12 31 8 32 10 33 15 34 13 36 9 38 11 40
REMARK H PARENT 21 20 23 22 32 24 29 26 15 35 13 37 9 39 11 41
REMARK Flexibility Score: inf
ROOT
ATOM      1  O   UNL     1      -4.262  -8.469  23.212  1.00  0.00    -0.483 OA
ENDROOT
BRANCH   1   2
ATOM      2  C   UNL     1      -3.926  -7.703  24.336  1.00  0.00     0.211 A 
ATOM      3  C   UNL     1      -4.017  -6.294  24.338  1.00  0.00     0.180 A 
ATOM      4  O   UNL     1      -3.591  -5.609  25.396  1.00  0.00    -0.452 OA
ATOM      5  C   UNL     1      -3.459  -8.351  25.485  1.00  0.00     0.239 A 
ATOM      6  C   UNL     1      -3.108  -6.182  26.491  1.00  0.00     0.146 A 
ATOM      7  O   UNL     1      -3.411  -9.612  25.501  1.00  0.00    -0.285 OA
ATOM      8  C   UNL     1      -3.031  -7.592  26.592  1.00  0.00     0.111 A 
ATOM      9  C   UNL     1      -2.683  -5.377  27.552  1.00  0.00     0.094 A 
ATOM     10  C   UNL     1      -2.522  -8.173  27.778  1.00  0.00     0.134 A 
ATOM     11  C   UNL     1      -2.179  -5.956  28.721  1.00  0.00     0.123 A 
ATOM     12  C   UNL     1      -2.101  -7.347  28.831  1.00  0.00     0.093 A 
BRANCH   3  13
ATOM     13  C   UNL     1      -4.588  -5.535  23.206  1.00  0.00     0.025 A 
ATOM     14  C   UNL     1      -3.806  -5.198  22.088  1.00  0.00     0.016 A 
ATOM     15  C   UNL     1      -4.367  -4.493  21.020  1.00  0.00     0.051 A 
ATOM     16  C   UNL     1      -5.719  -4.126  21.047  1.00  0.00     0.157 A 
ATOM     17  C   UNL     1      -5.948  -5.185  23.220  1.00  0.00     0.062 A 
ATOM     18  C   UNL     1      -6.513  -4.478  22.152  1.00  0.00     0.158 A 
BRANCH  16  19
ATOM     19  O   UNL     1      -6.275  -3.420  19.983  1.00  0.00    -0.504 OA
ATOM     20  H   UNL     1      -5.696  -2.975  19.281  1.00  0.00     0.293 HD
ENDBRANCH  16  19
BRANCH  18  21
ATOM     21  O   UNL     1      -7.864  -4.134  22.208  1.00  0.00    -0.504 OA
ATOM     22  H   UNL     1      -8.263  -3.423  21.607  1.00  0.00     0.293 HD
ENDBRANCH  18  21
ENDBRANCH   3  13
BRANCH  10  23
ATOM     23  O   UNL     1      -2.428  -9.558  27.917  1.00  0.00    -0.507 OA
ATOM     24  H   UNL     1      -3.077 -10.186  27.458  1.00  0.00     0.293 HD
ENDBRANCH  10  23
BRANCH  11  25
ATOM     25  O   UNL     1      -1.755  -5.159  29.782  1.00  0.00    -0.508 OA
ATOM     26  H   UNL     1      -2.061  -4.197  29.878  1.00  0.00     0.293 HD
ENDBRANCH  11  25
ENDBRANCH   1   2
BRANCH   1  27
ATOM     27  C   UNL     1      -5.481  -9.209  23.113  1.00  0.00     0.265 C 
BRANCH  27  28
ATOM     28  C   UNL     1      -6.069  -9.100  21.700  1.00  0.00     0.190 C 
ATOM     29  C   UNL     1      -4.954  -9.074  20.626  1.00  0.00     0.178 C 
ATOM     30  O   UNL     1      -6.878  -7.935  21.622  1.00  0.00    -0.340 OA
ATOM     31  C   UNL     1      -5.570  -8.915  19.218  1.00  0.00     0.179 C 
ATOM     32  C   UNL     1      -7.582  -7.873  20.392  1.00  0.00     0.279 C 
ATOM     33  C   UNL     1      -6.620  -7.785  19.185  1.00  0.00     0.201 C 
BRANCH  29  34
ATOM     34  O   UNL     1      -3.996  -8.070  20.870  1.00  0.00    -0.387 OA
ATOM     35  H   UNL     1      -3.395  -8.012  20.085  1.00  0.00     0.211 HD
ENDBRANCH  29  34
BRANCH  31  36
ATOM     36  O   UNL     1      -6.183 -10.119  18.829  1.00  0.00    -0.387 OA
ATOM     37  H   UNL     1      -5.985 -10.787  19.537  1.00  0.00     0.211 HD
ENDBRANCH  31  36
BRANCH  32  38
ATOM     38  O   UNL     1      -8.463  -8.964  20.268  1.00  0.00    -0.366 OA
ATOM     39  H   UNL     1      -8.239  -9.601  20.997  1.00  0.00     0.213 HD
ENDBRANCH  32  38
BRANCH  33  40
ATOM     40  O   UNL     1      -5.989  -6.529  19.193  1.00  0.00    -0.385 OA
ATOM     41  H   UNL     1      -6.115  -6.147  20.101  1.00  0.00     0.211 HD
ENDBRANCH  33  40
ENDBRANCH  27  28
ENDBRANCH   1  27
TORSDOF 12
ENDMDL
MODEL 4
REMARK VINA RESULT:    -5.434      1.778      2.880
REMARK INTER + INTRA:          -9.284
REMARK INTER:                  -8.903
REMARK INTRA:                  -0.382
REMARK UNBOUND:                -1.310
REMARK SMILES O=c1c(OC[C@H]2O[C@H](O)[C@@H](O)[C@H](O)[C@H]2O)c(-c2ccc(O)c(O)c2)oc2cc(O)cc(O)c12
REMARK SMILES IDX 4 1 3 2 16 3 25 4 2 5 26 6 1 7 33 8 27 9 31 10 28 11 30 12
REMARK SMILES IDX 17 13 18 14 19 15 20 16 24 17 22 18 21 19 23 21 32 23 29 25
REMARK SMILES IDX 5 27 6 28 14 29 7 30 12 31 8 32 10 33 15 34 13 36 9 38 11 40
REMARK H PARENT 21 20 23 22 32 24 29 26 15 35 13 37 9 39 11 41
REMARK Flexibility Score: inf
ROOT
ATOM      1  O   UNL     1      -3.554   5.473  13.729  1.00  0.00    -0.483 OA
ENDROOT
BRANCH   1   2
ATOM      2  C   UNL     1      -3.937   4.449  14.605  1.00  0.00     0.211 A 
ATOM      3  C   UNL     1      -5.246   3.918  14.613  1.00  0.00     0.180 A 
ATOM      4  O   UNL     1      -5.585   3.018  15.532  1.00  0.00    -0.452 OA
ATOM      5  C   UNL     1      -3.002   3.954  15.521  1.00  0.00     0.239 A 
ATOM      6  C   UNL     1      -4.739   2.548  16.441  1.00  0.00     0.146 A 
ATOM      7  O   UNL     1      -1.822   4.398  15.493  1.00  0.00    -0.285 OA
ATOM      8  C   UNL     1      -3.395   2.989  16.469  1.00  0.00     0.111 A 
ATOM      9  C   UNL     1      -5.190   1.604  17.367  1.00  0.00     0.094 A 
ATOM     10  C   UNL     1      -2.516   2.460  17.444  1.00  0.00     0.134 A 
ATOM     11  C   UNL     1      -4.317   1.085  18.330  1.00  0.00     0.123 A 
ATOM     12  C   UNL     1      -2.988   1.512  18.365  1.00  0.00     0.093 A 
BRANCH   3  13
ATOM     13  C   UNL     1      -6.267   4.313  13.620  1.00  0.00     0.025 A 
ATOM     14  C   UNL     1      -7.601   4.538  13.999  1.00  0.00     0.016 A 
ATOM     15  C   UNL     1      -8.550   4.924  13.048  1.00  0.00     0.051 A 
ATOM     16  C   UNL     1      -8.176   5.106  11.710  1.00  0.00     0.157 A 
ATOM     17  C   UNL     1      -5.892   4.516  12.282  1.00  0.00     0.062 A 
ATOM     18  C   UNL     1      -6.839   4.904  11.327  1.00  0.00     0.158 A 
BRANCH  16  19
ATOM     19  O   UNL     1      -9.125   5.488  10.764  1.00  0.00    -0.504 OA
ATOM     20  H   UNL     1      -8.927   6.202  10.073  1.00  0.00     0.293 HD
ENDBRANCH  16  19
BRANCH  18  21
ATOM     21  O   UNL     1      -6.433   5.082  10.004  1.00  0.00    -0.504 OA
ATOM     22  H   UNL     1      -6.877   5.756   9.392  1.00  0.00     0.293 HD
ENDBRANCH  18  21
ENDBRANCH   3  13
BRANCH  10  23
ATOM     23  O   UNL     1      -1.183   2.869  17.508  1.00  0.00    -0.507 OA
ATOM     24  H   UNL     1      -0.695   3.227  16.695  1.00  0.00     0.293 HD
ENDBRANCH  10  23
BRANCH  11  25
ATOM     25  O   UNL     1      -4.760   0.143  19.255  1.00  0.00    -0.508 OA
ATOM     26  H   UNL     1      -5.526   0.341  19.889  1.00  0.00     0.293 HD
ENDBRANCH  11  25
ENDBRANCH   1   2
BRANCH   1  27
ATOM     27  C   UNL     1      -3.757   6.858  14.018  1.00  0.00     0.265 C 
BRANCH  27  28
ATOM     28  C   UNL     1      -5.011   7.055  14.882  1.00  0.00     0.190 C 
ATOM     29  C   UNL     1      -5.693   8.413  14.583  1.00  0.00     0.178 C 
ATOM     30  O   UNL     1      -4.652   6.957  16.252  1.00  0.00    -0.340 OA
ATOM     31  C   UNL     1      -6.923   8.607  15.497  1.00  0.00     0.179 C 
ATOM     32  C   UNL     1      -5.797   6.962  17.090  1.00  0.00     0.279 C 
ATOM     33  C   UNL     1      -6.589   8.283  16.969  1.00  0.00     0.201 C 
BRANCH  29  34
ATOM     34  O   UNL     1      -4.803   9.499  14.702  1.00  0.00    -0.387 OA
ATOM     35  H   UNL     1      -4.727   9.940  13.817  1.00  0.00     0.211 HD
ENDBRANCH  29  34
BRANCH  31  36
ATOM     36  O   UNL     1      -7.968   7.769  15.072  1.00  0.00    -0.387 OA
ATOM     37  H   UNL     1      -7.794   6.870  15.456  1.00  0.00     0.211 HD
ENDBRANCH  31  36
BRANCH  32  38
ATOM     38  O   UNL     1      -6.613   5.846  16.823  1.00  0.00    -0.366 OA
ATOM     39  H   UNL     1      -7.122   5.655  17.654  1.00  0.00     0.213 HD
ENDBRANCH  32  38
BRANCH  33  40
ATOM     40  O   UNL     1      -5.836   9.323  17.541  1.00  0.00    -0.385 OA
ATOM     41  H   UNL     1      -4.930   8.960  17.720  1.00  0.00     0.211 HD
ENDBRANCH  33  40
ENDBRANCH  27  28
ENDBRANCH   1  27
TORSDOF 12
ENDMDL
MODEL 5
REMARK VINA RESULT:    -5.232      2.224      3.931
REMARK INTER + INTRA:          -8.988
REMARK INTER:                  -8.295
REMARK INTRA:                  -0.692
REMARK UNBOUND:                -1.310
REMARK SMILES O=c1c(OC[C@H]2O[C@H](O)[C@@H](O)[C@H](O)[C@H]2O)c(-c2ccc(O)c(O)c2)oc2cc(O)cc(O)c12
REMARK SMILES IDX 4 1 3 2 16 3 25 4 2 5 26 6 1 7 33 8 27 9 31 10 28 11 30 12
REMARK SMILES IDX 17 13 18 14 19 15 20 16 24 17 22 18 21 19 23 21 32 23 29 25
REMARK SMILES IDX 5 27 6 28 14 29 7 30 12 31 8 32 10 33 15 34 13 36 9 38 11 40
REMARK H PARENT 21 20 23 22 32 24 29 26 15 35 13 37 9 39 11 41
REMARK Flexibility Score: inf
ROOT
ATOM      1  O   UNL     1      -3.908   7.428  13.772  1.00  0.00    -0.483 OA
ENDROOT
BRANCH   1   2
ATOM      2  C   UNL     1      -3.539   6.197  14.329  1.00  0.00     0.211 A 
ATOM      3  C   UNL     1      -4.266   5.012  14.081  1.00  0.00     0.180 A 
ATOM      4  O   UNL     1      -3.933   3.891  14.714  1.00  0.00    -0.452 OA
ATOM      5  C   UNL     1      -2.430   6.142  15.181  1.00  0.00     0.239 A 
ATOM      6  C   UNL     1      -2.911   3.804  15.557  1.00  0.00     0.146 A 
ATOM      7  O   UNL     1      -1.754   7.190  15.376  1.00  0.00    -0.285 OA
ATOM      8  C   UNL     1      -2.099   4.932  15.822  1.00  0.00     0.111 A 
ATOM      9  C   UNL     1      -2.640   2.581  16.176  1.00  0.00     0.094 A 
ATOM     10  C   UNL     1      -1.009   4.804  16.717  1.00  0.00     0.134 A 
ATOM     11  C   UNL     1      -1.563   2.460  17.061  1.00  0.00     0.123 A 
ATOM     12  C   UNL     1      -0.754   3.566  17.327  1.00  0.00     0.093 A 
BRANCH   3  13
ATOM     13  C   UNL     1      -5.390   4.959  13.122  1.00  0.00     0.025 A 
ATOM     14  C   UNL     1      -5.186   5.188  11.750  1.00  0.00     0.016 A 
ATOM     15  C   UNL     1      -6.259   5.119  10.857  1.00  0.00     0.051 A 
ATOM     16  C   UNL     1      -7.545   4.808  11.318  1.00  0.00     0.157 A 
ATOM     17  C   UNL     1      -6.675   4.627  13.577  1.00  0.00     0.062 A 
ATOM     18  C   UNL     1      -7.752   4.557  12.685  1.00  0.00     0.158 A 
BRANCH  16  19
ATOM     19  O   UNL     1      -8.613   4.744  10.425  1.00  0.00    -0.504 OA
ATOM     20  H   UNL     1      -8.680   4.010   9.730  1.00  0.00     0.293 HD
ENDBRANCH  16  19
BRANCH  18  21
ATOM     21  O   UNL     1      -9.019   4.239  13.176  1.00  0.00    -0.504 OA
ATOM     22  H   UNL     1      -9.849   4.301  12.600  1.00  0.00     0.293 HD
ENDBRANCH  18  21
ENDBRANCH   3  13
BRANCH  10  23
ATOM     23  O   UNL     1      -0.184   5.891  17.006  1.00  0.00    -0.507 OA
ATOM     24  H   UNL     1       0.070   6.131  17.957  1.00  0.00     0.293 HD
ENDBRANCH  10  23
BRANCH  11  25
ATOM     25  O   UNL     1      -1.288   1.243  17.680  1.00  0.00    -0.508 OA
ATOM     26  H   UNL     1      -2.009   0.715  18.158  1.00  0.00     0.293 HD
ENDBRANCH  11  25
ENDBRANCH   1   2
BRANCH   1  27
ATOM     27  C   UNL     1      -4.963   8.234  14.300  1.00  0.00     0.265 C 
BRANCH  27  28
ATOM     28  C   UNL     1      -5.832   7.423  15.272  1.00  0.00     0.190 C 
ATOM     29  C   UNL     1      -7.291   7.941  15.289  1.00  0.00     0.178 C 
ATOM     30  O   UNL     1      -5.256   7.480  16.568  1.00  0.00    -0.340 OA
ATOM     31  C   UNL     1      -8.131   7.141  16.308  1.00  0.00     0.179 C 
ATOM     32  C   UNL     1      -5.922   6.611  17.471  1.00  0.00     0.279 C 
ATOM     33  C   UNL     1      -7.402   7.011  17.663  1.00  0.00     0.201 C 
BRANCH  29  34
ATOM     34  O   UNL     1      -7.367   9.323  15.552  1.00  0.00    -0.387 OA
ATOM     35  H   UNL     1      -6.472   9.638  15.836  1.00  0.00     0.211 HD
ENDBRANCH  29  34
BRANCH  31  36
ATOM     36  O   UNL     1      -8.390   5.854  15.805  1.00  0.00    -0.387 OA
ATOM     37  H   UNL     1      -7.549   5.532  15.385  1.00  0.00     0.211 HD
ENDBRANCH  31  36
BRANCH  32  38
ATOM     38  O   UNL     1      -5.800   5.273  17.053  1.00  0.00    -0.366 OA
ATOM     39  H   UNL     1      -4.850   5.015  17.180  1.00  0.00     0.213 HD
ENDBRANCH  32  38
BRANCH  33  40
ATOM     40  O   UNL     1      -7.462   8.224  18.370  1.00  0.00    -0.385 OA
ATOM     41  H   UNL     1      -7.907   8.032  19.237  1.00  0.00     0.211 HD
ENDBRANCH  33  40
ENDBRANCH  27  28
ENDBRANCH   1  27
TORSDOF 12
ENDMDL
MODEL 6
REMARK VINA RESULT:    -5.119      2.205      7.224
REMARK INTER + INTRA:          -8.822
REMARK INTER:                  -8.630
REMARK INTRA:                  -0.193
REMARK UNBOUND:                -1.310
REMARK SMILES O=c1c(OC[C@H]2O[C@H](O)[C@@H](O)[C@H](O)[C@H]2O)c(-c2ccc(O)c(O)c2)oc2cc(O)cc(O)c12
REMARK SMILES IDX 4 1 3 2 16 3 25 4 2 5 26 6 1 7 33 8 27 9 31 10 28 11 30 12
REMARK SMILES IDX 17 13 18 14 19 15 20 16 24 17 22 18 21 19 23 21 32 23 29 25
REMARK SMILES IDX 5 27 6 28 14 29 7 30 12 31 8 32 10 33 15 34 13 36 9 38 11 40
REMARK H PARENT 21 20 23 22 32 24 29 26 15 35 13 37 9 39 11 41
REMARK Flexibility Score: inf
ROOT
ATOM      1  O   UNL     1      -5.729   3.916  14.218  1.00  0.00    -0.483 OA
ENDROOT
BRANCH   1   2
ATOM      2  C   UNL     1      -5.023   4.970  13.623  1.00  0.00     0.211 A 
ATOM      3  C   UNL     1      -3.751   5.376  14.083  1.00  0.00     0.180 A 
ATOM      4  O   UNL     1      -3.169   6.446  13.549  1.00  0.00    -0.452 OA
ATOM      5  C   UNL     1      -5.607   5.662  12.556  1.00  0.00     0.239 A 
ATOM      6  C   UNL     1      -3.704   7.151  12.560  1.00  0.00     0.146 A 
ATOM      7  O   UNL     1      -6.727   5.280  12.116  1.00  0.00    -0.285 OA
ATOM      8  C   UNL     1      -4.952   6.782  12.005  1.00  0.00     0.111 A 
ATOM      9  C   UNL     1      -3.016   8.262  12.065  1.00  0.00     0.094 A 
ATOM     10  C   UNL     1      -5.491   7.548  10.944  1.00  0.00     0.134 A 
ATOM     11  C   UNL     1      -3.553   9.017  11.017  1.00  0.00     0.123 A 
ATOM     12  C   UNL     1      -4.783   8.659  10.461  1.00  0.00     0.093 A 
BRANCH   3  13
ATOM     13  C   UNL     1      -3.020   4.643  15.139  1.00  0.00     0.025 A 
ATOM     14  C   UNL     1      -3.268   3.282  15.383  1.00  0.00     0.016 A 
ATOM     15  C   UNL     1      -2.557   2.603  16.376  1.00  0.00     0.051 A 
ATOM     16  C   UNL     1      -1.580   3.269  17.129  1.00  0.00     0.157 A 
ATOM     17  C   UNL     1      -2.027   5.302  15.879  1.00  0.00     0.062 A 
ATOM     18  C   UNL     1      -1.312   4.625  16.875  1.00  0.00     0.158 A 
BRANCH  16  19
ATOM     19  O   UNL     1      -0.876   2.590  18.120  1.00  0.00    -0.504 OA
ATOM     20  H   UNL     1       0.041   2.196  17.944  1.00  0.00     0.293 HD
ENDBRANCH  16  19
BRANCH  18  21
ATOM     21  O   UNL     1      -0.342   5.316  17.602  1.00  0.00    -0.504 OA
ATOM     22  H   UNL     1       0.419   4.840  18.070  1.00  0.00     0.293 HD
ENDBRANCH  18  21
ENDBRANCH   3  13
BRANCH  10  23
ATOM     23  O   UNL     1      -6.719   7.218  10.370  1.00  0.00    -0.507 OA
ATOM     24  H   UNL     1      -7.214   6.371  10.619  1.00  0.00     0.293 HD
ENDBRANCH  10  23
BRANCH  11  25
ATOM     25  O   UNL     1      -2.871  10.125  10.519  1.00  0.00    -0.508 OA
ATOM     26  H   UNL     1      -3.191  11.070  10.697  1.00  0.00     0.293 HD
ENDBRANCH  11  25
ENDBRANCH   1   2
BRANCH   1  27
ATOM     27  C   UNL     1      -6.370   4.032  15.490  1.00  0.00     0.265 C 
BRANCH  27  28
ATOM     28  C   UNL     1      -6.631   5.505  15.835  1.00  0.00     0.190 C 
ATOM     29  C   UNL     1      -5.704   5.989  16.977  1.00  0.00     0.178 C 
ATOM     30  O   UNL     1      -7.998   5.664  16.187  1.00  0.00    -0.340 OA
ATOM     31  C   UNL     1      -6.019   7.457  17.337  1.00  0.00     0.179 C 
ATOM     32  C   UNL     1      -8.335   7.033  16.352  1.00  0.00     0.279 C 
ATOM     33  C   UNL     1      -7.537   7.684  17.504  1.00  0.00     0.201 C 
BRANCH  29  34
ATOM     34  O   UNL     1      -5.781   5.164  18.117  1.00  0.00    -0.387 OA
ATOM     35  H   UNL     1      -5.622   4.227  17.838  1.00  0.00     0.211 HD
ENDBRANCH  29  34
BRANCH  31  36
ATOM     36  O   UNL     1      -5.540   8.308  16.326  1.00  0.00    -0.387 OA
ATOM     37  H   UNL     1      -5.180   7.728  15.605  1.00  0.00     0.211 HD
ENDBRANCH  31  36
BRANCH  32  38
ATOM     38  O   UNL     1      -8.162   7.736  15.145  1.00  0.00    -0.366 OA
ATOM     39  H   UNL     1      -8.641   8.600  15.242  1.00  0.00     0.213 HD
ENDBRANCH  32  38
BRANCH  33  40
ATOM     40  O   UNL     1      -7.980   7.152  18.727  1.00  0.00    -0.385 OA
ATOM     41  H   UNL     1      -7.174   6.849  19.220  1.00  0.00     0.211 HD
ENDBRANCH  33  40
ENDBRANCH  27  28
ENDBRANCH   1  27
TORSDOF 12
ENDMDL
MODEL 7
REMARK VINA RESULT:    -4.983      8.551     15.573
REMARK INTER + INTRA:          -8.623
REMARK INTER:                  -7.210
REMARK INTRA:                  -1.413
REMARK UNBOUND:                -1.310
REMARK SMILES O=c1c(OC[C@H]2O[C@H](O)[C@@H](O)[C@H](O)[C@H]2O)c(-c2ccc(O)c(O)c2)oc2cc(O)cc(O)c12
REMARK SMILES IDX 4 1 3 2 16 3 25 4 2 5 26 6 1 7 33 8 27 9 31 10 28 11 30 12
REMARK SMILES IDX 17 13 18 14 19 15 20 16 24 17 22 18 21 19 23 21 32 23 29 25
REMARK SMILES IDX 5 27 6 28 14 29 7 30 12 31 8 32 10 33 15 34 13 36 9 38 11 40
REMARK H PARENT 21 20 23 22 32 24 29 26 15 35 13 37 9 39 11 41
REMARK Flexibility Score: inf
ROOT
ATOM      1  O   UNL     1      -7.775  -5.281  22.595  1.00  0.00    -0.483 OA
ENDROOT
BRANCH   1   2
ATOM      2  C   UNL     1      -7.484  -4.481  21.482  1.00  0.00     0.211 A 
ATOM      3  C   UNL     1      -6.613  -4.909  20.456  1.00  0.00     0.180 A 
ATOM      4  O   UNL     1      -6.292  -4.072  19.474  1.00  0.00    -0.452 OA
ATOM      5  C   UNL     1      -8.054  -3.206  21.395  1.00  0.00     0.239 A 
ATOM      6  C   UNL     1      -6.782  -2.842  19.373  1.00  0.00     0.146 A 
ATOM      7  O   UNL     1      -8.863  -2.833  22.289  1.00  0.00    -0.285 OA
ATOM      8  C   UNL     1      -7.702  -2.353  20.330  1.00  0.00     0.111 A 
ATOM      9  C   UNL     1      -6.384  -2.036  18.303  1.00  0.00     0.094 A 
ATOM     10  C   UNL     1      -8.215  -1.041  20.188  1.00  0.00     0.134 A 
ATOM     11  C   UNL     1      -6.892  -0.739  18.168  1.00  0.00     0.123 A 
ATOM     12  C   UNL     1      -7.803  -0.248  19.106  1.00  0.00     0.093 A 
BRANCH   3  13
ATOM     13  C   UNL     1      -6.043  -6.273  20.419  1.00  0.00     0.025 A 
ATOM     14  C   UNL     1      -6.652  -7.294  19.670  1.00  0.00     0.016 A 
ATOM     15  C   UNL     1      -6.091  -8.574  19.635  1.00  0.00     0.051 A 
ATOM     16  C   UNL     1      -4.909  -8.847  20.336  1.00  0.00     0.157 A 
ATOM     17  C   UNL     1      -4.847  -6.544  21.102  1.00  0.00     0.062 A 
ATOM     18  C   UNL     1      -4.283  -7.825  21.069  1.00  0.00     0.158 A 
BRANCH  16  19
ATOM     19  O   UNL     1      -4.354 -10.124  20.302  1.00  0.00    -0.504 OA
ATOM     20  H   UNL     1      -4.921 -10.953  20.438  1.00  0.00     0.293 HD
ENDBRANCH  16  19
BRANCH  18  21
ATOM     21  O   UNL     1      -3.102  -8.062  21.773  1.00  0.00    -0.504 OA
ATOM     22  H   UNL     1      -2.428  -7.328  21.955  1.00  0.00     0.293 HD
ENDBRANCH  18  21
ENDBRANCH   3  13
BRANCH  10  23
ATOM     23  O   UNL     1      -9.123  -0.521  21.110  1.00  0.00    -0.507 OA
ATOM     24  H   UNL     1      -9.889  -1.074  21.476  1.00  0.00     0.293 HD
ENDBRANCH  10  23
BRANCH  11  25
ATOM     25  O   UNL     1      -6.500   0.069  17.104  1.00  0.00    -0.508 OA
ATOM     26  H   UNL     1      -7.125   0.271  16.332  1.00  0.00     0.293 HD
ENDBRANCH  11  25
ENDBRANCH   1   2
BRANCH   1  27
ATOM     27  C   UNL     1      -8.680  -6.386  22.541  1.00  0.00     0.265 C 
BRANCH  27  28
ATOM     28  C   UNL     1      -8.312  -7.442  23.593  1.00  0.00     0.190 C 
ATOM     29  C   UNL     1      -8.688  -6.970  25.020  1.00  0.00     0.178 C 
ATOM     30  O   UNL     1      -6.924  -7.725  23.500  1.00  0.00    -0.340 OA
ATOM     31  C   UNL     1      -8.264  -8.028  26.062  1.00  0.00     0.179 C 
ATOM     32  C   UNL     1      -6.559  -8.815  24.333  1.00  0.00     0.279 C 
ATOM     33  C   UNL     1      -6.814  -8.505  25.825  1.00  0.00     0.201 C 
BRANCH  29  34
ATOM     34  O   UNL     1      -8.139  -5.710  25.331  1.00  0.00    -0.387 OA
ATOM     35  H   UNL     1      -7.167  -5.822  25.491  1.00  0.00     0.211 HD
ENDBRANCH  29  34
BRANCH  31  36
ATOM     36  O   UNL     1      -9.125  -9.136  25.993  1.00  0.00    -0.387 OA
ATOM     37  H   UNL     1      -9.734  -9.080  26.776  1.00  0.00     0.211 HD
ENDBRANCH  31  36
BRANCH  32  38
ATOM     38  O   UNL     1      -7.222  -9.990  23.931  1.00  0.00    -0.366 OA
ATOM     39  H   UNL     1      -8.196  -9.821  24.027  1.00  0.00     0.213 HD
ENDBRANCH  32  38
BRANCH  33  40
ATOM     40  O   UNL     1      -5.900  -7.527  26.254  1.00  0.00    -0.385 OA
ATOM     41  H   UNL     1      -5.527  -7.103  25.437  1.00  0.00     0.211 HD
ENDBRANCH  33  40
ENDBRANCH  27  28
ENDBRANCH   1  27
TORSDOF 12
ENDMDL
MODEL 8
REMARK VINA RESULT:    -4.967     13.060     17.984
REMARK INTER + INTRA:          -8.599
REMARK INTER:                  -7.240
REMARK INTRA:                  -1.359
REMARK UNBOUND:                -1.310
REMARK SMILES O=c1c(OC[C@H]2O[C@H](O)[C@@H](O)[C@H](O)[C@H]2O)c(-c2ccc(O)c(O)c2)oc2cc(O)cc(O)c12
REMARK SMILES IDX 4 1 3 2 16 3 25 4 2 5 26 6 1 7 33 8 27 9 31 10 28 11 30 12
REMARK SMILES IDX 17 13 18 14 19 15 20 16 24 17 22 18 21 19 23 21 32 23 29 25
REMARK SMILES IDX 5 27 6 28 14 29 7 30 12 31 8 32 10 33 15 34 13 36 9 38 11 40
REMARK H PARENT 21 20 23 22 32 24 29 26 15 35 13 37 9 39 11 41
REMARK Flexibility Score: inf
ROOT
ATOM      1  O   UNL     1      -4.364  -6.682  24.589  1.00  0.00    -0.483 OA
ENDROOT
BRANCH   1   2
ATOM      2  C   UNL     1      -5.369  -6.881  23.633  1.00  0.00     0.211 A 
ATOM      3  C   UNL     1      -6.495  -7.695  23.885  1.00  0.00     0.180 A 
ATOM      4  O   UNL     1      -7.367  -7.932  22.910  1.00  0.00    -0.452 OA
ATOM      5  C   UNL     1      -5.241  -6.275  22.379  1.00  0.00     0.239 A 
ATOM      6  C   UNL     1      -7.264  -7.406  21.695  1.00  0.00     0.146 A 
ATOM      7  O   UNL     1      -4.257  -5.516  22.161  1.00  0.00    -0.285 OA
ATOM      8  C   UNL     1      -6.195  -6.537  21.375  1.00  0.00     0.111 A 
ATOM      9  C   UNL     1      -8.232  -7.715  20.735  1.00  0.00     0.094 A 
ATOM     10  C   UNL     1      -6.120  -5.984  20.074  1.00  0.00     0.134 A 
ATOM     11  C   UNL     1      -8.152  -7.167  19.450  1.00  0.00     0.123 A 
ATOM     12  C   UNL     1      -7.102  -6.306  19.124  1.00  0.00     0.093 A 
BRANCH   3  13
ATOM     13  C   UNL     1      -6.758  -8.295  25.211  1.00  0.00     0.025 A 
ATOM     14  C   UNL     1      -6.119  -9.480  25.612  1.00  0.00     0.016 A 
ATOM     15  C   UNL     1      -6.370 -10.024  26.875  1.00  0.00     0.051 A 
ATOM     16  C   UNL     1      -7.250  -9.385  27.758  1.00  0.00     0.157 A 
ATOM     17  C   UNL     1      -7.623  -7.646  26.106  1.00  0.00     0.062 A 
ATOM     18  C   UNL     1      -7.876  -8.188  27.372  1.00  0.00     0.158 A 
BRANCH  16  19
ATOM     19  O   UNL     1      -7.501  -9.932  29.015  1.00  0.00    -0.504 OA
ATOM     20  H   UNL     1      -8.437  -9.967  29.402  1.00  0.00     0.293 HD
ENDBRANCH  16  19
BRANCH  18  21
ATOM     21  O   UNL     1      -8.754  -7.524  28.229  1.00  0.00    -0.504 OA
ATOM     22  H   UNL     1      -8.475  -7.223  29.156  1.00  0.00     0.293 HD
ENDBRANCH  18  21
ENDBRANCH   3  13
BRANCH  10  23
ATOM     23  O   UNL     1      -5.081  -5.124  19.717  1.00  0.00    -0.507 OA
ATOM     24  H   UNL     1      -4.847  -4.943  18.748  1.00  0.00     0.293 HD
ENDBRANCH  10  23
BRANCH  11  25
ATOM     25  O   UNL     1      -9.114  -7.470  18.489  1.00  0.00    -0.508 OA
ATOM     26  H   UNL     1      -9.239  -8.414  18.142  1.00  0.00     0.293 HD
ENDBRANCH  11  25
ENDBRANCH   1   2
BRANCH   1  27
ATOM     27  C   UNL     1      -3.173  -7.470  24.639  1.00  0.00     0.265 C 
BRANCH  27  28
ATOM     28  C   UNL     1      -2.753  -7.731  26.092  1.00  0.00     0.190 C 
ATOM     29  C   UNL     1      -3.226  -6.591  27.028  1.00  0.00     0.178 C 
ATOM     30  O   UNL     1      -1.343  -7.884  26.149  1.00  0.00    -0.340 OA
ATOM     31  C   UNL     1      -2.751  -6.853  28.473  1.00  0.00     0.179 C 
ATOM     32  C   UNL     1      -0.917  -8.294  27.439  1.00  0.00     0.279 C 
ATOM     33  C   UNL     1      -1.257  -7.239  28.516  1.00  0.00     0.201 C 
BRANCH  29  34
ATOM     34  O   UNL     1      -2.804  -5.322  26.583  1.00  0.00    -0.387 OA
ATOM     35  H   UNL     1      -1.953  -5.097  27.038  1.00  0.00     0.211 HD
ENDBRANCH  29  34
BRANCH  31  36
ATOM     36  O   UNL     1      -3.507  -7.893  29.042  1.00  0.00    -0.387 OA
ATOM     37  H   UNL     1      -4.406  -7.521  29.242  1.00  0.00     0.211 HD
ENDBRANCH  31  36
BRANCH  32  38
ATOM     38  O   UNL     1      -1.455  -9.553  27.763  1.00  0.00    -0.366 OA
ATOM     39  H   UNL     1      -0.691 -10.183  27.845  1.00  0.00     0.213 HD
ENDBRANCH  32  38
BRANCH  33  40
ATOM     40  O   UNL     1      -0.451  -6.105  28.318  1.00  0.00    -0.385 OA
ATOM     41  H   UNL     1       0.070  -6.261  27.488  1.00  0.00     0.211 HD
ENDBRANCH  33  40
ENDBRANCH  27  28
ENDBRANCH   1  27
TORSDOF 12
ENDMDL
