MODEL 1
REMARK VINA RESULT:    10.835      0.000      0.000
REMARK INTER + INTRA:          11.758
REMARK INTER:                  11.785
REMARK INTRA:                  -0.027
REMARK UNBOUND:                -0.027
REMARK SMILES O=C([O-])c1ccc(O)cc1
REMARK SMILES IDX 4 1 5 2 10 3 6 4 9 5 7 6 2 7 1 8 3 9 8 10
REMARK H PARENT 8 11
REMARK Flexibility Score: inf
ROOT
ATOM      1  C   UNL     1      -1.375  -7.883  23.924  1.00  0.00    -0.003 A 
ATOM      2  C   UNL     1      -1.542  -9.122  24.571  1.00  0.00     0.014 A 
ATOM      3  C   UNL     1      -0.357  -7.017  24.363  1.00  0.00     0.014 A 
ATOM      4  C   UNL     1      -0.709  -9.483  25.634  1.00  0.00     0.047 A 
ATOM      5  C   UNL     1       0.474  -7.383  25.426  1.00  0.00     0.047 A 
ATOM      6  C   UNL     1       0.300  -8.617  26.064  1.00  0.00     0.115 A 
ENDROOT
BRANCH   1   7
ATOM      7  C   UNL     1      -2.253  -7.495  22.799  1.00  0.00     0.071 C 
ATOM      8  O   UNL     1      -1.876  -7.654  21.607  1.00  0.00    -0.545 OA
ATOM      9  O   UNL     1      -3.509  -6.949  23.041  1.00  0.00    -0.545 OA
ENDBRANCH   1   7
BRANCH   6  10
ATOM     10  O   UNL     1       1.122  -8.992  27.124  1.00  0.00    -0.508 OA
ATOM     11  H   UNL     1       2.089  -9.256  26.976  1.00  0.00     0.293 HD
ENDBRANCH   6  10
TORSDOF 2
ENDMDL
MODEL 2
REMARK VINA RESULT:    13.655      2.208      4.883
REMARK INTER + INTRA:          14.825
REMARK INTER:                  14.852
REMARK INTRA:                  -0.027
REMARK UNBOUND:                -0.027
REMARK SMILES O=C([O-])c1ccc(O)cc1
REMARK SMILES IDX 4 1 5 2 10 3 6 4 9 5 7 6 2 7 1 8 3 9 8 10
REMARK H PARENT 8 11
REMARK Flexibility Score: inf
ROOT
ATOM      1  C   UNL     1      -1.854  -7.994  23.053  1.00  0.00    -0.003 A 
ATOM      2  C   UNL     1      -1.222  -8.355  21.848  1.00  0.00     0.014 A 
ATOM      3  C   UNL     1      -3.048  -7.252  23.001  1.00  0.00     0.014 A 
ATOM      4  C   UNL     1      -1.774  -7.980  20.619  1.00  0.00     0.047 A 
ATOM      5  C   UNL     1      -3.596  -6.878  21.770  1.00  0.00     0.047 A 
ATOM      6  C   UNL     1      -2.960  -7.242  20.576  1.00  0.00     0.115 A 
ENDROOT
BRANCH   1   7
ATOM      7  C   UNL     1      -1.276  -8.389  24.356  1.00  0.00     0.071 C 
ATOM      8  O   UNL     1      -1.599  -9.480  24.897  1.00  0.00    -0.545 OA
ATOM      9  O   UNL     1      -0.365  -7.561  25.003  1.00  0.00    -0.545 OA
ENDBRANCH   1   7
BRANCH   6  10
ATOM     10  O   UNL     1      -3.497  -6.875  19.345  1.00  0.00    -0.508 OA
ATOM     11  H   UNL     1      -4.249  -7.404  18.916  1.00  0.00     0.293 HD
ENDBRANCH   6  10
TORSDOF 2
ENDMDL
