MODEL 1
REMARK VINA RESULT:    -5.137      0.000      0.000
REMARK INTER + INTRA:          -6.022
REMARK INTER:                  -5.887
REMARK INTRA:                  -0.135
REMARK UNBOUND:                -0.135
REMARK SMILES O=C([O-])C=Cc1ccc(O)cc1
REMARK SMILES IDX 6 1 7 2 12 3 8 4 11 5 9 6 5 7 4 8 2 9 1 10 3 11 10 12
REMARK H PARENT 10 13
REMARK Flexibility Score: inf
ROOT
ATOM      1  C   UNL     1       8.964 -18.011   7.829  1.00  0.00    -0.025 A 
ATOM      2  C   UNL     1       7.911 -17.517   8.619  1.00  0.00     0.012 A 
ATOM      3  C   UNL     1       8.747 -19.173   7.060  1.00  0.00     0.012 A 
ATOM      4  C   UNL     1       6.680 -18.178   8.659  1.00  0.00     0.047 A 
ATOM      5  C   UNL     1       7.514 -19.830   7.102  1.00  0.00     0.047 A 
ATOM      6  C   UNL     1       6.479 -19.338   7.902  1.00  0.00     0.115 A 
ENDROOT
BRANCH   1   7
ATOM      7  C   UNL     1      10.248 -17.268   7.811  1.00  0.00     0.010 C 
ATOM      8  C   UNL     1      11.334 -17.641   8.503  1.00  0.00     0.025 C 
BRANCH   8   9
ATOM      9  C   UNL     1      12.589 -16.871   8.469  1.00  0.00     0.064 C 
ATOM     10  O   UNL     1      13.507 -17.081   9.307  1.00  0.00    -0.545 OA
ATOM     11  O   UNL     1      12.764 -15.894   7.498  1.00  0.00    -0.545 OA
ENDBRANCH   8   9
ENDBRANCH   1   7
BRANCH   6  12
ATOM     12  O   UNL     1       5.258 -20.006   7.935  1.00  0.00    -0.508 OA
ATOM     13  H   UNL     1       4.456 -19.672   7.412  1.00  0.00     0.293 HD
ENDBRANCH   6  12
TORSDOF 3
ENDMDL
MODEL 2
REMARK VINA RESULT:    -5.130      0.094      1.683
REMARK INTER + INTRA:          -6.015
REMARK INTER:                  -5.876
REMARK INTRA:                  -0.139
REMARK UNBOUND:                -0.135
REMARK SMILES O=C([O-])C=Cc1ccc(O)cc1
REMARK SMILES IDX 6 1 7 2 12 3 8 4 11 5 9 6 5 7 4 8 2 9 1 10 3 11 10 12
REMARK H PARENT 10 13
REMARK Flexibility Score: inf
ROOT
ATOM      1  C   UNL     1       8.866 -17.939   7.836  1.00  0.00    -0.025 A 
ATOM      2  C   UNL     1       8.710 -19.119   7.086  1.00  0.00     0.012 A 
ATOM      3  C   UNL     1       7.791 -17.494   8.631  1.00  0.00     0.012 A 
ATOM      4  C   UNL     1       7.503 -19.823   7.110  1.00  0.00     0.047 A 
ATOM      5  C   UNL     1       6.585 -18.202   8.653  1.00  0.00     0.047 A 
ATOM      6  C   UNL     1       6.436 -19.365   7.892  1.00  0.00     0.115 A 
ENDROOT
BRANCH   1   7
ATOM      7  C   UNL     1      10.170 -17.233   7.786  1.00  0.00     0.010 C 
ATOM      8  C   UNL     1      11.257 -17.627   8.464  1.00  0.00     0.025 C 
BRANCH   8   9
ATOM      9  C   UNL     1      12.532 -16.894   8.399  1.00  0.00     0.064 C 
ATOM     10  O   UNL     1      12.754 -16.049   7.490  1.00  0.00    -0.545 OA
ATOM     11  O   UNL     1      13.509 -17.139   9.354  1.00  0.00    -0.545 OA
ENDBRANCH   8   9
ENDBRANCH   1   7
BRANCH   6  12
ATOM     12  O   UNL     1       5.228 -20.058   7.923  1.00  0.00    -0.508 OA
ATOM     13  H   UNL     1       4.359 -19.597   8.167  1.00  0.00     0.293 HD
ENDBRANCH   6  12
TORSDOF 3
ENDMDL
MODEL 3
REMARK VINA RESULT:    -4.113      1.192      5.821
REMARK INTER + INTRA:          -4.849
REMARK INTER:                  -4.701
REMARK INTRA:                  -0.148
REMARK UNBOUND:                -0.135
REMARK SMILES O=C([O-])C=Cc1ccc(O)cc1
REMARK SMILES IDX 6 1 7 2 12 3 8 4 11 5 9 6 5 7 4 8 2 9 1 10 3 11 10 12
REMARK H PARENT 10 13
REMARK Flexibility Score: inf
ROOT
ATOM      1  C   UNL     1       9.256 -18.931   8.202  1.00  0.00    -0.025 A 
ATOM      2  C   UNL     1       9.232 -17.661   7.599  1.00  0.00     0.012 A 
ATOM      3  C   UNL     1      10.493 -19.454   8.632  1.00  0.00     0.012 A 
ATOM      4  C   UNL     1      10.415 -16.941   7.407  1.00  0.00     0.047 A 
ATOM      5  C   UNL     1      11.674 -18.730   8.438  1.00  0.00     0.047 A 
ATOM      6  C   UNL     1      11.640 -17.476   7.824  1.00  0.00     0.115 A 
ENDROOT
BRANCH   1   7
ATOM      7  C   UNL     1       7.973 -19.650   8.394  1.00  0.00     0.010 C 
ATOM      8  C   UNL     1       6.786 -19.039   8.509  1.00  0.00     0.025 C 
BRANCH   8   9
ATOM      9  C   UNL     1       5.534 -19.787   8.710  1.00  0.00     0.064 C 
ATOM     10  O   UNL     1       4.811 -20.125   7.735  1.00  0.00    -0.545 OA
ATOM     11  O   UNL     1       5.140 -20.125   9.998  1.00  0.00    -0.545 OA
ENDBRANCH   8   9
ENDBRANCH   1   7
BRANCH   6  12
ATOM     12  O   UNL     1      12.825 -16.768   7.637  1.00  0.00    -0.508 OA
ATOM     13  H   UNL     1      13.327 -16.360   8.417  1.00  0.00     0.293 HD
ENDBRANCH   6  12
TORSDOF 3
ENDMDL
MODEL 4
REMARK VINA RESULT:    -4.013      1.265      5.882
REMARK INTER + INTRA:          -4.734
REMARK INTER:                  -4.586
REMARK INTRA:                  -0.148
REMARK UNBOUND:                -0.135
REMARK SMILES O=C([O-])C=Cc1ccc(O)cc1
REMARK SMILES IDX 6 1 7 2 12 3 8 4 11 5 9 6 5 7 4 8 2 9 1 10 3 11 10 12
REMARK H PARENT 10 13
REMARK Flexibility Score: inf
ROOT
ATOM      1  C   UNL     1      10.737 -17.870   8.302  1.00  0.00    -0.025 A 
ATOM      2  C   UNL     1      10.870 -16.902   7.291  1.00  0.00     0.012 A 
ATOM      3  C   UNL     1      11.793 -18.039   9.222  1.00  0.00     0.012 A 
ATOM      4  C   UNL     1      12.037 -16.140   7.183  1.00  0.00     0.047 A 
ATOM      5  C   UNL     1      12.958 -17.275   9.111  1.00  0.00     0.047 A 
ATOM      6  C   UNL     1      13.086 -16.327   8.093  1.00  0.00     0.115 A 
ENDROOT
BRANCH   1   7
ATOM      7  C   UNL     1       9.475 -18.645   8.382  1.00  0.00     0.010 C 
ATOM      8  C   UNL     1       8.290 -18.185   7.957  1.00  0.00     0.025 C 
BRANCH   8   9
ATOM      9  C   UNL     1       7.055 -18.980   8.062  1.00  0.00     0.064 C 
ATOM     10  O   UNL     1       6.135 -18.656   8.859  1.00  0.00    -0.545 OA
ATOM     11  O   UNL     1       6.902 -20.111   7.270  1.00  0.00    -0.545 OA
ENDBRANCH   8   9
ENDBRANCH   1   7
BRANCH   6  12
ATOM     12  O   UNL     1      14.254 -15.574   7.995  1.00  0.00    -0.508 OA
ATOM     13  H   UNL     1      14.447 -14.999   7.183  1.00  0.00     0.293 HD
ENDBRANCH   6  12
TORSDOF 3
ENDMDL
MODEL 5
REMARK VINA RESULT:    -3.200      1.900      2.448
REMARK INTER + INTRA:          -3.802
REMARK INTER:                  -3.664
REMARK INTRA:                  -0.138
REMARK UNBOUND:                -0.135
REMARK SMILES O=C([O-])C=Cc1ccc(O)cc1
REMARK SMILES IDX 6 1 7 2 12 3 8 4 11 5 9 6 5 7 4 8 2 9 1 10 3 11 10 12
REMARK H PARENT 10 13
REMARK Flexibility Score: inf
ROOT
ATOM      1  C   UNL     1       7.672 -19.660   8.439  1.00  0.00    -0.025 A 
ATOM      2  C   UNL     1       7.451 -19.970   9.792  1.00  0.00     0.012 A 
ATOM      3  C   UNL     1       6.558 -19.482   7.593  1.00  0.00     0.012 A 
ATOM      4  C   UNL     1       6.152 -20.125  10.285  1.00  0.00     0.047 A 
ATOM      5  C   UNL     1       5.260 -19.637   8.090  1.00  0.00     0.047 A 
ATOM      6  C   UNL     1       5.053 -19.960   9.433  1.00  0.00     0.115 A 
ENDROOT
BRANCH   1   7
ATOM      7  C   UNL     1       9.069 -19.496   7.966  1.00  0.00     0.010 C 
ATOM      8  C   UNL     1       9.769 -18.360   8.091  1.00  0.00     0.025 C 
BRANCH   8   9
ATOM      9  C   UNL     1      11.151 -18.231   7.600  1.00  0.00     0.064 C 
ATOM     10  O   UNL     1      11.635 -19.062   6.785  1.00  0.00    -0.545 OA
ATOM     11  O   UNL     1      11.937 -17.176   8.043  1.00  0.00    -0.545 OA
ENDBRANCH   8   9
ENDBRANCH   1   7
BRANCH   6  12
ATOM     12  O   UNL     1       3.754 -20.112   9.913  1.00  0.00    -0.508 OA
ATOM     13  H   UNL     1       3.532 -19.977  10.892  1.00  0.00     0.293 HD
ENDBRANCH   6  12
TORSDOF 3
ENDMDL
