MODEL 1
REMARK VINA RESULT:    -1.616      0.000      0.000
REMARK INTER + INTRA:          -3.826
REMARK INTER:                  -3.032
REMARK INTRA:                  -0.794
REMARK UNBOUND:                -0.794
REMARK SMILES O=C([O-])CCCCCCCCCCCCCCC(=O)[O-]
REMARK SMILES IDX 10 1 9 2 8 3 7 4 6 5 5 6 4 7 2 8 1 9 3 10 11 11 12 12 13 13
REMARK SMILES IDX 14 14 15 15 16 16 17 17 18 18 19 19 20 20
REMARK H PARENT
REMARK Flexibility Score: inf
ROOT
ATOM      1  C   UNL     1      -5.627 -22.632  18.124  1.00  0.00     0.000 C 
ENDROOT
BRANCH   1   2
ATOM      2  C   UNL     1      -7.090 -22.841  18.550  1.00  0.00     0.000 C 
BRANCH   2   3
ATOM      3  C   UNL     1      -7.304 -23.115  20.052  1.00  0.00     0.000 C 
BRANCH   3   4
ATOM      4  C   UNL     1      -8.493 -22.373  20.690  1.00  0.00     0.000 C 
BRANCH   4   5
ATOM      5  C   UNL     1      -9.837 -23.081  20.446  1.00  0.00     0.000 C 
BRANCH   5   6
ATOM      6  C   UNL     1     -10.944 -22.587  21.400  1.00  0.00     0.006 C 
BRANCH   6   7
ATOM      7  C   UNL     1     -10.426 -21.669  22.518  1.00  0.00     0.053 C 
BRANCH   7   8
ATOM      8  C   UNL     1      -9.902 -22.437  23.691  1.00  0.00     0.041 C 
ATOM      9  O   UNL     1     -10.687 -23.106  24.413  1.00  0.00    -0.550 OA
ATOM     10  O   UNL     1      -8.547 -22.395  24.000  1.00  0.00    -0.550 OA
ENDBRANCH   7   8
ENDBRANCH   6   7
ENDBRANCH   5   6
ENDBRANCH   4   5
ENDBRANCH   3   4
ENDBRANCH   2   3
ENDBRANCH   1   2
BRANCH   1  11
ATOM     11  C   UNL     1      -5.395 -22.903  16.629  1.00  0.00     0.000 C 
BRANCH  11  12
ATOM     12  C   UNL     1      -5.062 -21.604  15.882  1.00  0.00     0.000 C 
BRANCH  12  13
ATOM     13  C   UNL     1      -6.222 -21.118  14.999  1.00  0.00     0.000 C 
BRANCH  13  14
ATOM     14  C   UNL     1      -7.575 -21.722  15.411  1.00  0.00     0.000 C 
BRANCH  14  15
ATOM     15  C   UNL     1      -8.764 -20.935  14.821  1.00  0.00     0.000 C 
BRANCH  15  16
ATOM     16  C   UNL     1     -10.121 -21.284  15.458  1.00  0.00     0.006 C 
BRANCH  16  17
ATOM     17  C   UNL     1     -10.073 -21.453  16.988  1.00  0.00     0.053 C 
BRANCH  17  18
ATOM     18  C   UNL     1     -10.528 -20.226  17.724  1.00  0.00     0.041 C 
ATOM     19  O   UNL     1     -10.466 -20.178  18.981  1.00  0.00    -0.550 OA
ATOM     20  O   UNL     1     -10.962 -19.112  17.016  1.00  0.00    -0.550 OA
ENDBRANCH  17  18
ENDBRANCH  16  17
ENDBRANCH  15  16
ENDBRANCH  14  15
ENDBRANCH  13  14
ENDBRANCH  12  13
ENDBRANCH  11  12
ENDBRANCH   1  11
TORSDOF 15
ENDMDL
MODEL 2
REMARK VINA RESULT:    -1.477      1.353      2.117
REMARK INTER + INTRA:          -3.566
REMARK INTER:                  -2.750
REMARK INTRA:                  -0.816
REMARK UNBOUND:                -0.794
REMARK SMILES O=C([O-])CCCCCCCCCCCCCCC(=O)[O-]
REMARK SMILES IDX 10 1 9 2 8 3 7 4 6 5 5 6 4 7 2 8 1 9 3 10 11 11 12 12 13 13
REMARK SMILES IDX 14 14 15 15 16 16 17 17 18 18 19 19 20 20
REMARK H PARENT
REMARK Flexibility Score: inf
ROOT
ATOM      1  C   UNL     1      -7.615 -22.088  18.268  1.00  0.00     0.000 C 
ENDROOT
BRANCH   1   2
ATOM      2  C   UNL     1      -8.844 -22.897  18.717  1.00  0.00     0.000 C 
BRANCH   2   3
ATOM      3  C   UNL     1      -9.189 -22.788  20.216  1.00  0.00     0.000 C 
BRANCH   3   4
ATOM      4  C   UNL     1      -8.036 -23.125  21.179  1.00  0.00     0.000 C 
BRANCH   4   5
ATOM      5  C   UNL     1      -7.566 -21.909  21.996  1.00  0.00     0.000 C 
BRANCH   5   6
ATOM      6  C   UNL     1      -8.152 -21.896  23.423  1.00  0.00     0.006 C 
BRANCH   6   7
ATOM      7  C   UNL     1      -9.019 -23.125  23.742  1.00  0.00     0.053 C 
BRANCH   7   8
ATOM      8  C   UNL     1     -10.476 -22.793  23.811  1.00  0.00     0.041 C 
ATOM      9  O   UNL     1     -11.124 -22.560  22.757  1.00  0.00    -0.550 OA
ATOM     10  O   UNL     1     -11.116 -22.718  25.043  1.00  0.00    -0.550 OA
ENDBRANCH   7   8
ENDBRANCH   6   7
ENDBRANCH   5   6
ENDBRANCH   4   5
ENDBRANCH   3   4
ENDBRANCH   2   3
ENDBRANCH   1   2
BRANCH   1  11
ATOM     11  C   UNL     1      -6.408 -22.975  17.926  1.00  0.00     0.000 C 
BRANCH  11  12
ATOM     12  C   UNL     1      -5.987 -22.785  16.461  1.00  0.00     0.000 C 
BRANCH  12  13
ATOM     13  C   UNL     1      -5.808 -21.306  16.086  1.00  0.00     0.000 C 
BRANCH  13  14
ATOM     14  C   UNL     1      -6.651 -20.897  14.865  1.00  0.00     0.000 C 
BRANCH  14  15
ATOM     15  C   UNL     1      -8.089 -21.451  14.944  1.00  0.00     0.000 C 
BRANCH  15  16
ATOM     16  C   UNL     1      -9.063 -20.801  13.945  1.00  0.00     0.006 C 
BRANCH  16  17
ATOM     17  C   UNL     1     -10.526 -20.763  14.426  1.00  0.00     0.053 C 
BRANCH  17  18
ATOM     18  C   UNL     1     -10.657 -20.976  15.905  1.00  0.00     0.041 C 
ATOM     19  O   UNL     1     -10.423 -20.034  16.708  1.00  0.00    -0.550 OA
ATOM     20  O   UNL     1     -11.101 -22.198  16.395  1.00  0.00    -0.550 OA
ENDBRANCH  17  18
ENDBRANCH  16  17
ENDBRANCH  15  16
ENDBRANCH  14  15
ENDBRANCH  13  14
ENDBRANCH  12  13
ENDBRANCH  11  12
ENDBRANCH   1  11
TORSDOF 15
ENDMDL
MODEL 3
REMARK VINA RESULT:    -1.333      2.327      5.736
REMARK INTER + INTRA:          -3.295
REMARK INTER:                  -2.760
REMARK INTRA:                  -0.535
REMARK UNBOUND:                -0.794
REMARK SMILES O=C([O-])CCCCCCCCCCCCCCC(=O)[O-]
REMARK SMILES IDX 10 1 9 2 8 3 7 4 6 5 5 6 4 7 2 8 1 9 3 10 11 11 12 12 13 13
REMARK SMILES IDX 14 14 15 15 16 16 17 17 18 18 19 19 20 20
REMARK H PARENT
REMARK Flexibility Score: inf
ROOT
ATOM      1  C   UNL     1      -5.106 -22.547  18.186  1.00  0.00     0.000 C 
ENDROOT
BRANCH   1   2
ATOM      2  C   UNL     1      -4.530 -22.858  16.794  1.00  0.00     0.000 C 
BRANCH   2   3
ATOM      3  C   UNL     1      -4.236 -21.625  15.914  1.00  0.00     0.000 C 
BRANCH   3   4
ATOM      4  C   UNL     1      -5.458 -21.038  15.183  1.00  0.00     0.000 C 
BRANCH   4   5
ATOM      5  C   UNL     1      -6.737 -21.864  15.401  1.00  0.00     0.000 C 
BRANCH   5   6
ATOM      6  C   UNL     1      -8.018 -21.041  15.151  1.00  0.00     0.006 C 
BRANCH   6   7
ATOM      7  C   UNL     1      -9.027 -21.108  16.309  1.00  0.00     0.053 C 
BRANCH   7   8
ATOM      8  C   UNL     1     -10.428 -21.330  15.833  1.00  0.00     0.041 C 
ATOM      9  O   UNL     1     -11.125 -22.256  16.325  1.00  0.00    -0.550 OA
ATOM     10  O   UNL     1     -10.957 -20.527  14.829  1.00  0.00    -0.550 OA
ENDBRANCH   7   8
ENDBRANCH   6   7
ENDBRANCH   5   6
ENDBRANCH   4   5
ENDBRANCH   3   4
ENDBRANCH   2   3
ENDBRANCH   1   2
BRANCH   1  11
ATOM     11  C   UNL     1      -6.593 -22.910  18.312  1.00  0.00     0.000 C 
BRANCH  11  12
ATOM     12  C   UNL     1      -6.991 -23.082  19.785  1.00  0.00     0.000 C 
BRANCH  12  13
ATOM     13  C   UNL     1      -8.353 -22.445  20.106  1.00  0.00     0.000 C 
BRANCH  13  14
ATOM     14  C   UNL     1      -8.995 -23.027  21.377  1.00  0.00     0.000 C 
BRANCH  14  15
ATOM     15  C   UNL     1      -9.574 -21.925  22.289  1.00  0.00     0.000 C 
BRANCH  15  16
ATOM     16  C   UNL     1      -9.690 -20.549  21.608  1.00  0.00     0.006 C 
BRANCH  16  17
ATOM     17  C   UNL     1     -11.079 -20.259  21.007  1.00  0.00     0.053 C 
BRANCH  17  18
ATOM     18  C   UNL     1     -11.018 -19.352  19.813  1.00  0.00     0.041 C 
ATOM     19  O   UNL     1     -11.105 -19.825  18.648  1.00  0.00    -0.550 OA
ATOM     20  O   UNL     1     -10.928 -17.977  19.988  1.00  0.00    -0.550 OA
ENDBRANCH  17  18
ENDBRANCH  16  17
ENDBRANCH  15  16
ENDBRANCH  14  15
ENDBRANCH  13  14
ENDBRANCH  12  13
ENDBRANCH  11  12
ENDBRANCH   1  11
TORSDOF 15
ENDMDL
MODEL 4
REMARK VINA RESULT:    -1.104      1.954      2.701
REMARK INTER + INTRA:          -2.865
REMARK INTER:                  -2.217
REMARK INTRA:                  -0.648
REMARK UNBOUND:                -0.794
REMARK SMILES O=C([O-])CCCCCCCCCCCCCCC(=O)[O-]
REMARK SMILES IDX 10 1 9 2 8 3 7 4 6 5 5 6 4 7 2 8 1 9 3 10 11 11 12 12 13 13
REMARK SMILES IDX 14 14 15 15 16 16 17 17 18 18 19 19 20 20
REMARK H PARENT
REMARK Flexibility Score: inf
ROOT
ATOM      1  C   UNL     1      -7.075 -22.420  17.898  1.00  0.00     0.000 C 
ENDROOT
BRANCH   1   2
ATOM      2  C   UNL     1      -8.071 -23.040  18.893  1.00  0.00     0.000 C 
BRANCH   2   3
ATOM      3  C   UNL     1      -7.637 -22.994  20.372  1.00  0.00     0.000 C 
BRANCH   3   4
ATOM      4  C   UNL     1      -8.790 -22.936  21.391  1.00  0.00     0.000 C 
BRANCH   4   5
ATOM      5  C   UNL     1      -8.534 -21.928  22.524  1.00  0.00     0.000 C 
BRANCH   5   6
ATOM      6  C   UNL     1      -9.732 -20.983  22.752  1.00  0.00     0.006 C 
BRANCH   6   7
ATOM      7  C   UNL     1     -10.866 -21.171  21.732  1.00  0.00     0.053 C 
BRANCH   7   8
ATOM      8  C   UNL     1     -10.603 -20.454  20.446  1.00  0.00     0.041 C 
ATOM      9  O   UNL     1      -9.994 -19.352  20.448  1.00  0.00    -0.550 OA
ATOM     10  O   UNL     1     -11.050 -20.992  19.245  1.00  0.00    -0.550 OA
ENDBRANCH   7   8
ENDBRANCH   6   7
ENDBRANCH   5   6
ENDBRANCH   4   5
ENDBRANCH   3   4
ENDBRANCH   2   3
ENDBRANCH   1   2
BRANCH   1  11
ATOM     11  C   UNL     1      -5.707 -23.119  17.907  1.00  0.00     0.000 C 
BRANCH  11  12
ATOM     12  C   UNL     1      -4.884 -22.728  16.671  1.00  0.00     0.000 C 
BRANCH  12  13
ATOM     13  C   UNL     1      -4.969 -21.227  16.356  1.00  0.00     0.000 C 
BRANCH  13  14
ATOM     14  C   UNL     1      -5.368 -20.948  14.897  1.00  0.00     0.000 C 
BRANCH  14  15
ATOM     15  C   UNL     1      -6.744 -20.257  14.795  1.00  0.00     0.000 C 
BRANCH  15  16
ATOM     16  C   UNL     1      -7.898 -21.074  15.403  1.00  0.00     0.006 C 
BRANCH  16  17
ATOM     17  C   UNL     1      -9.248 -20.887  14.686  1.00  0.00     0.053 C 
BRANCH  17  18
ATOM     18  C   UNL     1     -10.403 -20.780  15.639  1.00  0.00     0.041 C 
ATOM     19  O   UNL     1     -10.761 -19.657  16.083  1.00  0.00    -0.550 OA
ATOM     20  O   UNL     1     -11.125 -21.915  15.987  1.00  0.00    -0.550 OA
ENDBRANCH  17  18
ENDBRANCH  16  17
ENDBRANCH  15  16
ENDBRANCH  14  15
ENDBRANCH  13  14
ENDBRANCH  12  13
ENDBRANCH  11  12
ENDBRANCH   1  11
TORSDOF 15
ENDMDL
MODEL 5
REMARK VINA RESULT:    -0.980     13.588     16.888
REMARK INTER + INTRA:          -2.633
REMARK INTER:                  -1.493
REMARK INTRA:                  -1.140
REMARK UNBOUND:                -0.794
REMARK SMILES O=C([O-])CCCCCCCCCCCCCCC(=O)[O-]
REMARK SMILES IDX 10 1 9 2 8 3 7 4 6 5 5 6 4 7 2 8 1 9 3 10 11 11 12 12 13 13
REMARK SMILES IDX 14 14 15 15 16 16 17 17 18 18 19 19 20 20
REMARK H PARENT
REMARK Flexibility Score: inf
ROOT
ATOM      1  C   UNL     1       2.642 -21.569  16.730  1.00  0.00     0.000 C 
ENDROOT
BRANCH   1   2
ATOM      2  C   UNL     1       2.714 -22.901  15.964  1.00  0.00     0.000 C 
BRANCH   2   3
ATOM      3  C   UNL     1       2.177 -22.858  14.519  1.00  0.00     0.000 C 
BRANCH   3   4
ATOM      4  C   UNL     1       3.232 -23.091  13.422  1.00  0.00     0.000 C 
BRANCH   4   5
ATOM      5  C   UNL     1       4.666 -22.815  13.905  1.00  0.00     0.000 C 
BRANCH   5   6
ATOM      6  C   UNL     1       5.587 -22.330  12.767  1.00  0.00     0.006 C 
BRANCH   6   7
ATOM      7  C   UNL     1       6.898 -23.125  12.656  1.00  0.00     0.053 C 
BRANCH   7   8
ATOM      8  C   UNL     1       7.570 -22.937  11.332  1.00  0.00     0.041 C 
ATOM      9  O   UNL     1       6.883 -22.734  10.297  1.00  0.00    -0.550 OA
ATOM     10  O   UNL     1       8.955 -23.009  11.238  1.00  0.00    -0.550 OA
ENDBRANCH   7   8
ENDBRANCH   6   7
ENDBRANCH   5   6
ENDBRANCH   4   5
ENDBRANCH   3   4
ENDBRANCH   2   3
ENDBRANCH   1   2
BRANCH   1  11
ATOM     11  C   UNL     1       4.027 -21.010  17.090  1.00  0.00     0.000 C 
BRANCH  11  12
ATOM     12  C   UNL     1       5.074 -22.132  17.139  1.00  0.00     0.000 C 
BRANCH  12  13
ATOM     13  C   UNL     1       6.346 -21.719  17.896  1.00  0.00     0.000 C 
BRANCH  13  14
ATOM     14  C   UNL     1       7.463 -22.772  17.798  1.00  0.00     0.000 C 
BRANCH  14  15
ATOM     15  C   UNL     1       7.853 -23.068  16.334  1.00  0.00     0.000 C 
BRANCH  15  16
ATOM     16  C   UNL     1       9.122 -22.333  15.866  1.00  0.00     0.006 C 
BRANCH  16  17
ATOM     17  C   UNL     1       9.094 -21.908  14.386  1.00  0.00     0.053 C 
BRANCH  17  18
ATOM     18  C   UNL     1       8.690 -20.474  14.200  1.00  0.00     0.041 C 
ATOM     19  O   UNL     1       8.388 -19.763  15.195  1.00  0.00    -0.550 OA
ATOM     20  O   UNL     1       8.709 -19.905  12.932  1.00  0.00    -0.550 OA
ENDBRANCH  17  18
ENDBRANCH  16  17
ENDBRANCH  15  16
ENDBRANCH  14  15
ENDBRANCH  13  14
ENDBRANCH  12  13
ENDBRANCH  11  12
ENDBRANCH   1  11
TORSDOF 15
ENDMDL
MODEL 6
REMARK VINA RESULT:    -0.949      1.547      5.302
REMARK INTER + INTRA:          -2.576
REMARK INTER:                  -2.591
REMARK INTRA:                   0.016
REMARK UNBOUND:                -0.794
REMARK SMILES O=C([O-])CCCCCCCCCCCCCCC(=O)[O-]
REMARK SMILES IDX 10 1 9 2 8 3 7 4 6 5 5 6 4 7 2 8 1 9 3 10 11 11 12 12 13 13
REMARK SMILES IDX 14 14 15 15 16 16 17 17 18 18 19 19 20 20
REMARK H PARENT
REMARK Flexibility Score: inf
ROOT
ATOM      1  C   UNL     1      -5.465 -20.909  15.393  1.00  0.00     0.000 C 
ENDROOT
BRANCH   1   2
ATOM      2  C   UNL     1      -6.813 -20.472  14.795  1.00  0.00     0.000 C 
BRANCH   2   3
ATOM      3  C   UNL     1      -7.789 -21.619  14.467  1.00  0.00     0.000 C 
BRANCH   3   4
ATOM      4  C   UNL     1      -9.195 -21.175  14.023  1.00  0.00     0.000 C 
BRANCH   4   5
ATOM      5  C   UNL     1      -9.736 -19.995  14.848  1.00  0.00     0.000 C 
BRANCH   5   6
ATOM      6  C   UNL     1     -10.970 -20.382  15.688  1.00  0.00     0.006 C 
BRANCH   6   7
ATOM      7  C   UNL     1     -11.117 -19.561  16.979  1.00  0.00     0.053 C 
BRANCH   7   8
ATOM      8  C   UNL     1     -10.913 -20.389  18.209  1.00  0.00     0.041 C 
ATOM      9  O   UNL     1     -11.102 -21.633  18.173  1.00  0.00    -0.550 OA
ATOM     10  O   UNL     1     -10.536 -19.783  19.402  1.00  0.00    -0.550 OA
ENDBRANCH   7   8
ENDBRANCH   6   7
ENDBRANCH   5   6
ENDBRANCH   4   5
ENDBRANCH   3   4
ENDBRANCH   2   3
ENDBRANCH   1   2
BRANCH   1  11
ATOM     11  C   UNL     1      -5.613 -21.627  16.743  1.00  0.00     0.000 C 
BRANCH  11  12
ATOM     12  C   UNL     1      -6.739 -22.670  16.687  1.00  0.00     0.000 C 
BRANCH  12  13
ATOM     13  C   UNL     1      -7.765 -22.492  17.817  1.00  0.00     0.000 C 
BRANCH  13  14
ATOM     14  C   UNL     1      -7.303 -23.121  19.142  1.00  0.00     0.000 C 
BRANCH  14  15
ATOM     15  C   UNL     1      -8.111 -22.591  20.346  1.00  0.00     0.000 C 
BRANCH  15  16
ATOM     16  C   UNL     1      -7.521 -22.981  21.713  1.00  0.00     0.006 C 
BRANCH  16  17
ATOM     17  C   UNL     1      -8.306 -22.427  22.918  1.00  0.00     0.053 C 
BRANCH  17  18
ATOM     18  C   UNL     1      -9.384 -21.463  22.517  1.00  0.00     0.041 C 
ATOM     19  O   UNL     1      -9.186 -20.221  22.588  1.00  0.00    -0.550 OA
ATOM     20  O   UNL     1     -10.585 -21.937  22.004  1.00  0.00    -0.550 OA
ENDBRANCH  17  18
ENDBRANCH  16  17
ENDBRANCH  15  16
ENDBRANCH  14  15
ENDBRANCH  13  14
ENDBRANCH  12  13
ENDBRANCH  11  12
ENDBRANCH   1  11
TORSDOF 15
ENDMDL
MODEL 7
REMARK VINA RESULT:    -0.799     13.757     16.571
REMARK INTER + INTRA:          -2.294
REMARK INTER:                  -4.095
REMARK INTRA:                   1.802
REMARK UNBOUND:                -0.794
REMARK SMILES O=C([O-])CCCCCCCCCCCCCCC(=O)[O-]
REMARK SMILES IDX 10 1 9 2 8 3 7 4 6 5 5 6 4 7 2 8 1 9 3 10 11 11 12 12 13 13
REMARK SMILES IDX 14 14 15 15 16 16 17 17 18 18 19 19 20 20
REMARK H PARENT
REMARK Flexibility Score: inf
ROOT
ATOM      1  C   UNL     1       4.241 -22.198  13.682  1.00  0.00     0.000 C 
ENDROOT
BRANCH   1   2
ATOM      2  C   UNL     1       2.912 -22.939  13.903  1.00  0.00     0.000 C 
BRANCH   2   3
ATOM      3  C   UNL     1       2.125 -22.517  15.160  1.00  0.00     0.000 C 
BRANCH   3   4
ATOM      4  C   UNL     1       2.921 -22.565  16.477  1.00  0.00     0.000 C 
BRANCH   4   5
ATOM      5  C   UNL     1       4.420 -22.835  16.258  1.00  0.00     0.000 C 
BRANCH   5   6
ATOM      6  C   UNL     1       5.314 -21.934  17.135  1.00  0.00     0.006 C 
BRANCH   6   7
ATOM      7  C   UNL     1       6.628 -22.605  17.565  1.00  0.00     0.053 C 
BRANCH   7   8
ATOM      8  C   UNL     1       7.822 -22.008  16.890  1.00  0.00     0.041 C 
ATOM      9  O   UNL     1       7.706 -20.951  16.217  1.00  0.00    -0.550 OA
ATOM     10  O   UNL     1       9.061 -22.632  16.986  1.00  0.00    -0.550 OA
ENDBRANCH   7   8
ENDBRANCH   6   7
ENDBRANCH   5   6
ENDBRANCH   4   5
ENDBRANCH   3   4
ENDBRANCH   2   3
ENDBRANCH   1   2
BRANCH   1  11
ATOM     11  C   UNL     1       5.466 -23.119  13.794  1.00  0.00     0.000 C 
BRANCH  11  12
ATOM     12  C   UNL     1       6.674 -22.515  13.065  1.00  0.00     0.000 C 
BRANCH  12  13
ATOM     13  C   UNL     1       6.816 -23.035  11.627  1.00  0.00     0.000 C 
BRANCH  13  14
ATOM     14  C   UNL     1       8.282 -23.123  11.170  1.00  0.00     0.000 C 
BRANCH  14  15
ATOM     15  C   UNL     1       8.656 -21.983  10.200  1.00  0.00     0.000 C 
BRANCH  15  16
ATOM     16  C   UNL     1       9.122 -20.694  10.902  1.00  0.00     0.006 C 
BRANCH  16  17
ATOM     17  C   UNL     1       8.245 -20.276  12.097  1.00  0.00     0.053 C 
BRANCH  17  18
ATOM     18  C   UNL     1       8.825 -19.128  12.870  1.00  0.00     0.041 C 
ATOM     19  O   UNL     1       9.125 -19.265  14.086  1.00  0.00    -0.550 OA
ATOM     20  O   UNL     1       9.092 -17.924  12.231  1.00  0.00    -0.550 OA
ENDBRANCH  17  18
ENDBRANCH  16  17
ENDBRANCH  15  16
ENDBRANCH  14  15
ENDBRANCH  13  14
ENDBRANCH  12  13
ENDBRANCH  11  12
ENDBRANCH   1  11
TORSDOF 15
ENDMDL
MODEL 8
REMARK VINA RESULT:    -0.786      1.572      5.879
REMARK INTER + INTRA:          -2.269
REMARK INTER:                  -1.654
REMARK INTRA:                  -0.615
REMARK UNBOUND:                -0.794
REMARK SMILES O=C([O-])CCCCCCCCCCCCCCC(=O)[O-]
REMARK SMILES IDX 10 1 9 2 8 3 7 4 6 5 5 6 4 7 2 8 1 9 3 10 11 11 12 12 13 13
REMARK SMILES IDX 14 14 15 15 16 16 17 17 18 18 19 19 20 20
REMARK H PARENT
REMARK Flexibility Score: inf
ROOT
ATOM      1  C   UNL     1      -4.440 -22.062  17.807  1.00  0.00     0.000 C 
ENDROOT
BRANCH   1   2
ATOM      2  C   UNL     1      -3.846 -22.571  16.482  1.00  0.00     0.000 C 
BRANCH   2   3
ATOM      3  C   UNL     1      -3.901 -21.570  15.311  1.00  0.00     0.000 C 
BRANCH   3   4
ATOM      4  C   UNL     1      -5.265 -20.887  15.098  1.00  0.00     0.000 C 
BRANCH   4   5
ATOM      5  C   UNL     1      -6.451 -21.814  15.412  1.00  0.00     0.000 C 
BRANCH   5   6
ATOM      6  C   UNL     1      -7.791 -21.254  14.890  1.00  0.00     0.006 C 
BRANCH   6   7
ATOM      7  C   UNL     1      -8.725 -20.757  16.005  1.00  0.00     0.053 C 
BRANCH   7   8
ATOM      8  C   UNL     1     -10.167 -20.818  15.610  1.00  0.00     0.041 C 
ATOM      9  O   UNL     1     -10.521 -20.482  14.449  1.00  0.00    -0.550 OA
ATOM     10  O   UNL     1     -11.125 -21.224  16.532  1.00  0.00    -0.550 OA
ENDBRANCH   7   8
ENDBRANCH   6   7
ENDBRANCH   5   6
ENDBRANCH   4   5
ENDBRANCH   3   4
ENDBRANCH   2   3
ENDBRANCH   1   2
BRANCH   1  11
ATOM     11  C   UNL     1      -5.305 -23.114  18.517  1.00  0.00     0.000 C 
BRANCH  11  12
ATOM     12  C   UNL     1      -6.799 -22.817  18.322  1.00  0.00     0.000 C 
BRANCH  12  13
ATOM     13  C   UNL     1      -7.605 -22.965  19.622  1.00  0.00     0.000 C 
BRANCH  13  14
ATOM     14  C   UNL     1      -9.114 -23.124  19.370  1.00  0.00     0.000 C 
BRANCH  14  15
ATOM     15  C   UNL     1      -9.945 -22.099  20.168  1.00  0.00     0.000 C 
BRANCH  15  16
ATOM     16  C   UNL     1      -9.474 -20.643  19.994  1.00  0.00     0.006 C 
BRANCH  16  17
ATOM     17  C   UNL     1      -9.663 -19.766  21.247  1.00  0.00     0.053 C 
BRANCH  17  18
ATOM     18  C   UNL     1      -9.825 -20.573  22.502  1.00  0.00     0.041 C 
ATOM     19  O   UNL     1      -8.814 -20.995  23.123  1.00  0.00    -0.550 OA
ATOM     20  O   UNL     1     -11.093 -20.804  23.022  1.00  0.00    -0.550 OA
ENDBRANCH  17  18
ENDBRANCH  16  17
ENDBRANCH  15  16
ENDBRANCH  14  15
ENDBRANCH  13  14
ENDBRANCH  12  13
ENDBRANCH  11  12
ENDBRANCH   1  11
TORSDOF 15
ENDMDL
MODEL 9
REMARK VINA RESULT:    -0.707      1.281      6.056
REMARK INTER + INTRA:          -2.121
REMARK INTER:                  -0.995
REMARK INTRA:                  -1.126
REMARK UNBOUND:                -0.794
REMARK SMILES O=C([O-])CCCCCCCCCCCCCCC(=O)[O-]
REMARK SMILES IDX 10 1 9 2 8 3 7 4 6 5 5 6 4 7 2 8 1 9 3 10 11 11 12 12 13 13
REMARK SMILES IDX 14 14 15 15 16 16 17 17 18 18 19 19 20 20
REMARK H PARENT
REMARK Flexibility Score: inf
ROOT
ATOM      1  C   UNL     1      -5.292 -22.260  18.559  1.00  0.00     0.000 C 
ENDROOT
BRANCH   1   2
ATOM      2  C   UNL     1      -4.599 -23.079  17.456  1.00  0.00     0.000 C 
BRANCH   2   3
ATOM      3  C   UNL     1      -5.065 -22.772  16.019  1.00  0.00     0.000 C 
BRANCH   3   4
ATOM      4  C   UNL     1      -4.855 -21.318  15.560  1.00  0.00     0.000 C 
BRANCH   4   5
ATOM      5  C   UNL     1      -6.177 -20.581  15.287  1.00  0.00     0.000 C 
BRANCH   5   6
ATOM      6  C   UNL     1      -7.411 -21.446  15.616  1.00  0.00     0.006 C 
BRANCH   6   7
ATOM      7  C   UNL     1      -8.620 -21.162  14.710  1.00  0.00     0.053 C 
BRANCH   7   8
ATOM      8  C   UNL     1      -9.839 -20.777  15.489  1.00  0.00     0.041 C 
ATOM      9  O   UNL     1     -10.425 -19.688  15.252  1.00  0.00    -0.550 OA
ATOM     10  O   UNL     1     -10.315 -21.611  16.494  1.00  0.00    -0.550 OA
ENDBRANCH   7   8
ENDBRANCH   6   7
ENDBRANCH   5   6
ENDBRANCH   4   5
ENDBRANCH   3   4
ENDBRANCH   2   3
ENDBRANCH   1   2
BRANCH   1  11
ATOM     11  C   UNL     1      -5.776 -23.125  19.732  1.00  0.00     0.000 C 
BRANCH  11  12
ATOM     12  C   UNL     1      -7.309 -23.116  19.823  1.00  0.00     0.000 C 
BRANCH  12  13
ATOM     13  C   UNL     1      -7.925 -21.818  19.278  1.00  0.00     0.000 C 
BRANCH  13  14
ATOM     14  C   UNL     1      -9.462 -21.841  19.287  1.00  0.00     0.000 C 
BRANCH  14  15
ATOM     15  C   UNL     1     -10.056 -20.578  19.946  1.00  0.00     0.000 C 
BRANCH  15  16
ATOM     16  C   UNL     1     -10.983 -20.874  21.139  1.00  0.00     0.006 C 
BRANCH  16  17
ATOM     17  C   UNL     1     -10.728 -22.236  21.812  1.00  0.00     0.053 C 
BRANCH  17  18
ATOM     18  C   UNL     1     -10.118 -22.105  23.177  1.00  0.00     0.041 C 
ATOM     19  O   UNL     1      -9.006 -21.532  23.326  1.00  0.00    -0.550 OA
ATOM     20  O   UNL     1     -10.808 -22.560  24.294  1.00  0.00    -0.550 OA
ENDBRANCH  17  18
ENDBRANCH  16  17
ENDBRANCH  15  16
ENDBRANCH  14  15
ENDBRANCH  13  14
ENDBRANCH  12  13
ENDBRANCH  11  12
ENDBRANCH   1  11
TORSDOF 15
ENDMDL
