MODEL 1
REMARK VINA RESULT:    -3.685      0.000      0.000
REMARK INTER + INTRA:          -4.035
REMARK INTER:                  -4.008
REMARK INTRA:                  -0.027
REMARK UNBOUND:                -0.027
REMARK SMILES O=C([O-])c1ccc(O)cc1
REMARK SMILES IDX 7 1 6 2 9 3 5 4 10 5 4 6 8 7 2 9 1 10 3 11
REMARK H PARENT 8 8
REMARK Flexibility Score: inf
ROOT
ATOM      1  C   UNL     1      33.069 -41.632  -4.144  1.00  0.00     0.115 A 
ATOM      2  C   UNL     1      34.453 -41.810  -4.064  1.00  0.00     0.047 A 
ATOM      3  C   UNL     1      32.223 -42.748  -4.130  1.00  0.00     0.047 A 
ATOM      4  C   UNL     1      34.992 -43.097  -3.970  1.00  0.00     0.014 A 
ATOM      5  C   UNL     1      32.759 -44.036  -4.037  1.00  0.00     0.014 A 
ATOM      6  C   UNL     1      34.151 -44.223  -3.954  1.00  0.00    -0.003 A 
ENDROOT
BRANCH   1   7
ATOM      7  O   UNL     1      32.546 -40.344  -4.238  1.00  0.00    -0.508 OA
ATOM      8  H   UNL     1      33.035 -39.545  -3.850  1.00  0.00     0.293 HD
ENDBRANCH   1   7
BRANCH   6   9
ATOM      9  C   UNL     1      34.715 -45.588  -3.855  1.00  0.00     0.071 C 
ATOM     10  O   UNL     1      35.183 -46.163  -4.873  1.00  0.00    -0.545 OA
ATOM     11  O   UNL     1      34.737 -46.254  -2.635  1.00  0.00    -0.545 OA
ENDBRANCH   6   9
TORSDOF 2
ENDMDL
MODEL 2
REMARK VINA RESULT:    -3.679      0.066      1.533
REMARK INTER + INTRA:          -4.028
REMARK INTER:                  -4.001
REMARK INTRA:                  -0.027
REMARK UNBOUND:                -0.027
REMARK SMILES O=C([O-])c1ccc(O)cc1
REMARK SMILES IDX 7 1 6 2 9 3 5 4 10 5 4 6 8 7 2 9 1 10 3 11
REMARK H PARENT 8 8
REMARK Flexibility Score: inf
ROOT
ATOM      1  C   UNL     1      33.092 -41.607  -4.147  1.00  0.00     0.115 A 
ATOM      2  C   UNL     1      32.247 -42.721  -4.128  1.00  0.00     0.047 A 
ATOM      3  C   UNL     1      34.479 -41.786  -4.094  1.00  0.00     0.047 A 
ATOM      4  C   UNL     1      32.785 -44.010  -4.055  1.00  0.00     0.014 A 
ATOM      5  C   UNL     1      35.020 -43.074  -4.021  1.00  0.00     0.014 A 
ATOM      6  C   UNL     1      34.177 -44.200  -4.002  1.00  0.00    -0.003 A 
ENDROOT
BRANCH   1   7
ATOM      7  O   UNL     1      32.541 -40.329  -4.219  1.00  0.00    -0.508 OA
ATOM      8  H   UNL     1      33.067 -39.510  -3.935  1.00  0.00     0.293 HD
ENDBRANCH   1   7
BRANCH   6   9
ATOM      9  C   UNL     1      34.752 -45.561  -3.926  1.00  0.00     0.071 C 
ATOM     10  O   UNL     1      35.187 -46.131  -4.961  1.00  0.00    -0.545 OA
ATOM     11  O   UNL     1      34.820 -46.231  -2.709  1.00  0.00    -0.545 OA
ENDBRANCH   6   9
TORSDOF 2
ENDMDL
MODEL 3
REMARK VINA RESULT:    -3.505     20.394     20.817
REMARK INTER + INTRA:          -3.839
REMARK INTER:                  -3.804
REMARK INTRA:                  -0.036
REMARK UNBOUND:                -0.027
REMARK SMILES O=C([O-])c1ccc(O)cc1
REMARK SMILES IDX 7 1 6 2 9 3 5 4 10 5 4 6 8 7 2 9 1 10 3 11
REMARK H PARENT 8 8
REMARK Flexibility Score: inf
ROOT
ATOM      1  C   UNL     1      42.416 -37.889  13.667  1.00  0.00     0.115 A 
ATOM      2  C   UNL     1      41.563 -38.888  14.147  1.00  0.00     0.047 A 
ATOM      3  C   UNL     1      43.781 -38.158  13.508  1.00  0.00     0.047 A 
ATOM      4  C   UNL     1      42.070 -40.151  14.468  1.00  0.00     0.014 A 
ATOM      5  C   UNL     1      44.291 -39.420  13.828  1.00  0.00     0.014 A 
ATOM      6  C   UNL     1      43.440 -40.431  14.311  1.00  0.00    -0.003 A 
ENDROOT
BRANCH   1   7
ATOM      7  O   UNL     1      41.896 -36.636  13.351  1.00  0.00    -0.508 OA
ATOM      8  H   UNL     1      41.247 -36.511  12.582  1.00  0.00     0.293 HD
ENDBRANCH   1   7
BRANCH   6   9
ATOM      9  C   UNL     1      43.982 -41.765  14.649  1.00  0.00     0.071 C 
ATOM     10  O   UNL     1      43.208 -42.732  14.876  1.00  0.00    -0.545 OA
ATOM     11  O   UNL     1      45.356 -41.971  14.722  1.00  0.00    -0.545 OA
ENDBRANCH   6   9
TORSDOF 2
ENDMDL
MODEL 4
REMARK VINA RESULT:    -3.462      2.993      4.322
REMARK INTER + INTRA:          -3.793
REMARK INTER:                  -3.763
REMARK INTRA:                  -0.030
REMARK UNBOUND:                -0.027
REMARK SMILES O=C([O-])c1ccc(O)cc1
REMARK SMILES IDX 7 1 6 2 9 3 5 4 10 5 4 6 8 7 2 9 1 10 3 11
REMARK H PARENT 8 8
REMARK Flexibility Score: inf
ROOT
ATOM      1  C   UNL     1      37.358 -39.753  -4.091  1.00  0.00     0.115 A 
ATOM      2  C   UNL     1      37.212 -40.757  -5.052  1.00  0.00     0.047 A 
ATOM      3  C   UNL     1      36.324 -39.509  -3.179  1.00  0.00     0.047 A 
ATOM      4  C   UNL     1      36.038 -41.515  -5.106  1.00  0.00     0.014 A 
ATOM      5  C   UNL     1      35.148 -40.265  -3.230  1.00  0.00     0.014 A 
ATOM      6  C   UNL     1      34.994 -41.277  -4.194  1.00  0.00    -0.003 A 
ENDROOT
BRANCH   1   7
ATOM      7  O   UNL     1      38.533 -39.006  -4.050  1.00  0.00    -0.508 OA
ATOM      8  H   UNL     1      38.620 -38.188  -3.457  1.00  0.00     0.293 HD
ENDBRANCH   1   7
BRANCH   6   9
ATOM      9  C   UNL     1      33.749 -42.076  -4.246  1.00  0.00     0.071 C 
ATOM     10  O   UNL     1      33.798 -43.334  -4.282  1.00  0.00    -0.545 OA
ATOM     11  O   UNL     1      32.508 -41.449  -4.255  1.00  0.00    -0.545 OA
ENDBRANCH   6   9
TORSDOF 2
ENDMDL
MODEL 5
REMARK VINA RESULT:    -3.426      3.471      4.391
REMARK INTER + INTRA:          -3.754
REMARK INTER:                  -3.720
REMARK INTRA:                  -0.034
REMARK UNBOUND:                -0.027
REMARK SMILES O=C([O-])c1ccc(O)cc1
REMARK SMILES IDX 7 1 6 2 9 3 5 4 10 5 4 6 8 7 2 9 1 10 3 11
REMARK H PARENT 8 8
REMARK Flexibility Score: inf
ROOT
ATOM      1  C   UNL     1      33.812 -40.703  -3.954  1.00  0.00     0.115 A 
ATOM      2  C   UNL     1      34.535 -41.641  -4.696  1.00  0.00     0.047 A 
ATOM      3  C   UNL     1      34.487 -39.832  -3.090  1.00  0.00     0.047 A 
ATOM      4  C   UNL     1      35.927 -41.712  -4.576  1.00  0.00     0.014 A 
ATOM      5  C   UNL     1      35.878 -39.899  -2.968  1.00  0.00     0.014 A 
ATOM      6  C   UNL     1      36.613 -40.841  -3.711  1.00  0.00    -0.003 A 
ENDROOT
BRANCH   1   7
ATOM      7  O   UNL     1      32.426 -40.645  -4.084  1.00  0.00    -0.508 OA
ATOM      8  H   UNL     1      31.928 -41.263  -4.714  1.00  0.00     0.293 HD
ENDBRANCH   1   7
BRANCH   6   9
ATOM      9  C   UNL     1      38.086 -40.910  -3.580  1.00  0.00     0.071 C 
ATOM     10  O   UNL     1      38.648 -40.587  -2.501  1.00  0.00    -0.545 OA
ATOM     11  O   UNL     1      38.869 -41.333  -4.649  1.00  0.00    -0.545 OA
ENDBRANCH   6   9
TORSDOF 2
ENDMDL
MODEL 6
REMARK VINA RESULT:    -3.364     16.380     17.092
REMARK INTER + INTRA:          -3.686
REMARK INTER:                  -3.651
REMARK INTRA:                  -0.035
REMARK UNBOUND:                -0.027
REMARK SMILES O=C([O-])c1ccc(O)cc1
REMARK SMILES IDX 7 1 6 2 9 3 5 4 10 5 4 6 8 7 2 9 1 10 3 11
REMARK H PARENT 8 8
REMARK Flexibility Score: inf
ROOT
ATOM      1  C   UNL     1      35.140 -38.681  13.795  1.00  0.00     0.115 A 
ATOM      2  C   UNL     1      34.808 -37.365  13.461  1.00  0.00     0.047 A 
ATOM      3  C   UNL     1      35.066 -39.684  12.821  1.00  0.00     0.047 A 
ATOM      4  C   UNL     1      34.404 -37.049  12.160  1.00  0.00     0.014 A 
ATOM      5  C   UNL     1      34.662 -39.372  11.519  1.00  0.00     0.014 A 
ATOM      6  C   UNL     1      34.327 -38.050  11.175  1.00  0.00    -0.003 A 
ENDROOT
BRANCH   1   7
ATOM      7  O   UNL     1      35.541 -38.980  15.095  1.00  0.00    -0.508 OA
ATOM      8  H   UNL     1      36.093 -38.328  15.641  1.00  0.00     0.293 HD
ENDBRANCH   1   7
BRANCH   6   9
ATOM      9  C   UNL     1      33.900 -37.723   9.796  1.00  0.00     0.071 C 
ATOM     10  O   UNL     1      33.949 -36.536   9.376  1.00  0.00    -0.545 OA
ATOM     11  O   UNL     1      33.439 -38.721   8.945  1.00  0.00    -0.545 OA
ENDBRANCH   6   9
TORSDOF 2
ENDMDL
MODEL 7
REMARK VINA RESULT:    -3.356     16.347     17.066
REMARK INTER + INTRA:          -3.677
REMARK INTER:                  -3.642
REMARK INTRA:                  -0.035
REMARK UNBOUND:                -0.027
REMARK SMILES O=C([O-])c1ccc(O)cc1
REMARK SMILES IDX 7 1 6 2 9 3 5 4 10 5 4 6 8 7 2 9 1 10 3 11
REMARK H PARENT 8 8
REMARK Flexibility Score: inf
ROOT
ATOM      1  C   UNL     1      35.128 -38.662  13.780  1.00  0.00     0.115 A 
ATOM      2  C   UNL     1      35.059 -39.702  12.849  1.00  0.00     0.047 A 
ATOM      3  C   UNL     1      34.790 -37.359  13.394  1.00  0.00     0.047 A 
ATOM      4  C   UNL     1      34.656 -39.444  11.535  1.00  0.00     0.014 A 
ATOM      5  C   UNL     1      34.386 -37.098  12.081  1.00  0.00     0.014 A 
ATOM      6  C   UNL     1      34.314 -38.138  11.137  1.00  0.00    -0.003 A 
ENDROOT
BRANCH   1   7
ATOM      7  O   UNL     1      35.532 -38.935  15.086  1.00  0.00    -0.508 OA
ATOM      8  H   UNL     1      36.259 -39.613  15.283  1.00  0.00     0.293 HD
ENDBRANCH   1   7
BRANCH   6   9
ATOM      9  C   UNL     1      33.886 -37.859   9.748  1.00  0.00     0.071 C 
ATOM     10  O   UNL     1      33.455 -38.786   9.013  1.00  0.00    -0.545 OA
ATOM     11  O   UNL     1      33.954 -36.568   9.236  1.00  0.00    -0.545 OA
ENDBRANCH   6   9
TORSDOF 2
ENDMDL
MODEL 8
REMARK VINA RESULT:    -3.344     16.578     16.977
REMARK INTER + INTRA:          -3.664
REMARK INTER:                  -3.629
REMARK INTRA:                  -0.035
REMARK UNBOUND:                -0.027
REMARK SMILES O=C([O-])c1ccc(O)cc1
REMARK SMILES IDX 7 1 6 2 9 3 5 4 10 5 4 6 8 7 2 9 1 10 3 11
REMARK H PARENT 8 8
REMARK Flexibility Score: inf
ROOT
ATOM      1  C   UNL     1      35.095 -38.084  13.638  1.00  0.00     0.115 A 
ATOM      2  C   UNL     1      34.457 -37.874  12.412  1.00  0.00     0.047 A 
ATOM      3  C   UNL     1      35.463 -39.381  14.017  1.00  0.00     0.047 A 
ATOM      4  C   UNL     1      34.185 -38.954  11.567  1.00  0.00     0.014 A 
ATOM      5  C   UNL     1      35.192 -40.463  13.173  1.00  0.00     0.014 A 
ATOM      6  C   UNL     1      34.551 -40.260  11.938  1.00  0.00    -0.003 A 
ENDROOT
BRANCH   1   7
ATOM      7  O   UNL     1      35.359 -36.998  14.470  1.00  0.00    -0.508 OA
ATOM      8  H   UNL     1      36.123 -37.015  15.136  1.00  0.00     0.293 HD
ENDBRANCH   1   7
BRANCH   6   9
ATOM      9  C   UNL     1      34.267 -41.408  11.047  1.00  0.00     0.071 C 
ATOM     10  O   UNL     1      34.325 -42.587  11.485  1.00  0.00    -0.545 OA
ATOM     11  O   UNL     1      33.931 -41.199   9.714  1.00  0.00    -0.545 OA
ENDBRANCH   6   9
TORSDOF 2
ENDMDL
MODEL 9
REMARK VINA RESULT:    -3.312     16.861     17.315
REMARK INTER + INTRA:          -3.629
REMARK INTER:                  -3.602
REMARK INTRA:                  -0.028
REMARK UNBOUND:                -0.027
REMARK SMILES O=C([O-])c1ccc(O)cc1
REMARK SMILES IDX 7 1 6 2 9 3 5 4 10 5 4 6 8 7 2 9 1 10 3 11
REMARK H PARENT 8 8
REMARK Flexibility Score: inf
ROOT
ATOM      1  C   UNL     1      34.313 -37.536  10.847  1.00  0.00     0.115 A 
ATOM      2  C   UNL     1      34.376 -37.000  12.136  1.00  0.00     0.047 A 
ATOM      3  C   UNL     1      34.504 -38.909  10.655  1.00  0.00     0.047 A 
ATOM      4  C   UNL     1      34.628 -37.831  13.232  1.00  0.00     0.014 A 
ATOM      5  C   UNL     1      34.756 -39.744  11.749  1.00  0.00     0.014 A 
ATOM      6  C   UNL     1      34.820 -39.212  13.050  1.00  0.00    -0.003 A 
ENDROOT
BRANCH   1   7
ATOM      7  O   UNL     1      34.061 -36.695   9.765  1.00  0.00    -0.508 OA
ATOM      8  H   UNL     1      33.500 -37.000   8.978  1.00  0.00     0.293 HD
ENDBRANCH   1   7
BRANCH   6   9
ATOM      9  C   UNL     1      35.087 -40.097  14.206  1.00  0.00     0.071 C 
ATOM     10  O   UNL     1      36.227 -40.607  14.372  1.00  0.00    -0.545 OA
ATOM     11  O   UNL     1      34.083 -40.379  15.125  1.00  0.00    -0.545 OA
ENDBRANCH   6   9
TORSDOF 2
ENDMDL
