MODEL 1
REMARK VINA RESULT:    -3.675      0.000      0.000
REMARK INTER + INTRA:          -4.938
REMARK INTER:                  -4.749
REMARK INTRA:                  -0.189
REMARK UNBOUND:                -0.189
REMARK SMILES CCCCCCC=O
REMARK SMILES IDX 4 1 3 2 2 3 1 4 5 5 6 6 7 7 8 8
REMARK H PARENT
REMARK Flexibility Score: inf
ROOT
ATOM      1  C   UNL     1      25.219  58.404  -8.112  1.00  0.00     0.000 C 
ENDROOT
BRANCH   1   2
ATOM      2  C   UNL     1      26.137  59.506  -8.668  1.00  0.00    -0.000 C 
BRANCH   2   3
ATOM      3  C   UNL     1      27.110  58.979  -9.734  1.00  0.00    -0.003 C 
ATOM      4  C   UNL     1      28.296  59.915  -9.964  1.00  0.00     0.004 C 
ENDBRANCH   2   3
ENDBRANCH   1   2
BRANCH   1   5
ATOM      5  C   UNL     1      25.621  57.001  -8.597  1.00  0.00     0.008 C 
BRANCH   5   6
ATOM      6  C   UNL     1      25.524  55.944  -7.489  1.00  0.00     0.072 C 
BRANCH   6   7
ATOM      7  C   UNL     1      24.300  56.160  -6.650  1.00  0.00     0.224 C 
ATOM      8  O   UNL     1      23.249  55.607  -6.936  1.00  0.00    -0.303 OA
ENDBRANCH   6   7
ENDBRANCH   5   6
ENDBRANCH   1   5
TORSDOF 5
ENDMDL
MODEL 2
REMARK VINA RESULT:    -3.506      3.109      5.312
REMARK INTER + INTRA:          -4.719
REMARK INTER:                  -4.670
REMARK INTRA:                  -0.049
REMARK UNBOUND:                -0.189
REMARK SMILES CCCCCCC=O
REMARK SMILES IDX 4 1 3 2 2 3 1 4 5 5 6 6 7 7 8 8
REMARK H PARENT
REMARK Flexibility Score: inf
ROOT
ATOM      1  C   UNL     1      25.889  57.493  -8.675  1.00  0.00     0.000 C 
ENDROOT
BRANCH   1   2
ATOM      2  C   UNL     1      24.545  57.209  -7.981  1.00  0.00    -0.000 C 
BRANCH   2   3
ATOM      3  C   UNL     1      24.439  55.764  -7.472  1.00  0.00    -0.003 C 
ATOM      4  C   UNL     1      23.260  55.557  -6.523  1.00  0.00     0.004 C 
ENDBRANCH   2   3
ENDBRANCH   1   2
BRANCH   1   5
ATOM      5  C   UNL     1      26.225  58.992  -8.718  1.00  0.00     0.008 C 
BRANCH   5   6
ATOM      6  C   UNL     1      27.322  59.321  -9.740  1.00  0.00     0.072 C 
BRANCH   6   7
ATOM      7  C   UNL     1      27.926  60.664  -9.461  1.00  0.00     0.224 C 
ATOM      8  O   UNL     1      28.770  61.131 -10.210  1.00  0.00    -0.303 OA
ENDBRANCH   6   7
ENDBRANCH   5   6
ENDBRANCH   1   5
TORSDOF 5
ENDMDL
MODEL 3
REMARK VINA RESULT:    -3.492     16.810     17.961
REMARK INTER + INTRA:          -4.701
REMARK INTER:                  -4.428
REMARK INTRA:                  -0.273
REMARK UNBOUND:                -0.189
REMARK SMILES CCCCCCC=O
REMARK SMILES IDX 4 1 3 2 2 3 1 4 5 5 6 6 7 7 8 8
REMARK H PARENT
REMARK Flexibility Score: inf
ROOT
ATOM      1  C   UNL     1      19.270  45.443   0.596  1.00  0.00     0.000 C 
ENDROOT
BRANCH   1   2
ATOM      2  C   UNL     1      17.831  45.885   0.277  1.00  0.00    -0.000 C 
BRANCH   2   3
ATOM      3  C   UNL     1      16.781  44.900   0.814  1.00  0.00    -0.003 C 
ATOM      4  C   UNL     1      15.728  45.580   1.689  1.00  0.00     0.004 C 
ENDBRANCH   2   3
ENDBRANCH   1   2
BRANCH   1   5
ATOM      5  C   UNL     1      19.421  44.921   2.033  1.00  0.00     0.008 C 
BRANCH   5   6
ATOM      6  C   UNL     1      19.949  43.481   2.086  1.00  0.00     0.072 C 
BRANCH   6   7
ATOM      7  C   UNL     1      20.213  42.958   0.706  1.00  0.00     0.224 C 
ATOM      8  O   UNL     1      21.292  42.458   0.430  1.00  0.00    -0.303 OA
ENDBRANCH   6   7
ENDBRANCH   5   6
ENDBRANCH   1   5
TORSDOF 5
ENDMDL
MODEL 4
REMARK VINA RESULT:    -3.411      1.368      2.102
REMARK INTER + INTRA:          -4.596
REMARK INTER:                  -4.526
REMARK INTRA:                  -0.071
REMARK UNBOUND:                -0.189
REMARK SMILES CCCCCCC=O
REMARK SMILES IDX 4 1 3 2 2 3 1 4 5 5 6 6 7 7 8 8
REMARK H PARENT
REMARK Flexibility Score: inf
ROOT
ATOM      1  C   UNL     1      26.981  59.172  -9.564  1.00  0.00     0.000 C 
ENDROOT
BRANCH   1   2
ATOM      2  C   UNL     1      27.663  60.495  -9.172  1.00  0.00    -0.000 C 
BRANCH   2   3
ATOM      3  C   UNL     1      28.770  60.900 -10.156  1.00  0.00    -0.003 C 
ATOM      4  C   UNL     1      30.125  60.286  -9.806  1.00  0.00     0.004 C 
ENDBRANCH   2   3
ENDBRANCH   1   2
BRANCH   1   5
ATOM      5  C   UNL     1      25.995  58.677  -8.494  1.00  0.00     0.008 C 
BRANCH   5   6
ATOM      6  C   UNL     1      25.587  57.212  -8.700  1.00  0.00     0.072 C 
BRANCH   6   7
ATOM      7  C   UNL     1      25.514  56.488  -7.390  1.00  0.00     0.224 C 
ATOM      8  O   UNL     1      25.991  55.370  -7.274  1.00  0.00    -0.303 OA
ENDBRANCH   6   7
ENDBRANCH   5   6
ENDBRANCH   1   5
TORSDOF 5
ENDMDL
MODEL 5
REMARK VINA RESULT:    -3.328     17.011     18.233
REMARK INTER + INTRA:          -4.490
REMARK INTER:                  -4.279
REMARK INTRA:                  -0.211
REMARK UNBOUND:                -0.189
REMARK SMILES CCCCCCC=O
REMARK SMILES IDX 4 1 3 2 2 3 1 4 5 5 6 6 7 7 8 8
REMARK H PARENT
REMARK Flexibility Score: inf
ROOT
ATOM      1  C   UNL     1      17.493  45.349   0.578  1.00  0.00     0.000 C 
ENDROOT
BRANCH   1   2
ATOM      2  C   UNL     1      16.834  44.908   1.897  1.00  0.00    -0.000 C 
BRANCH   2   3
ATOM      3  C   UNL     1      15.336  45.244   1.947  1.00  0.00    -0.003 C 
ATOM      4  C   UNL     1      14.906  46.189   0.826  1.00  0.00     0.004 C 
ENDBRANCH   2   3
ENDBRANCH   1   2
BRANCH   1   5
ATOM      5  C   UNL     1      19.028  45.284   0.635  1.00  0.00     0.008 C 
BRANCH   5   6
ATOM      6  C   UNL     1      19.547  44.766   1.983  1.00  0.00     0.072 C 
BRANCH   6   7
ATOM      7  C   UNL     1      20.257  43.457   1.815  1.00  0.00     0.224 C 
ATOM      8  O   UNL     1      20.284  42.903   0.727  1.00  0.00    -0.303 OA
ENDBRANCH   6   7
ENDBRANCH   5   6
ENDBRANCH   1   5
TORSDOF 5
ENDMDL
MODEL 6
REMARK VINA RESULT:    -3.317     12.976     14.930
REMARK INTER + INTRA:          -4.475
REMARK INTER:                  -4.404
REMARK INTRA:                  -0.071
REMARK UNBOUND:                -0.189
REMARK SMILES CCCCCCC=O
REMARK SMILES IDX 4 1 3 2 2 3 1 4 5 5 6 6 7 7 8 8
REMARK H PARENT
REMARK Flexibility Score: inf
ROOT
ATOM      1  C   UNL     1      29.662  45.672  -0.164  1.00  0.00     0.000 C 
ENDROOT
BRANCH   1   2
ATOM      2  C   UNL     1      30.245  45.675   1.260  1.00  0.00    -0.000 C 
BRANCH   2   3
ATOM      3  C   UNL     1      31.776  45.804   1.268  1.00  0.00    -0.003 C 
ATOM      4  C   UNL     1      32.480  44.457   1.422  1.00  0.00     0.004 C 
ENDBRANCH   2   3
ENDBRANCH   1   2
BRANCH   1   5
ATOM      5  C   UNL     1      28.131  45.807  -0.175  1.00  0.00     0.008 C 
BRANCH   5   6
ATOM      6  C   UNL     1      27.665  47.225  -0.533  1.00  0.00     0.072 C 
BRANCH   6   7
ATOM      7  C   UNL     1      27.272  47.309  -1.977  1.00  0.00     0.224 C 
ATOM      8  O   UNL     1      26.335  48.012  -2.323  1.00  0.00    -0.303 OA
ENDBRANCH   6   7
ENDBRANCH   5   6
ENDBRANCH   1   5
TORSDOF 5
ENDMDL
MODEL 7
REMARK VINA RESULT:    -3.207     14.244     16.054
REMARK INTER + INTRA:          -4.334
REMARK INTER:                  -4.249
REMARK INTRA:                  -0.085
REMARK UNBOUND:                -0.189
REMARK SMILES CCCCCCC=O
REMARK SMILES IDX 4 1 3 2 2 3 1 4 5 5 6 6 7 7 8 8
REMARK H PARENT
REMARK Flexibility Score: inf
ROOT
ATOM      1  C   UNL     1      30.067  45.650   1.031  1.00  0.00     0.000 C 
ENDROOT
BRANCH   1   2
ATOM      2  C   UNL     1      29.073  45.641  -0.144  1.00  0.00    -0.000 C 
BRANCH   2   3
ATOM      3  C   UNL     1      28.028  46.762  -0.038  1.00  0.00    -0.003 C 
ATOM      4  C   UNL     1      27.464  47.173  -1.398  1.00  0.00     0.004 C 
ENDBRANCH   2   3
ENDBRANCH   1   2
BRANCH   1   5
ATOM      5  C   UNL     1      31.500  45.309   0.594  1.00  0.00     0.008 C 
BRANCH   5   6
ATOM      6  C   UNL     1      32.436  45.056   1.783  1.00  0.00     0.072 C 
BRANCH   6   7
ATOM      7  C   UNL     1      33.151  46.313   2.177  1.00  0.00     0.224 C 
ATOM      8  O   UNL     1      32.983  46.799   3.285  1.00  0.00    -0.303 OA
ENDBRANCH   6   7
ENDBRANCH   5   6
ENDBRANCH   1   5
TORSDOF 5
ENDMDL
MODEL 8
REMARK VINA RESULT:    -3.203     16.559     17.899
REMARK INTER + INTRA:          -4.327
REMARK INTER:                  -3.929
REMARK INTRA:                  -0.399
REMARK UNBOUND:                -0.189
REMARK SMILES CCCCCCC=O
REMARK SMILES IDX 4 1 3 2 2 3 1 4 5 5 6 6 7 7 8 8
REMARK H PARENT
REMARK Flexibility Score: inf
ROOT
ATOM      1  C   UNL     1      19.147  44.864   1.877  1.00  0.00     0.000 C 
ENDROOT
BRANCH   1   2
ATOM      2  C   UNL     1      19.402  45.631   0.568  1.00  0.00    -0.000 C 
BRANCH   2   3
ATOM      3  C   UNL     1      18.108  46.180  -0.054  1.00  0.00    -0.003 C 
ATOM      4  C   UNL     1      16.852  45.662   0.646  1.00  0.00     0.004 C 
ENDBRANCH   2   3
ENDBRANCH   1   2
BRANCH   1   5
ATOM      5  C   UNL     1      19.669  43.419   1.825  1.00  0.00     0.008 C 
BRANCH   5   6
ATOM      6  C   UNL     1      19.511  42.784   0.436  1.00  0.00     0.072 C 
BRANCH   6   7
ATOM      7  C   UNL     1      18.198  42.071   0.321  1.00  0.00     0.224 C 
ATOM      8  O   UNL     1      17.371  42.425  -0.504  1.00  0.00    -0.303 OA
ENDBRANCH   6   7
ENDBRANCH   5   6
ENDBRANCH   1   5
TORSDOF 5
ENDMDL
MODEL 9
REMARK VINA RESULT:    -3.188     16.997     18.034
REMARK INTER + INTRA:          -4.309
REMARK INTER:                  -4.105
REMARK INTRA:                  -0.204
REMARK UNBOUND:                -0.189
REMARK SMILES CCCCCCC=O
REMARK SMILES IDX 4 1 3 2 2 3 1 4 5 5 6 6 7 7 8 8
REMARK H PARENT
REMARK Flexibility Score: inf
ROOT
ATOM      1  C   UNL     1      19.175  45.363   0.599  1.00  0.00     0.000 C 
ENDROOT
BRANCH   1   2
ATOM      2  C   UNL     1      19.307  44.815   2.031  1.00  0.00    -0.000 C 
BRANCH   2   3
ATOM      3  C   UNL     1      19.723  43.336   2.059  1.00  0.00    -0.003 C 
ATOM      4  C   UNL     1      20.549  42.933   0.838  1.00  0.00     0.004 C 
ENDBRANCH   2   3
ENDBRANCH   1   2
BRANCH   1   5
ATOM      5  C   UNL     1      17.758  45.873   0.291  1.00  0.00     0.008 C 
BRANCH   5   6
ATOM      6  C   UNL     1      16.668  45.030   0.965  1.00  0.00     0.072 C 
BRANCH   6   7
ATOM      7  C   UNL     1      15.507  45.885   1.374  1.00  0.00     0.224 C 
ATOM      8  O   UNL     1      14.802  45.562   2.317  1.00  0.00    -0.303 OA
ENDBRANCH   6   7
ENDBRANCH   5   6
ENDBRANCH   1   5
TORSDOF 5
ENDMDL
