MODEL 1
REMARK VINA RESULT:    -2.190      0.000      0.000
REMARK INTER + INTRA:          -2.190
REMARK INTER:                  -2.190
REMARK INTRA:                   0.000
REMARK UNBOUND:                 0.000
REMARK SMILES CC(=O)[O-]
REMARK SMILES IDX 1 1 2 2 3 3 4 4
REMARK H PARENT
REMARK Flexibility Score: inf
ROOT
ATOM      1  C   UNL     1      -0.106  -4.090  21.644  1.00  0.00     0.063 C 
ATOM      2  C   UNL     1       0.863  -3.370  20.769  1.00  0.00     0.038 C 
ATOM      3  O   UNL     1       0.517  -2.315  20.175  1.00  0.00    -0.550 OA
ATOM      4  O   UNL     1       2.136  -3.890  20.565  1.00  0.00    -0.550 OA
ENDROOT
TORSDOF 0
ENDMDL
MODEL 2
REMARK VINA RESULT:    -2.168      2.088      2.261
REMARK INTER + INTRA:          -2.168
REMARK INTER:                  -2.168
REMARK INTRA:                   0.000
REMARK UNBOUND:                 0.000
REMARK SMILES CC(=O)[O-]
REMARK SMILES IDX 1 1 2 2 3 3 4 4
REMARK H PARENT
REMARK Flexibility Score: inf
ROOT
ATOM      1  C   UNL     1       0.096  -4.485  23.793  1.00  0.00     0.063 C 
ATOM      2  C   UNL     1       0.340  -3.706  22.545  1.00  0.00     0.038 C 
ATOM      3  O   UNL     1      -0.125  -4.110  21.446  1.00  0.00    -0.550 OA
ATOM      4  O   UNL     1       1.126  -2.562  22.582  1.00  0.00    -0.550 OA
ENDROOT
TORSDOF 0
ENDMDL
MODEL 3
REMARK VINA RESULT:    -2.159      2.686      2.850
REMARK INTER + INTRA:          -2.159
REMARK INTER:                  -2.159
REMARK INTRA:                   0.000
REMARK UNBOUND:                 0.000
REMARK SMILES CC(=O)[O-]
REMARK SMILES IDX 1 1 2 2 3 3 4 4
REMARK H PARENT
REMARK Flexibility Score: inf
ROOT
ATOM      1  C   UNL     1      -0.125  -4.121  21.626  1.00  0.00     0.063 C 
ATOM      2  C   UNL     1       0.249  -3.846  23.043  1.00  0.00     0.038 C 
ATOM      3  O   UNL     1       0.629  -2.696  23.386  1.00  0.00    -0.550 OA
ATOM      4  O   UNL     1       0.230  -4.873  23.979  1.00  0.00    -0.550 OA
ENDROOT
TORSDOF 0
ENDMDL
MODEL 4
REMARK VINA RESULT:    -2.081     17.454     17.814
REMARK INTER + INTRA:          -2.081
REMARK INTER:                  -2.081
REMARK INTRA:                   0.000
REMARK UNBOUND:                 0.000
REMARK SMILES CC(=O)[O-]
REMARK SMILES IDX 1 1 2 2 3 3 4 4
REMARK H PARENT
REMARK Flexibility Score: inf
ROOT
ATOM      1  C   UNL     1      17.518  -5.348  25.284  1.00  0.00     0.063 C 
ATOM      2  C   UNL     1      17.640  -6.831  25.373  1.00  0.00     0.038 C 
ATOM      3  O   UNL     1      17.412  -7.547  24.362  1.00  0.00    -0.550 OA
ATOM      4  O   UNL     1      17.953  -7.432  26.586  1.00  0.00    -0.550 OA
ENDROOT
TORSDOF 0
ENDMDL
MODEL 5
REMARK VINA RESULT:    -2.078     17.189     17.767
REMARK INTER + INTRA:          -2.078
REMARK INTER:                  -2.078
REMARK INTRA:                   0.000
REMARK UNBOUND:                 0.000
REMARK SMILES CC(=O)[O-]
REMARK SMILES IDX 1 1 2 2 3 3 4 4
REMARK H PARENT
REMARK Flexibility Score: inf
ROOT
ATOM      1  C   UNL     1      17.244  -6.625  28.386  1.00  0.00     0.063 C 
ATOM      2  C   UNL     1      16.917  -7.257  27.075  1.00  0.00     0.038 C 
ATOM      3  O   UNL     1      15.727  -7.565  26.801  1.00  0.00    -0.550 OA
ATOM      4  O   UNL     1      17.932  -7.557  26.175  1.00  0.00    -0.550 OA
ENDROOT
TORSDOF 0
ENDMDL
MODEL 6
REMARK VINA RESULT:    -2.070      1.293      2.259
REMARK INTER + INTRA:          -2.070
REMARK INTER:                  -2.070
REMARK INTRA:                   0.000
REMARK UNBOUND:                 0.000
REMARK SMILES CC(=O)[O-]
REMARK SMILES IDX 1 1 2 2 3 3 4 4
REMARK H PARENT
REMARK Flexibility Score: inf
ROOT
ATOM      1  C   UNL     1       1.067  -2.272  19.556  1.00  0.00     0.063 C 
ATOM      2  C   UNL     1       1.067  -3.359  20.577  1.00  0.00     0.038 C 
ATOM      3  O   UNL     1       2.135  -3.963  20.858  1.00  0.00    -0.550 OA
ATOM      4  O   UNL     1      -0.123  -3.744  21.183  1.00  0.00    -0.550 OA
ENDROOT
TORSDOF 0
ENDMDL
MODEL 7
REMARK VINA RESULT:    -2.063     17.619     17.745
REMARK INTER + INTRA:          -2.063
REMARK INTER:                  -2.063
REMARK INTRA:                   0.000
REMARK UNBOUND:                 0.000
REMARK SMILES CC(=O)[O-]
REMARK SMILES IDX 1 1 2 2 3 3 4 4
REMARK H PARENT
REMARK Flexibility Score: inf
ROOT
ATOM      1  C   UNL     1      17.510  -7.166  26.677  1.00  0.00     0.063 C 
ATOM      2  C   UNL     1      17.609  -6.735  25.254  1.00  0.00     0.038 C 
ATOM      3  O   UNL     1      17.483  -7.577  24.327  1.00  0.00    -0.550 OA
ATOM      4  O   UNL     1      17.894  -5.410  24.947  1.00  0.00    -0.550 OA
ENDROOT
TORSDOF 0
ENDMDL
MODEL 8
REMARK VINA RESULT:    -2.040     17.453     17.818
REMARK INTER + INTRA:          -2.040
REMARK INTER:                  -2.040
REMARK INTRA:                   0.000
REMARK UNBOUND:                 0.000
REMARK SMILES CC(=O)[O-]
REMARK SMILES IDX 1 1 2 2 3 3 4 4
REMARK H PARENT
REMARK Flexibility Score: inf
ROOT
ATOM      1  C   UNL     1      15.577  -7.467  27.069  1.00  0.00     0.063 C 
ATOM      2  C   UNL     1      17.044  -7.230  27.184  1.00  0.00     0.038 C 
ATOM      3  O   UNL     1      17.515  -6.650  28.197  1.00  0.00    -0.550 OA
ATOM      4  O   UNL     1      17.892  -7.602  26.147  1.00  0.00    -0.550 OA
ENDROOT
TORSDOF 0
ENDMDL
MODEL 9
REMARK VINA RESULT:    -2.009     17.527     17.892
REMARK INTER + INTRA:          -2.009
REMARK INTER:                  -2.009
REMARK INTRA:                   0.000
REMARK UNBOUND:                 0.000
REMARK SMILES CC(=O)[O-]
REMARK SMILES IDX 1 1 2 2 3 3 4 4
REMARK H PARENT
REMARK Flexibility Score: inf
ROOT
ATOM      1  C   UNL     1      15.636  -7.502  27.076  1.00  0.00     0.063 C 
ATOM      2  C   UNL     1      17.076  -7.155  27.250  1.00  0.00     0.038 C 
ATOM      3  O   UNL     1      17.921  -7.512  26.388  1.00  0.00    -0.550 OA
ATOM      4  O   UNL     1      17.496  -6.481  28.390  1.00  0.00    -0.550 OA
ENDROOT
TORSDOF 0
ENDMDL
