MODEL 1
REMARK VINA RESULT:    -4.247      0.000      0.000
REMARK INTER + INTRA:          -7.823
REMARK INTER:                  -7.350
REMARK INTRA:                  -0.473
REMARK UNBOUND:                -0.473
REMARK SMILES CCCCCCCCCCCCCCO
REMARK SMILES IDX 8 1 7 2 6 3 5 4 4 5 3 6 2 7 1 8 9 9 10 10 11 11 12 12 13 13
REMARK SMILES IDX 14 14 15 15
REMARK H PARENT 15 16
REMARK Flexibility Score: inf
ROOT
ATOM      1  C   UNL     1     -22.976  25.774   8.980  1.00  0.00     0.000 C 
ENDROOT
BRANCH   1   2
ATOM      2  C   UNL     1     -23.028  26.414   7.585  1.00  0.00    -0.000 C 
BRANCH   2   3
ATOM      3  C   UNL     1     -24.124  27.488   7.516  1.00  0.00    -0.000 C 
BRANCH   3   4
ATOM      4  C   UNL     1     -23.831  28.695   8.421  1.00  0.00    -0.000 C 
BRANCH   4   5
ATOM      5  C   UNL     1     -23.819  30.026   7.648  1.00  0.00    -0.000 C 
BRANCH   5   6
ATOM      6  C   UNL     1     -22.976  31.106   8.346  1.00  0.00    -0.000 C 
BRANCH   6   7
ATOM      7  C   UNL     1     -21.899  31.702   7.429  1.00  0.00    -0.003 C 
ATOM      8  C   UNL     1     -20.512  31.571   8.053  1.00  0.00     0.004 C 
ENDBRANCH   6   7
ENDBRANCH   5   6
ENDBRANCH   4   5
ENDBRANCH   3   4
ENDBRANCH   2   3
ENDBRANCH   1   2
BRANCH   1   9
ATOM      9  C   UNL     1     -23.710  24.422   9.046  1.00  0.00     0.000 C 
BRANCH   9  10
ATOM     10  C   UNL     1     -23.482  23.614  10.339  1.00  0.00     0.000 C 
BRANCH  10  11
ATOM     11  C   UNL     1     -23.115  24.453  11.577  1.00  0.00     0.000 C 
BRANCH  11  12
ATOM     12  C   UNL     1     -21.714  24.133  12.118  1.00  0.00     0.002 C 
BRANCH  12  13
ATOM     13  C   UNL     1     -21.793  23.549  13.534  1.00  0.00     0.028 C 
BRANCH  13  14
ATOM     14  C   UNL     1     -20.475  23.738  14.285  1.00  0.00     0.156 C 
BRANCH  14  15
ATOM     15  O   UNL     1     -19.772  24.813  13.728  1.00  0.00    -0.396 OA
ATOM     16  H   UNL     1     -19.165  25.144  14.441  1.00  0.00     0.210 HD
ENDBRANCH  14  15
ENDBRANCH  13  14
ENDBRANCH  12  13
ENDBRANCH  11  12
ENDBRANCH  10  11
ENDBRANCH   9  10
ENDBRANCH   1   9
TORSDOF 13
ENDMDL
MODEL 2
REMARK VINA RESULT:    -4.063     10.374     13.432
REMARK INTER + INTRA:          -7.504
REMARK INTER:                  -5.715
REMARK INTRA:                  -1.789
REMARK UNBOUND:                -0.473
REMARK SMILES CCCCCCCCCCCCCCO
REMARK SMILES IDX 8 1 7 2 6 3 5 4 4 5 3 6 2 7 1 8 9 9 10 10 11 11 12 12 13 13
REMARK SMILES IDX 14 14 15 15
REMARK H PARENT 15 16
REMARK Flexibility Score: inf
ROOT
ATOM      1  C   UNL     1     -17.676  29.812  23.392  1.00  0.00     0.000 C 
ENDROOT
BRANCH   1   2
ATOM      2  C   UNL     1     -18.870  30.662  23.850  1.00  0.00    -0.000 C 
BRANCH   2   3
ATOM      3  C   UNL     1     -18.543  32.161  23.759  1.00  0.00    -0.000 C 
BRANCH   3   4
ATOM      4  C   UNL     1     -19.751  33.007  23.328  1.00  0.00    -0.000 C 
BRANCH   4   5
ATOM      5  C   UNL     1     -21.002  32.154  23.052  1.00  0.00    -0.000 C 
BRANCH   5   6
ATOM      6  C   UNL     1     -21.785  32.638  21.820  1.00  0.00    -0.000 C 
BRANCH   6   7
ATOM      7  C   UNL     1     -22.613  31.522  21.167  1.00  0.00    -0.003 C 
ATOM      8  C   UNL     1     -22.902  30.400  22.161  1.00  0.00     0.004 C 
ENDBRANCH   6   7
ENDBRANCH   5   6
ENDBRANCH   4   5
ENDBRANCH   3   4
ENDBRANCH   2   3
ENDBRANCH   1   2
BRANCH   1   9
ATOM      9  C   UNL     1     -18.021  28.880  22.216  1.00  0.00     0.000 C 
BRANCH   9  10
ATOM     10  C   UNL     1     -19.456  29.017  21.670  1.00  0.00     0.000 C 
BRANCH  10  11
ATOM     11  C   UNL     1     -19.574  29.730  20.311  1.00  0.00     0.000 C 
BRANCH  11  12
ATOM     12  C   UNL     1     -20.334  28.899  19.267  1.00  0.00     0.002 C 
BRANCH  12  13
ATOM     13  C   UNL     1     -21.083  27.737  19.930  1.00  0.00     0.028 C 
BRANCH  13  14
ATOM     14  C   UNL     1     -22.557  27.725  19.525  1.00  0.00     0.156 C 
BRANCH  14  15
ATOM     15  O   UNL     1     -22.838  28.862  18.758  1.00  0.00    -0.396 OA
ATOM     16  H   UNL     1     -23.162  28.529  17.880  1.00  0.00     0.210 HD
ENDBRANCH  14  15
ENDBRANCH  13  14
ENDBRANCH  12  13
ENDBRANCH  11  12
ENDBRANCH  10  11
ENDBRANCH   9  10
ENDBRANCH   1   9
TORSDOF 13
ENDMDL
MODEL 3
REMARK VINA RESULT:    -4.023      1.619      2.547
REMARK INTER + INTRA:          -7.436
REMARK INTER:                  -7.029
REMARK INTRA:                  -0.406
REMARK UNBOUND:                -0.473
REMARK SMILES CCCCCCCCCCCCCCO
REMARK SMILES IDX 8 1 7 2 6 3 5 4 4 5 3 6 2 7 1 8 9 9 10 10 11 11 12 12 13 13
REMARK SMILES IDX 14 14 15 15
REMARK H PARENT 15 16
REMARK Flexibility Score: inf
ROOT
ATOM      1  C   UNL     1     -22.648  25.648  10.714  1.00  0.00     0.000 C 
ENDROOT
BRANCH   1   2
ATOM      2  C   UNL     1     -23.618  25.579   9.526  1.00  0.00    -0.000 C 
BRANCH   2   3
ATOM      3  C   UNL     1     -22.875  25.806   8.199  1.00  0.00    -0.000 C 
BRANCH   3   4
ATOM      4  C   UNL     1     -23.469  26.960   7.376  1.00  0.00    -0.000 C 
BRANCH   4   5
ATOM      5  C   UNL     1     -24.125  28.038   8.257  1.00  0.00    -0.000 C 
BRANCH   5   6
ATOM      6  C   UNL     1     -24.089  29.431   7.607  1.00  0.00    -0.000 C 
BRANCH   6   7
ATOM      7  C   UNL     1     -23.141  30.399   8.331  1.00  0.00    -0.003 C 
ATOM      8  C   UNL     1     -23.483  31.850   8.002  1.00  0.00     0.004 C 
ENDBRANCH   6   7
ENDBRANCH   5   6
ENDBRANCH   4   5
ENDBRANCH   3   4
ENDBRANCH   2   3
ENDBRANCH   1   2
BRANCH   1   9
ATOM      9  C   UNL     1     -21.903  24.322  10.956  1.00  0.00     0.000 C 
BRANCH   9  10
ATOM     10  C   UNL     1     -21.726  23.930  12.437  1.00  0.00     0.000 C 
BRANCH  10  11
ATOM     11  C   UNL     1     -20.458  23.117  12.751  1.00  0.00     0.000 C 
BRANCH  11  12
ATOM     12  C   UNL     1     -19.598  23.755  13.852  1.00  0.00     0.002 C 
BRANCH  12  13
ATOM     13  C   UNL     1     -20.349  23.779  15.189  1.00  0.00     0.028 C 
BRANCH  13  14
ATOM     14  C   UNL     1     -19.387  23.622  16.367  1.00  0.00     0.156 C 
BRANCH  14  15
ATOM     15  O   UNL     1     -20.054  23.928  17.558  1.00  0.00    -0.396 OA
ATOM     16  H   UNL     1     -20.078  24.919  17.613  1.00  0.00     0.210 HD
ENDBRANCH  14  15
ENDBRANCH  13  14
ENDBRANCH  12  13
ENDBRANCH  11  12
ENDBRANCH  10  11
ENDBRANCH   9  10
ENDBRANCH   1   9
TORSDOF 13
ENDMDL
MODEL 4
REMARK VINA RESULT:    -3.957     11.105     13.267
REMARK INTER + INTRA:          -7.322
REMARK INTER:                  -6.038
REMARK INTRA:                  -1.284
REMARK UNBOUND:                -0.473
REMARK SMILES CCCCCCCCCCCCCCO
REMARK SMILES IDX 8 1 7 2 6 3 5 4 4 5 3 6 2 7 1 8 9 9 10 10 11 11 12 12 13 13
REMARK SMILES IDX 14 14 15 15
REMARK H PARENT 15 16
REMARK Flexibility Score: inf
ROOT
ATOM      1  C   UNL     1     -19.308  32.468  23.375  1.00  0.00     0.000 C 
ENDROOT
BRANCH   1   2
ATOM      2  C   UNL     1     -20.519  33.368  23.083  1.00  0.00    -0.000 C 
BRANCH   2   3
ATOM      3  C   UNL     1     -21.766  32.524  22.776  1.00  0.00    -0.000 C 
BRANCH   3   4
ATOM      4  C   UNL     1     -22.077  32.450  21.273  1.00  0.00    -0.000 C 
BRANCH   4   5
ATOM      5  C   UNL     1     -23.124  33.488  20.833  1.00  0.00    -0.000 C 
BRANCH   5   6
ATOM      6  C   UNL     1     -22.513  34.623  19.995  1.00  0.00    -0.000 C 
BRANCH   6   7
ATOM      7  C   UNL     1     -22.152  35.855  20.838  1.00  0.00    -0.003 C 
ATOM      8  C   UNL     1     -23.138  36.041  21.988  1.00  0.00     0.004 C 
ENDBRANCH   6   7
ENDBRANCH   5   6
ENDBRANCH   4   5
ENDBRANCH   3   4
ENDBRANCH   2   3
ENDBRANCH   1   2
BRANCH   1   9
ATOM      9  C   UNL     1     -19.702  31.004  23.643  1.00  0.00     0.000 C 
BRANCH   9  10
ATOM     10  C   UNL     1     -19.073  29.970  22.688  1.00  0.00     0.000 C 
BRANCH  10  11
ATOM     11  C   UNL     1     -20.041  29.358  21.658  1.00  0.00     0.000 C 
BRANCH  11  12
ATOM     12  C   UNL     1     -19.637  29.662  20.208  1.00  0.00     0.002 C 
BRANCH  12  13
ATOM     13  C   UNL     1     -20.458  28.821  19.223  1.00  0.00     0.028 C 
BRANCH  13  14
ATOM     14  C   UNL     1     -21.909  28.686  19.687  1.00  0.00     0.156 C 
BRANCH  14  15
ATOM     15  O   UNL     1     -22.588  27.799  18.844  1.00  0.00    -0.396 OA
ATOM     16  H   UNL     1     -22.251  26.893  19.070  1.00  0.00     0.210 HD
ENDBRANCH  14  15
ENDBRANCH  13  14
ENDBRANCH  12  13
ENDBRANCH  11  12
ENDBRANCH  10  11
ENDBRANCH   9  10
ENDBRANCH   1   9
TORSDOF 13
ENDMDL
MODEL 5
REMARK VINA RESULT:    -3.944     10.476     12.515
REMARK INTER + INTRA:          -7.299
REMARK INTER:                  -6.103
REMARK INTRA:                  -1.195
REMARK UNBOUND:                -0.473
REMARK SMILES CCCCCCCCCCCCCCO
REMARK SMILES IDX 8 1 7 2 6 3 5 4 4 5 3 6 2 7 1 8 9 9 10 10 11 11 12 12 13 13
REMARK SMILES IDX 14 14 15 15
REMARK H PARENT 15 16
REMARK Flexibility Score: inf
ROOT
ATOM      1  C   UNL     1     -19.106  29.342  21.440  1.00  0.00     0.000 C 
ENDROOT
BRANCH   1   2
ATOM      2  C   UNL     1     -19.412  30.239  22.647  1.00  0.00    -0.000 C 
BRANCH   2   3
ATOM      3  C   UNL     1     -20.528  31.243  22.315  1.00  0.00    -0.000 C 
BRANCH   3   4
ATOM      4  C   UNL     1     -20.374  32.573  23.069  1.00  0.00    -0.000 C 
BRANCH   4   5
ATOM      5  C   UNL     1     -21.201  33.708  22.441  1.00  0.00    -0.000 C 
BRANCH   5   6
ATOM      6  C   UNL     1     -22.264  33.189  21.458  1.00  0.00    -0.000 C 
BRANCH   6   7
ATOM      7  C   UNL     1     -22.766  34.276  20.497  1.00  0.00    -0.003 C 
ATOM      8  C   UNL     1     -21.651  35.261  20.152  1.00  0.00     0.004 C 
ENDBRANCH   6   7
ENDBRANCH   5   6
ENDBRANCH   4   5
ENDBRANCH   3   4
ENDBRANCH   2   3
ENDBRANCH   1   2
BRANCH   1   9
ATOM      9  C   UNL     1     -19.741  29.857  20.135  1.00  0.00     0.000 C 
BRANCH   9  10
ATOM     10  C   UNL     1     -20.212  28.761  19.158  1.00  0.00     0.000 C 
BRANCH  10  11
ATOM     11  C   UNL     1     -20.959  27.583  19.809  1.00  0.00     0.000 C 
BRANCH  11  12
ATOM     12  C   UNL     1     -22.484  27.682  19.647  1.00  0.00     0.002 C 
BRANCH  12  13
ATOM     13  C   UNL     1     -23.113  28.428  20.829  1.00  0.00     0.028 C 
BRANCH  13  14
ATOM     14  C   UNL     1     -23.583  29.823  20.415  1.00  0.00     0.156 C 
BRANCH  14  15
ATOM     15  O   UNL     1     -23.883  29.827  19.048  1.00  0.00    -0.396 OA
ATOM     16  H   UNL     1     -23.717  28.902  18.727  1.00  0.00     0.210 HD
ENDBRANCH  14  15
ENDBRANCH  13  14
ENDBRANCH  12  13
ENDBRANCH  11  12
ENDBRANCH  10  11
ENDBRANCH   9  10
ENDBRANCH   1   9
TORSDOF 13
ENDMDL
MODEL 6
REMARK VINA RESULT:    -3.868     10.518     13.311
REMARK INTER + INTRA:          -7.167
REMARK INTER:                  -6.369
REMARK INTRA:                  -0.798
REMARK UNBOUND:                -0.473
REMARK SMILES CCCCCCCCCCCCCCO
REMARK SMILES IDX 8 1 7 2 6 3 5 4 4 5 3 6 2 7 1 8 9 9 10 10 11 11 12 12 13 13
REMARK SMILES IDX 14 14 15 15
REMARK H PARENT 15 16
REMARK Flexibility Score: inf
ROOT
ATOM      1  C   UNL     1     -17.732  29.797  23.380  1.00  0.00     0.000 C 
ENDROOT
BRANCH   1   2
ATOM      2  C   UNL     1     -18.926  30.652  23.828  1.00  0.00    -0.000 C 
BRANCH   2   3
ATOM      3  C   UNL     1     -18.577  32.148  23.783  1.00  0.00    -0.000 C 
BRANCH   3   4
ATOM      4  C   UNL     1     -19.799  33.035  23.494  1.00  0.00    -0.000 C 
BRANCH   4   5
ATOM      5  C   UNL     1     -20.831  32.342  22.587  1.00  0.00    -0.000 C 
BRANCH   5   6
ATOM      6  C   UNL     1     -21.995  33.271  22.203  1.00  0.00    -0.000 C 
BRANCH   6   7
ATOM      7  C   UNL     1     -21.523  34.569  21.532  1.00  0.00    -0.003 C 
ATOM      8  C   UNL     1     -22.370  34.891  20.303  1.00  0.00     0.004 C 
ENDBRANCH   6   7
ENDBRANCH   5   6
ENDBRANCH   4   5
ENDBRANCH   3   4
ENDBRANCH   2   3
ENDBRANCH   1   2
BRANCH   1   9
ATOM      9  C   UNL     1     -18.080  28.846  22.220  1.00  0.00     0.000 C 
BRANCH   9  10
ATOM     10  C   UNL     1     -19.117  29.387  21.216  1.00  0.00     0.000 C 
BRANCH  10  11
ATOM     11  C   UNL     1     -19.937  28.312  20.480  1.00  0.00     0.000 C 
BRANCH  11  12
ATOM     12  C   UNL     1     -20.506  28.810  19.143  1.00  0.00     0.002 C 
BRANCH  12  13
ATOM     13  C   UNL     1     -22.036  28.900  19.198  1.00  0.00     0.028 C 
BRANCH  13  14
ATOM     14  C   UNL     1     -22.647  27.603  19.730  1.00  0.00     0.156 C 
BRANCH  14  15
ATOM     15  O   UNL     1     -23.080  26.817  18.655  1.00  0.00    -0.396 OA
ATOM     16  H   UNL     1     -23.024  25.875  18.964  1.00  0.00     0.210 HD
ENDBRANCH  14  15
ENDBRANCH  13  14
ENDBRANCH  12  13
ENDBRANCH  11  12
ENDBRANCH  10  11
ENDBRANCH   9  10
ENDBRANCH   1   9
TORSDOF 13
ENDMDL
MODEL 7
REMARK VINA RESULT:    -3.842     10.780     13.562
REMARK INTER + INTRA:          -7.123
REMARK INTER:                  -5.231
REMARK INTRA:                  -1.892
REMARK UNBOUND:                -0.473
REMARK SMILES CCCCCCCCCCCCCCO
REMARK SMILES IDX 8 1 7 2 6 3 5 4 4 5 3 6 2 7 1 8 9 9 10 10 11 11 12 12 13 13
REMARK SMILES IDX 14 14 15 15
REMARK H PARENT 15 16
REMARK Flexibility Score: inf
ROOT
ATOM      1  C   UNL     1     -19.597  29.732  22.615  1.00  0.00     0.000 C 
ENDROOT
BRANCH   1   2
ATOM      2  C   UNL     1     -19.121  29.032  21.334  1.00  0.00    -0.000 C 
BRANCH   2   3
ATOM      3  C   UNL     1     -19.693  29.725  20.086  1.00  0.00    -0.000 C 
BRANCH   3   4
ATOM      4  C   UNL     1     -20.410  28.749  19.141  1.00  0.00    -0.000 C 
BRANCH   4   5
ATOM      5  C   UNL     1     -21.778  28.300  19.681  1.00  0.00    -0.000 C 
BRANCH   5   6
ATOM      6  C   UNL     1     -22.721  29.484  19.955  1.00  0.00    -0.000 C 
BRANCH   6   7
ATOM      7  C   UNL     1     -23.575  29.283  21.215  1.00  0.00    -0.003 C 
ATOM      8  C   UNL     1     -22.926  28.279  22.164  1.00  0.00     0.004 C 
ENDBRANCH   6   7
ENDBRANCH   5   6
ENDBRANCH   4   5
ENDBRANCH   3   4
ENDBRANCH   2   3
ENDBRANCH   1   2
BRANCH   1   9
ATOM      9  C   UNL     1     -20.285  31.082  22.339  1.00  0.00     0.000 C 
BRANCH   9  10
ATOM     10  C   UNL     1     -21.274  31.549  23.426  1.00  0.00     0.000 C 
BRANCH  10  11
ATOM     11  C   UNL     1     -22.482  32.351  22.911  1.00  0.00     0.000 C 
BRANCH  11  12
ATOM     12  C   UNL     1     -22.248  32.950  21.516  1.00  0.00     0.002 C 
BRANCH  12  13
ATOM     13  C   UNL     1     -21.653  34.360  21.619  1.00  0.00     0.028 C 
BRANCH  13  14
ATOM     14  C   UNL     1     -21.884  35.152  20.331  1.00  0.00     0.156 C 
BRANCH  14  15
ATOM     15  O   UNL     1     -22.973  34.609  19.640  1.00  0.00    -0.396 OA
ATOM     16  H   UNL     1     -22.588  34.061  18.907  1.00  0.00     0.210 HD
ENDBRANCH  14  15
ENDBRANCH  13  14
ENDBRANCH  12  13
ENDBRANCH  11  12
ENDBRANCH  10  11
ENDBRANCH   9  10
ENDBRANCH   1   9
TORSDOF 13
ENDMDL
MODEL 8
REMARK VINA RESULT:    -3.828     10.848     14.219
REMARK INTER + INTRA:          -7.098
REMARK INTER:                  -5.746
REMARK INTRA:                  -1.353
REMARK UNBOUND:                -0.473
REMARK SMILES CCCCCCCCCCCCCCO
REMARK SMILES IDX 8 1 7 2 6 3 5 4 4 5 3 6 2 7 1 8 9 9 10 10 11 11 12 12 13 13
REMARK SMILES IDX 14 14 15 15
REMARK H PARENT 15 16
REMARK Flexibility Score: inf
ROOT
ATOM      1  C   UNL     1     -18.473  31.853  23.837  1.00  0.00     0.000 C 
ENDROOT
BRANCH   1   2
ATOM      2  C   UNL     1     -18.899  30.396  24.066  1.00  0.00    -0.000 C 
BRANCH   2   3
ATOM      3  C   UNL     1     -17.853  29.424  23.499  1.00  0.00    -0.000 C 
BRANCH   3   4
ATOM      4  C   UNL     1     -17.984  29.229  21.980  1.00  0.00    -0.000 C 
BRANCH   4   5
ATOM      5  C   UNL     1     -19.445  29.053  21.531  1.00  0.00    -0.000 C 
BRANCH   5   6
ATOM      6  C   UNL     1     -19.687  29.564  20.100  1.00  0.00    -0.000 C 
BRANCH   6   7
ATOM      7  C   UNL     1     -20.541  28.600  19.263  1.00  0.00    -0.003 C 
ATOM      8  C   UNL     1     -22.028  28.905  19.422  1.00  0.00     0.004 C 
ENDBRANCH   6   7
ENDBRANCH   5   6
ENDBRANCH   4   5
ENDBRANCH   3   4
ENDBRANCH   2   3
ENDBRANCH   1   2
BRANCH   1   9
ATOM      9  C   UNL     1     -19.643  32.758  23.408  1.00  0.00     0.000 C 
BRANCH   9  10
ATOM     10  C   UNL     1     -20.991  32.036  23.207  1.00  0.00     0.000 C 
BRANCH  10  11
ATOM     11  C   UNL     1     -21.517  32.025  21.760  1.00  0.00     0.000 C 
BRANCH  11  12
ATOM     12  C   UNL     1     -23.015  31.698  21.674  1.00  0.00     0.002 C 
BRANCH  12  13
ATOM     13  C   UNL     1     -23.675  32.453  20.513  1.00  0.00     0.028 C 
BRANCH  13  14
ATOM     14  C   UNL     1     -23.664  33.962  20.758  1.00  0.00     0.156 C 
BRANCH  14  15
ATOM     15  O   UNL     1     -23.116  34.611  19.645  1.00  0.00    -0.396 OA
ATOM     16  H   UNL     1     -23.373  34.066  18.855  1.00  0.00     0.210 HD
ENDBRANCH  14  15
ENDBRANCH  13  14
ENDBRANCH  12  13
ENDBRANCH  11  12
ENDBRANCH  10  11
ENDBRANCH   9  10
ENDBRANCH   1   9
TORSDOF 13
ENDMDL
MODEL 9
REMARK VINA RESULT:    -3.784     11.744     14.888
REMARK INTER + INTRA:          -7.022
REMARK INTER:                  -5.824
REMARK INTRA:                  -1.197
REMARK UNBOUND:                -0.473
REMARK SMILES CCCCCCCCCCCCCCO
REMARK SMILES IDX 8 1 7 2 6 3 5 4 4 5 3 6 2 7 1 8 9 9 10 10 11 11 12 12 13 13
REMARK SMILES IDX 14 14 15 15
REMARK H PARENT 15 16
REMARK Flexibility Score: inf
ROOT
ATOM      1  C   UNL     1     -19.786  32.823  22.980  1.00  0.00     0.000 C 
ENDROOT
BRANCH   1   2
ATOM      2  C   UNL     1     -18.748  32.034  23.791  1.00  0.00    -0.000 C 
BRANCH   2   3
ATOM      3  C   UNL     1     -19.071  30.531  23.780  1.00  0.00    -0.000 C 
BRANCH   3   4
ATOM      4  C   UNL     1     -17.859  29.666  23.400  1.00  0.00    -0.000 C 
BRANCH   4   5
ATOM      5  C   UNL     1     -18.005  29.020  22.011  1.00  0.00    -0.000 C 
BRANCH   5   6
ATOM      6  C   UNL     1     -19.468  28.963  21.539  1.00  0.00    -0.000 C 
BRANCH   6   7
ATOM      7  C   UNL     1     -19.680  29.643  20.179  1.00  0.00    -0.003 C 
ATOM      8  C   UNL     1     -20.469  28.743  19.232  1.00  0.00     0.004 C 
ENDBRANCH   6   7
ENDBRANCH   5   6
ENDBRANCH   4   5
ENDBRANCH   3   4
ENDBRANCH   2   3
ENDBRANCH   1   2
BRANCH   1   9
ATOM      9  C   UNL     1     -21.169  32.146  22.958  1.00  0.00     0.000 C 
BRANCH   9  10
ATOM     10  C   UNL     1     -21.863  32.119  21.582  1.00  0.00     0.000 C 
BRANCH  10  11
ATOM     11  C   UNL     1     -22.947  33.192  21.375  1.00  0.00     0.000 C 
BRANCH  11  12
ATOM     12  C   UNL     1     -22.541  34.257  20.345  1.00  0.00     0.002 C 
BRANCH  12  13
ATOM     13  C   UNL     1     -21.948  35.491  21.036  1.00  0.00     0.028 C 
BRANCH  13  14
ATOM     14  C   UNL     1     -23.048  36.380  21.616  1.00  0.00     0.156 C 
BRANCH  14  15
ATOM     15  O   UNL     1     -22.656  37.722  21.529  1.00  0.00    -0.396 OA
ATOM     16  H   UNL     1     -23.409  38.252  21.900  1.00  0.00     0.210 HD
ENDBRANCH  14  15
ENDBRANCH  13  14
ENDBRANCH  12  13
ENDBRANCH  11  12
ENDBRANCH  10  11
ENDBRANCH   9  10
ENDBRANCH   1   9
TORSDOF 13
ENDMDL
