MODEL 1
REMARK VINA RESULT:    -5.609      0.000      0.000
REMARK INTER + INTRA:          -6.250
REMARK INTER:                  -6.100
REMARK INTRA:                  -0.149
REMARK UNBOUND:                -0.149
REMARK SMILES CC(=O)[C@@H]1CC[C@@H]2[C@@H]3CC=C4C[C@@H](O)CC[C@]4(C)[C@H]3CC[C@]21C
REMARK SMILES IDX 4 1 5 2 6 3 7 4 22 5 21 6 20 7 19 8 8 9 9 10 10 11 11 12
REMARK SMILES IDX 17 13 16 14 15 15 13 16 12 17 18 18 23 19 2 20 1 21 3 22
REMARK SMILES IDX 14 23
REMARK H PARENT 14 24
REMARK Flexibility Score: inf
ROOT
ATOM      1  C   UNL     1       2.708  41.216  13.028  1.00  0.00     0.062 C 
ATOM      2  C   UNL     1       1.169  41.255  13.231  1.00  0.00     0.012 C 
ATOM      3  C   UNL     1       0.680  42.570  12.593  1.00  0.00     0.005 C 
ATOM      4  C   UNL     1       1.965  43.315  12.255  1.00  0.00    -0.001 C 
ATOM      5  C   UNL     1       2.997  42.235  11.892  1.00  0.00    -0.020 C 
ATOM      6  C   UNL     1       4.435  42.857  11.931  1.00  0.00     0.008 C 
ATOM      7  C   UNL     1       4.473  44.394  11.664  1.00  0.00     0.005 C 
ATOM      8  C   UNL     1       3.335  44.852  10.714  1.00  0.00     0.003 C 
ATOM      9  C   UNL     1       1.939  44.569  11.341  1.00  0.00     0.000 C 
ATOM     10  C   UNL     1       0.888  44.597  10.231  1.00  0.00     0.031 C 
ATOM     11  C   UNL     1       1.005  45.871   9.423  1.00  0.00    -0.027 C 
ATOM     12  C   UNL     1       2.136  46.624   9.344  1.00  0.00    -0.065 C 
ATOM     13  C   UNL     1       3.409  46.322  10.167  1.00  0.00    -0.008 C 
ATOM     14  C   UNL     1       4.651  46.459   9.229  1.00  0.00     0.014 C 
ATOM     15  C   UNL     1       4.651  47.742   8.380  1.00  0.00     0.033 C 
ATOM     16  C   UNL     1       3.367  47.865   7.551  1.00  0.00     0.118 C 
ATOM     17  C   UNL     1       2.134  47.856   8.464  1.00  0.00     0.063 C 
ATOM     18  C   UNL     1       3.529  47.350  11.324  1.00  0.00     0.016 C 
ATOM     19  C   UNL     1       2.721  41.568  10.507  1.00  0.00     0.012 C 
ENDROOT
BRANCH   1  20
ATOM     20  C   UNL     1       3.332  39.837  12.862  1.00  0.00     0.133 C 
ATOM     21  C   UNL     1       4.777  39.528  13.148  1.00  0.00     0.088 C 
ATOM     22  O   UNL     1       2.615  38.919  12.494  1.00  0.00    -0.300 OA
ENDBRANCH   1  20
BRANCH  16  23
ATOM     23  O   UNL     1       3.409  49.060   6.817  1.00  0.00    -0.393 OA
ATOM     24  H   UNL     1       3.463  48.805   5.859  1.00  0.00     0.210 HD
ENDBRANCH  16  23
TORSDOF 2
ENDMDL
MODEL 2
REMARK VINA RESULT:    -5.294      1.735      7.084
REMARK INTER + INTRA:          -5.908
REMARK INTER:                  -6.585
REMARK INTRA:                   0.677
REMARK UNBOUND:                -0.149
REMARK SMILES CC(=O)[C@@H]1CC[C@@H]2[C@@H]3CC=C4C[C@@H](O)CC[C@]4(C)[C@H]3CC[C@]21C
REMARK SMILES IDX 4 1 5 2 6 3 7 4 22 5 21 6 20 7 19 8 8 9 9 10 10 11 11 12
REMARK SMILES IDX 17 13 16 14 15 15 13 16 12 17 18 18 23 19 2 20 1 21 3 22
REMARK SMILES IDX 14 23
REMARK H PARENT 14 24
REMARK Flexibility Score: inf
ROOT
ATOM      1  C   UNL     1       0.671  47.500   8.319  1.00  0.00     0.062 C 
ATOM      2  C   UNL     1       2.043  47.826   7.669  1.00  0.00     0.012 C 
ATOM      3  C   UNL     1       3.069  46.881   8.326  1.00  0.00     0.005 C 
ATOM      4  C   UNL     1       2.291  46.223   9.459  1.00  0.00    -0.001 C 
ATOM      5  C   UNL     1       0.843  46.096   8.958  1.00  0.00    -0.020 C 
ATOM      6  C   UNL     1      -0.104  45.819  10.176  1.00  0.00     0.008 C 
ATOM      7  C   UNL     1       0.594  45.115  11.381  1.00  0.00     0.005 C 
ATOM      8  C   UNL     1       1.748  44.182  10.926  1.00  0.00     0.003 C 
ATOM      9  C   UNL     1       2.866  44.991  10.207  1.00  0.00     0.000 C 
ATOM     10  C   UNL     1       3.724  44.023   9.391  1.00  0.00     0.031 C 
ATOM     11  C   UNL     1       4.191  42.873  10.256  1.00  0.00    -0.027 C 
ATOM     12  C   UNL     1       3.567  42.474  11.398  1.00  0.00    -0.065 C 
ATOM     13  C   UNL     1       2.364  43.227  12.009  1.00  0.00    -0.008 C 
ATOM     14  C   UNL     1       1.289  42.178  12.441  1.00  0.00     0.014 C 
ATOM     15  C   UNL     1       1.860  40.997  13.244  1.00  0.00     0.033 C 
ATOM     16  C   UNL     1       2.986  40.292  12.479  1.00  0.00     0.118 C 
ATOM     17  C   UNL     1       4.114  41.278  12.150  1.00  0.00     0.063 C 
ATOM     18  C   UNL     1       2.834  44.019  13.259  1.00  0.00     0.016 C 
ATOM     19  C   UNL     1       0.671  44.996   7.863  1.00  0.00     0.012 C 
ENDROOT
BRANCH   1  20
ATOM     20  C   UNL     1      -0.555  47.685   7.434  1.00  0.00     0.133 C 
ATOM     21  C   UNL     1      -1.125  46.608   6.553  1.00  0.00     0.088 C 
ATOM     22  O   UNL     1      -1.124  48.766   7.454  1.00  0.00    -0.300 OA
ENDBRANCH   1  20
BRANCH  16  23
ATOM     23  O   UNL     1       3.484  39.241  13.264  1.00  0.00    -0.393 OA
ATOM     24  H   UNL     1       4.227  39.617  13.806  1.00  0.00     0.210 HD
ENDBRANCH  16  23
TORSDOF 2
ENDMDL
MODEL 3
REMARK VINA RESULT:    -4.738      2.049      7.190
REMARK INTER + INTRA:          -5.303
REMARK INTER:                  -5.160
REMARK INTRA:                  -0.143
REMARK UNBOUND:                -0.149
REMARK SMILES CC(=O)[C@@H]1CC[C@@H]2[C@@H]3CC=C4C[C@@H](O)CC[C@]4(C)[C@H]3CC[C@]21C
REMARK SMILES IDX 4 1 5 2 6 3 7 4 22 5 21 6 20 7 19 8 8 9 9 10 10 11 11 12
REMARK SMILES IDX 17 13 16 14 15 15 13 16 12 17 18 18 23 19 2 20 1 21 3 22
REMARK SMILES IDX 14 23
REMARK H PARENT 14 24
REMARK Flexibility Score: inf
ROOT
ATOM      1  C   UNL     1       0.366  48.865   7.569  1.00  0.00     0.062 C 
ATOM      2  C   UNL     1      -1.124  48.483   7.780  1.00  0.00     0.012 C 
ATOM      3  C   UNL     1      -1.125  47.102   8.466  1.00  0.00     0.005 C 
ATOM      4  C   UNL     1       0.334  46.666   8.417  1.00  0.00    -0.001 C 
ATOM      5  C   UNL     1       1.164  47.954   8.542  1.00  0.00    -0.020 C 
ATOM      6  C   UNL     1       2.638  47.666   8.094  1.00  0.00     0.008 C 
ATOM      7  C   UNL     1       3.081  46.181   8.273  1.00  0.00     0.005 C 
ATOM      8  C   UNL     1       2.368  45.497   9.469  1.00  0.00     0.003 C 
ATOM      9  C   UNL     1       0.829  45.452   9.249  1.00  0.00     0.000 C 
ATOM     10  C   UNL     1       0.147  45.210  10.596  1.00  0.00     0.031 C 
ATOM     11  C   UNL     1       0.751  44.007  11.286  1.00  0.00    -0.027 C 
ATOM     12  C   UNL     1       1.998  43.526  11.028  1.00  0.00    -0.065 C 
ATOM     13  C   UNL     1       2.905  44.089   9.911  1.00  0.00    -0.008 C 
ATOM     14  C   UNL     1       4.352  44.246  10.480  1.00  0.00     0.014 C 
ATOM     15  C   UNL     1       4.860  43.009  11.241  1.00  0.00     0.033 C 
ATOM     16  C   UNL     1       3.904  42.618  12.373  1.00  0.00     0.118 C 
ATOM     17  C   UNL     1       2.501  42.337  11.822  1.00  0.00     0.063 C 
ATOM     18  C   UNL     1       2.932  43.095   8.719  1.00  0.00     0.016 C 
ATOM     19  C   UNL     1       1.132  48.565   9.978  1.00  0.00     0.012 C 
ENDROOT
BRANCH   1  20
ATOM     20  C   UNL     1       0.695  50.351   7.625  1.00  0.00     0.133 C 
ATOM     21  C   UNL     1       2.032  50.930   7.249  1.00  0.00     0.088 C 
ATOM     22  O   UNL     1      -0.183  51.124   7.976  1.00  0.00    -0.300 OA
ENDBRANCH   1  20
BRANCH  16  23
ATOM     23  O   UNL     1       4.402  41.474  13.016  1.00  0.00    -0.393 OA
ATOM     24  H   UNL     1       4.250  41.604  13.989  1.00  0.00     0.210 HD
ENDBRANCH  16  23
TORSDOF 2
ENDMDL
MODEL 4
REMARK VINA RESULT:    -4.045      1.660      3.336
REMARK INTER + INTRA:          -4.549
REMARK INTER:                  -4.442
REMARK INTRA:                  -0.106
REMARK UNBOUND:                -0.149
REMARK SMILES CC(=O)[C@@H]1CC[C@@H]2[C@@H]3CC=C4C[C@@H](O)CC[C@]4(C)[C@H]3CC[C@]21C
REMARK SMILES IDX 4 1 5 2 6 3 7 4 22 5 21 6 20 7 19 8 8 9 9 10 10 11 11 12
REMARK SMILES IDX 17 13 16 14 15 15 13 16 12 17 18 18 23 19 2 20 1 21 3 22
REMARK SMILES IDX 14 23
REMARK H PARENT 14 24
REMARK Flexibility Score: inf
ROOT
ATOM      1  C   UNL     1       1.639  42.107  11.797  1.00  0.00     0.062 C 
ATOM      2  C   UNL     1       3.000  41.561  11.288  1.00  0.00     0.012 C 
ATOM      3  C   UNL     1       3.511  42.573  10.244  1.00  0.00     0.005 C 
ATOM      4  C   UNL     1       2.336  43.523  10.046  1.00  0.00    -0.001 C 
ATOM      5  C   UNL     1       1.631  43.611  11.409  1.00  0.00    -0.020 C 
ATOM      6  C   UNL     1       0.199  44.220  11.214  1.00  0.00     0.008 C 
ATOM      7  C   UNL     1       0.065  45.147   9.966  1.00  0.00     0.005 C 
ATOM      8  C   UNL     1       1.392  45.879   9.634  1.00  0.00     0.003 C 
ATOM      9  C   UNL     1       2.516  44.862   9.282  1.00  0.00     0.000 C 
ATOM     10  C   UNL     1       3.870  45.560   9.416  1.00  0.00     0.031 C 
ATOM     11  C   UNL     1       3.878  46.853   8.631  1.00  0.00    -0.027 C 
ATOM     12  C   UNL     1       2.757  47.544   8.286  1.00  0.00    -0.065 C 
ATOM     13  C   UNL     1       1.328  47.025   8.564  1.00  0.00    -0.008 C 
ATOM     14  C   UNL     1       0.472  48.206   9.125  1.00  0.00     0.014 C 
ATOM     15  C   UNL     1       0.603  49.509   8.318  1.00  0.00     0.033 C 
ATOM     16  C   UNL     1       2.066  49.949   8.198  1.00  0.00     0.118 C 
ATOM     17  C   UNL     1       2.907  48.851   7.535  1.00  0.00     0.063 C 
ATOM     18  C   UNL     1       0.696  46.525   7.237  1.00  0.00     0.016 C 
ATOM     19  C   UNL     1       2.440  44.430  12.464  1.00  0.00     0.012 C 
ENDROOT
BRANCH   1  20
ATOM     20  C   UNL     1       1.284  41.789  13.243  1.00  0.00     0.133 C 
ATOM     21  C   UNL     1      -0.024  42.161  13.889  1.00  0.00     0.088 C 
ATOM     22  O   UNL     1       2.099  41.177  13.918  1.00  0.00    -0.300 OA
ENDBRANCH   1  20
BRANCH  16  23
ATOM     23  O   UNL     1       2.129  51.125   7.435  1.00  0.00    -0.393 OA
ATOM     24  H   UNL     1       2.982  51.091   6.928  1.00  0.00     0.210 HD
ENDBRANCH  16  23
TORSDOF 2
ENDMDL
