MODEL 1
REMARK VINA RESULT:    -3.269      0.000      0.000
REMARK INTER + INTRA:          -5.678
REMARK INTER:                  -4.798
REMARK INTRA:                  -0.880
REMARK UNBOUND:                -0.880
REMARK SMILES O=C([O-])CCCCCCCC(=O)[O-]
REMARK SMILES IDX 7 1 6 2 5 3 4 4 2 5 1 6 3 7 8 8 9 9 10 10 11 11 12 12 13 13
REMARK H PARENT
REMARK Flexibility Score: inf
ROOT
ATOM      1  C   UNL     1     152.155 152.472 159.557  1.00  0.00     0.000 C 
ENDROOT
BRANCH   1   2
ATOM      2  C   UNL     1     153.114 151.289 159.326  1.00  0.00     0.000 C 
BRANCH   2   3
ATOM      3  C   UNL     1     153.578 151.097 157.867  1.00  0.00     0.006 C 
BRANCH   3   4
ATOM      4  C   UNL     1     154.981 151.644 157.567  1.00  0.00     0.053 C 
BRANCH   4   5
ATOM      5  C   UNL     1     155.005 153.141 157.531  1.00  0.00     0.041 C 
ATOM      6  O   UNL     1     154.645 153.755 156.492  1.00  0.00    -0.550 OA
ATOM      7  O   UNL     1     155.458 153.857 158.632  1.00  0.00    -0.550 OA
ENDBRANCH   4   5
ENDBRANCH   3   4
ENDBRANCH   2   3
ENDBRANCH   1   2
BRANCH   1   8
ATOM      8  C   UNL     1     151.213 152.717 158.370  1.00  0.00     0.000 C 
BRANCH   8   9
ATOM      9  C   UNL     1     151.401 154.133 157.803  1.00  0.00     0.006 C 
BRANCH   9  10
ATOM     10  C   UNL     1     151.918 155.118 158.859  1.00  0.00     0.053 C 
BRANCH  10  11
ATOM     11  C   UNL     1     152.730 156.215 158.243  1.00  0.00     0.041 C 
ATOM     12  O   UNL     1     152.453 156.639 157.090  1.00  0.00    -0.550 OA
ATOM     13  O   UNL     1     153.815 156.747 158.929  1.00  0.00    -0.550 OA
ENDBRANCH  10  11
ENDBRANCH   9  10
ENDBRANCH   8   9
ENDBRANCH   1   8
TORSDOF 8
ENDMDL
MODEL 2
REMARK VINA RESULT:    -3.257      1.394      2.426
REMARK INTER + INTRA:          -5.660
REMARK INTER:                  -4.823
REMARK INTRA:                  -0.837
REMARK UNBOUND:                -0.880
REMARK SMILES O=C([O-])CCCCCCCC(=O)[O-]
REMARK SMILES IDX 7 1 6 2 5 3 4 4 2 5 1 6 3 7 8 8 9 9 10 10 11 11 12 12 13 13
REMARK H PARENT
REMARK Flexibility Score: inf
ROOT
ATOM      1  C   UNL     1     153.135 150.936 158.198  1.00  0.00     0.000 C 
ENDROOT
BRANCH   1   2
ATOM      2  C   UNL     1     154.526 151.089 157.556  1.00  0.00     0.000 C 
BRANCH   2   3
ATOM      3  C   UNL     1     155.223 152.440 157.821  1.00  0.00     0.006 C 
BRANCH   3   4
ATOM      4  C   UNL     1     154.726 153.597 156.941  1.00  0.00     0.053 C 
BRANCH   4   5
ATOM      5  C   UNL     1     154.966 154.931 157.579  1.00  0.00     0.041 C 
ATOM      6  O   UNL     1     155.676 155.019 158.616  1.00  0.00    -0.550 OA
ATOM      7  O   UNL     1     154.378 156.072 157.049  1.00  0.00    -0.550 OA
ENDBRANCH   4   5
ENDBRANCH   3   4
ENDBRANCH   2   3
ENDBRANCH   1   2
BRANCH   1   8
ATOM      8  C   UNL     1     153.064 151.516 159.618  1.00  0.00     0.000 C 
BRANCH   8   9
ATOM      9  C   UNL     1     152.005 152.625 159.706  1.00  0.00     0.006 C 
BRANCH   9  10
ATOM     10  C   UNL     1     151.262 152.826 158.379  1.00  0.00     0.053 C 
BRANCH  10  11
ATOM     11  C   UNL     1     151.258 154.264 157.958  1.00  0.00     0.041 C 
ATOM     12  O   UNL     1     151.045 154.573 156.756  1.00  0.00    -0.550 OA
ATOM     13  O   UNL     1     151.524 155.261 158.887  1.00  0.00    -0.550 OA
ENDBRANCH  10  11
ENDBRANCH   9  10
ENDBRANCH   8   9
ENDBRANCH   1   8
TORSDOF 8
ENDMDL
MODEL 3
REMARK VINA RESULT:    -3.195      1.494      3.472
REMARK INTER + INTRA:          -5.569
REMARK INTER:                  -4.762
REMARK INTRA:                  -0.808
REMARK UNBOUND:                -0.880
REMARK SMILES O=C([O-])CCCCCCCC(=O)[O-]
REMARK SMILES IDX 7 1 6 2 5 3 4 4 2 5 1 6 3 7 8 8 9 9 10 10 11 11 12 12 13 13
REMARK H PARENT
REMARK Flexibility Score: inf
ROOT
ATOM      1  C   UNL     1     153.294 150.995 158.666  1.00  0.00     0.000 C 
ENDROOT
BRANCH   1   2
ATOM      2  C   UNL     1     153.180 152.066 159.767  1.00  0.00     0.000 C 
BRANCH   2   3
ATOM      3  C   UNL     1     151.811 152.770 159.856  1.00  0.00     0.006 C 
BRANCH   3   4
ATOM      4  C   UNL     1     151.114 152.984 158.504  1.00  0.00     0.053 C 
BRANCH   4   5
ATOM      5  C   UNL     1     151.118 154.423 158.091  1.00  0.00     0.041 C 
ATOM      6  O   UNL     1     150.942 155.329 158.948  1.00  0.00    -0.550 OA
ATOM      7  O   UNL     1     151.283 154.764 156.754  1.00  0.00    -0.550 OA
ENDBRANCH   4   5
ENDBRANCH   3   4
ENDBRANCH   2   3
ENDBRANCH   1   2
BRANCH   1   8
ATOM      8  C   UNL     1     154.261 151.393 157.542  1.00  0.00     0.000 C 
BRANCH   8   9
ATOM      9  C   UNL     1     155.106 152.610 157.949  1.00  0.00     0.006 C 
BRANCH   9  10
ATOM     10  C   UNL     1     154.785 153.850 157.105  1.00  0.00     0.053 C 
BRANCH  10  11
ATOM     11  C   UNL     1     155.015 155.116 157.870  1.00  0.00     0.041 C 
ATOM     12  O   UNL     1     154.347 155.361 158.909  1.00  0.00    -0.550 OA
ATOM     13  O   UNL     1     155.945 156.043 157.416  1.00  0.00    -0.550 OA
ENDBRANCH  10  11
ENDBRANCH   9  10
ENDBRANCH   8   9
ENDBRANCH   1   8
TORSDOF 8
ENDMDL
MODEL 4
REMARK VINA RESULT:    -3.193      1.683      2.181
REMARK INTER + INTRA:          -5.566
REMARK INTER:                  -4.814
REMARK INTRA:                  -0.752
REMARK UNBOUND:                -0.880
REMARK SMILES O=C([O-])CCCCCCCC(=O)[O-]
REMARK SMILES IDX 7 1 6 2 5 3 4 4 2 5 1 6 3 7 8 8 9 9 10 10 11 11 12 12 13 13
REMARK H PARENT
REMARK Flexibility Score: inf
ROOT
ATOM      1  C   UNL     1     152.191 152.356 159.864  1.00  0.00     0.000 C 
ENDROOT
BRANCH   1   2
ATOM      2  C   UNL     1     153.168 151.251 159.421  1.00  0.00     0.000 C 
BRANCH   2   3
ATOM      3  C   UNL     1     153.494 151.231 157.914  1.00  0.00     0.006 C 
BRANCH   3   4
ATOM      4  C   UNL     1     154.892 151.758 157.556  1.00  0.00     0.053 C 
BRANCH   4   5
ATOM      5  C   UNL     1     154.935 153.255 157.518  1.00  0.00     0.041 C 
ATOM      6  O   UNL     1     154.669 153.869 156.451  1.00  0.00    -0.550 OA
ATOM      7  O   UNL     1     155.303 153.970 158.651  1.00  0.00    -0.550 OA
ENDBRANCH   4   5
ENDBRANCH   3   4
ENDBRANCH   2   3
ENDBRANCH   1   2
BRANCH   1   8
ATOM      8  C   UNL     1     151.336 152.896 158.709  1.00  0.00     0.000 C 
BRANCH   8   9
ATOM      9  C   UNL     1     151.488 154.418 158.577  1.00  0.00     0.006 C 
BRANCH   9  10
ATOM     10  C   UNL     1     151.341 154.894 157.126  1.00  0.00     0.053 C 
BRANCH  10  11
ATOM     11  C   UNL     1     149.934 154.748 156.635  1.00  0.00     0.041 C 
ATOM     12  O   UNL     1     149.708 154.332 155.469  1.00  0.00    -0.550 OA
ATOM     13  O   UNL     1     148.871 155.105 157.455  1.00  0.00    -0.550 OA
ENDBRANCH  10  11
ENDBRANCH   9  10
ENDBRANCH   8   9
ENDBRANCH   1   8
TORSDOF 8
ENDMDL
MODEL 5
REMARK VINA RESULT:    -3.188      1.986      3.206
REMARK INTER + INTRA:          -5.559
REMARK INTER:                  -4.757
REMARK INTRA:                  -0.802
REMARK UNBOUND:                -0.880
REMARK SMILES O=C([O-])CCCCCCCC(=O)[O-]
REMARK SMILES IDX 7 1 6 2 5 3 4 4 2 5 1 6 3 7 8 8 9 9 10 10 11 11 12 12 13 13
REMARK H PARENT
REMARK Flexibility Score: inf
ROOT
ATOM      1  C   UNL     1     154.966 153.333 157.246  1.00  0.00     0.000 C 
ENDROOT
BRANCH   1   2
ATOM      2  C   UNL     1     155.199 151.830 157.486  1.00  0.00     0.000 C 
BRANCH   2   3
ATOM      3  C   UNL     1     153.918 150.989 157.664  1.00  0.00     0.006 C 
BRANCH   3   4
ATOM      4  C   UNL     1     152.652 151.809 157.954  1.00  0.00     0.053 C 
BRANCH   4   5
ATOM      5  C   UNL     1     152.436 152.008 159.423  1.00  0.00     0.041 C 
ATOM      6  O   UNL     1     152.999 151.248 160.255  1.00  0.00    -0.550 OA
ATOM      7  O   UNL     1     151.587 153.012 159.872  1.00  0.00    -0.550 OA
ENDBRANCH   4   5
ENDBRANCH   3   4
ENDBRANCH   2   3
ENDBRANCH   1   2
BRANCH   1   8
ATOM      8  C   UNL     1     155.377 154.201 158.445  1.00  0.00     0.000 C 
BRANCH   8   9
ATOM      9  C   UNL     1     154.358 155.325 158.684  1.00  0.00     0.006 C 
BRANCH   9  10
ATOM     10  C   UNL     1     153.501 155.606 157.444  1.00  0.00     0.053 C 
BRANCH  10  11
ATOM     11  C   UNL     1     152.042 155.665 157.779  1.00  0.00     0.041 C 
ATOM     12  O   UNL     1     151.649 156.294 158.795  1.00  0.00    -0.550 OA
ATOM     13  O   UNL     1     151.119 154.995 156.985  1.00  0.00    -0.550 OA
ENDBRANCH  10  11
ENDBRANCH   9  10
ENDBRANCH   8   9
ENDBRANCH   1   8
TORSDOF 8
ENDMDL
MODEL 6
REMARK VINA RESULT:    -3.151      2.016      4.417
REMARK INTER + INTRA:          -5.504
REMARK INTER:                  -4.814
REMARK INTRA:                  -0.691
REMARK UNBOUND:                -0.880
REMARK SMILES O=C([O-])CCCCCCCC(=O)[O-]
REMARK SMILES IDX 7 1 6 2 5 3 4 4 2 5 1 6 3 7 8 8 9 9 10 10 11 11 12 12 13 13
REMARK H PARENT
REMARK Flexibility Score: inf
ROOT
ATOM      1  C   UNL     1     154.979 153.209 157.255  1.00  0.00     0.000 C 
ENDROOT
BRANCH   1   2
ATOM      2  C   UNL     1     155.350 154.126 158.435  1.00  0.00     0.000 C 
BRANCH   2   3
ATOM      3  C   UNL     1     154.429 155.348 158.629  1.00  0.00     0.006 C 
BRANCH   3   4
ATOM      4  C   UNL     1     153.472 155.617 157.458  1.00  0.00     0.053 C 
BRANCH   4   5
ATOM      5  C   UNL     1     152.036 155.542 157.877  1.00  0.00     0.041 C 
ATOM      6  O   UNL     1     151.654 156.110 158.934  1.00  0.00    -0.550 OA
ATOM      7  O   UNL     1     151.126 154.817 157.118  1.00  0.00    -0.550 OA
ENDBRANCH   4   5
ENDBRANCH   3   4
ENDBRANCH   2   3
ENDBRANCH   1   2
BRANCH   1   8
ATOM      8  C   UNL     1     155.242 151.725 157.546  1.00  0.00     0.000 C 
BRANCH   8   9
ATOM      9  C   UNL     1     153.945 150.908 157.445  1.00  0.00     0.006 C 
BRANCH   9  10
ATOM     10  C   UNL     1     152.709 151.730 157.832  1.00  0.00     0.053 C 
BRANCH  10  11
ATOM     11  C   UNL     1     152.526 151.791 159.317  1.00  0.00     0.041 C 
ATOM     12  O   UNL     1     153.025 150.902 160.056  1.00  0.00    -0.550 OA
ATOM     13  O   UNL     1     151.775 152.814 159.884  1.00  0.00    -0.550 OA
ENDBRANCH  10  11
ENDBRANCH   9  10
ENDBRANCH   8   9
ENDBRANCH   1   8
TORSDOF 8
ENDMDL
MODEL 7
REMARK VINA RESULT:    -3.149      2.818      4.033
REMARK INTER + INTRA:          -5.502
REMARK INTER:                  -4.967
REMARK INTRA:                  -0.535
REMARK UNBOUND:                -0.880
REMARK SMILES O=C([O-])CCCCCCCC(=O)[O-]
REMARK SMILES IDX 7 1 6 2 5 3 4 4 2 5 1 6 3 7 8 8 9 9 10 10 11 11 12 12 13 13
REMARK H PARENT
REMARK Flexibility Score: inf
ROOT
ATOM      1  C   UNL     1     154.620 153.694 156.772  1.00  0.00     0.000 C 
ENDROOT
BRANCH   1   2
ATOM      2  C   UNL     1     154.968 152.345 157.428  1.00  0.00     0.000 C 
BRANCH   2   3
ATOM      3  C   UNL     1     153.815 151.321 157.471  1.00  0.00     0.006 C 
BRANCH   3   4
ATOM      4  C   UNL     1     153.411 150.875 158.884  1.00  0.00     0.053 C 
BRANCH   4   5
ATOM      5  C   UNL     1     152.711 151.964 159.639  1.00  0.00     0.041 C 
ATOM      6  O   UNL     1     151.824 152.656 159.074  1.00  0.00    -0.550 OA
ATOM      7  O   UNL     1     153.063 152.236 160.955  1.00  0.00    -0.550 OA
ENDBRANCH   4   5
ENDBRANCH   3   4
ENDBRANCH   2   3
ENDBRANCH   1   2
BRANCH   1   8
ATOM      8  C   UNL     1     154.404 154.818 157.795  1.00  0.00     0.000 C 
BRANCH   8   9
ATOM      9  C   UNL     1     155.602 154.929 158.750  1.00  0.00     0.006 C 
BRANCH   9  10
ATOM     10  C   UNL     1     156.372 156.243 158.568  1.00  0.00     0.053 C 
BRANCH  10  11
ATOM     11  C   UNL     1     157.704 156.204 159.251  1.00  0.00     0.041 C 
ATOM     12  O   UNL     1     158.701 155.698 158.673  1.00  0.00    -0.550 OA
ATOM     13  O   UNL     1     157.837 156.699 160.543  1.00  0.00    -0.550 OA
ENDBRANCH  10  11
ENDBRANCH   9  10
ENDBRANCH   8   9
ENDBRANCH   1   8
TORSDOF 8
ENDMDL
MODEL 8
REMARK VINA RESULT:    -3.096     10.225     11.262
REMARK INTER + INTRA:          -5.423
REMARK INTER:                  -4.861
REMARK INTRA:                  -0.563
REMARK UNBOUND:                -0.880
REMARK SMILES O=C([O-])CCCCCCCC(=O)[O-]
REMARK SMILES IDX 7 1 6 2 5 3 4 4 2 5 1 6 3 7 8 8 9 9 10 10 11 11 12 12 13 13
REMARK H PARENT
REMARK Flexibility Score: inf
ROOT
ATOM      1  C   UNL     1     150.832 154.955 146.104  1.00  0.00     0.000 C 
ENDROOT
BRANCH   1   2
ATOM      2  C   UNL     1     149.332 155.085 146.423  1.00  0.00     0.000 C 
BRANCH   2   3
ATOM      3  C   UNL     1     148.517 153.782 146.283  1.00  0.00     0.006 C 
BRANCH   3   4
ATOM      4  C   UNL     1     148.750 152.760 147.406  1.00  0.00     0.053 C 
BRANCH   4   5
ATOM      5  C   UNL     1     149.758 151.722 147.021  1.00  0.00     0.041 C 
ATOM      6  O   UNL     1     149.516 150.922 146.079  1.00  0.00    -0.550 OA
ATOM      7  O   UNL     1     150.951 151.614 147.725  1.00  0.00    -0.550 OA
ENDBRANCH   4   5
ENDBRANCH   3   4
ENDBRANCH   2   3
ENDBRANCH   1   2
BRANCH   1   8
ATOM      8  C   UNL     1     151.726 155.178 147.332  1.00  0.00     0.000 C 
BRANCH   8   9
ATOM      9  C   UNL     1     150.947 155.870 148.460  1.00  0.00     0.006 C 
BRANCH   9  10
ATOM     10  C   UNL     1     151.568 157.217 148.853  1.00  0.00     0.053 C 
BRANCH  10  11
ATOM     11  C   UNL     1     152.759 157.040 149.743  1.00  0.00     0.041 C 
ATOM     12  O   UNL     1     152.650 156.425 150.836  1.00  0.00    -0.550 OA
ATOM     13  O   UNL     1     153.985 157.584 149.380  1.00  0.00    -0.550 OA
ENDBRANCH  10  11
ENDBRANCH   9  10
ENDBRANCH   8   9
ENDBRANCH   1   8
TORSDOF 8
ENDMDL
MODEL 9
REMARK VINA RESULT:    -3.002      1.183      4.185
REMARK INTER + INTRA:          -5.285
REMARK INTER:                  -4.719
REMARK INTRA:                  -0.566
REMARK UNBOUND:                -0.880
REMARK SMILES O=C([O-])CCCCCCCC(=O)[O-]
REMARK SMILES IDX 7 1 6 2 5 3 4 4 2 5 1 6 3 7 8 8 9 9 10 10 11 11 12 12 13 13
REMARK H PARENT
REMARK Flexibility Score: inf
ROOT
ATOM      1  C   UNL     1     151.353 152.741 158.248  1.00  0.00     0.000 C 
ENDROOT
BRANCH   1   2
ATOM      2  C   UNL     1     151.495 154.213 157.818  1.00  0.00     0.000 C 
BRANCH   2   3
ATOM      3  C   UNL     1     152.041 155.163 158.904  1.00  0.00     0.006 C 
BRANCH   3   4
ATOM      4  C   UNL     1     152.598 156.490 158.368  1.00  0.00     0.053 C 
BRANCH   4   5
ATOM      5  C   UNL     1     153.992 156.751 158.851  1.00  0.00     0.041 C 
ATOM      6  O   UNL     1     154.839 155.819 158.873  1.00  0.00    -0.550 OA
ATOM      7  O   UNL     1     154.346 158.014 159.308  1.00  0.00    -0.550 OA
ENDBRANCH   4   5
ENDBRANCH   3   4
ENDBRANCH   2   3
ENDBRANCH   1   2
BRANCH   1   8
ATOM      8  C   UNL     1     152.155 152.409 159.515  1.00  0.00     0.000 C 
BRANCH   8   9
ATOM      9  C   UNL     1     153.152 151.270 159.251  1.00  0.00     0.006 C 
BRANCH   9  10
ATOM     10  C   UNL     1     153.492 151.130 157.761  1.00  0.00     0.053 C 
BRANCH  10  11
ATOM     11  C   UNL     1     154.790 151.797 157.424  1.00  0.00     0.041 C 
ATOM     12  O   UNL     1     154.807 153.000 157.052  1.00  0.00    -0.550 OA
ATOM     13  O   UNL     1     155.978 151.081 157.488  1.00  0.00    -0.550 OA
ENDBRANCH  10  11
ENDBRANCH   9  10
ENDBRANCH   8   9
ENDBRANCH   1   8
TORSDOF 8
ENDMDL
