MODEL 1
REMARK VINA RESULT:    -4.961      0.000      0.000
REMARK INTER + INTRA:          -7.266
REMARK INTER:                  -6.992
REMARK INTRA:                  -0.274
REMARK UNBOUND:                -0.274
REMARK SMILES CCCCCCCCC(=O)[O-]
REMARK SMILES IDX 6 1 7 2 8 3 9 4 10 5 11 6 5 7 4 8 3 9 2 10 1 11
REMARK H PARENT
REMARK Flexibility Score: inf
ROOT
ATOM      1  C   UNL     1      77.750  21.171  30.043  1.00  0.00     0.000 C 
ENDROOT
BRANCH   1   2
ATOM      2  C   UNL     1      78.001  21.733  28.627  1.00  0.00     0.006 C 
BRANCH   2   3
ATOM      3  C   UNL     1      77.380  20.903  27.492  1.00  0.00     0.053 C 
BRANCH   3   4
ATOM      4  C   UNL     1      77.335  21.662  26.202  1.00  0.00     0.041 C 
ATOM      5  O   UNL     1      77.644  22.882  26.173  1.00  0.00    -0.550 OA
ATOM      6  O   UNL     1      76.920  21.028  25.038  1.00  0.00    -0.550 OA
ENDBRANCH   3   4
ENDBRANCH   2   3
ENDBRANCH   1   2
BRANCH   1   7
ATOM      7  C   UNL     1      76.361  20.546  30.260  1.00  0.00     0.000 C 
BRANCH   7   8
ATOM      8  C   UNL     1      76.144  20.051  31.700  1.00  0.00    -0.000 C 
BRANCH   8   9
ATOM      9  C   UNL     1      76.999  20.826  32.725  1.00  0.00    -0.000 C 
BRANCH   9  10
ATOM     10  C   UNL     1      76.299  21.050  34.075  1.00  0.00    -0.003 C 
ATOM     11  C   UNL     1      75.295  19.953  34.419  1.00  0.00     0.004 C 
ENDBRANCH   9  10
ENDBRANCH   8   9
ENDBRANCH   7   8
ENDBRANCH   1   7
TORSDOF 7
ENDMDL
MODEL 2
REMARK VINA RESULT:    -4.460      3.692      6.529
REMARK INTER + INTRA:          -6.559
REMARK INTER:                  -6.515
REMARK INTRA:                  -0.043
REMARK UNBOUND:                -0.274
REMARK SMILES CCCCCCCCC(=O)[O-]
REMARK SMILES IDX 6 1 7 2 8 3 9 4 10 5 11 6 5 7 4 8 3 9 2 10 1 11
REMARK H PARENT
REMARK Flexibility Score: inf
ROOT
ATOM      1  C   UNL     1      76.592  21.112  30.228  1.00  0.00     0.000 C 
ENDROOT
BRANCH   1   2
ATOM      2  C   UNL     1      77.443  20.703  31.449  1.00  0.00     0.006 C 
BRANCH   2   3
ATOM      3  C   UNL     1      76.782  20.983  32.809  1.00  0.00     0.053 C 
BRANCH   3   4
ATOM      4  C   UNL     1      75.777  19.933  33.170  1.00  0.00     0.041 C 
ATOM      5  O   UNL     1      75.388  19.103  32.307  1.00  0.00    -0.550 OA
ATOM      6  O   UNL     1      75.245  19.894  34.453  1.00  0.00    -0.550 OA
ENDBRANCH   3   4
ENDBRANCH   2   3
ENDBRANCH   1   2
BRANCH   1   7
ATOM      7  C   UNL     1      77.318  21.041  28.873  1.00  0.00     0.000 C 
BRANCH   7   8
ATOM      8  C   UNL     1      77.866  22.403  28.413  1.00  0.00    -0.000 C 
BRANCH   8   9
ATOM      9  C   UNL     1      77.822  22.568  26.879  1.00  0.00    -0.000 C 
BRANCH   9  10
ATOM     10  C   UNL     1      77.398  21.293  26.130  1.00  0.00    -0.003 C 
ATOM     11  C   UNL     1      77.112  21.535  24.650  1.00  0.00     0.004 C 
ENDBRANCH   9  10
ENDBRANCH   8   9
ENDBRANCH   7   8
ENDBRANCH   1   7
TORSDOF 7
ENDMDL
MODEL 3
REMARK VINA RESULT:    -4.391     15.085     16.394
REMARK INTER + INTRA:          -6.461
REMARK INTER:                  -5.759
REMARK INTRA:                  -0.702
REMARK UNBOUND:                -0.274
REMARK SMILES CCCCCCCCC(=O)[O-]
REMARK SMILES IDX 6 1 7 2 8 3 9 4 10 5 11 6 5 7 4 8 3 9 2 10 1 11
REMARK H PARENT
REMARK Flexibility Score: inf
ROOT
ATOM      1  C   UNL     1      63.905  18.732  37.296  1.00  0.00     0.000 C 
ENDROOT
BRANCH   1   2
ATOM      2  C   UNL     1      64.660  17.635  36.516  1.00  0.00     0.006 C 
BRANCH   2   3
ATOM      3  C   UNL     1      65.293  16.546  37.397  1.00  0.00     0.053 C 
BRANCH   3   4
ATOM      4  C   UNL     1      64.754  15.185  37.081  1.00  0.00     0.041 C 
ATOM      5  O   UNL     1      63.809  15.052  36.259  1.00  0.00    -0.550 OA
ATOM      6  O   UNL     1      65.275  14.067  37.719  1.00  0.00    -0.550 OA
ENDBRANCH   3   4
ENDBRANCH   2   3
ENDBRANCH   1   2
BRANCH   1   7
ATOM      7  C   UNL     1      62.392  18.498  37.453  1.00  0.00     0.000 C 
BRANCH   7   8
ATOM      8  C   UNL     1      61.931  18.508  38.921  1.00  0.00    -0.000 C 
BRANCH   8   9
ATOM      9  C   UNL     1      63.025  19.029  39.877  1.00  0.00    -0.000 C 
BRANCH   9  10
ATOM     10  C   UNL     1      63.617  17.945  40.793  1.00  0.00    -0.003 C 
ATOM     11  C   UNL     1      63.158  16.536  40.428  1.00  0.00     0.004 C 
ENDBRANCH   9  10
ENDBRANCH   8   9
ENDBRANCH   7   8
ENDBRANCH   1   7
TORSDOF 7
ENDMDL
MODEL 4
REMARK VINA RESULT:    -4.367     14.748     16.814
REMARK INTER + INTRA:          -6.428
REMARK INTER:                  -5.708
REMARK INTRA:                  -0.719
REMARK UNBOUND:                -0.274
REMARK SMILES CCCCCCCCC(=O)[O-]
REMARK SMILES IDX 6 1 7 2 8 3 9 4 10 5 11 6 5 7 4 8 3 9 2 10 1 11
REMARK H PARENT
REMARK Flexibility Score: inf
ROOT
ATOM      1  C   UNL     1      63.138  15.594  39.521  1.00  0.00     0.000 C 
ENDROOT
BRANCH   1   2
ATOM      2  C   UNL     1      63.134  15.893  38.007  1.00  0.00     0.006 C 
BRANCH   2   3
ATOM      3  C   UNL     1      64.530  16.039  37.381  1.00  0.00     0.053 C 
BRANCH   3   4
ATOM      4  C   UNL     1      64.623  17.237  36.489  1.00  0.00     0.041 C 
ATOM      5  O   UNL     1      64.542  18.396  36.973  1.00  0.00    -0.550 OA
ATOM      6  O   UNL     1      64.764  17.072  35.117  1.00  0.00    -0.550 OA
ENDBRANCH   3   4
ENDBRANCH   2   3
ENDBRANCH   1   2
BRANCH   1   7
ATOM      7  C   UNL     1      62.596  16.725  40.411  1.00  0.00     0.000 C 
BRANCH   7   8
ATOM      8  C   UNL     1      63.473  17.989  40.378  1.00  0.00    -0.000 C 
BRANCH   8   9
ATOM      9  C   UNL     1      62.730  19.205  39.785  1.00  0.00    -0.000 C 
BRANCH   9  10
ATOM     10  C   UNL     1      61.238  18.949  39.515  1.00  0.00    -0.003 C 
ATOM     11  C   UNL     1      60.904  18.867  38.027  1.00  0.00     0.004 C 
ENDBRANCH   9  10
ENDBRANCH   8   9
ENDBRANCH   7   8
ENDBRANCH   1   7
TORSDOF 7
ENDMDL
MODEL 5
REMARK VINA RESULT:    -4.261     14.767     16.577
REMARK INTER + INTRA:          -6.278
REMARK INTER:                  -5.522
REMARK INTRA:                  -0.756
REMARK UNBOUND:                -0.274
REMARK SMILES CCCCCCCCC(=O)[O-]
REMARK SMILES IDX 6 1 7 2 8 3 9 4 10 5 11 6 5 7 4 8 3 9 2 10 1 11
REMARK H PARENT
REMARK Flexibility Score: inf
ROOT
ATOM      1  C   UNL     1      63.139  18.701  38.859  1.00  0.00     0.000 C 
ENDROOT
BRANCH   1   2
ATOM      2  C   UNL     1      63.884  18.515  37.521  1.00  0.00     0.006 C 
BRANCH   2   3
ATOM      3  C   UNL     1      64.891  17.354  37.507  1.00  0.00     0.053 C 
BRANCH   3   4
ATOM      4  C   UNL     1      64.739  16.493  36.292  1.00  0.00     0.041 C 
ATOM      5  O   UNL     1      64.718  17.013  35.145  1.00  0.00    -0.550 OA
ATOM      6  O   UNL     1      64.586  15.119  36.428  1.00  0.00    -0.550 OA
ENDBRANCH   3   4
ENDBRANCH   2   3
ENDBRANCH   1   2
BRANCH   1   7
ATOM      7  C   UNL     1      63.876  18.162  40.098  1.00  0.00     0.000 C 
BRANCH   7   8
ATOM      8  C   UNL     1      63.141  16.990  40.772  1.00  0.00    -0.000 C 
BRANCH   8   9
ATOM      9  C   UNL     1      61.909  16.526  39.965  1.00  0.00    -0.000 C 
BRANCH   9  10
ATOM     10  C   UNL     1      62.096  15.163  39.277  1.00  0.00    -0.003 C 
ATOM     11  C   UNL     1      63.370  14.443  39.710  1.00  0.00     0.004 C 
ENDBRANCH   9  10
ENDBRANCH   8   9
ENDBRANCH   7   8
ENDBRANCH   1   7
TORSDOF 7
ENDMDL
MODEL 6
REMARK VINA RESULT:    -4.246     14.832     16.617
REMARK INTER + INTRA:          -6.258
REMARK INTER:                  -5.458
REMARK INTRA:                  -0.800
REMARK UNBOUND:                -0.274
REMARK SMILES CCCCCCCCC(=O)[O-]
REMARK SMILES IDX 6 1 7 2 8 3 9 4 10 5 11 6 5 7 4 8 3 9 2 10 1 11
REMARK H PARENT
REMARK Flexibility Score: inf
ROOT
ATOM      1  C   UNL     1      63.471  14.568  38.191  1.00  0.00     0.000 C 
ENDROOT
BRANCH   1   2
ATOM      2  C   UNL     1      63.081  15.660  37.173  1.00  0.00     0.006 C 
BRANCH   2   3
ATOM      3  C   UNL     1      64.251  16.198  36.334  1.00  0.00     0.053 C 
BRANCH   3   4
ATOM      4  C   UNL     1      64.993  17.289  37.042  1.00  0.00     0.041 C 
ATOM      5  O   UNL     1      64.585  18.479  36.978  1.00  0.00    -0.550 OA
ATOM      6  O   UNL     1      66.154  16.996  37.746  1.00  0.00    -0.550 OA
ENDBRANCH   3   4
ENDBRANCH   2   3
ENDBRANCH   1   2
BRANCH   1   7
ATOM      7  C   UNL     1      63.315  14.967  39.669  1.00  0.00     0.000 C 
BRANCH   7   8
ATOM      8  C   UNL     1      62.585  16.308  39.855  1.00  0.00    -0.000 C 
BRANCH   8   9
ATOM      9  C   UNL     1      63.496  17.394  40.466  1.00  0.00    -0.000 C 
BRANCH   9  10
ATOM     10  C   UNL     1      63.129  18.825  40.040  1.00  0.00    -0.003 C 
ATOM     11  C   UNL     1      61.806  18.903  39.282  1.00  0.00     0.004 C 
ENDBRANCH   9  10
ENDBRANCH   8   9
ENDBRANCH   7   8
ENDBRANCH   1   7
TORSDOF 7
ENDMDL
MODEL 7
REMARK VINA RESULT:    -4.220     13.133     14.763
REMARK INTER + INTRA:          -6.221
REMARK INTER:                  -5.669
REMARK INTRA:                  -0.552
REMARK UNBOUND:                -0.274
REMARK SMILES CCCCCCCCC(=O)[O-]
REMARK SMILES IDX 6 1 7 2 8 3 9 4 10 5 11 6 5 7 4 8 3 9 2 10 1 11
REMARK H PARENT
REMARK Flexibility Score: inf
ROOT
ATOM      1  C   UNL     1      69.197   6.857  33.340  1.00  0.00     0.000 C 
ENDROOT
BRANCH   1   2
ATOM      2  C   UNL     1      70.667   7.296  33.504  1.00  0.00     0.006 C 
BRANCH   2   3
ATOM      3  C   UNL     1      71.579   6.927  32.323  1.00  0.00     0.053 C 
BRANCH   3   4
ATOM      4  C   UNL     1      72.616   7.975  32.065  1.00  0.00     0.041 C 
ATOM      5  O   UNL     1      73.234   8.505  33.026  1.00  0.00    -0.550 OA
ATOM      6  O   UNL     1      72.877   8.390  30.766  1.00  0.00    -0.550 OA
ENDBRANCH   3   4
ENDBRANCH   2   3
ENDBRANCH   1   2
BRANCH   1   7
ATOM      7  C   UNL     1      68.182   8.006  33.215  1.00  0.00     0.000 C 
BRANCH   7   8
ATOM      8  C   UNL     1      68.820   9.394  33.394  1.00  0.00    -0.000 C 
BRANCH   8   9
ATOM      9  C   UNL     1      68.153  10.468  32.507  1.00  0.00    -0.000 C 
BRANCH   9  10
ATOM     10  C   UNL     1      69.154  11.369  31.765  1.00  0.00    -0.003 C 
ATOM     11  C   UNL     1      70.606  11.102  32.155  1.00  0.00     0.004 C 
ENDBRANCH   9  10
ENDBRANCH   8   9
ENDBRANCH   7   8
ENDBRANCH   1   7
TORSDOF 7
ENDMDL
MODEL 8
REMARK VINA RESULT:    -4.208     15.533     16.705
REMARK INTER + INTRA:          -6.204
REMARK INTER:                  -5.555
REMARK INTRA:                  -0.650
REMARK UNBOUND:                -0.274
REMARK SMILES CCCCCCCCC(=O)[O-]
REMARK SMILES IDX 6 1 7 2 8 3 9 4 10 5 11 6 5 7 4 8 3 9 2 10 1 11
REMARK H PARENT
REMARK Flexibility Score: inf
ROOT
ATOM      1  C   UNL     1      64.605  16.911  35.872  1.00  0.00     0.000 C 
ENDROOT
BRANCH   1   2
ATOM      2  C   UNL     1      64.265  15.436  36.174  1.00  0.00     0.006 C 
BRANCH   2   3
ATOM      3  C   UNL     1      64.706  14.951  37.565  1.00  0.00     0.053 C 
BRANCH   3   4
ATOM      4  C   UNL     1      63.537  14.665  38.455  1.00  0.00     0.041 C 
ATOM      5  O   UNL     1      63.713  14.121  39.577  1.00  0.00    -0.550 OA
ATOM      6  O   UNL     1      62.250  14.970  38.032  1.00  0.00    -0.550 OA
ENDBRANCH   3   4
ENDBRANCH   2   3
ENDBRANCH   1   2
BRANCH   1   7
ATOM      7  C   UNL     1      64.935  17.770  37.105  1.00  0.00     0.000 C 
BRANCH   7   8
ATOM      8  C   UNL     1      63.867  18.839  37.397  1.00  0.00    -0.000 C 
BRANCH   8   9
ATOM      9  C   UNL     1      62.842  18.373  38.453  1.00  0.00    -0.000 C 
BRANCH   9  10
ATOM     10  C   UNL     1      63.176  18.826  39.884  1.00  0.00    -0.003 C 
ATOM     11  C   UNL     1      63.653  17.684  40.778  1.00  0.00     0.004 C 
ENDBRANCH   9  10
ENDBRANCH   8   9
ENDBRANCH   7   8
ENDBRANCH   1   7
TORSDOF 7
ENDMDL
MODEL 9
REMARK VINA RESULT:    -4.190     13.034     14.674
REMARK INTER + INTRA:          -6.179
REMARK INTER:                  -5.623
REMARK INTRA:                  -0.556
REMARK UNBOUND:                -0.274
REMARK SMILES CCCCCCCCC(=O)[O-]
REMARK SMILES IDX 6 1 7 2 8 3 9 4 10 5 11 6 5 7 4 8 3 9 2 10 1 11
REMARK H PARENT
REMARK Flexibility Score: inf
ROOT
ATOM      1  C   UNL     1      68.015   8.164  33.251  1.00  0.00     0.000 C 
ENDROOT
BRANCH   1   2
ATOM      2  C   UNL     1      68.914   9.418  33.255  1.00  0.00     0.006 C 
BRANCH   2   3
ATOM      3  C   UNL     1      68.337  10.620  32.491  1.00  0.00     0.053 C 
BRANCH   3   4
ATOM      4  C   UNL     1      69.405  11.412  31.802  1.00  0.00     0.041 C 
ATOM      5  O   UNL     1      69.099  12.247  30.910  1.00  0.00    -0.550 OA
ATOM      6  O   UNL     1      70.740  11.205  32.123  1.00  0.00    -0.550 OA
ENDBRANCH   3   4
ENDBRANCH   2   3
ENDBRANCH   1   2
BRANCH   1   7
ATOM      7  C   UNL     1      68.754   6.831  33.042  1.00  0.00     0.000 C 
BRANCH   7   8
ATOM      8  C   UNL     1      70.183   6.840  33.613  1.00  0.00    -0.000 C 
BRANCH   8   9
ATOM      9  C   UNL     1      71.254   6.642  32.519  1.00  0.00    -0.000 C 
BRANCH   9  10
ATOM     10  C   UNL     1      72.160   7.866  32.308  1.00  0.00    -0.003 C 
ATOM     11  C   UNL     1      72.517   8.580  33.609  1.00  0.00     0.004 C 
ENDBRANCH   9  10
ENDBRANCH   8   9
ENDBRANCH   7   8
ENDBRANCH   1   7
TORSDOF 7
ENDMDL
