MODEL 1
REMARK VINA RESULT:    -7.401      0.000      0.000
REMARK INTER + INTRA:          -8.063
REMARK INTER:                  -7.834
REMARK INTRA:                  -0.229
REMARK UNBOUND:                -0.229
REMARK SMILES O=c1cc(-c2ccccc2)oc2ccccc12
REMARK SMILES IDX 4 1 3 2 2 3 1 4 17 5 16 6 15 7 14 8 13 9 12 10 11 11 5 12
REMARK SMILES IDX 8 13 7 14 9 15 6 16 10 17
REMARK H PARENT
REMARK Flexibility Score: inf
ROOT
ATOM      1  C   UNL     1     -10.994  -5.539  31.252  1.00  0.00     0.138 A 
ATOM      2  C   UNL     1     -12.149  -4.735  31.156  1.00  0.00     0.100 A 
ATOM      3  C   UNL     1     -12.030  -3.346  31.252  1.00  0.00     0.193 A 
ATOM      4  O   UNL     1     -13.063  -2.627  31.166  1.00  0.00    -0.289 OA
ATOM      5  C   UNL     1     -10.765  -2.773  31.442  1.00  0.00     0.065 A 
ATOM      6  C   UNL     1     -10.576  -1.382  31.547  1.00  0.00     0.016 A 
ATOM      7  C   UNL     1      -9.291  -0.863  31.737  1.00  0.00     0.001 A 
ATOM      8  C   UNL     1      -8.191  -1.721  31.823  1.00  0.00     0.004 A 
ATOM      9  C   UNL     1      -8.371  -3.104  31.720  1.00  0.00     0.048 A 
ATOM     10  C   UNL     1      -9.651  -3.634  31.530  1.00  0.00     0.138 A 
ATOM     11  O   UNL     1      -9.810  -4.950  31.434  1.00  0.00    -0.456 OA
ENDROOT
BRANCH   1  12
ATOM     12  C   UNL     1     -11.032  -7.031  31.161  1.00  0.00     0.017 A 
ATOM     13  C   UNL     1     -11.132  -9.840  30.894  1.00  0.00     0.000 A 
ATOM     14  C   UNL     1     -10.795  -9.266  32.120  1.00  0.00     0.001 A 
ATOM     15  C   UNL     1     -11.421  -9.025  29.801  1.00  0.00     0.001 A 
ATOM     16  C   UNL     1     -10.743  -7.875  32.258  1.00  0.00     0.012 A 
ATOM     17  C   UNL     1     -11.373  -7.634  29.930  1.00  0.00     0.012 A 
ENDBRANCH   1  12
TORSDOF 1
ENDMDL
MODEL 2
REMARK VINA RESULT:    -7.029      1.445      6.070
REMARK INTER + INTRA:          -7.668
REMARK INTER:                  -7.447
REMARK INTRA:                  -0.221
REMARK UNBOUND:                -0.229
REMARK SMILES O=c1cc(-c2ccccc2)oc2ccccc12
REMARK SMILES IDX 4 1 3 2 2 3 1 4 17 5 16 6 15 7 14 8 13 9 12 10 11 11 5 12
REMARK SMILES IDX 8 13 7 14 9 15 6 16 10 17
REMARK H PARENT
REMARK Flexibility Score: inf
ROOT
ATOM      1  C   UNL     1     -10.662  -5.205  30.525  1.00  0.00     0.138 A 
ATOM      2  C   UNL     1     -11.023  -5.624  29.227  1.00  0.00     0.100 A 
ATOM      3  C   UNL     1     -11.315  -6.971  28.995  1.00  0.00     0.193 A 
ATOM      4  O   UNL     1     -11.637  -7.345  27.835  1.00  0.00    -0.289 OA
ATOM      5  C   UNL     1     -11.244  -7.886  30.055  1.00  0.00     0.065 A 
ATOM      6  C   UNL     1     -11.525  -9.254  29.889  1.00  0.00     0.016 A 
ATOM      7  C   UNL     1     -11.438 -10.124  30.981  1.00  0.00     0.001 A 
ATOM      8  C   UNL     1     -11.074  -9.638  32.240  1.00  0.00     0.004 A 
ATOM      9  C   UNL     1     -10.793  -8.279  32.413  1.00  0.00     0.048 A 
ATOM     10  C   UNL     1     -10.876  -7.401  31.328  1.00  0.00     0.138 A 
ATOM     11  O   UNL     1     -10.607  -6.111  31.504  1.00  0.00    -0.456 OA
ENDROOT
BRANCH   1  12
ATOM     12  C   UNL     1     -10.334  -3.785  30.860  1.00  0.00     0.017 A 
ATOM     13  C   UNL     1      -9.809  -1.091  31.519  1.00  0.00     0.000 A 
ATOM     14  C   UNL     1      -8.792  -1.896  31.006  1.00  0.00     0.001 A 
ATOM     15  C   UNL     1     -11.087  -1.618  31.703  1.00  0.00     0.001 A 
ATOM     16  C   UNL     1      -9.046  -3.232  30.678  1.00  0.00     0.012 A 
ATOM     17  C   UNL     1     -11.349  -2.952  31.378  1.00  0.00     0.012 A 
ENDBRANCH   1  12
TORSDOF 1
ENDMDL
MODEL 3
REMARK VINA RESULT:    -7.020      1.451      6.062
REMARK INTER + INTRA:          -7.658
REMARK INTER:                  -7.438
REMARK INTRA:                  -0.221
REMARK UNBOUND:                -0.229
REMARK SMILES O=c1cc(-c2ccccc2)oc2ccccc12
REMARK SMILES IDX 4 1 3 2 2 3 1 4 17 5 16 6 15 7 14 8 13 9 12 10 11 11 5 12
REMARK SMILES IDX 8 13 7 14 9 15 6 16 10 17
REMARK H PARENT
REMARK Flexibility Score: inf
ROOT
ATOM      1  C   UNL     1     -10.727  -5.149  30.497  1.00  0.00     0.138 A 
ATOM      2  C   UNL     1     -11.101  -5.553  29.198  1.00  0.00     0.100 A 
ATOM      3  C   UNL     1     -11.390  -6.897  28.951  1.00  0.00     0.193 A 
ATOM      4  O   UNL     1     -11.724  -7.258  27.790  1.00  0.00    -0.289 OA
ATOM      5  C   UNL     1     -11.304  -7.825  29.998  1.00  0.00     0.065 A 
ATOM      6  C   UNL     1     -11.581  -9.193  29.817  1.00  0.00     0.016 A 
ATOM      7  C   UNL     1     -11.479 -10.076  30.897  1.00  0.00     0.001 A 
ATOM      8  C   UNL     1     -11.102  -9.606  32.158  1.00  0.00     0.004 A 
ATOM      9  C   UNL     1     -10.825  -8.248  32.346  1.00  0.00     0.048 A 
ATOM     10  C   UNL     1     -10.924  -7.356  31.273  1.00  0.00     0.138 A 
ATOM     11  O   UNL     1     -10.657  -6.067  31.463  1.00  0.00    -0.456 OA
ENDROOT
BRANCH   1  12
ATOM     12  C   UNL     1     -10.400  -3.732  30.846  1.00  0.00     0.017 A 
ATOM     13  C   UNL     1      -9.691  -1.074  31.476  1.00  0.00     0.000 A 
ATOM     14  C   UNL     1     -10.995  -1.519  31.694  1.00  0.00     0.001 A 
ATOM     15  C   UNL     1      -8.738  -1.944  30.949  1.00  0.00     0.001 A 
ATOM     16  C   UNL     1     -11.352  -2.835  31.383  1.00  0.00     0.012 A 
ATOM     17  C   UNL     1      -9.086  -3.260  30.636  1.00  0.00     0.012 A 
ENDBRANCH   1  12
TORSDOF 1
ENDMDL
MODEL 4
REMARK VINA RESULT:    -6.965      8.308     10.806
REMARK INTER + INTRA:          -7.600
REMARK INTER:                  -7.334
REMARK INTRA:                  -0.266
REMARK UNBOUND:                -0.229
REMARK SMILES O=c1cc(-c2ccccc2)oc2ccccc12
REMARK SMILES IDX 4 1 3 2 2 3 1 4 17 5 16 6 15 7 14 8 13 9 12 10 11 11 5 12
REMARK SMILES IDX 8 13 7 14 9 15 6 16 10 17
REMARK H PARENT
REMARK Flexibility Score: inf
ROOT
ATOM      1  C   UNL     1     -13.292  -9.074  23.353  1.00  0.00     0.138 A 
ATOM      2  C   UNL     1     -13.083 -10.407  22.942  1.00  0.00     0.100 A 
ATOM      3  C   UNL     1     -12.681 -10.668  21.629  1.00  0.00     0.193 A 
ATOM      4  O   UNL     1     -12.493 -11.860  21.262  1.00  0.00    -0.289 OA
ATOM      5  C   UNL     1     -12.493  -9.601  20.740  1.00  0.00     0.065 A 
ATOM      6  C   UNL     1     -12.089  -9.795  19.406  1.00  0.00     0.016 A 
ATOM      7  C   UNL     1     -11.917  -8.693  18.561  1.00  0.00     0.001 A 
ATOM      8  C   UNL     1     -12.143  -7.399  19.036  1.00  0.00     0.004 A 
ATOM      9  C   UNL     1     -12.544  -7.198  20.361  1.00  0.00     0.048 A 
ATOM     10  C   UNL     1     -12.720  -8.292  21.215  1.00  0.00     0.138 A 
ATOM     11  O   UNL     1     -13.102  -8.090  22.472  1.00  0.00    -0.456 OA
ENDROOT
BRANCH   1  12
ATOM     12  C   UNL     1     -13.723  -8.708  24.737  1.00  0.00     0.017 A 
ATOM     13  C   UNL     1     -14.534  -8.112  27.374  1.00  0.00     0.000 A 
ATOM     14  C   UNL     1     -14.371  -7.085  26.445  1.00  0.00     0.001 A 
ATOM     15  C   UNL     1     -14.299  -9.434  26.999  1.00  0.00     0.001 A 
ATOM     16  C   UNL     1     -13.968  -7.374  25.137  1.00  0.00     0.012 A 
ATOM     17  C   UNL     1     -13.897  -9.732  25.693  1.00  0.00     0.012 A 
ENDBRANCH   1  12
TORSDOF 1
ENDMDL
MODEL 5
REMARK VINA RESULT:    -6.893      7.418      9.451
REMARK INTER + INTRA:          -7.524
REMARK INTER:                  -7.285
REMARK INTRA:                  -0.239
REMARK UNBOUND:                -0.229
REMARK SMILES O=c1cc(-c2ccccc2)oc2ccccc12
REMARK SMILES IDX 4 1 3 2 2 3 1 4 17 5 16 6 15 7 14 8 13 9 12 10 11 11 5 12
REMARK SMILES IDX 8 13 7 14 9 15 6 16 10 17
REMARK H PARENT
REMARK Flexibility Score: inf
ROOT
ATOM      1  C   UNL     1     -13.666  -8.541  23.189  1.00  0.00     0.138 A 
ATOM      2  C   UNL     1     -14.993  -8.484  23.667  1.00  0.00     0.100 A 
ATOM      3  C   UNL     1     -15.227  -8.226  25.020  1.00  0.00     0.193 A 
ATOM      4  O   UNL     1     -16.413  -8.174  25.446  1.00  0.00    -0.289 OA
ATOM      5  C   UNL     1     -14.140  -8.028  25.883  1.00  0.00     0.065 A 
ATOM      6  C   UNL     1     -14.307  -7.765  27.255  1.00  0.00     0.016 A 
ATOM      7  C   UNL     1     -13.187  -7.577  28.072  1.00  0.00     0.001 A 
ATOM      8  C   UNL     1     -11.901  -7.648  27.530  1.00  0.00     0.004 A 
ATOM      9  C   UNL     1     -11.727  -7.909  26.167  1.00  0.00     0.048 A 
ATOM     10  C   UNL     1     -12.839  -8.100  25.341  1.00  0.00     0.138 A 
ATOM     11  O   UNL     1     -12.663  -8.348  24.047  1.00  0.00    -0.456 OA
ENDROOT
BRANCH   1  12
ATOM     12  C   UNL     1     -13.328  -8.812  21.758  1.00  0.00     0.017 A 
ATOM     13  C   UNL     1     -12.751  -9.251  19.030  1.00  0.00     0.000 A 
ATOM     14  C   UNL     1     -12.139 -10.035  20.009  1.00  0.00     0.001 A 
ATOM     15  C   UNL     1     -13.650  -8.252  19.401  1.00  0.00     0.001 A 
ATOM     16  C   UNL     1     -12.421  -9.822  21.362  1.00  0.00     0.012 A 
ATOM     17  C   UNL     1     -13.937  -8.032  20.751  1.00  0.00     0.012 A 
ENDBRANCH   1  12
TORSDOF 1
ENDMDL
MODEL 6
REMARK VINA RESULT:    -6.873      7.460      9.539
REMARK INTER + INTRA:          -7.504
REMARK INTER:                  -7.264
REMARK INTRA:                  -0.240
REMARK UNBOUND:                -0.229
REMARK SMILES O=c1cc(-c2ccccc2)oc2ccccc12
REMARK SMILES IDX 4 1 3 2 2 3 1 4 17 5 16 6 15 7 14 8 13 9 12 10 11 11 5 12
REMARK SMILES IDX 8 13 7 14 9 15 6 16 10 17
REMARK H PARENT
REMARK Flexibility Score: inf
ROOT
ATOM      1  C   UNL     1     -13.715  -8.516  23.140  1.00  0.00     0.138 A 
ATOM      2  C   UNL     1     -15.041  -8.479  23.621  1.00  0.00     0.100 A 
ATOM      3  C   UNL     1     -15.273  -8.254  24.980  1.00  0.00     0.193 A 
ATOM      4  O   UNL     1     -16.458  -8.221  25.411  1.00  0.00    -0.289 OA
ATOM      5  C   UNL     1     -14.186  -8.068  25.845  1.00  0.00     0.065 A 
ATOM      6  C   UNL     1     -14.351  -7.837  27.224  1.00  0.00     0.016 A 
ATOM      7  C   UNL     1     -13.230  -7.660  28.042  1.00  0.00     0.001 A 
ATOM      8  C   UNL     1     -11.945  -7.709  27.495  1.00  0.00     0.004 A 
ATOM      9  C   UNL     1     -11.773  -7.938  26.127  1.00  0.00     0.048 A 
ATOM     10  C   UNL     1     -12.886  -8.118  25.299  1.00  0.00     0.138 A 
ATOM     11  O   UNL     1     -12.711  -8.335  24.000  1.00  0.00    -0.456 OA
ENDROOT
BRANCH   1  12
ATOM     12  C   UNL     1     -13.379  -8.752  21.702  1.00  0.00     0.017 A 
ATOM     13  C   UNL     1     -12.681  -9.269  19.016  1.00  0.00     0.000 A 
ATOM     14  C   UNL     1     -13.599  -8.263  19.318  1.00  0.00     0.001 A 
ATOM     15  C   UNL     1     -12.106 -10.018  20.042  1.00  0.00     0.001 A 
ATOM     16  C   UNL     1     -13.949  -8.003  20.647  1.00  0.00     0.012 A 
ATOM     17  C   UNL     1     -12.450  -9.764  21.373  1.00  0.00     0.012 A 
ENDBRANCH   1  12
TORSDOF 1
ENDMDL
MODEL 7
REMARK VINA RESULT:    -6.753      2.007      6.131
REMARK INTER + INTRA:          -7.376
REMARK INTER:                  -7.120
REMARK INTRA:                  -0.256
REMARK UNBOUND:                -0.229
REMARK SMILES O=c1cc(-c2ccccc2)oc2ccccc12
REMARK SMILES IDX 4 1 3 2 2 3 1 4 17 5 16 6 15 7 14 8 13 9 12 10 11 11 5 12
REMARK SMILES IDX 8 13 7 14 9 15 6 16 10 17
REMARK H PARENT
REMARK Flexibility Score: inf
ROOT
ATOM      1  C   UNL     1     -10.176  -4.583  30.335  1.00  0.00     0.138 A 
ATOM      2  C   UNL     1     -10.270  -5.648  31.255  1.00  0.00     0.100 A 
ATOM      3  C   UNL     1     -11.121  -6.721  30.981  1.00  0.00     0.193 A 
ATOM      4  O   UNL     1     -11.205  -7.674  31.803  1.00  0.00    -0.289 OA
ATOM      5  C   UNL     1     -11.870  -6.723  29.796  1.00  0.00     0.065 A 
ATOM      6  C   UNL     1     -12.746  -7.772  29.460  1.00  0.00     0.016 A 
ATOM      7  C   UNL     1     -13.471  -7.722  28.264  1.00  0.00     0.001 A 
ATOM      8  C   UNL     1     -13.328  -6.633  27.400  1.00  0.00     0.004 A 
ATOM      9  C   UNL     1     -12.459  -5.587  27.727  1.00  0.00     0.048 A 
ATOM     10  C   UNL     1     -11.730  -5.626  28.920  1.00  0.00     0.138 A 
ATOM     11  O   UNL     1     -10.908  -4.626  29.221  1.00  0.00    -0.456 OA
ENDROOT
BRANCH   1  12
ATOM     12  C   UNL     1      -9.290  -3.397  30.552  1.00  0.00     0.017 A 
ATOM     13  C   UNL     1      -7.629  -1.172  31.057  1.00  0.00     0.000 A 
ATOM     14  C   UNL     1      -7.907  -1.552  29.744  1.00  0.00     0.001 A 
ATOM     15  C   UNL     1      -8.174  -1.891  32.120  1.00  0.00     0.001 A 
ATOM     16  C   UNL     1      -8.729  -2.654  29.488  1.00  0.00     0.012 A 
ATOM     17  C   UNL     1      -8.997  -2.993  31.872  1.00  0.00     0.012 A 
ENDBRANCH   1  12
TORSDOF 1
ENDMDL
MODEL 8
REMARK VINA RESULT:    -6.687      7.364      9.879
REMARK INTER + INTRA:          -7.306
REMARK INTER:                  -7.085
REMARK INTRA:                  -0.222
REMARK UNBOUND:                -0.229
REMARK SMILES O=c1cc(-c2ccccc2)oc2ccccc12
REMARK SMILES IDX 4 1 3 2 2 3 1 4 17 5 16 6 15 7 14 8 13 9 12 10 11 11 5 12
REMARK SMILES IDX 8 13 7 14 9 15 6 16 10 17
REMARK H PARENT
REMARK Flexibility Score: inf
ROOT
ATOM      1  C   UNL     1     -13.595  -8.606  24.345  1.00  0.00     0.138 A 
ATOM      2  C   UNL     1     -13.762  -7.336  23.755  1.00  0.00     0.100 A 
ATOM      3  C   UNL     1     -13.475  -7.163  22.398  1.00  0.00     0.193 A 
ATOM      4  O   UNL     1     -13.625  -6.028  21.871  1.00  0.00    -0.289 OA
ATOM      5  C   UNL     1     -13.023  -8.255  21.644  1.00  0.00     0.065 A 
ATOM      6  C   UNL     1     -12.716  -8.149  20.275  1.00  0.00     0.016 A 
ATOM      7  C   UNL     1     -12.268  -9.271  19.570  1.00  0.00     0.001 A 
ATOM      8  C   UNL     1     -12.125 -10.500  20.220  1.00  0.00     0.004 A 
ATOM      9  C   UNL     1     -12.429 -10.613  21.580  1.00  0.00     0.048 A 
ATOM     10  C   UNL     1     -12.877  -9.498  22.296  1.00  0.00     0.138 A 
ATOM     11  O   UNL     1     -13.161  -9.617  23.588  1.00  0.00    -0.456 OA
ENDROOT
BRANCH   1  12
ATOM     12  C   UNL     1     -13.879  -8.877  25.788  1.00  0.00     0.017 A 
ATOM     13  C   UNL     1     -14.328  -9.347  28.534  1.00  0.00     0.000 A 
ATOM     14  C   UNL     1     -15.275  -9.750  27.593  1.00  0.00     0.001 A 
ATOM     15  C   UNL     1     -13.158  -8.714  28.118  1.00  0.00     0.001 A 
ATOM     16  C   UNL     1     -15.058  -9.520  26.231  1.00  0.00     0.012 A 
ATOM     17  C   UNL     1     -12.933  -8.480  26.758  1.00  0.00     0.012 A 
ENDBRANCH   1  12
TORSDOF 1
ENDMDL
MODEL 9
REMARK VINA RESULT:    -6.493      2.118      6.314
REMARK INTER + INTRA:          -7.101
REMARK INTER:                  -6.874
REMARK INTRA:                  -0.227
REMARK UNBOUND:                -0.229
REMARK SMILES O=c1cc(-c2ccccc2)oc2ccccc12
REMARK SMILES IDX 4 1 3 2 2 3 1 4 17 5 16 6 15 7 14 8 13 9 12 10 11 11 5 12
REMARK SMILES IDX 8 13 7 14 9 15 6 16 10 17
REMARK H PARENT
REMARK Flexibility Score: inf
ROOT
ATOM      1  C   UNL     1     -11.287  -5.402  30.334  1.00  0.00     0.138 A 
ATOM      2  C   UNL     1     -11.067  -6.592  31.058  1.00  0.00     0.100 A 
ATOM      3  C   UNL     1     -11.559  -7.801  30.561  1.00  0.00     0.193 A 
ATOM      4  O   UNL     1     -11.362  -8.865  31.209  1.00  0.00    -0.289 OA
ATOM      5  C   UNL     1     -12.265  -7.814  29.350  1.00  0.00     0.065 A 
ATOM      6  C   UNL     1     -12.787  -8.997  28.795  1.00  0.00     0.016 A 
ATOM      7  C   UNL     1     -13.485  -8.952  27.584  1.00  0.00     0.001 A 
ATOM      8  C   UNL     1     -13.666  -7.736  26.920  1.00  0.00     0.004 A 
ATOM      9  C   UNL     1     -13.149  -6.556  27.465  1.00  0.00     0.048 A 
ATOM     10  C   UNL     1     -12.451  -6.589  28.676  1.00  0.00     0.138 A 
ATOM     11  O   UNL     1     -11.965  -5.461  29.186  1.00  0.00    -0.456 OA
ENDROOT
BRANCH   1  12
ATOM     12  C   UNL     1     -10.795  -4.067  30.794  1.00  0.00     0.017 A 
ATOM     13  C   UNL     1      -9.961  -1.520  31.681  1.00  0.00     0.000 A 
ATOM     14  C   UNL     1      -9.020  -2.443  31.222  1.00  0.00     0.001 A 
ATOM     15  C   UNL     1     -11.313  -1.856  31.699  1.00  0.00     0.001 A 
ATOM     16  C   UNL     1      -9.428  -3.706  30.782  1.00  0.00     0.012 A 
ATOM     17  C   UNL     1     -11.729  -3.116  31.261  1.00  0.00     0.012 A 
ENDBRANCH   1  12
TORSDOF 1
ENDMDL
