MODEL 1
REMARK VINA RESULT:    -3.683      0.000      0.000
REMARK INTER + INTRA:          -4.851
REMARK INTER:                  -4.974
REMARK INTRA:                   0.123
REMARK UNBOUND:                 0.123
REMARK SMILES C=C1CCC=C(C)CC[C@@H]2[C@H]1CC2(C)C
REMARK SMILES IDX 11 1 12 2 13 3 10 4 14 5 15 6 9 7 8 8 6 9 7 10 5 11 2 13
REMARK SMILES IDX 1 14 3 15 4 16
REMARK H PARENT
REMARK Flexibility Score: 70.00
ROOT
ATOM      1  C   UNL     1     134.537 132.546 134.947  1.00  0.00     0.018 C 
ATOM      2  C   UNL     1     135.809 131.800 134.514  1.00  0.00     0.015 C 
ATOM      3  C   UNL     1     135.808 132.557 133.173  1.00  0.00    -0.031 C 
ATOM      4  C   UNL     1     134.492 133.271 133.581  1.00  0.00     0.002 C 
ATOM      5  C   UNL     1     135.625 131.613 131.969  1.00  0.00     0.011 C 
ATOM      6  C   UNL     1     137.053 133.448 132.990  1.00  0.00     0.011 C 
ENDROOT
BRANCH   4   7
ATOM      7  C   UNL     1     134.475 134.825 133.581  1.00  0.00     0.009 C 
BRANCH   7   8
ATOM      8  C   UNL     1     133.091 135.466 133.303  1.00  0.00     0.030 C 
BRANCH   8   9
ATOM      9  C   UNL     1     132.434 136.171 134.482  1.00  0.00    -0.077 C 
ATOM     10  C   UNL     1     132.164 137.652 134.384  1.00  0.00     0.039 C 
ATOM     11  C   UNL     1     132.106 135.549 135.636  1.00  0.00    -0.028 CG0
ATOM     12  G   UNL     1     132.253 134.075 135.914  1.00  0.00     0.000 G0
ENDBRANCH   8   9
ENDBRANCH   7   8
ENDBRANCH   4   7
BRANCH   1  13
ATOM     13  C   UNL     1     134.651 133.400 136.214  1.00  0.00    -0.074 C 
ATOM     14  C   UNL     1     135.822 133.865 136.697  1.00  0.00     0.008 C 
BRANCH  13  15
ATOM     15  C   UNL     1     133.378 133.801 136.924  1.00  0.00     0.035 C 
BRANCH  15  16
ATOM     16  C   UNL     1     132.248 134.064 135.922  1.00  0.00     0.032 CG0
ATOM     17  G   UNL     1     132.111 135.540 135.649  1.00  0.00     0.000 G0
ENDBRANCH  15  16
ENDBRANCH  13  15
ENDBRANCH   1  13
TORSDOF 0
ENDMDL
MODEL 2
REMARK VINA RESULT:    -3.653      5.865      7.783
REMARK INTER + INTRA:          -4.811
REMARK INTER:                  -4.876
REMARK INTRA:                   0.065
REMARK UNBOUND:                 0.123
REMARK SMILES C=C1CCC=C(C)CC[C@@H]2[C@H]1CC2(C)C
REMARK SMILES IDX 11 1 12 2 13 3 10 4 14 5 15 6 9 7 8 8 6 9 7 10 5 11 2 13
REMARK SMILES IDX 1 14 3 15 4 16
REMARK H PARENT
REMARK Flexibility Score: 70.00
ROOT
ATOM      1  C   UNL     1     137.816 140.122 135.026  1.00  0.00     0.018 C 
ATOM      2  C   UNL     1     136.521 140.796 134.547  1.00  0.00     0.015 C 
ATOM      3  C   UNL     1     136.706 140.182 133.148  1.00  0.00    -0.031 C 
ATOM      4  C   UNL     1     138.045 139.546 133.608  1.00  0.00     0.002 C 
ATOM      5  C   UNL     1     136.901 141.255 132.059  1.00  0.00     0.011 C 
ATOM      6  C   UNL     1     135.570 139.210 132.767  1.00  0.00     0.011 C 
ENDROOT
BRANCH   4   7
ATOM      7  C   UNL     1     138.208 138.007 133.465  1.00  0.00     0.009 C 
BRANCH   7   8
ATOM      8  C   UNL     1     139.672 137.511 133.341  1.00  0.00     0.030 C 
BRANCH   8   9
ATOM      9  C   UNL     1     140.217 136.738 134.535  1.00  0.00    -0.077 C 
ATOM     10  C   UNL     1     140.554 135.278 134.362  1.00  0.00     0.039 C 
ATOM     11  C   UNL     1     140.386 137.280 135.762  1.00  0.00    -0.028 CG0
ATOM     12  G   UNL     1     140.151 138.723 136.126  1.00  0.00     0.000 G0
ENDBRANCH   8   9
ENDBRANCH   7   8
ENDBRANCH   4   7
BRANCH   1  13
ATOM     13  C   UNL     1     137.677 139.138 136.192  1.00  0.00    -0.074 C 
ATOM     14  C   UNL     1     136.538 138.472 136.472  1.00  0.00     0.008 C 
BRANCH  13  15
ATOM     15  C   UNL     1     138.899 138.845 137.032  1.00  0.00     0.035 C 
BRANCH  15  16
ATOM     16  C   UNL     1     140.150 138.712 136.156  1.00  0.00     0.032 CG0
ATOM     17  G   UNL     1     140.371 137.276 135.757  1.00  0.00     0.000 G0
ENDBRANCH  15  16
ENDBRANCH  13  15
ENDBRANCH   1  13
TORSDOF 0
ENDMDL
MODEL 3
REMARK VINA RESULT:    -3.634      3.577      5.474
REMARK INTER + INTRA:          -4.786
REMARK INTER:                  -4.862
REMARK INTRA:                   0.076
REMARK UNBOUND:                 0.123
REMARK SMILES C=C1CCC=C(C)CC[C@@H]2[C@H]1CC2(C)C
REMARK SMILES IDX 11 1 12 2 13 3 10 4 14 5 15 6 9 7 8 8 6 9 7 10 5 11 2 13
REMARK SMILES IDX 1 14 3 15 4 16
REMARK H PARENT
REMARK Flexibility Score: 70.00
ROOT
ATOM      1  C   UNL     1     132.671 137.953 134.981  1.00  0.00     0.018 C 
ATOM      2  C   UNL     1     132.020 136.608 134.626  1.00  0.00     0.015 C 
ATOM      3  C   UNL     1     132.523 136.735 133.177  1.00  0.00    -0.031 C 
ATOM      4  C   UNL     1     133.134 138.121 133.514  1.00  0.00     0.002 C 
ATOM      5  C   UNL     1     131.367 136.825 132.162  1.00  0.00     0.011 C 
ATOM      6  C   UNL     1     133.512 135.617 132.788  1.00  0.00     0.011 C 
ENDROOT
BRANCH   4   7
ATOM      7  C   UNL     1     134.651 138.334 133.249  1.00  0.00     0.009 C 
BRANCH   7   8
ATOM      8  C   UNL     1     135.101 139.815 133.163  1.00  0.00     0.030 C 
BRANCH   8   9
ATOM      9  C   UNL     1     135.983 140.311 134.301  1.00  0.00    -0.077 C 
ATOM     10  C   UNL     1     137.451 140.539 134.036  1.00  0.00     0.039 C 
ATOM     11  C   UNL     1     135.532 140.528 135.557  1.00  0.00    -0.028 CG0
ATOM     12  G   UNL     1     134.101 140.401 136.012  1.00  0.00     0.000 G0
ENDBRANCH   8   9
ENDBRANCH   7   8
ENDBRANCH   4   7
BRANCH   1  13
ATOM     13  C   UNL     1     133.743 137.919 136.077  1.00  0.00    -0.074 C 
ATOM     14  C   UNL     1     134.551 136.862 136.295  1.00  0.00     0.008 C 
BRANCH  13  15
ATOM     15  C   UNL     1     133.951 139.161 136.913  1.00  0.00     0.035 C 
BRANCH  15  16
ATOM     16  C   UNL     1     134.105 140.402 136.027  1.00  0.00     0.032 CG0
ATOM     17  G   UNL     1     135.523 140.533 135.535  1.00  0.00     0.000 G0
ENDBRANCH  15  16
ENDBRANCH  13  15
ENDBRANCH   1  13
TORSDOF 0
ENDMDL
MODEL 4
REMARK VINA RESULT:    -3.620      1.886      3.478
REMARK INTER + INTRA:          -4.766
REMARK INTER:                  -4.839
REMARK INTRA:                   0.073
REMARK UNBOUND:                 0.123
REMARK SMILES C=C1CCC=C(C)CC[C@@H]2[C@H]1CC2(C)C
REMARK SMILES IDX 11 1 12 2 13 3 10 4 14 5 15 6 9 7 8 8 6 9 7 10 5 11 2 13
REMARK SMILES IDX 1 14 3 15 4 16
REMARK H PARENT
REMARK Flexibility Score: 70.00
ROOT
ATOM      1  C   UNL     1     136.950 133.520 133.775  1.00  0.00     0.018 C 
ATOM      2  C   UNL     1     138.181 132.633 134.014  1.00  0.00     0.015 C 
ATOM      3  C   UNL     1     138.123 132.942 135.522  1.00  0.00    -0.031 C 
ATOM      4  C   UNL     1     136.914 133.885 135.278  1.00  0.00     0.002 C 
ATOM      5  C   UNL     1     139.375 133.694 136.013  1.00  0.00     0.011 C 
ATOM      6  C   UNL     1     137.863 131.686 136.379  1.00  0.00     0.011 C 
ENDROOT
BRANCH   4   7
ATOM      7  C   UNL     1     135.603 133.607 136.065  1.00  0.00     0.009 C 
BRANCH   7   8
ATOM      8  C   UNL     1     134.685 134.840 136.267  1.00  0.00     0.030 C 
BRANCH   8   9
ATOM      9  C   UNL     1     133.371 134.826 135.497  1.00  0.00    -0.077 C 
ATOM     10  C   UNL     1     132.079 134.734 136.269  1.00  0.00     0.039 C 
ATOM     11  C   UNL     1     133.295 134.857 134.148  1.00  0.00    -0.028 CG0
ATOM     12  G   UNL     1     134.462 134.993 133.204  1.00  0.00     0.000 G0
ENDBRANCH   8   9
ENDBRANCH   7   8
ENDBRANCH   4   7
BRANCH   1  13
ATOM     13  C   UNL     1     135.723 132.828 133.171  1.00  0.00    -0.074 C 
ATOM     14  C   UNL     1     135.471 131.509 133.304  1.00  0.00     0.008 C 
BRANCH  13  15
ATOM     15  C   UNL     1     134.706 133.678 132.446  1.00  0.00     0.035 C 
BRANCH  15  16
ATOM     16  C   UNL     1     134.459 134.995 133.190  1.00  0.00     0.032 CG0
ATOM     17  G   UNL     1     133.299 134.860 134.143  1.00  0.00     0.000 G0
ENDBRANCH  15  16
ENDBRANCH  13  15
ENDBRANCH   1  13
TORSDOF 0
ENDMDL
MODEL 5
REMARK VINA RESULT:    -3.606      4.373      6.668
REMARK INTER + INTRA:          -4.747
REMARK INTER:                  -4.797
REMARK INTRA:                   0.050
REMARK UNBOUND:                 0.123
REMARK SMILES C=C1CCC=C(C)CC[C@@H]2[C@H]1CC2(C)C
REMARK SMILES IDX 11 1 12 2 13 3 10 4 14 5 15 6 9 7 8 8 6 9 7 10 5 11 2 13
REMARK SMILES IDX 1 14 3 15 4 16
REMARK H PARENT
REMARK Flexibility Score: 70.00
ROOT
ATOM      1  C   UNL     1     139.162 136.925 133.934  1.00  0.00     0.018 C 
ATOM      2  C   UNL     1     140.105 138.115 134.167  1.00  0.00     0.015 C 
ATOM      3  C   UNL     1     139.696 138.163 135.650  1.00  0.00    -0.031 C 
ATOM      4  C   UNL     1     138.699 136.998 135.409  1.00  0.00     0.002 C 
ATOM      5  C   UNL     1     138.992 139.483 136.021  1.00  0.00     0.011 C 
ATOM      6  C   UNL     1     140.875 137.881 136.604  1.00  0.00     0.011 C 
ENDROOT
BRANCH   4   7
ATOM      7  C   UNL     1     138.845 135.721 136.282  1.00  0.00     0.009 C 
BRANCH   7   8
ATOM      8  C   UNL     1     137.565 134.852 136.393  1.00  0.00     0.030 C 
BRANCH   8   9
ATOM      9  C   UNL     1     137.618 133.497 135.699  1.00  0.00    -0.077 C 
ATOM     10  C   UNL     1     137.643 132.249 136.546  1.00  0.00     0.039 C 
ATOM     11  C   UNL     1     137.679 133.346 134.358  1.00  0.00    -0.028 CG0
ATOM     12  G   UNL     1     137.621 134.460 133.344  1.00  0.00     0.000 G0
ENDBRANCH   8   9
ENDBRANCH   7   8
ENDBRANCH   4   7
BRANCH   1  13
ATOM     13  C   UNL     1     139.816 135.628 133.446  1.00  0.00    -0.074 C 
ATOM     14  C   UNL     1     141.086 135.279 133.736  1.00  0.00     0.008 C 
BRANCH  13  15
ATOM     15  C   UNL     1     138.972 134.654 132.656  1.00  0.00     0.035 C 
BRANCH  15  16
ATOM     16  C   UNL     1     137.612 134.433 133.327  1.00  0.00     0.032 CG0
ATOM     17  G   UNL     1     137.696 133.330 134.350  1.00  0.00     0.000 G0
ENDBRANCH  15  16
ENDBRANCH  13  15
ENDBRANCH   1  13
TORSDOF 0
ENDMDL
MODEL 6
REMARK VINA RESULT:    -3.597      2.877      4.902
REMARK INTER + INTRA:          -4.736
REMARK INTER:                  -4.803
REMARK INTRA:                   0.067
REMARK UNBOUND:                 0.123
REMARK SMILES C=C1CCC=C(C)CC[C@@H]2[C@H]1CC2(C)C
REMARK SMILES IDX 11 1 12 2 13 3 10 4 14 5 15 6 9 7 8 8 6 9 7 10 5 11 2 13
REMARK SMILES IDX 1 14 3 15 4 16
REMARK H PARENT
REMARK Flexibility Score: 70.00
ROOT
ATOM      1  C   UNL     1     133.527 135.812 133.829  1.00  0.00     0.018 C 
ATOM      2  C   UNL     1     132.592 134.609 134.029  1.00  0.00     0.015 C 
ATOM      3  C   UNL     1     132.965 134.554 135.522  1.00  0.00    -0.031 C 
ATOM      4  C   UNL     1     133.954 135.733 135.314  1.00  0.00     0.002 C 
ATOM      5  C   UNL     1     133.676 133.240 135.900  1.00  0.00     0.011 C 
ATOM      6  C   UNL     1     131.760 134.815 136.449  1.00  0.00     0.011 C 
ENDROOT
BRANCH   4   7
ATOM      7  C   UNL     1     133.772 137.001 136.194  1.00  0.00     0.009 C 
BRANCH   7   8
ATOM      8  C   UNL     1     135.020 137.916 136.292  1.00  0.00     0.030 C 
BRANCH   8   9
ATOM      9  C   UNL     1     134.902 139.278 135.621  1.00  0.00    -0.077 C 
ATOM     10  C   UNL     1     134.760 140.505 136.488  1.00  0.00     0.039 C 
ATOM     11  C   UNL     1     134.881 139.453 134.281  1.00  0.00    -0.028 CG0
ATOM     12  G   UNL     1     135.052 138.367 133.250  1.00  0.00     0.000 G0
ENDBRANCH   8   9
ENDBRANCH   7   8
ENDBRANCH   4   7
BRANCH   1  13
ATOM     13  C   UNL     1     132.869 137.106 133.335  1.00  0.00    -0.074 C 
ATOM     14  C   UNL     1     131.599 137.454 133.626  1.00  0.00     0.008 C 
BRANCH  13  15
ATOM     15  C   UNL     1     133.710 138.076 132.537  1.00  0.00     0.035 C 
BRANCH  15  16
ATOM     16  C   UNL     1     135.040 138.363 133.244  1.00  0.00     0.032 CG0
ATOM     17  G   UNL     1     134.873 139.455 134.269  1.00  0.00     0.000 G0
ENDBRANCH  15  16
ENDBRANCH  13  15
ENDBRANCH   1  13
TORSDOF 0
ENDMDL
MODEL 7
REMARK VINA RESULT:    -3.578      3.566      5.480
REMARK INTER + INTRA:          -4.710
REMARK INTER:                  -4.800
REMARK INTRA:                   0.090
REMARK UNBOUND:                 0.123
REMARK SMILES C=C1CCC=C(C)CC[C@@H]2[C@H]1CC2(C)C
REMARK SMILES IDX 11 1 12 2 13 3 10 4 14 5 15 6 9 7 8 8 6 9 7 10 5 11 2 13
REMARK SMILES IDX 1 14 3 15 4 16
REMARK H PARENT
REMARK Flexibility Score: 70.00
ROOT
ATOM      1  C   UNL     1     140.081 134.466 134.723  1.00  0.00     0.018 C 
ATOM      2  C   UNL     1     140.875 135.746 134.422  1.00  0.00     0.015 C 
ATOM      3  C   UNL     1     140.147 135.893 133.073  1.00  0.00    -0.031 C 
ATOM      4  C   UNL     1     139.384 134.569 133.345  1.00  0.00     0.002 C 
ATOM      5  C   UNL     1     141.111 135.790 131.875  1.00  0.00     0.011 C 
ATOM      6  C   UNL     1     139.299 137.178 132.989  1.00  0.00     0.011 C 
ENDROOT
BRANCH   4   7
ATOM      7  C   UNL     1     137.831 134.603 133.316  1.00  0.00     0.009 C 
BRANCH   7   8
ATOM      8  C   UNL     1     137.149 133.232 133.074  1.00  0.00     0.030 C 
BRANCH   8   9
ATOM      9  C   UNL     1     136.383 132.651 134.255  1.00  0.00    -0.077 C 
ATOM     10  C   UNL     1     134.876 132.604 134.192  1.00  0.00     0.039 C 
ATOM     11  C   UNL     1     136.977 132.203 135.384  1.00  0.00    -0.028 CG0
ATOM     12  G   UNL     1     138.463 132.125 135.624  1.00  0.00     0.000 G0
ENDBRANCH   8   9
ENDBRANCH   7   8
ENDBRANCH   4   7
BRANCH   1  13
ATOM     13  C   UNL     1     139.204 134.492 135.980  1.00  0.00    -0.074 C 
ATOM     14  C   UNL     1     138.656 135.617 136.483  1.00  0.00     0.008 C 
BRANCH  13  15
ATOM     15  C   UNL     1     138.879 133.178 136.653  1.00  0.00     0.035 C 
BRANCH  15  16
ATOM     16  C   UNL     1     138.461 132.121 135.624  1.00  0.00     0.032 CG0
ATOM     17  G   UNL     1     136.976 132.179 135.374  1.00  0.00     0.000 G0
ENDBRANCH  15  16
ENDBRANCH  13  15
ENDBRANCH   1  13
TORSDOF 0
ENDMDL
MODEL 8
REMARK VINA RESULT:    -3.551      5.232      7.473
REMARK INTER + INTRA:          -4.674
REMARK INTER:                  -4.746
REMARK INTRA:                   0.073
REMARK UNBOUND:                 0.123
REMARK SMILES C=C1CCC=C(C)CC[C@@H]2[C@H]1CC2(C)C
REMARK SMILES IDX 11 1 12 2 13 3 10 4 14 5 15 6 9 7 8 8 6 9 7 10 5 11 2 13
REMARK SMILES IDX 1 14 3 15 4 16
REMARK H PARENT
REMARK Flexibility Score: 70.00
ROOT
ATOM      1  C   UNL     1     135.641 138.940 133.810  1.00  0.00     0.018 C 
ATOM      2  C   UNL     1     134.400 139.814 134.042  1.00  0.00     0.015 C 
ATOM      3  C   UNL     1     134.514 139.592 135.561  1.00  0.00    -0.031 C 
ATOM      4  C   UNL     1     135.734 138.661 135.329  1.00  0.00     0.002 C 
ATOM      5  C   UNL     1     133.296 138.845 136.137  1.00  0.00     0.011 C 
ATOM      6  C   UNL     1     134.776 140.899 136.338  1.00  0.00     0.011 C 
ENDROOT
BRANCH   4   7
ATOM      7  C   UNL     1     137.065 139.009 136.053  1.00  0.00     0.009 C 
BRANCH   7   8
ATOM      8  C   UNL     1     138.017 137.808 136.289  1.00  0.00     0.030 C 
BRANCH   8   9
ATOM      9  C   UNL     1     139.304 137.808 135.475  1.00  0.00    -0.077 C 
ATOM     10  C   UNL     1     140.619 137.967 136.196  1.00  0.00     0.039 C 
ATOM     11  C   UNL     1     139.336 137.708 134.127  1.00  0.00    -0.028 CG0
ATOM     12  G   UNL     1     138.142 137.499 133.232  1.00  0.00     0.000 G0
ENDBRANCH   8   9
ENDBRANCH   7   8
ENDBRANCH   4   7
BRANCH   1  13
ATOM     13  C   UNL     1     136.832 139.622 133.126  1.00  0.00    -0.074 C 
ATOM     14  C   UNL     1     137.062 140.949 133.181  1.00  0.00     0.008 C 
BRANCH  13  15
ATOM     15  C   UNL     1     137.840 138.752 132.410  1.00  0.00     0.035 C 
BRANCH  15  16
ATOM     16  C   UNL     1     138.144 137.484 133.216  1.00  0.00     0.032 CG0
ATOM     17  G   UNL     1     139.318 137.706 134.136  1.00  0.00     0.000 G0
ENDBRANCH  15  16
ENDBRANCH  13  15
ENDBRANCH   1  13
TORSDOF 0
ENDMDL
MODEL 9
REMARK VINA RESULT:    -3.275      3.593      5.813
REMARK INTER + INTRA:          -4.301
REMARK INTER:                  -4.358
REMARK INTRA:                   0.057
REMARK UNBOUND:                 0.123
REMARK SMILES C=C1CCC=C(C)CC[C@@H]2[C@H]1CC2(C)C
REMARK SMILES IDX 11 1 12 2 13 3 10 4 14 5 15 6 9 7 8 8 6 9 7 10 5 11 2 13
REMARK SMILES IDX 1 14 3 15 4 16
REMARK H PARENT
REMARK Flexibility Score: 70.00
ROOT
ATOM      1  C   UNL     1     133.434 138.080 134.440  1.00  0.00     0.018 C 
ATOM      2  C   UNL     1     132.086 137.344 134.483  1.00  0.00     0.015 C 
ATOM      3  C   UNL     1     132.799 136.038 134.878  1.00  0.00    -0.031 C 
ATOM      4  C   UNL     1     134.169 136.761 134.780  1.00  0.00     0.002 C 
ATOM      5  C   UNL     1     132.632 134.935 133.816  1.00  0.00     0.011 C 
ATOM      6  C   UNL     1     132.382 135.528 136.273  1.00  0.00     0.011 C 
ENDROOT
BRANCH   4   7
ATOM      7  C   UNL     1     135.094 136.745 136.029  1.00  0.00     0.009 C 
BRANCH   7   8
ATOM      8  C   UNL     1     136.593 137.011 135.739  1.00  0.00     0.030 C 
BRANCH   8   9
ATOM      9  C   UNL     1     137.149 138.330 136.259  1.00  0.00    -0.077 C 
ATOM     10  C   UNL     1     138.102 138.306 137.428  1.00  0.00     0.039 C 
ATOM     11  C   UNL     1     136.809 139.536 135.752  1.00  0.00    -0.028 CG0
ATOM     12  G   UNL     1     135.911 139.769 134.564  1.00  0.00     0.000 G0
ENDBRANCH   8   9
ENDBRANCH   7   8
ENDBRANCH   4   7
BRANCH   1  13
ATOM     13  C   UNL     1     133.590 139.263 135.401  1.00  0.00    -0.074 C 
ATOM     14  C   UNL     1     132.958 139.346 136.590  1.00  0.00     0.008 C 
BRANCH  13  15
ATOM     15  C   UNL     1     134.558 140.363 135.031  1.00  0.00     0.035 C 
BRANCH  15  16
ATOM     16  C   UNL     1     135.901 139.783 134.571  1.00  0.00     0.032 CG0
ATOM     17  G   UNL     1     136.805 139.534 135.750  1.00  0.00     0.000 G0
ENDBRANCH  15  16
ENDBRANCH  13  15
ENDBRANCH   1  13
TORSDOF 0
ENDMDL
