MODEL 1
REMARK VINA RESULT:    -4.349      0.000      0.000
REMARK INTER + INTRA:         -13.042
REMARK INTER:                  -9.943
REMARK INTRA:                  -3.099
REMARK UNBOUND:                -3.099
REMARK SMILES CCCCCCCCCCCCCCCCCCCCCCCC(=O)[O-]
REMARK SMILES IDX 13 1 14 2 15 3 16 4 17 5 18 6 19 7 20 8 21 9 22 10 23 11
REMARK SMILES IDX 24 12 25 13 26 14 12 15 11 16 10 17 9 18 8 19 7 20 6 21 5 22
REMARK SMILES IDX 4 23 3 24 2 25 1 26
REMARK H PARENT
REMARK Flexibility Score: inf
ROOT
ATOM      1  C   UNL     1      23.252   6.321   6.724  1.00  0.00     0.000 C 
ENDROOT
BRANCH   1   2
ATOM      2  C   UNL     1      22.938   6.016   5.249  1.00  0.00     0.000 C 
BRANCH   2   3
ATOM      3  C   UNL     1      23.810   4.896   4.642  1.00  0.00     0.000 C 
BRANCH   3   4
ATOM      4  C   UNL     1      23.421   4.577   3.187  1.00  0.00     0.000 C 
BRANCH   4   5
ATOM      5  C   UNL     1      24.451   5.105   2.175  1.00  0.00     0.000 C 
BRANCH   5   6
ATOM      6  C   UNL     1      25.000   3.995   1.262  1.00  0.00     0.000 C 
BRANCH   6   7
ATOM      7  C   UNL     1      26.435   3.573   1.629  1.00  0.00     0.000 C 
BRANCH   7   8
ATOM      8  C   UNL     1      26.536   2.542   2.767  1.00  0.00     0.000 C 
BRANCH   8   9
ATOM      9  C   UNL     1      27.419   3.019   3.930  1.00  0.00     0.000 C 
BRANCH   9  10
ATOM     10  C   UNL     1      28.015   4.403   3.634  1.00  0.00     0.006 C 
BRANCH  10  11
ATOM     11  C   UNL     1      27.431   5.492   4.543  1.00  0.00     0.053 C 
BRANCH  11  12
ATOM     12  C   UNL     1      27.678   5.199   5.992  1.00  0.00     0.041 C 
ATOM     13  O   UNL     1      26.710   5.092   6.789  1.00  0.00    -0.550 OA
ATOM     14  O   UNL     1      28.976   5.023   6.457  1.00  0.00    -0.550 OA
ENDBRANCH  11  12
ENDBRANCH  10  11
ENDBRANCH   9  10
ENDBRANCH   8   9
ENDBRANCH   7   8
ENDBRANCH   6   7
ENDBRANCH   5   6
ENDBRANCH   4   5
ENDBRANCH   3   4
ENDBRANCH   2   3
ENDBRANCH   1   2
BRANCH   1  15
ATOM     15  C   UNL     1      22.063   6.949   7.471  1.00  0.00     0.000 C 
BRANCH  15  16
ATOM     16  C   UNL     1      20.795   7.052   6.601  1.00  0.00     0.000 C 
BRANCH  16  17
ATOM     17  C   UNL     1      19.561   7.621   7.328  1.00  0.00     0.000 C 
BRANCH  17  18
ATOM     18  C   UNL     1      18.351   6.670   7.290  1.00  0.00    -0.000 C 
BRANCH  18  19
ATOM     19  C   UNL     1      17.014   7.432   7.156  1.00  0.00    -0.000 C 
BRANCH  19  20
ATOM     20  C   UNL     1      16.234   7.108   5.866  1.00  0.00    -0.000 C 
BRANCH  20  21
ATOM     21  C   UNL     1      17.015   6.301   4.815  1.00  0.00    -0.000 C 
BRANCH  21  22
ATOM     22  C   UNL     1      17.344   7.121   3.556  1.00  0.00    -0.000 C 
BRANCH  22  23
ATOM     23  C   UNL     1      18.642   7.933   3.701  1.00  0.00    -0.000 C 
BRANCH  23  24
ATOM     24  C   UNL     1      18.440   9.456   3.530  1.00  0.00    -0.000 C 
BRANCH  24  25
ATOM     25  C   UNL     1      18.745  10.253   4.812  1.00  0.00    -0.003 C 
ATOM     26  C   UNL     1      17.474  10.693   5.539  1.00  0.00     0.004 C 
ENDBRANCH  24  25
ENDBRANCH  23  24
ENDBRANCH  22  23
ENDBRANCH  21  22
ENDBRANCH  20  21
ENDBRANCH  19  20
ENDBRANCH  18  19
ENDBRANCH  17  18
ENDBRANCH  16  17
ENDBRANCH  15  16
ENDBRANCH   1  15
TORSDOF 22
ENDMDL
MODEL 2
REMARK VINA RESULT:    -4.267      1.375      3.015
REMARK INTER + INTRA:         -12.853
REMARK INTER:                 -10.530
REMARK INTRA:                  -2.323
REMARK UNBOUND:                -3.099
REMARK SMILES CCCCCCCCCCCCCCCCCCCCCCCC(=O)[O-]
REMARK SMILES IDX 13 1 14 2 15 3 16 4 17 5 18 6 19 7 20 8 21 9 22 10 23 11
REMARK SMILES IDX 24 12 25 13 26 14 12 15 11 16 10 17 9 18 8 19 7 20 6 21 5 22
REMARK SMILES IDX 4 23 3 24 2 25 1 26
REMARK H PARENT
REMARK Flexibility Score: inf
ROOT
ATOM      1  C   UNL     1      21.957   7.642   7.995  1.00  0.00     0.000 C 
ENDROOT
BRANCH   1   2
ATOM      2  C   UNL     1      23.273   6.954   7.591  1.00  0.00     0.000 C 
BRANCH   2   3
ATOM      3  C   UNL     1      23.269   6.389   6.155  1.00  0.00     0.000 C 
BRANCH   3   4
ATOM      4  C   UNL     1      23.406   4.857   6.130  1.00  0.00     0.000 C 
BRANCH   4   5
ATOM      5  C   UNL     1      23.847   4.328   4.755  1.00  0.00     0.000 C 
BRANCH   5   6
ATOM      6  C   UNL     1      23.377   5.229   3.600  1.00  0.00     0.000 C 
BRANCH   6   7
ATOM      7  C   UNL     1      24.295   5.150   2.366  1.00  0.00     0.000 C 
BRANCH   7   8
ATOM      8  C   UNL     1      25.734   4.687   2.658  1.00  0.00     0.000 C 
BRANCH   8   9
ATOM      9  C   UNL     1      26.222   3.600   1.689  1.00  0.00     0.000 C 
BRANCH   9  10
ATOM     10  C   UNL     1      27.416   2.835   2.278  1.00  0.00     0.006 C 
BRANCH  10  11
ATOM     11  C   UNL     1      28.490   3.777   2.836  1.00  0.00     0.053 C 
BRANCH  11  12
ATOM     12  C   UNL     1      28.791   3.486   4.275  1.00  0.00     0.041 C 
ATOM     13  O   UNL     1      28.955   2.299   4.660  1.00  0.00    -0.550 OA
ATOM     14  O   UNL     1      28.912   4.528   5.187  1.00  0.00    -0.550 OA
ENDBRANCH  11  12
ENDBRANCH  10  11
ENDBRANCH   9  10
ENDBRANCH   8   9
ENDBRANCH   7   8
ENDBRANCH   6   7
ENDBRANCH   5   6
ENDBRANCH   4   5
ENDBRANCH   3   4
ENDBRANCH   2   3
ENDBRANCH   1   2
BRANCH   1  15
ATOM     15  C   UNL     1      20.727   7.037   7.299  1.00  0.00     0.000 C 
BRANCH  15  16
ATOM     16  C   UNL     1      19.809   8.103   6.670  1.00  0.00     0.000 C 
BRANCH  16  17
ATOM     17  C   UNL     1      19.971   9.518   7.258  1.00  0.00     0.000 C 
BRANCH  17  18
ATOM     18  C   UNL     1      19.019  10.546   6.618  1.00  0.00    -0.000 C 
BRANCH  18  19
ATOM     19  C   UNL     1      18.890  10.350   5.091  1.00  0.00    -0.000 C 
BRANCH  19  20
ATOM     20  C   UNL     1      17.471   9.968   4.625  1.00  0.00    -0.000 C 
BRANCH  20  21
ATOM     21  C   UNL     1      16.476   9.648   5.753  1.00  0.00    -0.000 C 
BRANCH  21  22
ATOM     22  C   UNL     1      16.270   8.137   5.959  1.00  0.00    -0.000 C 
BRANCH  22  23
ATOM     23  C   UNL     1      16.283   7.353   4.637  1.00  0.00    -0.000 C 
BRANCH  23  24
ATOM     24  C   UNL     1      17.357   6.242   4.590  1.00  0.00    -0.000 C 
BRANCH  24  25
ATOM     25  C   UNL     1      18.580   6.619   3.733  1.00  0.00    -0.003 C 
ATOM     26  C   UNL     1      18.382   6.273   2.256  1.00  0.00     0.004 C 
ENDBRANCH  24  25
ENDBRANCH  23  24
ENDBRANCH  22  23
ENDBRANCH  21  22
ENDBRANCH  20  21
ENDBRANCH  19  20
ENDBRANCH  18  19
ENDBRANCH  17  18
ENDBRANCH  16  17
ENDBRANCH  15  16
ENDBRANCH   1  15
TORSDOF 22
ENDMDL
MODEL 3
REMARK VINA RESULT:    -4.226      3.192      9.534
REMARK INTER + INTRA:         -12.761
REMARK INTER:                 -10.042
REMARK INTRA:                  -2.718
REMARK UNBOUND:                -3.099
REMARK SMILES CCCCCCCCCCCCCCCCCCCCCCCC(=O)[O-]
REMARK SMILES IDX 13 1 14 2 15 3 16 4 17 5 18 6 19 7 20 8 21 9 22 10 23 11
REMARK SMILES IDX 24 12 25 13 26 14 12 15 11 16 10 17 9 18 8 19 7 20 6 21 5 22
REMARK SMILES IDX 4 23 3 24 2 25 1 26
REMARK H PARENT
REMARK Flexibility Score: inf
ROOT
ATOM      1  C   UNL     1      21.904   6.627   6.573  1.00  0.00     0.000 C 
ENDROOT
BRANCH   1   2
ATOM      2  C   UNL     1      21.340   7.617   7.607  1.00  0.00     0.000 C 
BRANCH   2   3
ATOM      3  C   UNL     1      20.091   8.385   7.124  1.00  0.00     0.000 C 
BRANCH   3   4
ATOM      4  C   UNL     1      20.029   9.814   7.691  1.00  0.00     0.000 C 
BRANCH   4   5
ATOM      5  C   UNL     1      19.534  10.836   6.656  1.00  0.00     0.000 C 
BRANCH   5   6
ATOM      6  C   UNL     1      18.841  10.169   5.455  1.00  0.00     0.000 C 
BRANCH   6   7
ATOM      7  C   UNL     1      17.371  10.600   5.295  1.00  0.00     0.000 C 
BRANCH   7   8
ATOM      8  C   UNL     1      16.380   9.446   5.060  1.00  0.00     0.000 C 
BRANCH   8   9
ATOM      9  C   UNL     1      16.545   8.300   6.069  1.00  0.00     0.000 C 
BRANCH   9  10
ATOM     10  C   UNL     1      16.497   6.937   5.364  1.00  0.00     0.006 C 
BRANCH  10  11
ATOM     11  C   UNL     1      17.871   6.508   4.834  1.00  0.00     0.053 C 
BRANCH  11  12
ATOM     12  C   UNL     1      17.919   6.523   3.336  1.00  0.00     0.041 C 
ATOM     13  O   UNL     1      18.981   6.216   2.735  1.00  0.00    -0.550 OA
ATOM     14  O   UNL     1      16.785   6.856   2.605  1.00  0.00    -0.550 OA
ENDBRANCH  11  12
ENDBRANCH  10  11
ENDBRANCH   9  10
ENDBRANCH   8   9
ENDBRANCH   7   8
ENDBRANCH   6   7
ENDBRANCH   5   6
ENDBRANCH   4   5
ENDBRANCH   3   4
ENDBRANCH   2   3
ENDBRANCH   1   2
BRANCH   1  15
ATOM     15  C   UNL     1      23.397   6.325   6.785  1.00  0.00     0.000 C 
BRANCH  15  16
ATOM     16  C   UNL     1      23.988   7.052   8.009  1.00  0.00     0.000 C 
BRANCH  16  17
ATOM     17  C   UNL     1      25.384   7.663   7.781  1.00  0.00     0.000 C 
BRANCH  17  18
ATOM     18  C   UNL     1      25.941   7.379   6.374  1.00  0.00    -0.000 C 
BRANCH  18  19
ATOM     19  C   UNL     1      27.418   7.808   6.233  1.00  0.00    -0.000 C 
BRANCH  19  20
ATOM     20  C   UNL     1      27.946   7.776   4.785  1.00  0.00    -0.000 C 
BRANCH  20  21
ATOM     21  C   UNL     1      29.319   7.108   4.605  1.00  0.00    -0.000 C 
BRANCH  21  22
ATOM     22  C   UNL     1      29.290   5.595   4.881  1.00  0.00    -0.000 C 
BRANCH  22  23
ATOM     23  C   UNL     1      28.275   4.852   3.996  1.00  0.00    -0.000 C 
BRANCH  23  24
ATOM     24  C   UNL     1      27.281   3.980   4.797  1.00  0.00    -0.000 C 
BRANCH  24  25
ATOM     25  C   UNL     1      25.808   4.331   4.516  1.00  0.00    -0.003 C 
ATOM     26  C   UNL     1      25.648   5.219   3.281  1.00  0.00     0.004 C 
ENDBRANCH  24  25
ENDBRANCH  23  24
ENDBRANCH  22  23
ENDBRANCH  21  22
ENDBRANCH  20  21
ENDBRANCH  19  20
ENDBRANCH  18  19
ENDBRANCH  17  18
ENDBRANCH  16  17
ENDBRANCH  15  16
ENDBRANCH   1  15
TORSDOF 22
ENDMDL
MODEL 4
REMARK VINA RESULT:    -4.195      4.902      7.012
REMARK INTER + INTRA:         -12.690
REMARK INTER:                 -10.280
REMARK INTRA:                  -2.410
REMARK UNBOUND:                -3.099
REMARK SMILES CCCCCCCCCCCCCCCCCCCCCCCC(=O)[O-]
REMARK SMILES IDX 13 1 14 2 15 3 16 4 17 5 18 6 19 7 20 8 21 9 22 10 23 11
REMARK SMILES IDX 24 12 25 13 26 14 12 15 11 16 10 17 9 18 8 19 7 20 6 21 5 22
REMARK SMILES IDX 4 23 3 24 2 25 1 26
REMARK H PARENT
REMARK Flexibility Score: inf
ROOT
ATOM      1  C   UNL     1      18.541   6.469   2.584  1.00  0.00     0.000 C 
ENDROOT
BRANCH   1   2
ATOM      2  C   UNL     1      17.578   6.961   1.489  1.00  0.00     0.000 C 
BRANCH   2   3
ATOM      3  C   UNL     1      17.478   6.018   0.271  1.00  0.00     0.000 C 
BRANCH   3   4
ATOM      4  C   UNL     1      18.262   4.711   0.480  1.00  0.00     0.000 C 
BRANCH   4   5
ATOM      5  C   UNL     1      18.177   3.773  -0.735  1.00  0.00     0.000 C 
BRANCH   5   6
ATOM      6  C   UNL     1      18.174   4.539  -2.070  1.00  0.00     0.000 C 
BRANCH   6   7
ATOM      7  C   UNL     1      19.095   3.903  -3.128  1.00  0.00     0.000 C 
BRANCH   7   8
ATOM      8  C   UNL     1      18.995   2.370  -3.236  1.00  0.00     0.000 C 
BRANCH   8   9
ATOM      9  C   UNL     1      20.364   1.676  -3.181  1.00  0.00     0.000 C 
BRANCH   9  10
ATOM     10  C   UNL     1      21.439   2.625  -2.631  1.00  0.00     0.006 C 
BRANCH  10  11
ATOM     11  C   UNL     1      21.954   2.182  -1.255  1.00  0.00     0.053 C 
BRANCH  11  12
ATOM     12  C   UNL     1      22.371   0.743  -1.254  1.00  0.00     0.041 C 
ATOM     13  O   UNL     1      21.732  -0.100  -0.572  1.00  0.00    -0.550 OA
ATOM     14  O   UNL     1      23.453   0.329  -2.023  1.00  0.00    -0.550 OA
ENDBRANCH  11  12
ENDBRANCH  10  11
ENDBRANCH   9  10
ENDBRANCH   8   9
ENDBRANCH   7   8
ENDBRANCH   6   7
ENDBRANCH   5   6
ENDBRANCH   4   5
ENDBRANCH   3   4
ENDBRANCH   2   3
ENDBRANCH   1   2
BRANCH   1  15
ATOM     15  C   UNL     1      18.276   7.121   3.951  1.00  0.00     0.000 C 
BRANCH  15  16
ATOM     16  C   UNL     1      17.404   6.247   4.873  1.00  0.00     0.000 C 
BRANCH  16  17
ATOM     17  C   UNL     1      16.397   7.030   5.737  1.00  0.00     0.000 C 
BRANCH  17  18
ATOM     18  C   UNL     1      16.099   8.436   5.184  1.00  0.00    -0.000 C 
BRANCH  18  19
ATOM     19  C   UNL     1      16.559   9.552   6.149  1.00  0.00    -0.000 C 
BRANCH  19  20
ATOM     20  C   UNL     1      17.433  10.634   5.485  1.00  0.00    -0.000 C 
BRANCH  20  21
ATOM     21  C   UNL     1      18.948  10.381   5.549  1.00  0.00    -0.000 C 
BRANCH  21  22
ATOM     22  C   UNL     1      19.558  10.739   6.916  1.00  0.00    -0.000 C 
BRANCH  22  23
ATOM     23  C   UNL     1      20.271   9.547   7.576  1.00  0.00    -0.000 C 
BRANCH  23  24
ATOM     24  C   UNL     1      19.921   8.186   6.932  1.00  0.00    -0.000 C 
BRANCH  24  25
ATOM     25  C   UNL     1      21.066   7.161   7.026  1.00  0.00    -0.003 C 
ATOM     26  C   UNL     1      22.124   7.565   8.053  1.00  0.00     0.004 C 
ENDBRANCH  24  25
ENDBRANCH  23  24
ENDBRANCH  22  23
ENDBRANCH  21  22
ENDBRANCH  20  21
ENDBRANCH  19  20
ENDBRANCH  18  19
ENDBRANCH  17  18
ENDBRANCH  16  17
ENDBRANCH  15  16
ENDBRANCH   1  15
TORSDOF 22
ENDMDL
MODEL 5
REMARK VINA RESULT:    -4.182      2.135      3.562
REMARK INTER + INTRA:         -12.659
REMARK INTER:                 -10.556
REMARK INTRA:                  -2.103
REMARK UNBOUND:                -3.099
REMARK SMILES CCCCCCCCCCCCCCCCCCCCCCCC(=O)[O-]
REMARK SMILES IDX 13 1 14 2 15 3 16 4 17 5 18 6 19 7 20 8 21 9 22 10 23 11
REMARK SMILES IDX 24 12 25 13 26 14 12 15 11 16 10 17 9 18 8 19 7 20 6 21 5 22
REMARK SMILES IDX 4 23 3 24 2 25 1 26
REMARK H PARENT
REMARK Flexibility Score: inf
ROOT
ATOM      1  C   UNL     1      21.994   6.801   8.095  1.00  0.00     0.000 C 
ENDROOT
BRANCH   1   2
ATOM      2  C   UNL     1      23.250   6.784   7.205  1.00  0.00     0.000 C 
BRANCH   2   3
ATOM      3  C   UNL     1      23.035   6.118   5.830  1.00  0.00     0.000 C 
BRANCH   3   4
ATOM      4  C   UNL     1      23.617   4.695   5.773  1.00  0.00     0.000 C 
BRANCH   4   5
ATOM      5  C   UNL     1      24.131   4.325   4.372  1.00  0.00     0.000 C 
BRANCH   5   6
ATOM      6  C   UNL     1      23.467   5.159   3.262  1.00  0.00     0.000 C 
BRANCH   6   7
ATOM      7  C   UNL     1      24.278   5.170   1.954  1.00  0.00     0.000 C 
BRANCH   7   8
ATOM      8  C   UNL     1      24.858   3.805   1.540  1.00  0.00     0.000 C 
BRANCH   8   9
ATOM      9  C   UNL     1      26.383   3.726   1.711  1.00  0.00     0.000 C 
BRANCH   9  10
ATOM     10  C   UNL     1      26.801   2.364   2.284  1.00  0.00     0.006 C 
BRANCH  10  11
ATOM     11  C   UNL     1      25.661   1.339   2.234  1.00  0.00     0.053 C 
BRANCH  11  12
ATOM     12  C   UNL     1      25.802   0.297   3.302  1.00  0.00     0.041 C 
ATOM     13  O   UNL     1      26.597   0.477   4.260  1.00  0.00    -0.550 OA
ATOM     14  O   UNL     1      25.039  -0.864   3.249  1.00  0.00    -0.550 OA
ENDBRANCH  11  12
ENDBRANCH  10  11
ENDBRANCH   9  10
ENDBRANCH   8   9
ENDBRANCH   7   8
ENDBRANCH   6   7
ENDBRANCH   5   6
ENDBRANCH   4   5
ENDBRANCH   3   4
ENDBRANCH   2   3
ENDBRANCH   1   2
BRANCH   1  15
ATOM     15  C   UNL     1      20.857   7.654   7.509  1.00  0.00     0.000 C 
BRANCH  15  16
ATOM     16  C   UNL     1      20.812   9.078   8.096  1.00  0.00     0.000 C 
BRANCH  16  17
ATOM     17  C   UNL     1      20.023  10.097   7.252  1.00  0.00     0.000 C 
BRANCH  17  18
ATOM     18  C   UNL     1      19.211   9.439   6.121  1.00  0.00    -0.000 C 
BRANCH  18  19
ATOM     19  C   UNL     1      18.323  10.456   5.372  1.00  0.00    -0.000 C 
BRANCH  19  20
ATOM     20  C   UNL     1      18.551  10.486   3.847  1.00  0.00    -0.000 C 
BRANCH  20  21
ATOM     21  C   UNL     1      17.694   9.497   3.039  1.00  0.00    -0.000 C 
BRANCH  21  22
ATOM     22  C   UNL     1      18.535   8.442   2.299  1.00  0.00    -0.000 C 
BRANCH  22  23
ATOM     23  C   UNL     1      18.060   7.006   2.577  1.00  0.00    -0.000 C 
BRANCH  23  24
ATOM     24  C   UNL     1      18.048   6.641   4.079  1.00  0.00    -0.000 C 
BRANCH  24  25
ATOM     25  C   UNL     1      16.641   6.302   4.607  1.00  0.00    -0.003 C 
ATOM     26  C   UNL     1      16.203   7.238   5.733  1.00  0.00     0.004 C 
ENDBRANCH  24  25
ENDBRANCH  23  24
ENDBRANCH  22  23
ENDBRANCH  21  22
ENDBRANCH  20  21
ENDBRANCH  19  20
ENDBRANCH  18  19
ENDBRANCH  17  18
ENDBRANCH  16  17
ENDBRANCH  15  16
ENDBRANCH   1  15
TORSDOF 22
ENDMDL
MODEL 6
REMARK VINA RESULT:    -4.173      4.395      5.852
REMARK INTER + INTRA:         -12.640
REMARK INTER:                 -10.914
REMARK INTRA:                  -1.726
REMARK UNBOUND:                -3.099
REMARK SMILES CCCCCCCCCCCCCCCCCCCCCCCC(=O)[O-]
REMARK SMILES IDX 13 1 14 2 15 3 16 4 17 5 18 6 19 7 20 8 21 9 22 10 23 11
REMARK SMILES IDX 24 12 25 13 26 14 12 15 11 16 10 17 9 18 8 19 7 20 6 21 5 22
REMARK SMILES IDX 4 23 3 24 2 25 1 26
REMARK H PARENT
REMARK Flexibility Score: inf
ROOT
ATOM      1  C   UNL     1      23.392   4.968   6.126  1.00  0.00     0.000 C 
ENDROOT
BRANCH   1   2
ATOM      2  C   UNL     1      23.911   4.429   4.782  1.00  0.00     0.000 C 
BRANCH   2   3
ATOM      3  C   UNL     1      23.351   5.172   3.550  1.00  0.00     0.000 C 
BRANCH   3   4
ATOM      4  C   UNL     1      24.344   5.184   2.375  1.00  0.00     0.000 C 
BRANCH   4   5
ATOM      5  C   UNL     1      25.038   3.827   2.177  1.00  0.00     0.000 C 
BRANCH   5   6
ATOM      6  C   UNL     1      24.557   3.099   0.910  1.00  0.00     0.000 C 
BRANCH   6   7
ATOM      7  C   UNL     1      24.637   1.566   1.032  1.00  0.00     0.000 C 
BRANCH   7   8
ATOM      8  C   UNL     1      23.844   0.788  -0.034  1.00  0.00     0.000 C 
BRANCH   8   9
ATOM      9  C   UNL     1      22.753   1.637  -0.704  1.00  0.00     0.000 C 
BRANCH   9  10
ATOM     10  C   UNL     1      21.990   0.818  -1.757  1.00  0.00     0.006 C 
BRANCH  10  11
ATOM     11  C   UNL     1      22.920   0.254  -2.838  1.00  0.00     0.053 C 
BRANCH  11  12
ATOM     12  C   UNL     1      22.684   0.900  -4.169  1.00  0.00     0.041 C 
ATOM     13  O   UNL     1      21.776   1.761  -4.301  1.00  0.00    -0.550 OA
ATOM     14  O   UNL     1      23.480   0.567  -5.258  1.00  0.00    -0.550 OA
ENDBRANCH  11  12
ENDBRANCH  10  11
ENDBRANCH   9  10
ENDBRANCH   8   9
ENDBRANCH   7   8
ENDBRANCH   6   7
ENDBRANCH   5   6
ENDBRANCH   4   5
ENDBRANCH   3   4
ENDBRANCH   2   3
ENDBRANCH   1   2
BRANCH   1  15
ATOM     15  C   UNL     1      22.615   6.288   5.981  1.00  0.00     0.000 C 
BRANCH  15  16
ATOM     16  C   UNL     1      21.693   6.575   7.182  1.00  0.00     0.000 C 
BRANCH  16  17
ATOM     17  C   UNL     1      20.585   7.610   6.908  1.00  0.00     0.000 C 
BRANCH  17  18
ATOM     18  C   UNL     1      20.577   8.764   7.928  1.00  0.00    -0.000 C 
BRANCH  18  19
ATOM     19  C   UNL     1      20.062  10.084   7.311  1.00  0.00    -0.000 C 
BRANCH  19  20
ATOM     20  C   UNL     1      19.005   9.889   6.205  1.00  0.00    -0.000 C 
BRANCH  20  21
ATOM     21  C   UNL     1      17.594   9.534   6.704  1.00  0.00    -0.000 C 
BRANCH  21  22
ATOM     22  C   UNL     1      16.527   9.631   5.601  1.00  0.00    -0.000 C 
BRANCH  22  23
ATOM     23  C   UNL     1      16.007   8.254   5.157  1.00  0.00    -0.000 C 
BRANCH  23  24
ATOM     24  C   UNL     1      16.615   7.079   5.955  1.00  0.00    -0.000 C 
BRANCH  24  25
ATOM     25  C   UNL     1      17.386   6.082   5.070  1.00  0.00    -0.003 C 
ATOM     26  C   UNL     1      18.376   6.779   4.138  1.00  0.00     0.004 C 
ENDBRANCH  24  25
ENDBRANCH  23  24
ENDBRANCH  22  23
ENDBRANCH  21  22
ENDBRANCH  20  21
ENDBRANCH  19  20
ENDBRANCH  18  19
ENDBRANCH  17  18
ENDBRANCH  16  17
ENDBRANCH  15  16
ENDBRANCH   1  15
TORSDOF 22
ENDMDL
MODEL 7
REMARK VINA RESULT:    -4.164      3.186      9.139
REMARK INTER + INTRA:         -12.619
REMARK INTER:                 -10.140
REMARK INTRA:                  -2.479
REMARK UNBOUND:                -3.099
REMARK SMILES CCCCCCCCCCCCCCCCCCCCCCCC(=O)[O-]
REMARK SMILES IDX 13 1 14 2 15 3 16 4 17 5 18 6 19 7 20 8 21 9 22 10 23 11
REMARK SMILES IDX 24 12 25 13 26 14 12 15 11 16 10 17 9 18 8 19 7 20 6 21 5 22
REMARK SMILES IDX 4 23 3 24 2 25 1 26
REMARK H PARENT
REMARK Flexibility Score: inf
ROOT
ATOM      1  C   UNL     1      22.837   5.647   6.846  1.00  0.00     0.000 C 
ENDROOT
BRANCH   1   2
ATOM      2  C   UNL     1      21.999   6.647   7.662  1.00  0.00     0.000 C 
BRANCH   2   3
ATOM      3  C   UNL     1      20.841   7.288   6.868  1.00  0.00     0.000 C 
BRANCH   3   4
ATOM      4  C   UNL     1      20.224   8.490   7.604  1.00  0.00     0.000 C 
BRANCH   4   5
ATOM      5  C   UNL     1      19.587   9.505   6.642  1.00  0.00     0.000 C 
BRANCH   5   6
ATOM      6  C   UNL     1      18.148   9.875   7.045  1.00  0.00     0.000 C 
BRANCH   6   7
ATOM      7  C   UNL     1      17.095   9.359   6.047  1.00  0.00     0.000 C 
BRANCH   7   8
ATOM      8  C   UNL     1      16.639   7.907   6.279  1.00  0.00     0.000 C 
BRANCH   8   9
ATOM      9  C   UNL     1      16.359   7.152   4.970  1.00  0.00     0.000 C 
BRANCH   9  10
ATOM     10  C   UNL     1      17.434   6.086   4.711  1.00  0.00     0.006 C 
BRANCH  10  11
ATOM     11  C   UNL     1      18.701   6.681   4.084  1.00  0.00     0.053 C 
BRANCH  11  12
ATOM     12  C   UNL     1      18.424   7.299   2.747  1.00  0.00     0.041 C 
ATOM     13  O   UNL     1      18.061   6.579   1.781  1.00  0.00    -0.550 OA
ATOM     14  O   UNL     1      18.545   8.673   2.575  1.00  0.00    -0.550 OA
ENDBRANCH  11  12
ENDBRANCH  10  11
ENDBRANCH   9  10
ENDBRANCH   8   9
ENDBRANCH   7   8
ENDBRANCH   6   7
ENDBRANCH   5   6
ENDBRANCH   4   5
ENDBRANCH   3   4
ENDBRANCH   2   3
ENDBRANCH   1   2
BRANCH   1  15
ATOM     15  C   UNL     1      23.148   6.146   5.424  1.00  0.00     0.000 C 
BRANCH  15  16
ATOM     16  C   UNL     1      23.774   5.058   4.530  1.00  0.00     0.000 C 
BRANCH  16  17
ATOM     17  C   UNL     1      23.298   5.079   3.065  1.00  0.00     0.000 C 
BRANCH  17  18
ATOM     18  C   UNL     1      24.462   5.091   2.057  1.00  0.00    -0.000 C 
BRANCH  18  19
ATOM     19  C   UNL     1      24.578   3.758   1.283  1.00  0.00    -0.000 C 
BRANCH  19  20
ATOM     20  C   UNL     1      25.551   2.746   1.919  1.00  0.00    -0.000 C 
BRANCH  20  21
ATOM     21  C   UNL     1      26.968   3.280   2.185  1.00  0.00    -0.000 C 
BRANCH  21  22
ATOM     22  C   UNL     1      27.243   3.530   3.678  1.00  0.00    -0.000 C 
BRANCH  22  23
ATOM     23  C   UNL     1      27.630   4.988   3.973  1.00  0.00    -0.000 C 
BRANCH  23  24
ATOM     24  C   UNL     1      27.582   5.348   5.475  1.00  0.00    -0.000 C 
BRANCH  24  25
ATOM     25  C   UNL     1      26.800   6.643   5.762  1.00  0.00    -0.003 C 
ATOM     26  C   UNL     1      27.710   7.777   6.236  1.00  0.00     0.004 C 
ENDBRANCH  24  25
ENDBRANCH  23  24
ENDBRANCH  22  23
ENDBRANCH  21  22
ENDBRANCH  20  21
ENDBRANCH  19  20
ENDBRANCH  18  19
ENDBRANCH  17  18
ENDBRANCH  16  17
ENDBRANCH  15  16
ENDBRANCH   1  15
TORSDOF 22
ENDMDL
MODEL 8
REMARK VINA RESULT:    -4.139     11.097     14.987
REMARK INTER + INTRA:         -12.561
REMARK INTER:                  -9.219
REMARK INTRA:                  -3.343
REMARK UNBOUND:                -3.099
REMARK SMILES CCCCCCCCCCCCCCCCCCCCCCCC(=O)[O-]
REMARK SMILES IDX 13 1 14 2 15 3 16 4 17 5 18 6 19 7 20 8 21 9 22 10 23 11
REMARK SMILES IDX 24 12 25 13 26 14 12 15 11 16 10 17 9 18 8 19 7 20 6 21 5 22
REMARK SMILES IDX 4 23 3 24 2 25 1 26
REMARK H PARENT
REMARK Flexibility Score: inf
ROOT
ATOM      1  C   UNL     1      23.096  -4.716   5.625  1.00  0.00     0.000 C 
ENDROOT
BRANCH   1   2
ATOM      2  C   UNL     1      23.853  -5.222   6.865  1.00  0.00     0.000 C 
BRANCH   2   3
ATOM      3  C   UNL     1      23.505  -6.672   7.264  1.00  0.00     0.000 C 
BRANCH   3   4
ATOM      4  C   UNL     1      23.479  -7.620   6.052  1.00  0.00     0.000 C 
BRANCH   4   5
ATOM      5  C   UNL     1      22.118  -8.313   5.876  1.00  0.00     0.000 C 
BRANCH   5   6
ATOM      6  C   UNL     1      21.699  -8.422   4.400  1.00  0.00     0.000 C 
BRANCH   6   7
ATOM      7  C   UNL     1      20.698  -7.330   3.979  1.00  0.00     0.000 C 
BRANCH   7   8
ATOM      8  C   UNL     1      21.100  -6.532   2.725  1.00  0.00     0.000 C 
BRANCH   8   9
ATOM      9  C   UNL     1      20.761  -5.038   2.833  1.00  0.00     0.000 C 
BRANCH   9  10
ATOM     10  C   UNL     1      20.817  -4.361   1.455  1.00  0.00     0.006 C 
BRANCH  10  11
ATOM     11  C   UNL     1      21.945  -3.326   1.363  1.00  0.00     0.053 C 
BRANCH  11  12
ATOM     12  C   UNL     1      22.910  -3.650   0.264  1.00  0.00     0.041 C 
ATOM     13  O   UNL     1      23.331  -2.740  -0.497  1.00  0.00    -0.550 OA
ATOM     14  O   UNL     1      23.362  -4.954   0.094  1.00  0.00    -0.550 OA
ENDBRANCH  11  12
ENDBRANCH  10  11
ENDBRANCH   9  10
ENDBRANCH   8   9
ENDBRANCH   7   8
ENDBRANCH   6   7
ENDBRANCH   5   6
ENDBRANCH   4   5
ENDBRANCH   3   4
ENDBRANCH   2   3
ENDBRANCH   1   2
BRANCH   1  15
ATOM     15  C   UNL     1      24.031  -4.155   4.540  1.00  0.00     0.000 C 
BRANCH  15  16
ATOM     16  C   UNL     1      24.391  -5.195   3.462  1.00  0.00     0.000 C 
BRANCH  16  17
ATOM     17  C   UNL     1      25.745  -4.956   2.765  1.00  0.00     0.000 C 
BRANCH  17  18
ATOM     18  C   UNL     1      26.706  -6.151   2.897  1.00  0.00    -0.000 C 
BRANCH  18  19
ATOM     19  C   UNL     1      26.034  -7.370   3.565  1.00  0.00    -0.000 C 
BRANCH  19  20
ATOM     20  C   UNL     1      25.838  -8.575   2.623  1.00  0.00    -0.000 C 
BRANCH  20  21
ATOM     21  C   UNL     1      26.510  -8.443   1.246  1.00  0.00    -0.000 C 
BRANCH  21  22
ATOM     22  C   UNL     1      25.541  -7.967   0.150  1.00  0.00    -0.000 C 
BRANCH  22  23
ATOM     23  C   UNL     1      26.123  -8.122  -1.264  1.00  0.00    -0.000 C 
BRANCH  23  24
ATOM     24  C   UNL     1      27.401  -8.992  -1.312  1.00  0.00    -0.000 C 
BRANCH  24  25
ATOM     25  C   UNL     1      28.509  -8.389  -2.196  1.00  0.00    -0.003 C 
ATOM     26  C   UNL     1      27.971  -7.331  -3.160  1.00  0.00     0.004 C 
ENDBRANCH  24  25
ENDBRANCH  23  24
ENDBRANCH  22  23
ENDBRANCH  21  22
ENDBRANCH  20  21
ENDBRANCH  19  20
ENDBRANCH  18  19
ENDBRANCH  17  18
ENDBRANCH  16  17
ENDBRANCH  15  16
ENDBRANCH   1  15
TORSDOF 22
ENDMDL
