MODEL 1
REMARK VINA RESULT:    -5.683      0.000      0.000
REMARK INTER + INTRA:          -9.452
REMARK INTER:                  -8.008
REMARK INTRA:                  -1.444
REMARK UNBOUND:                -1.444
REMARK SMILES C=C(CC[C@@H](C(=O)[O-])[C@@H]1[C@H](O)C[C@@]2(C)C3=C(CC[C@@]12C)[C@]1(C)CC[C@@H](O)C(C)(C)[C@@H]1CC3)C(C)C
REMARK SMILES IDX 4 1 5 2 6 3 7 4 8 5 9 6 10 7 19 8 12 9 13 10 18 11 20 12
REMARK SMILES IDX 14 13 15 14 17 15 16 16 32 17 21 18 31 19 30 20 23 21 22 22
REMARK SMILES IDX 27 23 24 24 25 25 28 26 29 27 11 28 26 30 3 32 2 33 1 34
REMARK SMILES IDX 33 35 34 36 35 37
REMARK H PARENT 11 29 26 31
REMARK Flexibility Score: inf
ROOT
ATOM      1  C   UNL     1      20.877 -13.643  45.748  1.00  0.00     0.014 C 
ENDROOT
BRANCH   1   2
ATOM      2  C   UNL     1      21.568 -13.628  44.361  1.00  0.00     0.042 C 
BRANCH   2   3
ATOM      3  C   UNL     1      21.782 -15.058  43.916  1.00  0.00     0.045 C 
ATOM      4  O   UNL     1      22.927 -15.457  43.571  1.00  0.00    -0.550 OA
ATOM      5  O   UNL     1      20.711 -15.941  43.879  1.00  0.00    -0.550 OA
ENDBRANCH   2   3
BRANCH   2   6
ATOM      6  C   UNL     1      20.742 -12.824  43.288  1.00  0.00     0.033 C 
ATOM      7  C   UNL     1      21.237 -13.042  41.850  1.00  0.00     0.119 C 
ATOM      8  C   UNL     1      20.580 -11.253  43.448  1.00  0.00    -0.017 C 
ATOM      9  C   UNL     1      20.622 -11.908  41.052  1.00  0.00     0.043 C 
ATOM     10  C   UNL     1      20.662 -10.659  41.960  1.00  0.00    -0.003 C 
ATOM     11  C   UNL     1      19.201 -10.938  44.099  1.00  0.00     0.012 C 
ATOM     12  C   UNL     1      21.657 -10.631  44.392  1.00  0.00     0.013 C 
ATOM     13  C   UNL     1      22.012  -9.929  41.667  1.00  0.00     0.017 C 
ATOM     14  C   UNL     1      19.457  -9.751  41.569  1.00  0.00    -0.064 C 
ATOM     15  C   UNL     1      18.038 -11.055  43.118  1.00  0.00     0.032 C 
ATOM     16  C   UNL     1      18.193 -10.047  41.998  1.00  0.00    -0.064 C 
ATOM     17  C   UNL     1      19.600  -8.639  40.541  1.00  0.00     0.032 C 
ATOM     18  C   UNL     1      16.967  -9.578  41.154  1.00  0.00    -0.008 C 
ATOM     19  C   UNL     1      18.586  -7.550  40.851  1.00  0.00     0.009 C 
ATOM     20  C   UNL     1      17.117  -8.051  40.684  1.00  0.00     0.007 C 
ATOM     21  C   UNL     1      16.904 -10.579  39.962  1.00  0.00     0.014 C 
ATOM     22  C   UNL     1      15.662  -9.721  41.986  1.00  0.00     0.016 C 
ATOM     23  C   UNL     1      16.398  -7.655  39.300  1.00  0.00    -0.006 C 
ATOM     24  C   UNL     1      16.001 -10.143  38.823  1.00  0.00     0.033 C 
ATOM     25  C   UNL     1      16.481  -8.807  38.254  1.00  0.00     0.120 C 
ATOM     26  C   UNL     1      14.909  -7.266  39.554  1.00  0.00     0.014 C 
ATOM     27  C   UNL     1      17.028  -6.395  38.641  1.00  0.00     0.014 C 
BRANCH   7  28
ATOM     28  O   UNL     1      22.640 -12.983  41.790  1.00  0.00    -0.393 OA
ATOM     29  H   UNL     1      22.973 -13.897  41.990  1.00  0.00     0.210 HD
ENDBRANCH   7  28
BRANCH  25  30
ATOM     30  O   UNL     1      15.722  -8.489  37.112  1.00  0.00    -0.393 OA
ATOM     31  H   UNL     1      14.981  -7.899  37.410  1.00  0.00     0.210 HD
ENDBRANCH  25  30
ENDBRANCH   2   6
ENDBRANCH   1   2
BRANCH   1  32
ATOM     32  C   UNL     1      21.791 -14.208  46.851  1.00  0.00     0.031 C 
BRANCH  32  33
ATOM     33  C   UNL     1      23.051 -13.377  46.993  1.00  0.00    -0.075 C 
ATOM     34  C   UNL     1      22.947 -12.080  47.329  1.00  0.00     0.008 C 
BRANCH  33  35
ATOM     35  C   UNL     1      24.427 -14.006  46.820  1.00  0.00     0.008 C 
ATOM     36  C   UNL     1      24.335 -15.537  46.840  1.00  0.00     0.012 C 
ATOM     37  C   UNL     1      25.111 -13.511  45.540  1.00  0.00     0.012 C 
ENDBRANCH  33  35
ENDBRANCH  32  33
ENDBRANCH   1  32
TORSDOF 8
ENDMDL
MODEL 2
REMARK VINA RESULT:    -5.653      1.936      3.824
REMARK INTER + INTRA:          -9.410
REMARK INTER:                  -8.233
REMARK INTRA:                  -1.177
REMARK UNBOUND:                -1.444
REMARK SMILES C=C(CC[C@@H](C(=O)[O-])[C@@H]1[C@H](O)C[C@@]2(C)C3=C(CC[C@@]12C)[C@]1(C)CC[C@@H](O)C(C)(C)[C@@H]1CC3)C(C)C
REMARK SMILES IDX 4 1 5 2 6 3 7 4 8 5 9 6 10 7 19 8 12 9 13 10 18 11 20 12
REMARK SMILES IDX 14 13 15 14 17 15 16 16 32 17 21 18 31 19 30 20 23 21 22 22
REMARK SMILES IDX 27 23 24 24 25 25 28 26 29 27 11 28 26 30 3 32 2 33 1 34
REMARK SMILES IDX 33 35 34 36 35 37
REMARK H PARENT 11 29 26 31
REMARK Flexibility Score: inf
ROOT
ATOM      1  C   UNL     1      24.506 -14.396  44.289  1.00  0.00     0.014 C 
ENDROOT
BRANCH   1   2
ATOM      2  C   UNL     1      23.176 -15.024  44.776  1.00  0.00     0.042 C 
BRANCH   2   3
ATOM      3  C   UNL     1      23.203 -15.095  46.287  1.00  0.00     0.045 C 
ATOM      4  O   UNL     1      23.744 -16.070  46.874  1.00  0.00    -0.550 OA
ATOM      5  O   UNL     1      22.623 -14.081  47.039  1.00  0.00    -0.550 OA
ENDBRANCH   2   3
BRANCH   2   6
ATOM      6  C   UNL     1      21.915 -14.225  44.274  1.00  0.00     0.033 C 
ATOM      7  C   UNL     1      20.607 -14.669  44.945  1.00  0.00     0.119 C 
ATOM      8  C   UNL     1      21.598 -14.170  42.719  1.00  0.00    -0.017 C 
ATOM      9  C   UNL     1      19.508 -14.109  44.060  1.00  0.00     0.043 C 
ATOM     10  C   UNL     1      20.000 -14.252  42.604  1.00  0.00    -0.003 C 
ATOM     11  C   UNL     1      22.132 -12.831  42.130  1.00  0.00     0.012 C 
ATOM     12  C   UNL     1      22.308 -15.308  41.921  1.00  0.00     0.013 C 
ATOM     13  C   UNL     1      19.496 -15.639  42.090  1.00  0.00     0.017 C 
ATOM     14  C   UNL     1      19.361 -13.099  41.773  1.00  0.00    -0.064 C 
ATOM     15  C   UNL     1      21.236 -11.638  42.453  1.00  0.00     0.032 C 
ATOM     16  C   UNL     1      19.865 -11.830  41.838  1.00  0.00    -0.064 C 
ATOM     17  C   UNL     1      18.047 -13.288  41.031  1.00  0.00     0.032 C 
ATOM     18  C   UNL     1      18.925 -10.616  41.559  1.00  0.00    -0.008 C 
ATOM     19  C   UNL     1      18.021 -12.354  39.831  1.00  0.00     0.009 C 
ATOM     20  C   UNL     1      18.018 -10.852  40.256  1.00  0.00     0.007 C 
ATOM     21  C   UNL     1      18.088 -10.458  42.864  1.00  0.00     0.014 C 
ATOM     22  C   UNL     1      19.768  -9.326  41.356  1.00  0.00     0.016 C 
ATOM     23  C   UNL     1      16.583 -10.126  40.243  1.00  0.00    -0.006 C 
ATOM     24  C   UNL     1      16.875  -9.556  42.726  1.00  0.00     0.033 C 
ATOM     25  C   UNL     1      15.930 -10.108  41.657  1.00  0.00     0.120 C 
ATOM     26  C   UNL     1      16.716  -8.672  39.693  1.00  0.00     0.014 C 
ATOM     27  C   UNL     1      15.574 -10.819  39.283  1.00  0.00     0.014 C 
BRANCH   7  28
ATOM     28  O   UNL     1      20.525 -16.071  45.004  1.00  0.00    -0.393 OA
ATOM     29  H   UNL     1      20.307 -16.383  44.087  1.00  0.00     0.210 HD
ENDBRANCH   7  28
BRANCH  25  30
ATOM     30  O   UNL     1      14.749  -9.343  41.642  1.00  0.00    -0.393 OA
ATOM     31  H   UNL     1      14.264  -9.571  40.807  1.00  0.00     0.210 HD
ENDBRANCH  25  30
ENDBRANCH   2   6
ENDBRANCH   1   2
BRANCH   1  32
ATOM     32  C   UNL     1      25.099 -13.413  45.316  1.00  0.00     0.031 C 
BRANCH  32  33
ATOM     33  C   UNL     1      24.858 -11.976  44.897  1.00  0.00    -0.075 C 
ATOM     34  C   UNL     1      25.124 -11.608  43.632  1.00  0.00     0.008 C 
BRANCH  33  35
ATOM     35  C   UNL     1      24.266 -10.966  45.871  1.00  0.00     0.008 C 
ATOM     36  C   UNL     1      22.742 -10.892  45.722  1.00  0.00     0.012 C 
ATOM     37  C   UNL     1      24.665 -11.286  47.317  1.00  0.00     0.012 C 
ENDBRANCH  33  35
ENDBRANCH  32  33
ENDBRANCH   1  32
TORSDOF 8
ENDMDL
MODEL 3
REMARK VINA RESULT:    -5.442      1.193      1.717
REMARK INTER + INTRA:          -9.113
REMARK INTER:                  -8.116
REMARK INTRA:                  -0.998
REMARK UNBOUND:                -1.444
REMARK SMILES C=C(CC[C@@H](C(=O)[O-])[C@@H]1[C@H](O)C[C@@]2(C)C3=C(CC[C@@]12C)[C@]1(C)CC[C@@H](O)C(C)(C)[C@@H]1CC3)C(C)C
REMARK SMILES IDX 4 1 5 2 6 3 7 4 8 5 9 6 10 7 19 8 12 9 13 10 18 11 20 12
REMARK SMILES IDX 14 13 15 14 17 15 16 16 32 17 21 18 31 19 30 20 23 21 22 22
REMARK SMILES IDX 27 23 24 24 25 25 28 26 29 27 11 28 26 30 3 32 2 33 1 34
REMARK SMILES IDX 33 35 34 36 35 37
REMARK H PARENT 11 29 26 31
REMARK Flexibility Score: inf
ROOT
ATOM      1  C   UNL     1      21.904 -14.541  45.910  1.00  0.00     0.014 C 
ENDROOT
BRANCH   1   2
ATOM      2  C   UNL     1      22.199 -14.699  44.398  1.00  0.00     0.042 C 
BRANCH   2   3
ATOM      3  C   UNL     1      22.122 -16.168  44.045  1.00  0.00     0.045 C 
ATOM      4  O   UNL     1      23.110 -16.755  43.526  1.00  0.00    -0.550 OA
ATOM      5  O   UNL     1      20.954 -16.880  44.285  1.00  0.00    -0.550 OA
ENDBRANCH   2   3
BRANCH   2   6
ATOM      6  C   UNL     1      21.216 -13.855  43.502  1.00  0.00     0.033 C 
ATOM      7  C   UNL     1      21.069 -14.403  42.075  1.00  0.00     0.119 C 
ATOM      8  C   UNL     1      21.462 -12.295  43.335  1.00  0.00    -0.017 C 
ATOM      9  C   UNL     1      20.451 -13.265  41.285  1.00  0.00     0.043 C 
ATOM     10  C   UNL     1      21.094 -11.964  41.809  1.00  0.00    -0.003 C 
ATOM     11  C   UNL     1      20.533 -11.517  44.314  1.00  0.00     0.012 C 
ATOM     12  C   UNL     1      22.921 -11.875  43.696  1.00  0.00     0.013 C 
ATOM     13  C   UNL     1      22.352 -11.691  40.923  1.00  0.00     0.017 C 
ATOM     14  C   UNL     1      20.051 -10.818  41.639  1.00  0.00    -0.064 C 
ATOM     15  C   UNL     1      19.088 -11.439  43.830  1.00  0.00     0.032 C 
ATOM     16  C   UNL     1      19.014 -10.683  42.520  1.00  0.00    -0.064 C 
ATOM     17  C   UNL     1      20.023  -9.948  40.393  1.00  0.00     0.032 C 
ATOM     18  C   UNL     1      17.687 -10.012  42.045  1.00  0.00    -0.008 C 
ATOM     19  C   UNL     1      19.456  -8.584  40.757  1.00  0.00     0.009 C 
ATOM     20  C   UNL     1      17.964  -8.671  41.209  1.00  0.00     0.007 C 
ATOM     21  C   UNL     1      16.966 -11.113  41.210  1.00  0.00     0.014 C 
ATOM     22  C   UNL     1      16.798  -9.664  43.272  1.00  0.00     0.016 C 
ATOM     23  C   UNL     1      16.873  -8.288  40.090  1.00  0.00    -0.006 C 
ATOM     24  C   UNL     1      15.811 -10.605  40.367  1.00  0.00     0.033 C 
ATOM     25  C   UNL     1      16.308  -9.552  39.375  1.00  0.00     0.120 C 
ATOM     26  C   UNL     1      15.710  -7.464  40.724  1.00  0.00     0.014 C 
ATOM     27  C   UNL     1      17.455  -7.361  38.984  1.00  0.00     0.014 C 
BRANCH   7  28
ATOM     28  O   UNL     1      22.323 -14.750  41.541  1.00  0.00    -0.393 OA
ATOM     29  H   UNL     1      22.271 -14.585  40.563  1.00  0.00     0.210 HD
ENDBRANCH   7  28
BRANCH  25  30
ATOM     30  O   UNL     1      15.257  -9.198  38.509  1.00  0.00    -0.393 OA
ATOM     31  H   UNL     1      15.248  -8.207  38.452  1.00  0.00     0.210 HD
ENDBRANCH  25  30
ENDBRANCH   2   6
ENDBRANCH   1   2
BRANCH   1  32
ATOM     32  C   UNL     1      23.145 -14.812  46.780  1.00  0.00     0.031 C 
BRANCH  32  33
ATOM     33  C   UNL     1      24.100 -13.635  46.750  1.00  0.00    -0.075 C 
ATOM     34  C   UNL     1      25.125 -13.645  45.881  1.00  0.00     0.008 C 
BRANCH  33  35
ATOM     35  C   UNL     1      23.877 -12.424  47.646  1.00  0.00     0.008 C 
ATOM     36  C   UNL     1      25.125 -11.534  47.683  1.00  0.00     0.012 C 
ATOM     37  C   UNL     1      22.642 -11.626  47.209  1.00  0.00     0.012 C 
ENDBRANCH  33  35
ENDBRANCH  32  33
ENDBRANCH   1  32
TORSDOF 8
ENDMDL
MODEL 4
REMARK VINA RESULT:    -5.358      2.239      2.989
REMARK INTER + INTRA:          -8.994
REMARK INTER:                  -7.536
REMARK INTRA:                  -1.459
REMARK UNBOUND:                -1.444
REMARK SMILES C=C(CC[C@@H](C(=O)[O-])[C@@H]1[C@H](O)C[C@@]2(C)C3=C(CC[C@@]12C)[C@]1(C)CC[C@@H](O)C(C)(C)[C@@H]1CC3)C(C)C
REMARK SMILES IDX 4 1 5 2 6 3 7 4 8 5 9 6 10 7 19 8 12 9 13 10 18 11 20 12
REMARK SMILES IDX 14 13 15 14 17 15 16 16 32 17 21 18 31 19 30 20 23 21 22 22
REMARK SMILES IDX 27 23 24 24 25 25 28 26 29 27 11 28 26 30 3 32 2 33 1 34
REMARK SMILES IDX 33 35 34 36 35 37
REMARK H PARENT 11 29 26 31
REMARK Flexibility Score: inf
ROOT
ATOM      1  C   UNL     1      21.354 -11.630  46.066  1.00  0.00     0.014 C 
ENDROOT
BRANCH   1   2
ATOM      2  C   UNL     1      21.391 -12.857  45.121  1.00  0.00     0.042 C 
BRANCH   2   3
ATOM      3  C   UNL     1      21.411 -14.113  45.965  1.00  0.00     0.045 C 
ATOM      4  O   UNL     1      20.482 -14.351  46.782  1.00  0.00    -0.550 OA
ATOM      5  O   UNL     1      22.464 -15.011  45.847  1.00  0.00    -0.550 OA
ENDBRANCH   2   3
BRANCH   2   6
ATOM      6  C   UNL     1      20.178 -12.877  44.115  1.00  0.00     0.033 C 
ATOM      7  C   UNL     1      19.893 -14.269  43.533  1.00  0.00     0.119 C 
ATOM      8  C   UNL     1      20.185 -11.890  42.871  1.00  0.00    -0.017 C 
ATOM      9  C   UNL     1      19.014 -14.011  42.324  1.00  0.00     0.043 C 
ATOM     10  C   UNL     1      19.549 -12.725  41.658  1.00  0.00    -0.003 C 
ATOM     11  C   UNL     1      19.319 -10.637  43.200  1.00  0.00     0.012 C 
ATOM     12  C   UNL     1      21.612 -11.354  42.536  1.00  0.00     0.013 C 
ATOM     13  C   UNL     1      20.610 -13.169  40.600  1.00  0.00     0.017 C 
ATOM     14  C   UNL     1      18.348 -12.019  40.959  1.00  0.00    -0.064 C 
ATOM     15  C   UNL     1      17.820 -10.906  43.103  1.00  0.00     0.032 C 
ATOM     16  C   UNL     1      17.447 -11.291  41.686  1.00  0.00    -0.064 C 
ATOM     17  C   UNL     1      18.014 -12.278  39.498  1.00  0.00     0.032 C 
ATOM     18  C   UNL     1      15.985 -11.134  41.161  1.00  0.00    -0.008 C 
ATOM     19  C   UNL     1      17.331 -11.047  38.923  1.00  0.00     0.009 C 
ATOM     20  C   UNL     1      15.950 -10.774  39.598  1.00  0.00     0.007 C 
ATOM     21  C   UNL     1      15.302 -12.495  41.489  1.00  0.00     0.014 C 
ATOM     22  C   UNL     1      15.255 -10.013  41.951  1.00  0.00     0.016 C 
ATOM     23  C   UNL     1      14.661 -11.277  38.777  1.00  0.00    -0.006 C 
ATOM     24  C   UNL     1      13.974 -12.715  40.786  1.00  0.00     0.033 C 
ATOM     25  C   UNL     1      14.169 -12.671  39.269  1.00  0.00     0.120 C 
ATOM     26  C   UNL     1      13.508 -10.232  38.884  1.00  0.00     0.014 C 
ATOM     27  C   UNL     1      14.938 -11.404  37.253  1.00  0.00     0.014 C 
BRANCH   7  28
ATOM     28  O   UNL     1      21.085 -14.906  43.149  1.00  0.00    -0.393 OA
ATOM     29  H   UNL     1      21.072 -14.964  42.158  1.00  0.00     0.210 HD
ENDBRANCH   7  28
BRANCH  25  30
ATOM     30  O   UNL     1      12.961 -13.017  38.636  1.00  0.00    -0.393 OA
ATOM     31  H   UNL     1      13.109 -13.890  38.186  1.00  0.00     0.210 HD
ENDBRANCH  25  30
ENDBRANCH   2   6
ENDBRANCH   1   2
BRANCH   1  32
ATOM     32  C   UNL     1      22.645 -11.490  46.893  1.00  0.00     0.031 C 
BRANCH  32  33
ATOM     33  C   UNL     1      23.824 -11.134  46.010  1.00  0.00    -0.075 C 
ATOM     34  C   UNL     1      23.834  -9.948  45.377  1.00  0.00     0.008 C 
BRANCH  33  35
ATOM     35  C   UNL     1      25.016 -12.073  45.880  1.00  0.00     0.008 C 
ATOM     36  C   UNL     1      25.058 -13.068  47.046  1.00  0.00     0.012 C 
ATOM     37  C   UNL     1      25.007 -12.803  44.531  1.00  0.00     0.012 C 
ENDBRANCH  33  35
ENDBRANCH  32  33
ENDBRANCH   1  32
TORSDOF 8
ENDMDL
MODEL 5
REMARK VINA RESULT:    -5.321      3.154      7.922
REMARK INTER + INTRA:          -8.942
REMARK INTER:                  -7.716
REMARK INTRA:                  -1.226
REMARK UNBOUND:                -1.444
REMARK SMILES C=C(CC[C@@H](C(=O)[O-])[C@@H]1[C@H](O)C[C@@]2(C)C3=C(CC[C@@]12C)[C@]1(C)CC[C@@H](O)C(C)(C)[C@@H]1CC3)C(C)C
REMARK SMILES IDX 4 1 5 2 6 3 7 4 8 5 9 6 10 7 19 8 12 9 13 10 18 11 20 12
REMARK SMILES IDX 14 13 15 14 17 15 16 16 32 17 21 18 31 19 30 20 23 21 22 22
REMARK SMILES IDX 27 23 24 24 25 25 28 26 29 27 11 28 26 30 3 32 2 33 1 34
REMARK SMILES IDX 33 35 34 36 35 37
REMARK H PARENT 11 29 26 31
REMARK Flexibility Score: inf
ROOT
ATOM      1  C   UNL     1      15.735 -13.433  40.067  1.00  0.00     0.014 C 
ENDROOT
BRANCH   1   2
ATOM      2  C   UNL     1      15.904 -11.980  40.577  1.00  0.00     0.042 C 
BRANCH   2   3
ATOM      3  C   UNL     1      14.607 -11.543  41.220  1.00  0.00     0.045 C 
ATOM      4  O   UNL     1      14.068 -12.245  42.117  1.00  0.00    -0.550 OA
ATOM      5  O   UNL     1      13.996 -10.362  40.818  1.00  0.00    -0.550 OA
ENDBRANCH   2   3
BRANCH   2   6
ATOM      6  C   UNL     1      17.108 -11.833  41.583  1.00  0.00     0.033 C 
ATOM      7  C   UNL     1      16.978 -10.618  42.513  1.00  0.00     0.119 C 
ATOM      8  C   UNL     1      18.591 -11.781  41.018  1.00  0.00    -0.017 C 
ATOM      9  C   UNL     1      18.370 -10.416  43.081  1.00  0.00     0.043 C 
ATOM     10  C   UNL     1      19.362 -10.714  41.936  1.00  0.00    -0.003 C 
ATOM     11  C   UNL     1      19.240 -13.192  41.137  1.00  0.00     0.012 C 
ATOM     12  C   UNL     1      18.644 -11.405  39.504  1.00  0.00     0.013 C 
ATOM     13  C   UNL     1      19.631  -9.360  41.204  1.00  0.00     0.017 C 
ATOM     14  C   UNL     1      20.675 -11.256  42.576  1.00  0.00    -0.064 C 
ATOM     15  C   UNL     1      19.689 -13.524  42.557  1.00  0.00     0.032 C 
ATOM     16  C   UNL     1      20.757 -12.550  43.011  1.00  0.00    -0.064 C 
ATOM     17  C   UNL     1      21.828 -10.330  42.930  1.00  0.00     0.032 C 
ATOM     18  C   UNL     1      21.747 -12.912  44.162  1.00  0.00    -0.008 C 
ATOM     19  C   UNL     1      23.129 -11.115  42.862  1.00  0.00     0.009 C 
ATOM     20  C   UNL     1      23.189 -12.244  43.939  1.00  0.00     0.007 C 
ATOM     21  C   UNL     1      21.040 -12.416  45.459  1.00  0.00     0.014 C 
ATOM     22  C   UNL     1      21.917 -14.454  44.253  1.00  0.00     0.016 C 
ATOM     23  C   UNL     1      24.030 -11.898  45.266  1.00  0.00    -0.006 C 
ATOM     24  C   UNL     1      21.940 -12.354  46.679  1.00  0.00     0.033 C 
ATOM     25  C   UNL     1      23.110 -11.403  46.421  1.00  0.00     0.120 C 
ATOM     26  C   UNL     1      24.851 -13.141  45.728  1.00  0.00     0.014 C 
ATOM     27  C   UNL     1      25.094 -10.790  45.024  1.00  0.00     0.014 C 
BRANCH   7  28
ATOM     28  O   UNL     1      16.569  -9.480  41.796  1.00  0.00    -0.393 OA
ATOM     29  H   UNL     1      15.662  -9.246  42.126  1.00  0.00     0.210 HD
ENDBRANCH   7  28
BRANCH  25  30
ATOM     30  O   UNL     1      23.852 -11.247  47.607  1.00  0.00    -0.393 OA
ATOM     31  H   UNL     1      23.840 -10.281  47.833  1.00  0.00     0.210 HD
ENDBRANCH  25  30
ENDBRANCH   2   6
ENDBRANCH   1   2
BRANCH   1  32
ATOM     32  C   UNL     1      16.059 -14.476  41.152  1.00  0.00     0.031 C 
BRANCH  32  33
ATOM     33  C   UNL     1      16.067 -15.879  40.577  1.00  0.00    -0.075 C 
ATOM     34  C   UNL     1      14.965 -16.340  39.961  1.00  0.00     0.008 C 
BRANCH  33  35
ATOM     35  C   UNL     1      17.320 -16.741  40.637  1.00  0.00     0.008 C 
ATOM     36  C   UNL     1      18.283 -16.387  39.497  1.00  0.00     0.012 C 
ATOM     37  C   UNL     1      18.013 -16.626  42.000  1.00  0.00     0.012 C 
ENDBRANCH  33  35
ENDBRANCH  32  33
ENDBRANCH   1  32
TORSDOF 8
ENDMDL
MODEL 6
REMARK VINA RESULT:    -5.218      2.520      8.536
REMARK INTER + INTRA:          -8.796
REMARK INTER:                  -7.502
REMARK INTRA:                  -1.294
REMARK UNBOUND:                -1.444
REMARK SMILES C=C(CC[C@@H](C(=O)[O-])[C@@H]1[C@H](O)C[C@@]2(C)C3=C(CC[C@@]12C)[C@]1(C)CC[C@@H](O)C(C)(C)[C@@H]1CC3)C(C)C
REMARK SMILES IDX 4 1 5 2 6 3 7 4 8 5 9 6 10 7 19 8 12 9 13 10 18 11 20 12
REMARK SMILES IDX 14 13 15 14 17 15 16 16 32 17 21 18 31 19 30 20 23 21 22 22
REMARK SMILES IDX 27 23 24 24 25 25 28 26 29 27 11 28 26 30 3 32 2 33 1 34
REMARK SMILES IDX 33 35 34 36 35 37
REMARK H PARENT 11 29 26 31
REMARK Flexibility Score: inf
ROOT
ATOM      1  C   UNL     1      18.774  -7.809  39.269  1.00  0.00     0.014 C 
ENDROOT
BRANCH   1   2
ATOM      2  C   UNL     1      20.291  -7.541  39.424  1.00  0.00     0.042 C 
BRANCH   2   3
ATOM      3  C   UNL     1      20.505  -6.048  39.545  1.00  0.00     0.045 C 
ATOM      4  O   UNL     1      19.940  -5.393  40.461  1.00  0.00    -0.550 OA
ATOM      5  O   UNL     1      21.324  -5.388  38.638  1.00  0.00    -0.550 OA
ENDBRANCH   2   3
BRANCH   2   6
ATOM      6  C   UNL     1      20.913  -8.299  40.657  1.00  0.00     0.033 C 
ATOM      7  C   UNL     1      22.162  -7.611  41.228  1.00  0.00     0.119 C 
ATOM      8  C   UNL     1      21.301  -9.832  40.511  1.00  0.00    -0.017 C 
ATOM      9  C   UNL     1      22.827  -8.669  42.088  1.00  0.00     0.043 C 
ATOM     10  C   UNL     1      22.661 -10.011  41.344  1.00  0.00    -0.003 C 
ATOM     11  C   UNL     1      20.162 -10.712  41.106  1.00  0.00     0.012 C 
ATOM     12  C   UNL     1      21.458 -10.274  39.022  1.00  0.00     0.013 C 
ATOM     13  C   UNL     1      23.918 -10.182  40.431  1.00  0.00     0.017 C 
ATOM     14  C   UNL     1      22.608 -11.142  42.414  1.00  0.00    -0.064 C 
ATOM     15  C   UNL     1      20.176 -10.754  42.632  1.00  0.00     0.032 C 
ATOM     16  C   UNL     1      21.465 -11.374  43.129  1.00  0.00    -0.064 C 
ATOM     17  C   UNL     1      23.863 -11.883  42.850  1.00  0.00     0.032 C 
ATOM     18  C   UNL     1      21.565 -12.005  44.553  1.00  0.00    -0.008 C 
ATOM     19  C   UNL     1      23.475 -13.281  43.307  1.00  0.00     0.009 C 
ATOM     20  C   UNL     1      22.573 -13.253  44.582  1.00  0.00     0.007 C 
ATOM     21  C   UNL     1      22.020 -10.832  45.471  1.00  0.00     0.014 C 
ATOM     22  C   UNL     1      20.163 -12.483  45.022  1.00  0.00     0.016 C 
ATOM     23  C   UNL     1      23.328 -13.531  45.975  1.00  0.00    -0.006 C 
ATOM     24  C   UNL     1      22.506 -11.262  46.843  1.00  0.00     0.033 C 
ATOM     25  C   UNL     1      23.702 -12.207  46.705  1.00  0.00     0.120 C 
ATOM     26  C   UNL     1      22.446 -14.424  46.901  1.00  0.00     0.014 C 
ATOM     27  C   UNL     1      24.645 -14.336  45.789  1.00  0.00     0.014 C 
BRANCH   7  28
ATOM     28  O   UNL     1      23.024  -7.201  40.196  1.00  0.00    -0.393 OA
ATOM     29  H   UNL     1      22.567  -7.414  39.341  1.00  0.00     0.210 HD
ENDBRANCH   7  28
BRANCH  25  30
ATOM     30  O   UNL     1      24.227 -12.481  47.982  1.00  0.00    -0.393 OA
ATOM     31  H   UNL     1      24.174 -13.463  48.113  1.00  0.00     0.210 HD
ENDBRANCH  25  30
ENDBRANCH   2   6
ENDBRANCH   1   2
BRANCH   1  32
ATOM     32  C   UNL     1      18.056  -7.910  40.628  1.00  0.00     0.031 C 
BRANCH  32  33
ATOM     33  C   UNL     1      17.015  -9.012  40.615  1.00  0.00    -0.075 C 
ATOM     34  C   UNL     1      16.923  -9.814  39.540  1.00  0.00     0.008 C 
BRANCH  33  35
ATOM     35  C   UNL     1      16.120  -9.257  41.822  1.00  0.00     0.008 C 
ATOM     36  C   UNL     1      15.258 -10.508  41.620  1.00  0.00     0.012 C 
ATOM     37  C   UNL     1      16.941  -9.355  43.115  1.00  0.00     0.012 C 
ENDBRANCH  33  35
ENDBRANCH  32  33
ENDBRANCH   1  32
TORSDOF 8
ENDMDL
MODEL 7
REMARK VINA RESULT:    -5.167      3.052      4.700
REMARK INTER + INTRA:          -8.725
REMARK INTER:                  -7.230
REMARK INTRA:                  -1.495
REMARK UNBOUND:                -1.444
REMARK SMILES C=C(CC[C@@H](C(=O)[O-])[C@@H]1[C@H](O)C[C@@]2(C)C3=C(CC[C@@]12C)[C@]1(C)CC[C@@H](O)C(C)(C)[C@@H]1CC3)C(C)C
REMARK SMILES IDX 4 1 5 2 6 3 7 4 8 5 9 6 10 7 19 8 12 9 13 10 18 11 20 12
REMARK SMILES IDX 14 13 15 14 17 15 16 16 32 17 21 18 31 19 30 20 23 21 22 22
REMARK SMILES IDX 27 23 24 24 25 25 28 26 29 27 11 28 26 30 3 32 2 33 1 34
REMARK SMILES IDX 33 35 34 36 35 37
REMARK H PARENT 11 29 26 31
REMARK Flexibility Score: inf
ROOT
ATOM      1  C   UNL     1      22.316 -11.958  43.257  1.00  0.00     0.014 C 
ENDROOT
BRANCH   1   2
ATOM      2  C   UNL     1      21.668 -10.754  42.528  1.00  0.00     0.042 C 
BRANCH   2   3
ATOM      3  C   UNL     1      22.670 -10.192  41.544  1.00  0.00     0.045 C 
ATOM      4  O   UNL     1      23.238 -10.944  40.708  1.00  0.00    -0.550 OA
ATOM      5  O   UNL     1      22.976  -8.837  41.563  1.00  0.00    -0.550 OA
ENDBRANCH   2   3
BRANCH   2   6
ATOM      6  C   UNL     1      20.326 -11.144  41.801  1.00  0.00     0.033 C 
ATOM      7  C   UNL     1      19.883 -10.116  40.750  1.00  0.00     0.119 C 
ATOM      8  C   UNL     1      19.032 -11.450  42.670  1.00  0.00    -0.017 C 
ATOM      9  C   UNL     1      18.424 -10.440  40.483  1.00  0.00     0.043 C 
ATOM     10  C   UNL     1      17.804 -10.831  41.842  1.00  0.00    -0.003 C 
ATOM     11  C   UNL     1      18.873 -12.990  42.836  1.00  0.00     0.012 C 
ATOM     12  C   UNL     1      19.125 -10.865  44.114  1.00  0.00     0.013 C 
ATOM     13  C   UNL     1      17.238  -9.520  42.477  1.00  0.00     0.017 C 
ATOM     14  C   UNL     1      16.651 -11.842  41.562  1.00  0.00    -0.064 C 
ATOM     15  C   UNL     1      18.315 -13.671  41.589  1.00  0.00     0.032 C 
ATOM     16  C   UNL     1      16.924 -13.153  41.287  1.00  0.00    -0.064 C 
ATOM     17  C   UNL     1      15.214 -11.377  41.381  1.00  0.00     0.032 C 
ATOM     18  C   UNL     1      15.922 -13.980  40.422  1.00  0.00    -0.008 C 
ATOM     19  C   UNL     1      14.278 -12.496  41.809  1.00  0.00     0.009 C 
ATOM     20  C   UNL     1      14.403 -13.751  40.889  1.00  0.00     0.007 C 
ATOM     21  C   UNL     1      16.186 -13.513  38.960  1.00  0.00     0.014 C 
ATOM     22  C   UNL     1      16.255 -15.494  40.524  1.00  0.00     0.016 C 
ATOM     23  C   UNL     1      13.276 -13.898  39.751  1.00  0.00    -0.006 C 
ATOM     24  C   UNL     1      15.116 -13.927  37.966  1.00  0.00     0.033 C 
ATOM     25  C   UNL     1      13.763 -13.345  38.379  1.00  0.00     0.120 C 
ATOM     26  C   UNL     1      12.841 -15.389  39.607  1.00  0.00     0.014 C 
ATOM     27  C   UNL     1      11.966 -13.138  40.109  1.00  0.00     0.014 C 
BRANCH   7  28
ATOM     28  O   UNL     1      20.015  -8.807  41.243  1.00  0.00    -0.393 OA
ATOM     29  H   UNL     1      20.268  -8.886  42.199  1.00  0.00     0.210 HD
ENDBRANCH   7  28
BRANCH  25  30
ATOM     30  O   UNL     1      12.815 -13.617  37.375  1.00  0.00    -0.393 OA
ATOM     31  H   UNL     1      12.349 -12.764  37.176  1.00  0.00     0.210 HD
ENDBRANCH  25  30
ENDBRANCH   2   6
ENDBRANCH   1   2
BRANCH   1  32
ATOM     32  C   UNL     1      22.982 -11.549  44.584  1.00  0.00     0.031 C 
BRANCH  32  33
ATOM     33  C   UNL     1      22.310 -12.225  45.763  1.00  0.00    -0.075 C 
ATOM     34  C   UNL     1      22.025 -11.500  46.858  1.00  0.00     0.008 C 
BRANCH  33  35
ATOM     35  C   UNL     1      21.903 -13.691  45.696  1.00  0.00     0.008 C 
ATOM     36  C   UNL     1      22.751 -14.538  46.652  1.00  0.00     0.012 C 
ATOM     37  C   UNL     1      20.406 -13.868  45.981  1.00  0.00     0.012 C 
ENDBRANCH  33  35
ENDBRANCH  32  33
ENDBRANCH   1  32
TORSDOF 8
ENDMDL
MODEL 8
REMARK VINA RESULT:    -5.077      1.550      1.961
REMARK INTER + INTRA:          -8.598
REMARK INTER:                  -7.143
REMARK INTRA:                  -1.456
REMARK UNBOUND:                -1.444
REMARK SMILES C=C(CC[C@@H](C(=O)[O-])[C@@H]1[C@H](O)C[C@@]2(C)C3=C(CC[C@@]12C)[C@]1(C)CC[C@@H](O)C(C)(C)[C@@H]1CC3)C(C)C
REMARK SMILES IDX 4 1 5 2 6 3 7 4 8 5 9 6 10 7 19 8 12 9 13 10 18 11 20 12
REMARK SMILES IDX 14 13 15 14 17 15 16 16 32 17 21 18 31 19 30 20 23 21 22 22
REMARK SMILES IDX 27 23 24 24 25 25 28 26 29 27 11 28 26 30 3 32 2 33 1 34
REMARK SMILES IDX 33 35 34 36 35 37
REMARK H PARENT 11 29 26 31
REMARK Flexibility Score: inf
ROOT
ATOM      1  C   UNL     1      21.360 -12.689  45.836  1.00  0.00     0.014 C 
ENDROOT
BRANCH   1   2
ATOM      2  C   UNL     1      20.962 -13.660  44.696  1.00  0.00     0.042 C 
BRANCH   2   3
ATOM      3  C   UNL     1      20.460 -14.946  45.314  1.00  0.00     0.045 C 
ATOM      4  O   UNL     1      20.948 -16.055  44.968  1.00  0.00    -0.550 OA
ATOM      5  O   UNL     1      19.449 -14.911  46.265  1.00  0.00    -0.550 OA
ENDBRANCH   2   3
BRANCH   2   6
ATOM      6  C   UNL     1      19.881 -13.041  43.731  1.00  0.00     0.033 C 
ATOM      7  C   UNL     1      19.180 -14.088  42.852  1.00  0.00     0.119 C 
ATOM      8  C   UNL     1      20.298 -11.868  42.745  1.00  0.00    -0.017 C 
ATOM      9  C   UNL     1      18.519 -13.285  41.747  1.00  0.00     0.043 C 
ATOM     10  C   UNL     1      19.497 -12.147  41.383  1.00  0.00    -0.003 C 
ATOM     11  C   UNL     1      19.886 -10.501  43.365  1.00  0.00     0.012 C 
ATOM     12  C   UNL     1      21.841 -11.794  42.519  1.00  0.00     0.013 C 
ATOM     13  C   UNL     1      20.412 -12.684  40.236  1.00  0.00     0.017 C 
ATOM     14  C   UNL     1      18.650 -10.938  40.883  1.00  0.00    -0.064 C 
ATOM     15  C   UNL     1      18.393 -10.211  43.233  1.00  0.00     0.032 C 
ATOM     16  C   UNL     1      18.003 -10.124  41.772  1.00  0.00    -0.064 C 
ATOM     17  C   UNL     1      18.343 -10.739  39.407  1.00  0.00     0.032 C 
ATOM     18  C   UNL     1      16.716  -9.365  41.320  1.00  0.00    -0.008 C 
ATOM     19  C   UNL     1      18.152  -9.254  39.140  1.00  0.00     0.009 C 
ATOM     20  C   UNL     1      16.904  -8.680  39.881  1.00  0.00     0.007 C 
ATOM     21  C   UNL     1      15.595 -10.446  41.339  1.00  0.00     0.014 C 
ATOM     22  C   UNL     1      16.357  -8.264  42.356  1.00  0.00     0.016 C 
ATOM     23  C   UNL     1      15.575  -8.519  38.987  1.00  0.00    -0.006 C 
ATOM     24  C   UNL     1      14.319 -10.039  40.626  1.00  0.00     0.033 C 
ATOM     25  C   UNL     1      14.613  -9.732  39.156  1.00  0.00     0.120 C 
ATOM     26  C   UNL     1      14.837  -7.192  39.348  1.00  0.00     0.014 C 
ATOM     27  C   UNL     1      15.891  -8.394  37.470  1.00  0.00     0.014 C 
BRANCH   7  28
ATOM     28  O   UNL     1      20.111 -14.993  42.313  1.00  0.00    -0.393 OA
ATOM     29  H   UNL     1      20.600 -14.508  41.598  1.00  0.00     0.210 HD
ENDBRANCH   7  28
BRANCH  25  30
ATOM     30  O   UNL     1      13.402  -9.496  38.479  1.00  0.00    -0.393 OA
ATOM     31  H   UNL     1      13.627  -9.024  37.636  1.00  0.00     0.210 HD
ENDBRANCH  25  30
ENDBRANCH   2   6
ENDBRANCH   1   2
BRANCH   1  32
ATOM     32  C   UNL     1      22.480 -13.259  46.725  1.00  0.00     0.031 C 
BRANCH  32  33
ATOM     33  C   UNL     1      23.793 -13.333  45.970  1.00  0.00    -0.075 C 
ATOM     34  C   UNL     1      24.354 -12.198  45.520  1.00  0.00     0.008 C 
BRANCH  33  35
ATOM     35  C   UNL     1      24.507 -14.663  45.771  1.00  0.00     0.008 C 
ATOM     36  C   UNL     1      23.980 -15.719  46.750  1.00  0.00     0.012 C 
ATOM     37  C   UNL     1      24.390 -15.147  44.320  1.00  0.00     0.012 C 
ENDBRANCH  33  35
ENDBRANCH  32  33
ENDBRANCH   1  32
TORSDOF 8
ENDMDL
MODEL 9
REMARK VINA RESULT:    -5.073      2.280      3.509
REMARK INTER + INTRA:          -8.592
REMARK INTER:                  -7.086
REMARK INTRA:                  -1.506
REMARK UNBOUND:                -1.444
REMARK SMILES C=C(CC[C@@H](C(=O)[O-])[C@@H]1[C@H](O)C[C@@]2(C)C3=C(CC[C@@]12C)[C@]1(C)CC[C@@H](O)C(C)(C)[C@@H]1CC3)C(C)C
REMARK SMILES IDX 4 1 5 2 6 3 7 4 8 5 9 6 10 7 19 8 12 9 13 10 18 11 20 12
REMARK SMILES IDX 14 13 15 14 17 15 16 16 32 17 21 18 31 19 30 20 23 21 22 22
REMARK SMILES IDX 27 23 24 24 25 25 28 26 29 27 11 28 26 30 3 32 2 33 1 34
REMARK SMILES IDX 33 35 34 36 35 37
REMARK H PARENT 11 29 26 31
REMARK Flexibility Score: inf
ROOT
ATOM      1  C   UNL     1      21.906 -16.624  43.070  1.00  0.00     0.014 C 
ENDROOT
BRANCH   1   2
ATOM      2  C   UNL     1      21.114 -16.734  41.743  1.00  0.00     0.042 C 
BRANCH   2   3
ATOM      3  C   UNL     1      20.388 -18.061  41.727  1.00  0.00     0.045 C 
ATOM      4  O   UNL     1      20.651 -18.924  40.847  1.00  0.00    -0.550 OA
ATOM      5  O   UNL     1      19.417 -18.333  42.682  1.00  0.00    -0.550 OA
ENDBRANCH   2   3
BRANCH   2   6
ATOM      6  C   UNL     1      20.106 -15.540  41.545  1.00  0.00     0.033 C 
ATOM      7  C   UNL     1      18.973 -15.858  40.558  1.00  0.00     0.119 C 
ATOM      8  C   UNL     1      20.662 -14.117  41.110  1.00  0.00    -0.017 C 
ATOM      9  C   UNL     1      18.386 -14.507  40.194  1.00  0.00     0.043 C 
ATOM     10  C   UNL     1      19.573 -13.525  40.092  1.00  0.00    -0.003 C 
ATOM     11  C   UNL     1      20.801 -13.210  42.368  1.00  0.00     0.012 C 
ATOM     12  C   UNL     1      22.085 -14.197  40.473  1.00  0.00     0.013 C 
ATOM     13  C   UNL     1      20.052 -13.546  38.604  1.00  0.00     0.017 C 
ATOM     14  C   UNL     1      19.048 -12.108  40.473  1.00  0.00    -0.064 C 
ATOM     15  C   UNL     1      19.466 -12.649  42.850  1.00  0.00     0.032 C 
ATOM     16  C   UNL     1      18.853 -11.765  41.783  1.00  0.00    -0.064 C 
ATOM     17  C   UNL     1      18.542 -11.136  39.418  1.00  0.00     0.032 C 
ATOM     18  C   UNL     1      17.791 -10.679  42.142  1.00  0.00    -0.008 C 
ATOM     19  C   UNL     1      18.758  -9.715  39.914  1.00  0.00     0.009 C 
ATOM     20  C   UNL     1      17.901  -9.399  41.180  1.00  0.00     0.007 C 
ATOM     21  C   UNL     1      16.422 -11.414  42.025  1.00  0.00     0.014 C 
ATOM     22  C   UNL     1      17.979 -10.218  43.614  1.00  0.00     0.016 C 
ATOM     23  C   UNL     1      16.538  -8.585  40.915  1.00  0.00    -0.006 C 
ATOM     24  C   UNL     1      15.216 -10.493  42.004  1.00  0.00     0.033 C 
ATOM     25  C   UNL     1      15.307  -9.534  40.816  1.00  0.00     0.120 C 
ATOM     26  C   UNL     1      16.312  -7.526  42.038  1.00  0.00     0.014 C 
ATOM     27  C   UNL     1      16.585  -7.760  39.598  1.00  0.00     0.014 C 
BRANCH   7  28
ATOM     28  O   UNL     1      19.472 -16.503  39.414  1.00  0.00    -0.393 OA
ATOM     29  H   UNL     1      19.909 -15.805  38.860  1.00  0.00     0.210 HD
ENDBRANCH   7  28
BRANCH  25  30
ATOM     30  O   UNL     1      14.117  -8.787  40.729  1.00  0.00    -0.393 OA
ATOM     31  H   UNL     1      14.378  -7.833  40.655  1.00  0.00     0.210 HD
ENDBRANCH  25  30
ENDBRANCH   2   6
ENDBRANCH   1   2
BRANCH   1  32
ATOM     32  C   UNL     1      21.041 -16.087  44.225  1.00  0.00     0.031 C 
BRANCH  32  33
ATOM     33  C   UNL     1      21.855 -15.207  45.153  1.00  0.00    -0.075 C 
ATOM     34  C   UNL     1      23.195 -15.206  45.048  1.00  0.00     0.008 C 
BRANCH  33  35
ATOM     35  C   UNL     1      21.173 -14.285  46.155  1.00  0.00     0.008 C 
ATOM     36  C   UNL     1      21.600 -12.828  45.938  1.00  0.00     0.012 C 
ATOM     37  C   UNL     1      19.647 -14.428  46.096  1.00  0.00     0.012 C 
ENDBRANCH  33  35
ENDBRANCH  32  33
ENDBRANCH   1  32
TORSDOF 8
ENDMDL
