MODEL 1
REMARK VINA RESULT:    -3.183      0.000      0.000
REMARK INTER + INTRA:          -3.171
REMARK INTER:                  -3.927
REMARK INTRA:                   0.756
REMARK UNBOUND:                 0.756
REMARK SMILES CC1=CC=CC(C)(C)CC1=O
REMARK SMILES IDX 1 1 2 2 3 3 10 4 11 5 9 6 4 8 5 9 6 10 7 11 8 12
REMARK H PARENT
REMARK Flexibility Score: 80.00
ROOT
ATOM      1  C   UNL     1      -0.336 -15.967   8.437  1.00  0.00     0.048 C 
ATOM      2  C   UNL     1       0.817 -15.454   9.267  1.00  0.00    -0.008 C 
ATOM      3  C   UNL     1       1.488 -16.346  10.027  1.00  0.00     0.007 C 
ENDROOT
BRANCH   2   4
ATOM      4  C   UNL     1       1.170 -14.020   9.119  1.00  0.00     0.159 C 
ATOM      5  O   UNL     1       0.639 -13.356   8.185  1.00  0.00    -0.295 OA
BRANCH   4   6
ATOM      6  C   UNL     1       2.119 -13.304  10.029  1.00  0.00     0.091 CG0
ATOM      7  G   UNL     1       3.531 -13.929  10.052  1.00  0.00     0.000 G0
ENDBRANCH   4   6
ENDBRANCH   2   4
BRANCH   3   8
ATOM      8  C   UNL     1       2.660 -16.151  10.913  1.00  0.00    -0.003 C 
ATOM      9  C   UNL     1       3.543 -15.144  10.935  1.00  0.00    -0.020 C 
BRANCH   9  10
ATOM     10  C   UNL     1       3.531 -13.921  10.049  1.00  0.00    -0.010 CG0
ATOM     11  C   UNL     1       4.494 -12.874  10.655  1.00  0.00     0.016 C 
ATOM     12  C   UNL     1       4.049 -14.284   8.639  1.00  0.00     0.016 C 
ATOM     13  G   UNL     1       2.112 -13.310  10.023  1.00  0.00     0.000 G0
ENDBRANCH   9  10
ENDBRANCH   3   8
TORSDOF 0
ENDMDL
MODEL 2
REMARK VINA RESULT:    -3.109      1.420      2.197
REMARK INTER + INTRA:          -3.080
REMARK INTER:                  -3.808
REMARK INTRA:                   0.728
REMARK UNBOUND:                 0.756
REMARK SMILES CC1=CC=CC(C)(C)CC1=O
REMARK SMILES IDX 1 1 2 2 3 3 10 4 11 5 9 6 4 8 5 9 6 10 7 11 8 12
REMARK H PARENT
REMARK Flexibility Score: 80.00
ROOT
ATOM      1  C   UNL     1       0.235 -12.675   7.665  1.00  0.00     0.048 C 
ATOM      2  C   UNL     1       0.713 -13.698   8.668  1.00  0.00    -0.008 C 
ATOM      3  C   UNL     1       0.318 -14.978   8.495  1.00  0.00     0.007 C 
ENDROOT
BRANCH   2   4
ATOM      4  C   UNL     1       1.645 -13.226   9.723  1.00  0.00     0.159 C 
ATOM      5  O   UNL     1       2.148 -12.073   9.618  1.00  0.00    -0.295 OA
BRANCH   4   6
ATOM      6  C   UNL     1       2.017 -14.040  10.923  1.00  0.00     0.091 CG0
ATOM      7  G   UNL     1       2.696 -15.381  10.563  1.00  0.00     0.000 G0
ENDBRANCH   4   6
ENDBRANCH   2   4
BRANCH   3   8
ATOM      8  C   UNL     1       0.639 -16.189   9.287  1.00  0.00    -0.003 C 
ATOM      9  C   UNL     1       1.641 -16.389  10.152  1.00  0.00    -0.020 C 
BRANCH   9  10
ATOM     10  C   UNL     1       2.693 -15.384  10.556  1.00  0.00    -0.010 CG0
ATOM     11  C   UNL     1       3.391 -15.899  11.836  1.00  0.00     0.016 C 
ATOM     12  C   UNL     1       3.763 -15.264   9.446  1.00  0.00     0.016 C 
ATOM     13  G   UNL     1       2.023 -14.032  10.885  1.00  0.00     0.000 G0
ENDBRANCH   9  10
ENDBRANCH   3   8
TORSDOF 0
ENDMDL
MODEL 3
REMARK VINA RESULT:    -2.913      1.916      3.242
REMARK INTER + INTRA:          -2.839
REMARK INTER:                  -3.584
REMARK INTRA:                   0.745
REMARK UNBOUND:                 0.756
REMARK SMILES CC1=CC=CC(C)(C)CC1=O
REMARK SMILES IDX 1 1 2 2 3 3 10 4 11 5 9 6 4 8 5 9 6 10 7 11 8 12
REMARK H PARENT
REMARK Flexibility Score: 80.00
ROOT
ATOM      1  C   UNL     1       2.190 -16.581  12.379  1.00  0.00     0.048 C 
ATOM      2  C   UNL     1       1.584 -15.491  11.527  1.00  0.00    -0.008 C 
ATOM      3  C   UNL     1       1.365 -14.291  12.106  1.00  0.00     0.007 C 
ENDROOT
BRANCH   2   4
ATOM      4  C   UNL     1       1.348 -15.806  10.095  1.00  0.00     0.159 C 
ATOM      5  O   UNL     1       1.822 -16.876   9.623  1.00  0.00    -0.295 OA
BRANCH   4   6
ATOM      6  C   UNL     1       0.562 -14.926   9.174  1.00  0.00     0.091 CG0
ATOM      7  G   UNL     1       1.146 -13.502   9.045  1.00  0.00     0.000 G0
ENDBRANCH   4   6
ENDBRANCH   2   4
BRANCH   3   8
ATOM      8  C   UNL     1       0.815 -13.042  11.529  1.00  0.00    -0.003 C 
ATOM      9  C   UNL     1       0.717 -12.678  10.244  1.00  0.00    -0.020 C 
BRANCH   9  10
ATOM     10  C   UNL     1       1.131 -13.497   9.045  1.00  0.00    -0.010 CG0
ATOM     11  C   UNL     1       0.509 -12.859   7.782  1.00  0.00     0.016 C 
ATOM     12  C   UNL     1       2.669 -13.462   8.887  1.00  0.00     0.016 C 
ATOM     13  G   UNL     1       0.580 -14.934   9.179  1.00  0.00     0.000 G0
ENDBRANCH   9  10
ENDBRANCH   3   8
TORSDOF 0
ENDMDL
MODEL 4
REMARK VINA RESULT:    -2.835      1.603      2.546
REMARK INTER + INTRA:          -2.742
REMARK INTER:                  -3.494
REMARK INTRA:                   0.752
REMARK UNBOUND:                 0.756
REMARK SMILES CC1=CC=CC(C)(C)CC1=O
REMARK SMILES IDX 1 1 2 2 3 3 10 4 11 5 9 6 4 8 5 9 6 10 7 11 8 12
REMARK H PARENT
REMARK Flexibility Score: 80.00
ROOT
ATOM      1  C   UNL     1      -0.496 -16.007   8.499  1.00  0.00     0.048 C 
ATOM      2  C   UNL     1       0.560 -15.082   9.056  1.00  0.00    -0.008 C 
ATOM      3  C   UNL     1       0.292 -13.758   9.064  1.00  0.00     0.007 C 
ENDROOT
BRANCH   2   4
ATOM      4  C   UNL     1       1.780 -15.712   9.621  1.00  0.00     0.159 C 
ATOM      5  O   UNL     1       1.795 -16.963   9.790  1.00  0.00    -0.295 OA
BRANCH   4   6
ATOM      6  C   UNL     1       3.009 -14.943   9.995  1.00  0.00     0.091 CG0
ATOM      7  G   UNL     1       2.749 -13.860  11.065  1.00  0.00     0.000 G0
ENDBRANCH   4   6
ENDBRANCH   2   4
BRANCH   3   8
ATOM      8  C   UNL     1       1.108 -12.625   9.562  1.00  0.00    -0.003 C 
ATOM      9  C   UNL     1       2.141 -12.640  10.413  1.00  0.00    -0.020 C 
BRANCH   9  10
ATOM     10  C   UNL     1       2.753 -13.858  11.062  1.00  0.00    -0.010 CG0
ATOM     11  C   UNL     1       4.120 -13.455  11.660  1.00  0.00     0.016 C 
ATOM     12  C   UNL     1       1.853 -14.348  12.220  1.00  0.00     0.016 C 
ATOM     13  G   UNL     1       2.997 -14.950   9.996  1.00  0.00     0.000 G0
ENDBRANCH   9  10
ENDBRANCH   3   8
TORSDOF 0
ENDMDL
MODEL 5
REMARK VINA RESULT:    -2.635      1.781      3.140
REMARK INTER + INTRA:          -2.496
REMARK INTER:                  -3.242
REMARK INTRA:                   0.747
REMARK UNBOUND:                 0.756
REMARK SMILES CC1=CC=CC(C)(C)CC1=O
REMARK SMILES IDX 1 1 2 2 3 3 10 4 11 5 9 6 4 8 5 9 6 10 7 11 8 12
REMARK H PARENT
REMARK Flexibility Score: 80.00
ROOT
ATOM      1  C   UNL     1       5.119 -15.980   9.459  1.00  0.00     0.048 C 
ATOM      2  C   UNL     1       3.787 -15.287   9.298  1.00  0.00    -0.008 C 
ATOM      3  C   UNL     1       2.679 -15.966   9.667  1.00  0.00     0.007 C 
ENDROOT
BRANCH   2   4
ATOM      4  C   UNL     1       3.809 -13.883   8.819  1.00  0.00     0.159 C 
ATOM      5  O   UNL     1       4.915 -13.277   8.764  1.00  0.00    -0.295 OA
BRANCH   4   6
ATOM      6  C   UNL     1       2.586 -13.140   8.379  1.00  0.00     0.091 CG0
ATOM      7  G   UNL     1       1.513 -13.023   9.485  1.00  0.00     0.000 G0
ENDBRANCH   4   6
ENDBRANCH   2   4
BRANCH   3   8
ATOM      8  C   UNL     1       1.257 -15.548   9.651  1.00  0.00    -0.003 C 
ATOM      9  C   UNL     1       0.741 -14.315   9.587  1.00  0.00    -0.020 C 
BRANCH   9  10
ATOM     10  C   UNL     1       1.515 -13.022   9.483  1.00  0.00    -0.010 CG0
ATOM     11  C   UNL     1       0.536 -11.902   9.064  1.00  0.00     0.016 C 
ATOM     12  C   UNL     1       2.104 -12.647  10.863  1.00  0.00     0.016 C 
ATOM     13  G   UNL     1       2.598 -13.149   8.389  1.00  0.00     0.000 G0
ENDBRANCH   9  10
ENDBRANCH   3   8
TORSDOF 0
ENDMDL
MODEL 6
REMARK VINA RESULT:    -2.552      1.894      3.338
REMARK INTER + INTRA:          -2.393
REMARK INTER:                  -3.145
REMARK INTRA:                   0.752
REMARK UNBOUND:                 0.756
REMARK SMILES CC1=CC=CC(C)(C)CC1=O
REMARK SMILES IDX 1 1 2 2 3 3 10 4 11 5 9 6 4 8 5 9 6 10 7 11 8 12
REMARK H PARENT
REMARK Flexibility Score: 80.00
ROOT
ATOM      1  C   UNL     1       3.784 -12.584   7.368  1.00  0.00     0.048 C 
ATOM      2  C   UNL     1       3.100 -13.191   8.570  1.00  0.00    -0.008 C 
ATOM      3  C   UNL     1       1.759 -13.060   8.661  1.00  0.00     0.007 C 
ENDROOT
BRANCH   2   4
ATOM      4  C   UNL     1       3.952 -13.950   9.520  1.00  0.00     0.159 C 
ATOM      5  O   UNL     1       5.151 -14.187   9.205  1.00  0.00    -0.295 OA
BRANCH   4   6
ATOM      6  C   UNL     1       3.470 -14.444  10.849  1.00  0.00     0.091 CG0
ATOM      7  G   UNL     1       2.253 -15.390  10.742  1.00  0.00     0.000 G0
ENDBRANCH   4   6
ENDBRANCH   2   4
BRANCH   3   8
ATOM      8  C   UNL     1       0.821 -13.562   9.693  1.00  0.00    -0.003 C 
ATOM      9  C   UNL     1       0.995 -14.548  10.582  1.00  0.00    -0.020 C 
BRANCH   9  10
ATOM     10  C   UNL     1       2.239 -15.384  10.764  1.00  0.00    -0.010 CG0
ATOM     11  C   UNL     1       2.123 -16.141  12.108  1.00  0.00     0.016 C 
ATOM     12  C   UNL     1       2.340 -16.434   9.634  1.00  0.00     0.016 C 
ATOM     13  G   UNL     1       3.479 -14.465  10.835  1.00  0.00     0.000 G0
ENDBRANCH   9  10
ENDBRANCH   3   8
TORSDOF 0
ENDMDL
MODEL 7
REMARK VINA RESULT:    -2.479      2.258      3.219
REMARK INTER + INTRA:          -2.303
REMARK INTER:                  -3.053
REMARK INTRA:                   0.750
REMARK UNBOUND:                 0.756
REMARK SMILES CC1=CC=CC(C)(C)CC1=O
REMARK SMILES IDX 1 1 2 2 3 3 10 4 11 5 9 6 4 8 5 9 6 10 7 11 8 12
REMARK H PARENT
REMARK Flexibility Score: 80.00
ROOT
ATOM      1  C   UNL     1       0.344 -15.030   9.174  1.00  0.00     0.048 C 
ATOM      2  C   UNL     1       1.376 -14.985  10.276  1.00  0.00    -0.008 C 
ATOM      3  C   UNL     1       1.143 -14.161  11.320  1.00  0.00     0.007 C 
ENDROOT
BRANCH   2   4
ATOM      4  C   UNL     1       2.531 -15.911  10.158  1.00  0.00     0.159 C 
ATOM      5  O   UNL     1       2.503 -16.806   9.269  1.00  0.00    -0.295 OA
BRANCH   4   6
ATOM      6  C   UNL     1       3.744 -15.834  11.032  1.00  0.00     0.091 CG0
ATOM      7  G   UNL     1       3.425 -16.006  12.533  1.00  0.00     0.000 G0
ENDBRANCH   4   6
ENDBRANCH   2   4
BRANCH   3   8
ATOM      8  C   UNL     1       1.945 -13.924  12.543  1.00  0.00    -0.003 C 
ATOM      9  C   UNL     1       2.904 -14.686  13.084  1.00  0.00    -0.020 C 
BRANCH   9  10
ATOM     10  C   UNL     1       3.426 -15.994  12.538  1.00  0.00    -0.010 CG0
ATOM     11  C   UNL     1       4.749 -16.329  13.263  1.00  0.00     0.016 C 
ATOM     12  C   UNL     1       2.420 -17.130  12.835  1.00  0.00     0.016 C 
ATOM     13  G   UNL     1       3.728 -15.845  11.030  1.00  0.00     0.000 G0
ENDBRANCH   9  10
ENDBRANCH   3   8
TORSDOF 0
ENDMDL
MODEL 8
REMARK VINA RESULT:    -2.450      1.042      1.112
REMARK INTER + INTRA:          -2.267
REMARK INTER:                  -3.029
REMARK INTRA:                   0.761
REMARK UNBOUND:                 0.756
REMARK SMILES CC1=CC=CC(C)(C)CC1=O
REMARK SMILES IDX 1 1 2 2 3 3 10 4 11 5 9 6 4 8 5 9 6 10 7 11 8 12
REMARK H PARENT
REMARK Flexibility Score: 80.00
ROOT
ATOM      1  C   UNL     1       0.348 -16.201   9.039  1.00  0.00     0.048 C 
ATOM      2  C   UNL     1       1.326 -15.553   9.991  1.00  0.00    -0.008 C 
ATOM      3  C   UNL     1       2.223 -16.353  10.608  1.00  0.00     0.007 C 
ENDROOT
BRANCH   2   4
ATOM      4  C   UNL     1       1.272 -14.075  10.113  1.00  0.00     0.159 C 
ATOM      5  O   UNL     1       0.583 -13.421   9.281  1.00  0.00    -0.295 OA
BRANCH   4   6
ATOM      6  C   UNL     1       1.982 -13.308  11.185  1.00  0.00     0.091 CG0
ATOM      7  G   UNL     1       3.514 -13.507  11.164  1.00  0.00     0.000 G0
ENDBRANCH   4   6
ENDBRANCH   2   4
BRANCH   3   8
ATOM      8  C   UNL     1       3.306 -16.011  11.559  1.00  0.00    -0.003 C 
ATOM      9  C   UNL     1       3.876 -14.823  11.799  1.00  0.00    -0.020 C 
BRANCH   9  10
ATOM     10  C   UNL     1       3.513 -13.508  11.152  1.00  0.00    -0.010 CG0
ATOM     11  C   UNL     1       4.161 -12.369  11.971  1.00  0.00     0.016 C 
ATOM     12  C   UNL     1       4.088 -13.448   9.717  1.00  0.00     0.016 C 
ATOM     13  G   UNL     1       1.981 -13.314  11.187  1.00  0.00     0.000 G0
ENDBRANCH   9  10
ENDBRANCH   3   8
TORSDOF 0
ENDMDL
MODEL 9
REMARK VINA RESULT:    -2.436      1.963      3.005
REMARK INTER + INTRA:          -2.250
REMARK INTER:                  -3.002
REMARK INTRA:                   0.752
REMARK UNBOUND:                 0.756
REMARK SMILES CC1=CC=CC(C)(C)CC1=O
REMARK SMILES IDX 1 1 2 2 3 3 10 4 11 5 9 6 4 8 5 9 6 10 7 11 8 12
REMARK H PARENT
REMARK Flexibility Score: 80.00
ROOT
ATOM      1  C   UNL     1       2.064 -16.413  12.110  1.00  0.00     0.048 C 
ATOM      2  C   UNL     1       2.278 -15.535  10.900  1.00  0.00    -0.008 C 
ATOM      3  C   UNL     1       1.186 -14.999  10.314  1.00  0.00     0.007 C 
ENDROOT
BRANCH   2   4
ATOM      4  C   UNL     1       3.682 -15.270  10.498  1.00  0.00     0.159 C 
ATOM      5  O   UNL     1       4.614 -15.634  11.268  1.00  0.00    -0.295 OA
BRANCH   4   6
ATOM      6  C   UNL     1       4.062 -14.601   9.213  1.00  0.00     0.091 CG0
ATOM      7  G   UNL     1       3.461 -13.186   9.062  1.00  0.00     0.000 G0
ENDBRANCH   4   6
ENDBRANCH   2   4
BRANCH   3   8
ATOM      8  C   UNL     1       1.081 -14.091   9.146  1.00  0.00    -0.003 C 
ATOM      9  C   UNL     1       2.019 -13.307   8.601  1.00  0.00    -0.020 C 
BRANCH   9  10
ATOM     10  C   UNL     1       3.457 -13.184   9.046  1.00  0.00    -0.010 CG0
ATOM     11  C   UNL     1       4.249 -12.459   7.935  1.00  0.00     0.016 C 
ATOM     12  C   UNL     1       3.541 -12.324  10.329  1.00  0.00     0.016 C 
ATOM     13  G   UNL     1       4.067 -14.591   9.232  1.00  0.00     0.000 G0
ENDBRANCH   9  10
ENDBRANCH   3   8
TORSDOF 0
ENDMDL
