MODEL 1
REMARK VINA RESULT:    31.978      0.000      0.000
REMARK INTER + INTRA:          38.272
REMARK INTER:                  38.521
REMARK INTRA:                  -0.249
REMARK UNBOUND:                -0.249
REMARK SMILES Oc1cc(O)c2cc(O)c(-c3ccc(O)c(O)c3)[o+]c2c1
REMARK SMILES IDX 10 1 19 2 20 3 21 4 2 5 3 6 4 7 6 8 7 9 8 10 11 11 12 12
REMARK SMILES IDX 13 13 14 14 18 15 16 16 15 17 17 19 9 21 1 23 5 25
REMARK H PARENT 15 18 17 20 9 22 1 24 5 26
REMARK Flexibility Score: inf
ROOT
ATOM      1  C   UNL     1      15.889  49.922  58.880  1.00  0.00     0.402 A 
ATOM      2  O   UNL     1      16.723  50.293  59.850  1.00  0.00    -0.202 OA
ATOM      3  C   UNL     1      16.650  51.469  60.464  1.00  0.00     0.368 A 
ATOM      4  C   UNL     1      17.573  51.767  61.469  1.00  0.00     0.162 A 
ATOM      5  C   UNL     1      17.521  52.998  62.131  1.00  0.00     0.128 A 
ATOM      6  C   UNL     1      16.544  53.934  61.784  1.00  0.00     0.093 A 
ATOM      7  C   UNL     1      15.608  53.659  60.780  1.00  0.00     0.136 A 
ATOM      8  C   UNL     1      15.654  52.409  60.107  1.00  0.00     0.125 A 
ATOM      9  C   UNL     1      14.749  52.041  59.098  1.00  0.00     0.078 A 
ATOM     10  C   UNL     1      14.855  50.791  58.484  1.00  0.00     0.223 A 
ENDROOT
BRANCH   1  11
ATOM     11  C   UNL     1      16.079  48.589  58.265  1.00  0.00     0.087 A 
ATOM     12  C   UNL     1      17.184  48.312  57.442  1.00  0.00     0.022 A 
ATOM     13  C   UNL     1      17.354  47.039  56.890  1.00  0.00     0.051 A 
ATOM     14  C   UNL     1      16.431  46.021  57.164  1.00  0.00     0.157 A 
ATOM     15  C   UNL     1      15.168  47.559  58.554  1.00  0.00     0.068 A 
ATOM     16  C   UNL     1      15.335  46.284  58.004  1.00  0.00     0.158 A 
BRANCH  14  17
ATOM     17  O   UNL     1      16.603  44.752  56.613  1.00  0.00    -0.504 OA
ATOM     18  H   UNL     1      15.811  44.174  56.360  1.00  0.00     0.293 HD
ENDBRANCH  14  17
BRANCH  16  19
ATOM     19  O   UNL     1      14.403  45.290  58.303  1.00  0.00    -0.504 OA
ATOM     20  H   UNL     1      14.273  44.478  57.711  1.00  0.00     0.293 HD
ENDBRANCH  16  19
ENDBRANCH   1  11
BRANCH  10  21
ATOM     21  O   UNL     1      13.927  50.406  57.517  1.00  0.00    -0.500 OA
ATOM     22  H   UNL     1      13.473  51.083  56.915  1.00  0.00     0.294 HD
ENDBRANCH  10  21
BRANCH   5  23
ATOM     23  O   UNL     1      18.439  53.303  63.135  1.00  0.00    -0.507 OA
ATOM     24  H   UNL     1      18.349  54.140  63.698  1.00  0.00     0.293 HD
ENDBRANCH   5  23
BRANCH   7  25
ATOM     25  O   UNL     1      14.664  54.649  60.490  1.00  0.00    -0.507 OA
ATOM     26  H   UNL     1      14.261  54.802  59.579  1.00  0.00     0.293 HD
ENDBRANCH   7  25
TORSDOF 6
ENDMDL
MODEL 2
REMARK VINA RESULT:    32.072      1.679      2.504
REMARK INTER + INTRA:          38.386
REMARK INTER:                  38.724
REMARK INTRA:                  -0.338
REMARK UNBOUND:                -0.249
REMARK SMILES Oc1cc(O)c2cc(O)c(-c3ccc(O)c(O)c3)[o+]c2c1
REMARK SMILES IDX 10 1 19 2 20 3 21 4 2 5 3 6 4 7 6 8 7 9 8 10 11 11 12 12
REMARK SMILES IDX 13 13 14 14 18 15 16 16 15 17 17 19 9 21 1 23 5 25
REMARK H PARENT 15 18 17 20 9 22 1 24 5 26
REMARK Flexibility Score: inf
ROOT
ATOM      1  C   UNL     1      15.860  49.185  59.664  1.00  0.00     0.402 A 
ATOM      2  O   UNL     1      15.837  50.398  59.117  1.00  0.00    -0.202 OA
ATOM      3  C   UNL     1      15.503  51.495  59.789  1.00  0.00     0.368 A 
ATOM      4  C   UNL     1      15.506  52.725  59.126  1.00  0.00     0.162 A 
ATOM      5  C   UNL     1      15.157  53.894  59.807  1.00  0.00     0.128 A 
ATOM      6  C   UNL     1      14.802  53.833  61.157  1.00  0.00     0.093 A 
ATOM      7  C   UNL     1      14.792  52.613  61.844  1.00  0.00     0.136 A 
ATOM      8  C   UNL     1      15.148  51.423  61.157  1.00  0.00     0.125 A 
ATOM      9  C   UNL     1      15.179  50.159  61.768  1.00  0.00     0.078 A 
ATOM     10  C   UNL     1      15.545  49.031  61.027  1.00  0.00     0.223 A 
ENDROOT
BRANCH   1  11
ATOM     11  C   UNL     1      16.239  48.038  58.809  1.00  0.00     0.087 A 
ATOM     12  C   UNL     1      17.586  47.695  58.597  1.00  0.00     0.022 A 
ATOM     13  C   UNL     1      17.919  46.593  57.804  1.00  0.00     0.051 A 
ATOM     14  C   UNL     1      16.912  45.812  57.222  1.00  0.00     0.157 A 
ATOM     15  C   UNL     1      15.233  47.238  58.240  1.00  0.00     0.068 A 
ATOM     16  C   UNL     1      15.563  46.135  57.445  1.00  0.00     0.158 A 
BRANCH  14  17
ATOM     17  O   UNL     1      17.247  44.714  56.430  1.00  0.00    -0.504 OA
ATOM     18  H   UNL     1      18.212  44.473  56.238  1.00  0.00     0.293 HD
ENDBRANCH  14  17
BRANCH  16  19
ATOM     19  O   UNL     1      14.537  45.372  56.887  1.00  0.00    -0.504 OA
ATOM     20  H   UNL     1      13.662  45.211  57.370  1.00  0.00     0.293 HD
ENDBRANCH  16  19
ENDBRANCH   1  11
BRANCH  10  21
ATOM     21  O   UNL     1      15.624  47.784  61.645  1.00  0.00    -0.500 OA
ATOM     22  H   UNL     1      15.127  47.583  62.506  1.00  0.00     0.294 HD
ENDBRANCH  10  21
BRANCH   5  23
ATOM     23  O   UNL     1      15.157  55.125  59.152  1.00  0.00    -0.507 OA
ATOM     24  H   UNL     1      16.006  55.665  59.041  1.00  0.00     0.293 HD
ENDBRANCH   5  23
BRANCH   7  25
ATOM     25  O   UNL     1      14.423  52.637  63.193  1.00  0.00    -0.507 OA
ATOM     26  H   UNL     1      14.162  53.471  63.697  1.00  0.00     0.293 HD
ENDBRANCH   7  25
TORSDOF 6
ENDMDL
MODEL 3
REMARK VINA RESULT:    33.958      1.827      2.853
REMARK INTER + INTRA:          40.658
REMARK INTER:                  40.962
REMARK INTRA:                  -0.305
REMARK UNBOUND:                -0.249
REMARK SMILES Oc1cc(O)c2cc(O)c(-c3ccc(O)c(O)c3)[o+]c2c1
REMARK SMILES IDX 10 1 19 2 20 3 21 4 2 5 3 6 4 7 6 8 7 9 8 10 11 11 12 12
REMARK SMILES IDX 13 13 14 14 18 15 16 16 15 17 17 19 9 21 1 23 5 25
REMARK H PARENT 15 18 17 20 9 22 1 24 5 26
REMARK Flexibility Score: inf
ROOT
ATOM      1  C   UNL     1      16.892  49.761  59.377  1.00  0.00     0.402 A 
ATOM      2  O   UNL     1      15.768  49.987  60.053  1.00  0.00    -0.202 OA
ATOM      3  C   UNL     1      15.609  51.014  60.881  1.00  0.00     0.368 A 
ATOM      4  C   UNL     1      14.391  51.165  61.548  1.00  0.00     0.162 A 
ATOM      5  C   UNL     1      14.196  52.236  62.427  1.00  0.00     0.128 A 
ATOM      6  C   UNL     1      15.224  53.157  62.639  1.00  0.00     0.093 A 
ATOM      7  C   UNL     1      16.454  53.027  61.982  1.00  0.00     0.136 A 
ATOM      8  C   UNL     1      16.656  51.944  61.087  1.00  0.00     0.125 A 
ATOM      9  C   UNL     1      17.849  51.742  60.375  1.00  0.00     0.078 A 
ATOM     10  C   UNL     1      17.973  50.653  59.507  1.00  0.00     0.223 A 
ENDROOT
BRANCH   1  11
ATOM     11  C   UNL     1      16.951  48.575  58.493  1.00  0.00     0.087 A 
ATOM     12  C   UNL     1      17.125  47.281  59.014  1.00  0.00     0.022 A 
ATOM     13  C   UNL     1      17.155  46.174  58.161  1.00  0.00     0.051 A 
ATOM     14  C   UNL     1      16.998  46.341  56.779  1.00  0.00     0.157 A 
ATOM     15  C   UNL     1      16.772  48.735  57.109  1.00  0.00     0.068 A 
ATOM     16  C   UNL     1      16.801  47.629  56.252  1.00  0.00     0.158 A 
BRANCH  14  17
ATOM     17  O   UNL     1      17.028  45.235  55.930  1.00  0.00    -0.504 OA
ATOM     18  H   UNL     1      16.602  45.261  55.012  1.00  0.00     0.293 HD
ENDBRANCH  14  17
BRANCH  16  19
ATOM     19  O   UNL     1      16.633  47.829  54.882  1.00  0.00    -0.504 OA
ATOM     20  H   UNL     1      15.717  47.921  54.460  1.00  0.00     0.293 HD
ENDBRANCH  16  19
ENDBRANCH   1  11
BRANCH  10  21
ATOM     21  O   UNL     1      19.139  50.480  58.763  1.00  0.00    -0.500 OA
ATOM     22  H   UNL     1      20.057  50.622  59.170  1.00  0.00     0.294 HD
ENDBRANCH  10  21
BRANCH   5  23
ATOM     23  O   UNL     1      12.984  52.393  63.096  1.00  0.00    -0.507 OA
ATOM     24  H   UNL     1      12.363  51.610  63.259  1.00  0.00     0.293 HD
ENDBRANCH   5  23
BRANCH   7  25
ATOM     25  O   UNL     1      17.433  53.989  62.251  1.00  0.00    -0.507 OA
ATOM     26  H   UNL     1      17.525  54.478  63.129  1.00  0.00     0.293 HD
ENDBRANCH   7  25
TORSDOF 6
ENDMDL
