MODEL 1
REMARK VINA RESULT:    -4.137      0.000      0.000
REMARK INTER + INTRA:          -4.085
REMARK INTER:                  -5.105
REMARK INTRA:                   1.020
REMARK UNBOUND:                 1.020
REMARK SMILES CC1=CC=CC(C)(C)CC1=O
REMARK SMILES IDX 1 1 2 2 3 3 10 4 11 5 9 6 4 8 5 9 6 10 7 11 8 12
REMARK H PARENT
REMARK Flexibility Score: 80.00
ROOT
ATOM      1  C   UNL     1      -2.465  29.629  51.108  1.00  0.00     0.048 C 
ATOM      2  C   UNL     1      -1.605  28.691  51.921  1.00  0.00    -0.008 C 
ATOM      3  C   UNL     1      -1.977  27.394  51.982  1.00  0.00     0.007 C 
ENDROOT
BRANCH   2   4
ATOM      4  C   UNL     1      -0.375  29.258  52.528  1.00  0.00     0.159 C 
ATOM      5  O   UNL     1      -0.256  30.511  52.606  1.00  0.00    -0.295 OA
BRANCH   4   6
ATOM      6  C   UNL     1       0.741  28.419  53.070  1.00  0.00     0.091 CG0
ATOM      7  G   UNL     1       0.295  27.470  54.205  1.00  0.00     0.000 G0
ENDBRANCH   4   6
ENDBRANCH   2   4
BRANCH   3   8
ATOM      8  C   UNL     1      -1.331  26.251  52.668  1.00  0.00    -0.003 C 
ATOM      9  C   UNL     1      -0.367  26.258  53.596  1.00  0.00    -0.020 C 
BRANCH   9  10
ATOM     10  C   UNL     1       0.290  27.478  54.199  1.00  0.00    -0.010 CG0
ATOM     11  C   UNL     1      -0.753  28.208  55.075  1.00  0.00     0.016 C 
ATOM     12  C   UNL     1       1.464  27.051  55.109  1.00  0.00     0.016 C 
ATOM     13  G   UNL     1       0.729  28.441  53.073  1.00  0.00     0.000 G0
ENDBRANCH   9  10
ENDBRANCH   3   8
TORSDOF 0
ENDMDL
MODEL 2
REMARK VINA RESULT:    -3.946      2.085      3.393
REMARK INTER + INTRA:          -3.849
REMARK INTER:                  -4.614
REMARK INTRA:                   0.764
REMARK UNBOUND:                 1.020
REMARK SMILES CC1=CC=CC(C)(C)CC1=O
REMARK SMILES IDX 1 1 2 2 3 3 10 4 11 5 9 6 4 8 5 9 6 10 7 11 8 12
REMARK H PARENT
REMARK Flexibility Score: 80.00
ROOT
ATOM      1  C   UNL     1      -1.690  31.232  48.274  1.00  0.00     0.048 C 
ATOM      2  C   UNL     1      -1.735  30.886  49.744  1.00  0.00    -0.008 C 
ATOM      3  C   UNL     1      -2.922  30.995  50.377  1.00  0.00     0.007 C 
ENDROOT
BRANCH   2   4
ATOM      4  C   UNL     1      -0.482  30.380  50.357  1.00  0.00     0.159 C 
ATOM      5  O   UNL     1       0.485  30.076  49.605  1.00  0.00    -0.295 OA
BRANCH   4   6
ATOM      6  C   UNL     1      -0.291  30.219  51.834  1.00  0.00     0.091 CG0
ATOM      7  G   UNL     1      -1.303  29.245  52.477  1.00  0.00     0.000 G0
ENDBRANCH   4   6
ENDBRANCH   2   4
BRANCH   3   8
ATOM      8  C   UNL     1      -3.280  30.707  51.786  1.00  0.00    -0.003 C 
ATOM      9  C   UNL     1      -2.625  29.966  52.688  1.00  0.00    -0.020 C 
BRANCH   9  10
ATOM     10  C   UNL     1      -1.311  29.251  52.479  1.00  0.00    -0.010 CG0
ATOM     11  C   UNL     1      -0.764  28.827  53.861  1.00  0.00     0.016 C 
ATOM     12  C   UNL     1      -1.534  27.971  51.641  1.00  0.00     0.016 C 
ATOM     13  G   UNL     1      -0.291  30.215  51.833  1.00  0.00     0.000 G0
ENDBRANCH   9  10
ENDBRANCH   3   8
TORSDOF 0
ENDMDL
MODEL 3
REMARK VINA RESULT:    -3.938      2.428      3.565
REMARK INTER + INTRA:          -3.839
REMARK INTER:                  -4.899
REMARK INTRA:                   1.059
REMARK UNBOUND:                 1.020
REMARK SMILES CC1=CC=CC(C)(C)CC1=O
REMARK SMILES IDX 1 1 2 2 3 3 10 4 11 5 9 6 4 8 5 9 6 10 7 11 8 12
REMARK H PARENT
REMARK Flexibility Score: 80.00
ROOT
ATOM      1  C   UNL     1      -1.866  31.122  48.655  1.00  0.00     0.048 C 
ATOM      2  C   UNL     1      -1.620  30.616  50.057  1.00  0.00    -0.008 C 
ATOM      3  C   UNL     1      -0.340  30.420  50.437  1.00  0.00     0.007 C 
ENDROOT
BRANCH   2   4
ATOM      4  C   UNL     1      -2.808  30.449  50.931  1.00  0.00     0.159 C 
ATOM      5  O   UNL     1      -3.955  30.445  50.406  1.00  0.00    -0.295 OA
BRANCH   4   6
ATOM      6  C   UNL     1      -2.722  30.269  52.416  1.00  0.00     0.091 CG0
ATOM      7  G   UNL     1      -1.902  29.028  52.834  1.00  0.00     0.000 G0
ENDBRANCH   4   6
ENDBRANCH   2   4
BRANCH   3   8
ATOM      8  C   UNL     1       0.208  29.963  51.736  1.00  0.00    -0.003 C 
ATOM      9  C   UNL     1      -0.428  29.391  52.766  1.00  0.00    -0.020 C 
BRANCH   9  10
ATOM     10  C   UNL     1      -1.896  29.042  52.833  1.00  0.00    -0.010 CG0
ATOM     11  C   UNL     1      -2.172  27.905  51.823  1.00  0.00     0.016 C 
ATOM     12  C   UNL     1      -2.252  28.524  54.244  1.00  0.00     0.016 C 
ATOM     13  G   UNL     1      -2.741  30.268  52.418  1.00  0.00     0.000 G0
ENDBRANCH   9  10
ENDBRANCH   3   8
TORSDOF 0
ENDMDL
MODEL 4
REMARK VINA RESULT:    -3.364      2.088      4.082
REMARK INTER + INTRA:          -3.131
REMARK INTER:                  -4.160
REMARK INTRA:                   1.029
REMARK UNBOUND:                 1.020
REMARK SMILES CC1=CC=CC(C)(C)CC1=O
REMARK SMILES IDX 1 1 2 2 3 3 10 4 11 5 9 6 4 8 5 9 6 10 7 11 8 12
REMARK H PARENT
REMARK Flexibility Score: 80.00
ROOT
ATOM      1  C   UNL     1       0.842  26.706  53.999  1.00  0.00     0.048 C 
ATOM      2  C   UNL     1       0.100  27.689  53.125  1.00  0.00    -0.008 C 
ATOM      3  C   UNL     1       0.711  28.858  52.838  1.00  0.00     0.007 C 
ENDROOT
BRANCH   2   4
ATOM      4  C   UNL     1      -1.215  27.257  52.588  1.00  0.00     0.159 C 
ATOM      5  O   UNL     1      -1.792  26.266  53.115  1.00  0.00    -0.295 OA
BRANCH   4   6
ATOM      6  C   UNL     1      -1.911  27.944  51.453  1.00  0.00     0.091 CG0
ATOM      7  G   UNL     1      -2.218  29.431  51.737  1.00  0.00     0.000 G0
ENDBRANCH   4   6
ENDBRANCH   2   4
BRANCH   3   8
ATOM      8  C   UNL     1       0.253  29.992  52.001  1.00  0.00    -0.003 C 
ATOM      9  C   UNL     1      -0.970  30.244  51.517  1.00  0.00    -0.020 C 
BRANCH   9  10
ATOM     10  C   UNL     1      -2.214  29.417  51.745  1.00  0.00    -0.010 CG0
ATOM     11  C   UNL     1      -2.625  29.557  53.228  1.00  0.00     0.016 C 
ATOM     12  C   UNL     1      -3.372  29.955  50.875  1.00  0.00     0.016 C 
ATOM     13  G   UNL     1      -1.905  27.928  51.471  1.00  0.00     0.000 G0
ENDBRANCH   9  10
ENDBRANCH   3   8
TORSDOF 0
ENDMDL
MODEL 5
REMARK VINA RESULT:    -3.298      1.520      3.145
REMARK INTER + INTRA:          -3.049
REMARK INTER:                  -3.813
REMARK INTRA:                   0.764
REMARK UNBOUND:                 1.020
REMARK SMILES CC1=CC=CC(C)(C)CC1=O
REMARK SMILES IDX 1 1 2 2 3 3 10 4 11 5 9 6 4 8 5 9 6 10 7 11 8 12
REMARK H PARENT
REMARK Flexibility Score: 80.00
ROOT
ATOM      1  C   UNL     1       0.948  25.631  54.259  1.00  0.00     0.048 C 
ATOM      2  C   UNL     1       0.110  26.622  53.487  1.00  0.00    -0.008 C 
ATOM      3  C   UNL     1      -1.132  26.241  53.119  1.00  0.00     0.007 C 
ENDROOT
BRANCH   2   4
ATOM      4  C   UNL     1       0.693  27.969  53.262  1.00  0.00     0.159 C 
ATOM      5  O   UNL     1       1.749  28.285  53.877  1.00  0.00    -0.295 OA
BRANCH   4   6
ATOM      6  C   UNL     1       0.103  28.980  52.329  1.00  0.00     0.091 CG0
ATOM      7  G   UNL     1      -1.345  29.377  52.697  1.00  0.00     0.000 G0
ENDBRANCH   4   6
ENDBRANCH   2   4
BRANCH   3   8
ATOM      8  C   UNL     1      -2.180  26.991  52.388  1.00  0.00    -0.003 C 
ATOM      9  C   UNL     1      -2.299  28.312  52.202  1.00  0.00    -0.020 C 
BRANCH   9  10
ATOM     10  C   UNL     1      -1.344  29.376  52.688  1.00  0.00    -0.010 CG0
ATOM     11  C   UNL     1      -1.675  30.696  51.956  1.00  0.00     0.016 C 
ATOM     12  C   UNL     1      -1.538  29.609  54.204  1.00  0.00     0.016 C 
ATOM     13  G   UNL     1       0.105  28.978  52.329  1.00  0.00     0.000 G0
ENDBRANCH   9  10
ENDBRANCH   3   8
TORSDOF 0
ENDMDL
MODEL 6
REMARK VINA RESULT:    -3.200      1.445      2.408
REMARK INTER + INTRA:          -2.928
REMARK INTER:                  -3.691
REMARK INTRA:                   0.762
REMARK UNBOUND:                 1.020
REMARK SMILES CC1=CC=CC(C)(C)CC1=O
REMARK SMILES IDX 1 1 2 2 3 3 10 4 11 5 9 6 4 8 5 9 6 10 7 11 8 12
REMARK H PARENT
REMARK Flexibility Score: 80.00
ROOT
ATOM      1  C   UNL     1      -2.980  29.429  51.173  1.00  0.00     0.048 C 
ATOM      2  C   UNL     1      -1.731  28.865  51.806  1.00  0.00    -0.008 C 
ATOM      3  C   UNL     1      -0.618  29.629  51.788  1.00  0.00     0.007 C 
ENDROOT
BRANCH   2   4
ATOM      4  C   UNL     1      -1.848  27.541  52.467  1.00  0.00     0.159 C 
ATOM      5  O   UNL     1      -2.997  27.061  52.670  1.00  0.00    -0.295 OA
BRANCH   4   6
ATOM      6  C   UNL     1      -0.668  26.726  52.901  1.00  0.00     0.091 CG0
ATOM      7  G   UNL     1       0.211  27.439  53.953  1.00  0.00     0.000 G0
ENDBRANCH   4   6
ENDBRANCH   2   4
BRANCH   3   8
ATOM      8  C   UNL     1       0.730  29.362  52.342  1.00  0.00    -0.003 C 
ATOM      9  C   UNL     1       1.102  28.459  53.257  1.00  0.00    -0.020 C 
BRANCH   9  10
ATOM     10  C   UNL     1       0.208  27.450  53.939  1.00  0.00    -0.010 CG0
ATOM     11  C   UNL     1       1.103  26.390  54.619  1.00  0.00     0.016 C 
ATOM     12  C   UNL     1      -0.630  28.143  55.037  1.00  0.00     0.016 C 
ATOM     13  G   UNL     1      -0.667  26.735  52.885  1.00  0.00     0.000 G0
ENDBRANCH   9  10
ENDBRANCH   3   8
TORSDOF 0
ENDMDL
MODEL 7
REMARK VINA RESULT:    -3.002      9.623     11.270
REMARK INTER + INTRA:          -2.684
REMARK INTER:                  -3.425
REMARK INTRA:                   0.742
REMARK UNBOUND:                 1.020
REMARK SMILES CC1=CC=CC(C)(C)CC1=O
REMARK SMILES IDX 1 1 2 2 3 3 10 4 11 5 9 6 4 8 5 9 6 10 7 11 8 12
REMARK H PARENT
REMARK Flexibility Score: 80.00
ROOT
ATOM      1  C   UNL     1      -0.377  31.689  60.145  1.00  0.00     0.048 C 
ATOM      2  C   UNL     1      -0.885  32.182  61.480  1.00  0.00    -0.008 C 
ATOM      3  C   UNL     1       0.000  32.779  62.306  1.00  0.00     0.007 C 
ENDROOT
BRANCH   2   4
ATOM      4  C   UNL     1      -2.339  32.037  61.744  1.00  0.00     0.159 C 
ATOM      5  O   UNL     1      -3.101  31.716  60.791  1.00  0.00    -0.295 OA
BRANCH   4   6
ATOM      6  C   UNL     1      -2.958  32.240  63.092  1.00  0.00     0.091 CG0
ATOM      7  G   UNL     1      -2.732  33.659  63.660  1.00  0.00     0.000 G0
ENDBRANCH   4   6
ENDBRANCH   2   4
BRANCH   3   8
ATOM      8  C   UNL     1      -0.203  33.377  63.646  1.00  0.00    -0.003 C 
ATOM      9  C   UNL     1      -1.341  33.767  64.233  1.00  0.00    -0.020 C 
BRANCH   9  10
ATOM     10  C   UNL     1      -2.732  33.658  63.655  1.00  0.00    -0.010 CG0
ATOM     11  C   UNL     1      -3.751  33.868  64.798  1.00  0.00     0.016 C 
ATOM     12  C   UNL     1      -2.957  34.770  62.605  1.00  0.00     0.016 C 
ATOM     13  G   UNL     1      -2.945  32.241  63.076  1.00  0.00     0.000 G0
ENDBRANCH   9  10
ENDBRANCH   3   8
TORSDOF 0
ENDMDL
MODEL 8
REMARK VINA RESULT:    -2.999      8.363     10.036
REMARK INTER + INTRA:          -2.680
REMARK INTER:                  -3.436
REMARK INTRA:                   0.756
REMARK UNBOUND:                 1.020
REMARK SMILES CC1=CC=CC(C)(C)CC1=O
REMARK SMILES IDX 1 1 2 2 3 3 10 4 11 5 9 6 4 8 5 9 6 10 7 11 8 12
REMARK H PARENT
REMARK Flexibility Score: 80.00
ROOT
ATOM      1  C   UNL     1      -0.806  33.736  64.069  1.00  0.00     0.048 C 
ATOM      2  C   UNL     1      -1.176  33.245  62.689  1.00  0.00    -0.008 C 
ATOM      3  C   UNL     1      -0.236  32.576  61.989  1.00  0.00     0.007 C 
ENDROOT
BRANCH   2   4
ATOM      4  C   UNL     1      -2.574  33.473  62.244  1.00  0.00     0.159 C 
ATOM      5  O   UNL     1      -3.423  33.875  63.086  1.00  0.00    -0.295 OA
BRANCH   4   6
ATOM      6  C   UNL     1      -3.037  33.263  60.835  1.00  0.00     0.091 CG0
ATOM      7  G   UNL     1      -2.829  31.817  60.334  1.00  0.00     0.000 G0
ENDBRANCH   4   6
ENDBRANCH   2   4
BRANCH   3   8
ATOM      8  C   UNL     1      -0.309  31.961  60.643  1.00  0.00    -0.003 C 
ATOM      9  C   UNL     1      -1.389  31.619  59.929  1.00  0.00    -0.020 C 
BRANCH   9  10
ATOM     10  C   UNL     1      -2.831  31.813  60.334  1.00  0.00    -0.010 CG0
ATOM     11  C   UNL     1      -3.717  31.614  59.083  1.00  0.00     0.016 C 
ATOM     12  C   UNL     1      -3.235  30.748  61.379  1.00  0.00     0.016 C 
ATOM     13  G   UNL     1      -3.038  33.257  60.845  1.00  0.00     0.000 G0
ENDBRANCH   9  10
ENDBRANCH   3   8
TORSDOF 0
ENDMDL
MODEL 9
REMARK VINA RESULT:    -2.914      8.866     10.529
REMARK INTER + INTRA:          -2.575
REMARK INTER:                  -3.331
REMARK INTRA:                   0.756
REMARK UNBOUND:                 1.020
REMARK SMILES CC1=CC=CC(C)(C)CC1=O
REMARK SMILES IDX 1 1 2 2 3 3 10 4 11 5 9 6 4 8 5 9 6 10 7 11 8 12
REMARK H PARENT
REMARK Flexibility Score: 80.00
ROOT
ATOM      1  C   UNL     1      -0.770  30.436  60.529  1.00  0.00     0.048 C 
ATOM      2  C   UNL     1      -1.057  31.800  61.111  1.00  0.00    -0.008 C 
ATOM      3  C   UNL     1      -0.006  32.615  61.346  1.00  0.00     0.007 C 
ENDROOT
BRANCH   2   4
ATOM      4  C   UNL     1      -2.482  32.164  61.307  1.00  0.00     0.159 C 
ATOM      5  O   UNL     1      -3.374  31.426  60.804  1.00  0.00    -0.295 OA
BRANCH   4   6
ATOM      6  C   UNL     1      -2.930  33.363  62.086  1.00  0.00     0.091 CG0
ATOM      7  G   UNL     1      -2.383  34.694  61.525  1.00  0.00     0.000 G0
ENDBRANCH   4   6
ENDBRANCH   2   4
BRANCH   3   8
ATOM      8  C   UNL     1       0.026  33.998  61.878  1.00  0.00    -0.003 C 
ATOM      9  C   UNL     1      -0.963  34.897  61.950  1.00  0.00    -0.020 C 
BRANCH   9  10
ATOM     10  C   UNL     1      -2.395  34.695  61.513  1.00  0.00    -0.010 CG0
ATOM     11  C   UNL     1      -3.249  35.838  62.107  1.00  0.00     0.016 C 
ATOM     12  C   UNL     1      -2.494  34.774  59.973  1.00  0.00     0.016 C 
ATOM     13  G   UNL     1      -2.925  33.357  62.076  1.00  0.00     0.000 G0
ENDBRANCH   9  10
ENDBRANCH   3   8
TORSDOF 0
ENDMDL
