MODEL 1
REMARK VINA RESULT:    -3.959      0.000      0.000
REMARK INTER + INTRA:          -6.165
REMARK INTER:                  -5.810
REMARK INTRA:                  -0.354
REMARK UNBOUND:                -0.354
REMARK SMILES O=C([O-])CCCCCCCC(=O)[O-]
REMARK SMILES IDX 7 1 6 2 5 3 4 4 2 5 1 6 3 7 8 8 9 9 10 10 11 11 12 12 13 13
REMARK H PARENT
REMARK Flexibility Score: inf
ROOT
ATOM      1  C   UNL     1      21.840 -14.827   3.832  1.00  0.00     0.000 C 
ENDROOT
BRANCH   1   2
ATOM      2  C   UNL     1      21.806 -15.112   2.322  1.00  0.00     0.000 C 
BRANCH   2   3
ATOM      3  C   UNL     1      21.755 -13.826   1.478  1.00  0.00     0.006 C 
BRANCH   3   4
ATOM      4  C   UNL     1      23.132 -13.446   0.918  1.00  0.00     0.053 C 
BRANCH   4   5
ATOM      5  C   UNL     1      23.669 -12.205   1.562  1.00  0.00     0.041 C 
ATOM      6  O   UNL     1      23.636 -11.106   0.949  1.00  0.00    -0.550 OA
ATOM      7  O   UNL     1      24.175 -12.257   2.854  1.00  0.00    -0.550 OA
ENDBRANCH   4   5
ENDBRANCH   3   4
ENDBRANCH   2   3
ENDBRANCH   1   2
BRANCH   1   8
ATOM      8  C   UNL     1      21.689 -16.101   4.677  1.00  0.00     0.000 C 
BRANCH   8   9
ATOM      9  C   UNL     1      21.269 -15.759   6.115  1.00  0.00     0.006 C 
BRANCH   9  10
ATOM     10  C   UNL     1      21.552 -14.294   6.469  1.00  0.00     0.053 C 
BRANCH  10  11
ATOM     11  C   UNL     1      21.692 -14.097   7.948  1.00  0.00     0.041 C 
ATOM     12  O   UNL     1      21.825 -12.939   8.425  1.00  0.00    -0.550 OA
ATOM     13  O   UNL     1      21.709 -15.197   8.796  1.00  0.00    -0.550 OA
ENDBRANCH  10  11
ENDBRANCH   9  10
ENDBRANCH   8   9
ENDBRANCH   1   8
TORSDOF 8
ENDMDL
MODEL 2
REMARK VINA RESULT:    -3.894      0.133      5.931
REMARK INTER + INTRA:          -6.070
REMARK INTER:                  -5.719
REMARK INTRA:                  -0.351
REMARK UNBOUND:                -0.354
REMARK SMILES O=C([O-])CCCCCCCC(=O)[O-]
REMARK SMILES IDX 7 1 6 2 5 3 4 4 2 5 1 6 3 7 8 8 9 9 10 10 11 11 12 12 13 13
REMARK H PARENT
REMARK Flexibility Score: inf
ROOT
ATOM      1  C   UNL     1      21.911 -14.786   3.822  1.00  0.00     0.000 C 
ENDROOT
BRANCH   1   2
ATOM      2  C   UNL     1      21.942 -16.044   4.705  1.00  0.00     0.000 C 
BRANCH   2   3
ATOM      3  C   UNL     1      21.507 -15.760   6.154  1.00  0.00     0.006 C 
BRANCH   3   4
ATOM      4  C   UNL     1      21.561 -14.266   6.493  1.00  0.00     0.053 C 
BRANCH   4   5
ATOM      5  C   UNL     1      21.731 -14.036   7.964  1.00  0.00     0.041 C 
ATOM      6  O   UNL     1      21.721 -15.009   8.763  1.00  0.00    -0.550 OA
ATOM      7  O   UNL     1      21.935 -12.751   8.447  1.00  0.00    -0.550 OA
ENDBRANCH   4   5
ENDBRANCH   3   4
ENDBRANCH   2   3
ENDBRANCH   1   2
BRANCH   1   8
ATOM      8  C   UNL     1      21.848 -15.119   2.324  1.00  0.00     0.000 C 
BRANCH   8   9
ATOM      9  C   UNL     1      21.767 -13.838   1.481  1.00  0.00     0.006 C 
BRANCH   9  10
ATOM     10  C   UNL     1      23.133 -13.427   0.916  1.00  0.00     0.053 C 
BRANCH  10  11
ATOM     11  C   UNL     1      23.662 -12.195   1.584  1.00  0.00     0.041 C 
ATOM     12  O   UNL     1      23.683 -11.097   0.967  1.00  0.00    -0.550 OA
ATOM     13  O   UNL     1      24.164 -12.267   2.877  1.00  0.00    -0.550 OA
ENDBRANCH  10  11
ENDBRANCH   9  10
ENDBRANCH   8   9
ENDBRANCH   1   8
TORSDOF 8
ENDMDL
MODEL 3
REMARK VINA RESULT:    -3.859      0.800      1.546
REMARK INTER + INTRA:          -6.018
REMARK INTER:                  -5.677
REMARK INTRA:                  -0.341
REMARK UNBOUND:                -0.354
REMARK SMILES O=C([O-])CCCCCCCC(=O)[O-]
REMARK SMILES IDX 7 1 6 2 5 3 4 4 2 5 1 6 3 7 8 8 9 9 10 10 11 11 12 12 13 13
REMARK H PARENT
REMARK Flexibility Score: inf
ROOT
ATOM      1  C   UNL     1      21.827 -15.326   3.987  1.00  0.00     0.000 C 
ENDROOT
BRANCH   1   2
ATOM      2  C   UNL     1      21.608 -16.055   2.651  1.00  0.00     0.000 C 
BRANCH   2   3
ATOM      3  C   UNL     1      21.915 -15.166   1.433  1.00  0.00     0.006 C 
BRANCH   3   4
ATOM      4  C   UNL     1      21.918 -13.674   1.791  1.00  0.00     0.053 C 
BRANCH   4   5
ATOM      5  C   UNL     1      23.238 -13.034   1.489  1.00  0.00     0.041 C 
ATOM      6  O   UNL     1      24.311 -13.633   1.760  1.00  0.00    -0.550 OA
ATOM      7  O   UNL     1      23.281 -11.789   0.876  1.00  0.00    -0.550 OA
ENDBRANCH   4   5
ENDBRANCH   3   4
ENDBRANCH   2   3
ENDBRANCH   1   2
BRANCH   1   8
ATOM      8  C   UNL     1      21.373 -16.158   5.195  1.00  0.00     0.000 C 
BRANCH   8   9
ATOM      9  C   UNL     1      21.987 -15.618   6.495  1.00  0.00     0.006 C 
BRANCH   9  10
ATOM     10  C   UNL     1      21.524 -14.189   6.806  1.00  0.00     0.053 C 
BRANCH  10  11
ATOM     11  C   UNL     1      21.584 -13.894   8.274  1.00  0.00     0.041 C 
ATOM     12  O   UNL     1      21.558 -14.833   9.112  1.00  0.00    -0.550 OA
ATOM     13  O   UNL     1      21.635 -12.578   8.716  1.00  0.00    -0.550 OA
ENDBRANCH  10  11
ENDBRANCH   9  10
ENDBRANCH   8   9
ENDBRANCH   1   8
TORSDOF 8
ENDMDL
MODEL 4
REMARK VINA RESULT:    -3.777      1.020      5.895
REMARK INTER + INTRA:          -5.898
REMARK INTER:                  -5.304
REMARK INTRA:                  -0.594
REMARK UNBOUND:                -0.354
REMARK SMILES O=C([O-])CCCCCCCC(=O)[O-]
REMARK SMILES IDX 7 1 6 2 5 3 4 4 2 5 1 6 3 7 8 8 9 9 10 10 11 11 12 12 13 13
REMARK H PARENT
REMARK Flexibility Score: inf
ROOT
ATOM      1  C   UNL     1      22.703 -16.422   3.745  1.00  0.00     0.000 C 
ENDROOT
BRANCH   1   2
ATOM      2  C   UNL     1      23.037 -15.622   5.015  1.00  0.00     0.000 C 
BRANCH   2   3
ATOM      3  C   UNL     1      21.884 -14.703   5.457  1.00  0.00     0.006 C 
BRANCH   3   4
ATOM      4  C   UNL     1      21.185 -15.219   6.721  1.00  0.00     0.053 C 
BRANCH   4   5
ATOM      5  C   UNL     1      21.720 -14.563   7.958  1.00  0.00     0.041 C 
ATOM      6  O   UNL     1      21.653 -15.152   9.068  1.00  0.00    -0.550 OA
ATOM      7  O   UNL     1      22.323 -13.315   7.875  1.00  0.00    -0.550 OA
ENDBRANCH   4   5
ENDBRANCH   3   4
ENDBRANCH   2   3
ENDBRANCH   1   2
BRANCH   1   8
ATOM      8  C   UNL     1      21.473 -15.872   3.008  1.00  0.00     0.000 C 
BRANCH   8   9
ATOM      9  C   UNL     1      21.865 -15.304   1.636  1.00  0.00     0.006 C 
BRANCH   9  10
ATOM     10  C   UNL     1      21.828 -13.771   1.609  1.00  0.00     0.053 C 
BRANCH  10  11
ATOM     11  C   UNL     1      23.201 -13.184   1.497  1.00  0.00     0.041 C 
ATOM     12  O   UNL     1      24.211 -13.861   1.827  1.00  0.00    -0.550 OA
ATOM     13  O   UNL     1      23.364 -11.875   1.060  1.00  0.00    -0.550 OA
ENDBRANCH  10  11
ENDBRANCH   9  10
ENDBRANCH   8   9
ENDBRANCH   1   8
TORSDOF 8
ENDMDL
MODEL 5
REMARK VINA RESULT:    -3.726      1.256      5.654
REMARK INTER + INTRA:          -5.823
REMARK INTER:                  -5.396
REMARK INTRA:                  -0.427
REMARK UNBOUND:                -0.354
REMARK SMILES O=C([O-])CCCCCCCC(=O)[O-]
REMARK SMILES IDX 7 1 6 2 5 3 4 4 2 5 1 6 3 7 8 8 9 9 10 10 11 11 12 12 13 13
REMARK H PARENT
REMARK Flexibility Score: inf
ROOT
ATOM      1  C   UNL     1      21.701 -15.116   1.293  1.00  0.00     0.000 C 
ENDROOT
BRANCH   1   2
ATOM      2  C   UNL     1      21.530 -15.980   2.553  1.00  0.00     0.000 C 
BRANCH   2   3
ATOM      3  C   UNL     1      22.056 -15.285   3.822  1.00  0.00     0.006 C 
BRANCH   3   4
ATOM      4  C   UNL     1      21.412 -15.843   5.097  1.00  0.00     0.053 C 
BRANCH   4   5
ATOM      5  C   UNL     1      21.661 -14.956   6.279  1.00  0.00     0.041 C 
ATOM      6  O   UNL     1      22.621 -14.141   6.269  1.00  0.00    -0.550 OA
ATOM      7  O   UNL     1      20.811 -15.006   7.376  1.00  0.00    -0.550 OA
ENDBRANCH   4   5
ENDBRANCH   3   4
ENDBRANCH   2   3
ENDBRANCH   1   2
BRANCH   1   8
ATOM      8  C   UNL     1      21.814 -13.619   1.614  1.00  0.00     0.000 C 
BRANCH   8   9
ATOM      9  C   UNL     1      23.100 -13.026   1.019  1.00  0.00     0.006 C 
BRANCH   9  10
ATOM     10  C   UNL     1      24.111 -12.630   2.101  1.00  0.00     0.053 C 
BRANCH  10  11
ATOM     11  C   UNL     1      24.367 -11.154   2.108  1.00  0.00     0.041 C 
ATOM     12  O   UNL     1      24.999 -10.623   3.060  1.00  0.00    -0.550 OA
ATOM     13  O   UNL     1      23.879 -10.359   1.079  1.00  0.00    -0.550 OA
ENDBRANCH  10  11
ENDBRANCH   9  10
ENDBRANCH   8   9
ENDBRANCH   1   8
TORSDOF 8
ENDMDL
MODEL 6
REMARK VINA RESULT:    -3.647      1.596      2.272
REMARK INTER + INTRA:          -5.707
REMARK INTER:                  -5.037
REMARK INTRA:                  -0.671
REMARK UNBOUND:                -0.354
REMARK SMILES O=C([O-])CCCCCCCC(=O)[O-]
REMARK SMILES IDX 7 1 6 2 5 3 4 4 2 5 1 6 3 7 8 8 9 9 10 10 11 11 12 12 13 13
REMARK H PARENT
REMARK Flexibility Score: inf
ROOT
ATOM      1  C   UNL     1      22.262 -15.211   1.433  1.00  0.00     0.000 C 
ENDROOT
BRANCH   1   2
ATOM      2  C   UNL     1      21.808 -13.777   1.113  1.00  0.00     0.000 C 
BRANCH   2   3
ATOM      3  C   UNL     1      22.978 -12.778   1.081  1.00  0.00     0.006 C 
BRANCH   3   4
ATOM      4  C   UNL     1      24.144 -13.223   1.973  1.00  0.00     0.053 C 
BRANCH   4   5
ATOM      5  C   UNL     1      24.536 -12.153   2.947  1.00  0.00     0.041 C 
ATOM      6  O   UNL     1      24.550 -10.946   2.592  1.00  0.00    -0.550 OA
ATOM      7  O   UNL     1      24.852 -12.490   4.256  1.00  0.00    -0.550 OA
ENDBRANCH   4   5
ENDBRANCH   3   4
ENDBRANCH   2   3
ENDBRANCH   1   2
BRANCH   1   8
ATOM      8  C   UNL     1      21.423 -15.862   2.542  1.00  0.00     0.000 C 
BRANCH   8   9
ATOM      9  C   UNL     1      22.237 -15.998   3.837  1.00  0.00     0.006 C 
BRANCH   9  10
ATOM     10  C   UNL     1      22.042 -14.799   4.774  1.00  0.00     0.053 C 
BRANCH  10  11
ATOM     11  C   UNL     1      22.901 -14.904   5.996  1.00  0.00     0.041 C 
ATOM     12  O   UNL     1      23.534 -15.966   6.239  1.00  0.00    -0.550 OA
ATOM     13  O   UNL     1      22.977 -13.840   6.886  1.00  0.00    -0.550 OA
ENDBRANCH  10  11
ENDBRANCH   9  10
ENDBRANCH   8   9
ENDBRANCH   1   8
TORSDOF 8
ENDMDL
MODEL 7
REMARK VINA RESULT:    -3.570     13.091     14.739
REMARK INTER + INTRA:          -5.594
REMARK INTER:                  -5.239
REMARK INTRA:                  -0.356
REMARK UNBOUND:                -0.354
REMARK SMILES O=C([O-])CCCCCCCC(=O)[O-]
REMARK SMILES IDX 7 1 6 2 5 3 4 4 2 5 1 6 3 7 8 8 9 9 10 10 11 11 12 12 13 13
REMARK H PARENT
REMARK Flexibility Score: inf
ROOT
ATOM      1  C   UNL     1      24.831  -0.809  11.017  1.00  0.00     0.000 C 
ENDROOT
BRANCH   1   2
ATOM      2  C   UNL     1      26.355  -0.625  10.944  1.00  0.00     0.000 C 
BRANCH   2   3
ATOM      3  C   UNL     1      27.111  -1.963  10.882  1.00  0.00     0.006 C 
BRANCH   3   4
ATOM      4  C   UNL     1      28.628  -1.767  10.759  1.00  0.00     0.053 C 
BRANCH   4   5
ATOM      5  C   UNL     1      29.314  -1.910  12.083  1.00  0.00     0.041 C 
ATOM      6  O   UNL     1      29.437  -0.915  12.845  1.00  0.00    -0.550 OA
ATOM      7  O   UNL     1      29.788  -3.150  12.489  1.00  0.00    -0.550 OA
ENDBRANCH   4   5
ENDBRANCH   3   4
ENDBRANCH   2   3
ENDBRANCH   1   2
BRANCH   1   8
ATOM      8  C   UNL     1      24.115  -0.317   9.751  1.00  0.00     0.000 C 
BRANCH   8   9
ATOM      9  C   UNL     1      22.731  -0.968   9.614  1.00  0.00     0.006 C 
BRANCH   9  10
ATOM     10  C   UNL     1      22.634  -2.292  10.383  1.00  0.00     0.053 C 
BRANCH  10  11
ATOM     11  C   UNL     1      22.853  -3.472   9.486  1.00  0.00     0.041 C 
ATOM     12  O   UNL     1      22.026  -4.422   9.473  1.00  0.00    -0.550 OA
ATOM     13  O   UNL     1      23.989  -3.538   8.689  1.00  0.00    -0.550 OA
ENDBRANCH  10  11
ENDBRANCH   9  10
ENDBRANCH   8   9
ENDBRANCH   1   8
TORSDOF 8
ENDMDL
MODEL 8
REMARK VINA RESULT:    -3.536     10.964     12.714
REMARK INTER + INTRA:          -5.544
REMARK INTER:                  -4.936
REMARK INTRA:                  -0.607
REMARK UNBOUND:                -0.354
REMARK SMILES O=C([O-])CCCCCCCC(=O)[O-]
REMARK SMILES IDX 7 1 6 2 5 3 4 4 2 5 1 6 3 7 8 8 9 9 10 10 11 11 12 12 13 13
REMARK H PARENT
REMARK Flexibility Score: inf
ROOT
ATOM      1  C   UNL     1      26.372  -1.880   7.994  1.00  0.00     0.000 C 
ENDROOT
BRANCH   1   2
ATOM      2  C   UNL     1      25.909  -1.127   9.251  1.00  0.00     0.000 C 
BRANCH   2   3
ATOM      3  C   UNL     1      25.329  -2.066  10.324  1.00  0.00     0.006 C 
BRANCH   3   4
ATOM      4  C   UNL     1      23.996  -1.553  10.883  1.00  0.00     0.053 C 
BRANCH   4   5
ATOM      5  C   UNL     1      22.835  -1.998  10.047  1.00  0.00     0.041 C 
ATOM      6  O   UNL     1      22.141  -1.153   9.424  1.00  0.00    -0.550 OA
ATOM      7  O   UNL     1      22.542  -3.350   9.931  1.00  0.00    -0.550 OA
ENDBRANCH   4   5
ENDBRANCH   3   4
ENDBRANCH   2   3
ENDBRANCH   1   2
BRANCH   1   8
ATOM      8  C   UNL     1      26.784  -3.329   8.291  1.00  0.00     0.000 C 
BRANCH   8   9
ATOM      9  C   UNL     1      26.194  -4.292   7.249  1.00  0.00     0.006 C 
BRANCH   9  10
ATOM     10  C   UNL     1      24.662  -4.338   7.303  1.00  0.00     0.053 C 
BRANCH  10  11
ATOM     11  C   UNL     1      24.146  -5.742   7.224  1.00  0.00     0.041 C 
ATOM     12  O   UNL     1      24.711  -6.586   6.479  1.00  0.00    -0.550 OA
ATOM     13  O   UNL     1      23.020  -6.110   7.949  1.00  0.00    -0.550 OA
ENDBRANCH  10  11
ENDBRANCH   9  10
ENDBRANCH   8   9
ENDBRANCH   1   8
TORSDOF 8
ENDMDL
MODEL 9
REMARK VINA RESULT:    -3.477     13.337     14.910
REMARK INTER + INTRA:          -5.457
REMARK INTER:                  -4.980
REMARK INTRA:                  -0.477
REMARK UNBOUND:                -0.354
REMARK SMILES O=C([O-])CCCCCCCC(=O)[O-]
REMARK SMILES IDX 7 1 6 2 5 3 4 4 2 5 1 6 3 7 8 8 9 9 10 10 11 11 12 12 13 13
REMARK H PARENT
REMARK Flexibility Score: inf
ROOT
ATOM      1  C   UNL     1      27.798  -0.110  11.157  1.00  0.00     0.000 C 
ENDROOT
BRANCH   1   2
ATOM      2  C   UNL     1      26.297  -0.438  11.223  1.00  0.00     0.000 C 
BRANCH   2   3
ATOM      3  C   UNL     1      25.956  -1.785  10.563  1.00  0.00     0.006 C 
BRANCH   3   4
ATOM      4  C   UNL     1      24.644  -1.726   9.769  1.00  0.00     0.053 C 
BRANCH   4   5
ATOM      5  C   UNL     1      24.360  -3.020   9.071  1.00  0.00     0.041 C 
ATOM      6  O   UNL     1      23.312  -3.667   9.334  1.00  0.00    -0.550 OA
ATOM      7  O   UNL     1      25.236  -3.494   8.103  1.00  0.00    -0.550 OA
ENDBRANCH   4   5
ENDBRANCH   3   4
ENDBRANCH   2   3
ENDBRANCH   1   2
BRANCH   1   8
ATOM      8  C   UNL     1      28.536  -0.459  12.458  1.00  0.00     0.000 C 
BRANCH   8   9
ATOM      9  C   UNL     1      29.700  -1.423  12.185  1.00  0.00     0.006 C 
BRANCH   9  10
ATOM     10  C   UNL     1      29.221  -2.860  11.944  1.00  0.00     0.053 C 
BRANCH  10  11
ATOM     11  C   UNL     1      29.559  -3.334  10.564  1.00  0.00     0.041 C 
ATOM     12  O   UNL     1      29.696  -4.564  10.331  1.00  0.00    -0.550 OA
ATOM     13  O   UNL     1      29.755  -2.414   9.542  1.00  0.00    -0.550 OA
ENDBRANCH  10  11
ENDBRANCH   9  10
ENDBRANCH   8   9
ENDBRANCH   1   8
TORSDOF 8
ENDMDL
