MODEL 1
REMARK VINA RESULT:    -3.180      0.000      0.000
REMARK INTER + INTRA:          -3.792
REMARK INTER:                  -3.738
REMARK INTRA:                  -0.054
REMARK UNBOUND:                -0.054
REMARK SMILES CCCCC(=O)[O-]
REMARK SMILES IDX 4 1 5 2 6 3 7 4 3 5 2 6 1 7
REMARK H PARENT
REMARK Flexibility Score: inf
ROOT
ATOM      1  C   UNL     1      19.423  22.201  48.752  1.00  0.00     0.053 C 
ENDROOT
BRANCH   1   2
ATOM      2  C   UNL     1      20.360  23.366  48.705  1.00  0.00     0.041 C 
ATOM      3  O   UNL     1      20.277  24.281  49.567  1.00  0.00    -0.550 OA
ATOM      4  O   UNL     1      21.358  23.418  47.741  1.00  0.00    -0.550 OA
ENDBRANCH   1   2
BRANCH   1   5
ATOM      5  C   UNL     1      18.423  22.270  47.591  1.00  0.00     0.006 C 
BRANCH   5   6
ATOM      6  C   UNL     1      17.490  23.487  47.688  1.00  0.00    -0.003 C 
ATOM      7  C   UNL     1      16.021  23.124  47.474  1.00  0.00     0.004 C 
ENDBRANCH   5   6
ENDBRANCH   1   5
TORSDOF 3
ENDMDL
MODEL 2
REMARK VINA RESULT:    -3.140     17.144     17.741
REMARK INTER + INTRA:          -3.745
REMARK INTER:                  -3.646
REMARK INTRA:                  -0.099
REMARK UNBOUND:                -0.054
REMARK SMILES CCCCC(=O)[O-]
REMARK SMILES IDX 4 1 5 2 6 3 7 4 3 5 2 6 1 7
REMARK H PARENT
REMARK Flexibility Score: inf
ROOT
ATOM      1  C   UNL     1      22.846  11.980  35.896  1.00  0.00     0.053 C 
ENDROOT
BRANCH   1   2
ATOM      2  C   UNL     1      22.558  12.819  34.691  1.00  0.00     0.041 C 
ATOM      3  O   UNL     1      21.666  12.470  33.874  1.00  0.00    -0.550 OA
ATOM      4  O   UNL     1      23.241  14.014  34.496  1.00  0.00    -0.550 OA
ENDBRANCH   1   2
BRANCH   1   5
ATOM      5  C   UNL     1      22.873  10.494  35.519  1.00  0.00     0.006 C 
BRANCH   5   6
ATOM      6  C   UNL     1      21.888   9.656  36.348  1.00  0.00    -0.003 C 
ATOM      7  C   UNL     1      20.466  10.217  36.319  1.00  0.00     0.004 C 
ENDBRANCH   5   6
ENDBRANCH   1   5
TORSDOF 3
ENDMDL
MODEL 3
REMARK VINA RESULT:    -3.127      1.785      2.587
REMARK INTER + INTRA:          -3.729
REMARK INTER:                  -3.609
REMARK INTRA:                  -0.120
REMARK UNBOUND:                -0.054
REMARK SMILES CCCCC(=O)[O-]
REMARK SMILES IDX 4 1 5 2 6 3 7 4 3 5 2 6 1 7
REMARK H PARENT
REMARK Flexibility Score: inf
ROOT
ATOM      1  C   UNL     1      20.301  24.077  47.639  1.00  0.00     0.053 C 
ENDROOT
BRANCH   1   2
ATOM      2  C   UNL     1      20.961  23.392  46.484  1.00  0.00     0.041 C 
ATOM      3  O   UNL     1      22.172  23.052  46.558  1.00  0.00    -0.550 OA
ATOM      4  O   UNL     1      20.228  23.084  45.346  1.00  0.00    -0.550 OA
ENDBRANCH   1   2
BRANCH   1   5
ATOM      5  C   UNL     1      20.164  23.115  48.826  1.00  0.00     0.006 C 
BRANCH   5   6
ATOM      6  C   UNL     1      19.131  22.007  48.571  1.00  0.00    -0.003 C 
ATOM      7  C   UNL     1      17.785  22.553  48.096  1.00  0.00     0.004 C 
ENDBRANCH   5   6
ENDBRANCH   1   5
TORSDOF 3
ENDMDL
MODEL 4
REMARK VINA RESULT:    -3.103      2.352      3.381
REMARK INTER + INTRA:          -3.701
REMARK INTER:                  -3.620
REMARK INTRA:                  -0.081
REMARK UNBOUND:                -0.054
REMARK SMILES CCCCC(=O)[O-]
REMARK SMILES IDX 4 1 5 2 6 3 7 4 3 5 2 6 1 7
REMARK H PARENT
REMARK Flexibility Score: inf
ROOT
ATOM      1  C   UNL     1      18.193  22.547  47.988  1.00  0.00     0.053 C 
ENDROOT
BRANCH   1   2
ATOM      2  C   UNL     1      18.268  21.967  46.611  1.00  0.00     0.041 C 
ATOM      3  O   UNL     1      17.306  22.110  45.810  1.00  0.00    -0.550 OA
ATOM      4  O   UNL     1      19.419  21.311  46.193  1.00  0.00    -0.550 OA
ENDBRANCH   1   2
BRANCH   1   5
ATOM      5  C   UNL     1      19.493  22.275  48.755  1.00  0.00     0.006 C 
BRANCH   5   6
ATOM      6  C   UNL     1      20.312  23.551  48.999  1.00  0.00    -0.003 C 
ATOM      7  C   UNL     1      19.500  24.826  48.770  1.00  0.00     0.004 C 
ENDBRANCH   5   6
ENDBRANCH   1   5
TORSDOF 3
ENDMDL
MODEL 5
REMARK VINA RESULT:    -3.068     15.802     16.631
REMARK INTER + INTRA:          -3.660
REMARK INTER:                  -3.554
REMARK INTRA:                  -0.106
REMARK UNBOUND:                -0.054
REMARK SMILES CCCCC(=O)[O-]
REMARK SMILES IDX 4 1 5 2 6 3 7 4 3 5 2 6 1 7
REMARK H PARENT
REMARK Flexibility Score: inf
ROOT
ATOM      1  C   UNL     1      23.146  11.123  36.600  1.00  0.00     0.053 C 
ENDROOT
BRANCH   1   2
ATOM      2  C   UNL     1      23.333  11.770  37.937  1.00  0.00     0.041 C 
ATOM      3  O   UNL     1      23.499  13.015  38.020  1.00  0.00    -0.550 OA
ATOM      4  O   UNL     1      23.272  11.005  39.095  1.00  0.00    -0.550 OA
ENDBRANCH   1   2
BRANCH   1   5
ATOM      5  C   UNL     1      21.909  11.694  35.897  1.00  0.00     0.006 C 
BRANCH   5   6
ATOM      6  C   UNL     1      22.226  12.240  34.497  1.00  0.00    -0.003 C 
ATOM      7  C   UNL     1      22.921  13.601  34.538  1.00  0.00     0.004 C 
ENDBRANCH   5   6
ENDBRANCH   1   5
TORSDOF 3
ENDMDL
MODEL 6
REMARK VINA RESULT:    -3.066     16.764     17.623
REMARK INTER + INTRA:          -3.658
REMARK INTER:                  -3.565
REMARK INTRA:                  -0.093
REMARK UNBOUND:                -0.054
REMARK SMILES CCCCC(=O)[O-]
REMARK SMILES IDX 4 1 5 2 6 3 7 4 3 5 2 6 1 7
REMARK H PARENT
REMARK Flexibility Score: inf
ROOT
ATOM      1  C   UNL     1      22.794  11.088  35.530  1.00  0.00     0.053 C 
ENDROOT
BRANCH   1   2
ATOM      2  C   UNL     1      21.591  10.326  35.990  1.00  0.00     0.041 C 
ATOM      3  O   UNL     1      20.435  10.747  35.722  1.00  0.00    -0.550 OA
ATOM      4  O   UNL     1      21.746   9.126  36.671  1.00  0.00    -0.550 OA
ENDBRANCH   1   2
BRANCH   1   5
ATOM      5  C   UNL     1      22.392  12.154  34.503  1.00  0.00     0.006 C 
BRANCH   5   6
ATOM      6  C   UNL     1      22.828  13.567  34.920  1.00  0.00    -0.003 C 
ATOM      7  C   UNL     1      22.451  13.900  36.363  1.00  0.00     0.004 C 
ENDBRANCH   5   6
ENDBRANCH   1   5
TORSDOF 3
ENDMDL
MODEL 7
REMARK VINA RESULT:    -3.058     16.328     17.256
REMARK INTER + INTRA:          -3.649
REMARK INTER:                  -3.543
REMARK INTRA:                  -0.106
REMARK UNBOUND:                -0.054
REMARK SMILES CCCCC(=O)[O-]
REMARK SMILES IDX 4 1 5 2 6 3 7 4 3 5 2 6 1 7
REMARK H PARENT
REMARK Flexibility Score: inf
ROOT
ATOM      1  C   UNL     1      22.863  11.092  35.191  1.00  0.00     0.053 C 
ENDROOT
BRANCH   1   2
ATOM      2  C   UNL     1      22.186  12.292  34.607  1.00  0.00     0.041 C 
ATOM      3  O   UNL     1      20.951  12.266  34.362  1.00  0.00    -0.550 OA
ATOM      4  O   UNL     1      22.908  13.457  34.380  1.00  0.00    -0.550 OA
ENDBRANCH   1   2
BRANCH   1   5
ATOM      5  C   UNL     1      22.531  10.964  36.683  1.00  0.00     0.006 C 
BRANCH   5   6
ATOM      6  C   UNL     1      23.584  11.631  37.581  1.00  0.00    -0.003 C 
ATOM      7  C   UNL     1      23.127  12.987  38.119  1.00  0.00     0.004 C 
ENDBRANCH   5   6
ENDBRANCH   1   5
TORSDOF 3
ENDMDL
MODEL 8
REMARK VINA RESULT:    -3.057     15.162     16.044
REMARK INTER + INTRA:          -3.648
REMARK INTER:                  -3.560
REMARK INTRA:                  -0.088
REMARK UNBOUND:                -0.054
REMARK SMILES CCCCC(=O)[O-]
REMARK SMILES IDX 4 1 5 2 6 3 7 4 3 5 2 6 1 7
REMARK H PARENT
REMARK Flexibility Score: inf
ROOT
ATOM      1  C   UNL     1      22.761  13.644  36.556  1.00  0.00     0.053 C 
ENDROOT
BRANCH   1   2
ATOM      2  C   UNL     1      21.541  14.370  37.030  1.00  0.00     0.041 C 
ATOM      3  O   UNL     1      20.442  13.764  37.130  1.00  0.00    -0.550 OA
ATOM      4  O   UNL     1      21.628  15.704  37.409  1.00  0.00    -0.550 OA
ENDBRANCH   1   2
BRANCH   1   5
ATOM      5  C   UNL     1      22.766  13.548  35.026  1.00  0.00     0.006 C 
BRANCH   5   6
ATOM      6  C   UNL     1      22.303  12.173  34.520  1.00  0.00    -0.003 C 
ATOM      7  C   UNL     1      22.885  11.018  35.334  1.00  0.00     0.004 C 
ENDBRANCH   5   6
ENDBRANCH   1   5
TORSDOF 3
ENDMDL
MODEL 9
REMARK VINA RESULT:    -3.012      2.361      3.786
REMARK INTER + INTRA:          -3.594
REMARK INTER:                  -3.503
REMARK INTRA:                  -0.091
REMARK UNBOUND:                -0.054
REMARK SMILES CCCCC(=O)[O-]
REMARK SMILES IDX 4 1 5 2 6 3 7 4 3 5 2 6 1 7
REMARK H PARENT
REMARK Flexibility Score: inf
ROOT
ATOM      1  C   UNL     1      18.939  22.237  48.370  1.00  0.00     0.053 C 
ENDROOT
BRANCH   1   2
ATOM      2  C   UNL     1      17.830  22.586  47.427  1.00  0.00     0.041 C 
ATOM      3  O   UNL     1      18.009  22.509  46.183  1.00  0.00    -0.550 OA
ATOM      4  O   UNL     1      16.583  22.948  47.922  1.00  0.00    -0.550 OA
ENDBRANCH   1   2
BRANCH   1   5
ATOM      5  C   UNL     1      19.698  23.500  48.793  1.00  0.00     0.006 C 
BRANCH   5   6
ATOM      6  C   UNL     1      21.191  23.439  48.435  1.00  0.00    -0.003 C 
ATOM      7  C   UNL     1      21.434  23.399  46.926  1.00  0.00     0.004 C 
ENDBRANCH   5   6
ENDBRANCH   1   5
TORSDOF 3
ENDMDL
