MODEL 1
REMARK VINA RESULT:    35.774      0.000      0.000
REMARK INTER + INTRA:          53.186
REMARK INTER:                  50.413
REMARK INTRA:                   2.773
REMARK UNBOUND:                 2.773
REMARK SMILES OC[C@H]1O[C@H](O[C@@H]2OC=C[C@@H]3[C@H](O)[C@H]4O[C@@]4(CO)[C@@H]23)[C@H](O)[C@@H](O)[C@@H]1O
REMARK SMILES IDX 6 1 7 2 10 3 9 4 11 5 8 6 19 7 12 8 16 9 14 10 15 11 13 12
REMARK SMILES IDX 17 14 18 15 5 17 20 18 4 19 22 20 3 21 24 22 21 23 23 25
REMARK SMILES IDX 2 27 1 28 25 30
REMARK H PARENT 13 13 18 16 21 24 23 26 1 29 25 31
REMARK Flexibility Score: inf
ROOT
ATOM      1  O   UNL     1      11.940  -0.194  17.527  1.00  0.00    -0.310 OA
ENDROOT
BRANCH   1   2
ATOM      2  C   UNL     1      11.435   0.964  16.879  1.00  0.00     0.315 C 
ATOM      3  C   UNL     1      12.223   3.455  15.596  1.00  0.00     0.018 C 
ATOM      4  C   UNL     1      12.445   2.285  14.979  1.00  0.00     0.186 C 
ATOM      5  C   UNL     1      11.408   3.426  16.850  1.00  0.00     0.059 C 
ATOM      6  O   UNL     1      12.050   1.064  15.576  1.00  0.00    -0.472 OA
ATOM      7  C   UNL     1      11.809   2.218  17.682  1.00  0.00     0.105 C 
ATOM      8  C   UNL     1      11.475   4.586  17.836  1.00  0.00     0.154 C 
ATOM      9  C   UNL     1      11.159   2.459  19.045  1.00  0.00     0.130 C 
ATOM     10  C   UNL     1      11.073   3.939  19.177  1.00  0.00     0.183 C 
ATOM     11  O   UNL     1       9.917   3.135  19.082  1.00  0.00    -0.360 OA
BRANCH   8  12
ATOM     12  O   UNL     1      12.782   5.089  17.920  1.00  0.00    -0.390 OA
ATOM     13  H   UNL     1      13.365   4.435  17.455  1.00  0.00     0.211 HD
ENDBRANCH   8  12
BRANCH   9  14
ATOM     14  C   UNL     1      11.575   1.710  20.316  1.00  0.00     0.195 C 
BRANCH  14  15
ATOM     15  O   UNL     1      12.041   2.625  21.268  1.00  0.00    -0.393 OA
ATOM     16  H   UNL     1      11.784   3.525  20.935  1.00  0.00     0.210 HD
ENDBRANCH  14  15
ENDBRANCH   9  14
ENDBRANCH   1   2
BRANCH   1  17
ATOM     17  C   UNL     1      11.010  -1.267  17.475  1.00  0.00     0.286 C 
ATOM     18  C   UNL     1       9.728  -0.838  16.730  1.00  0.00     0.202 C 
ATOM     19  O   UNL     1      10.693  -1.763  18.770  1.00  0.00    -0.341 OA
ATOM     20  C   UNL     1       8.950   0.197  17.557  1.00  0.00     0.179 C 
ATOM     21  C   UNL     1      10.088  -0.770  19.584  1.00  0.00     0.178 C 
ATOM     22  C   UNL     1       8.733  -0.328  18.982  1.00  0.00     0.177 C 
BRANCH  18  23
ATOM     23  O   UNL     1      10.050  -0.293  15.477  1.00  0.00    -0.385 OA
ATOM     24  H   UNL     1       9.192  -0.033  15.051  1.00  0.00     0.211 HD
ENDBRANCH  18  23
BRANCH  20  25
ATOM     25  O   UNL     1       7.701   0.445  16.963  1.00  0.00    -0.387 OA
ATOM     26  H   UNL     1       7.028   0.447  17.695  1.00  0.00     0.211 HD
ENDBRANCH  20  25
BRANCH  21  27
ATOM     27  C   UNL     1       9.913  -1.360  20.992  1.00  0.00     0.191 C 
BRANCH  27  28
ATOM     28  O   UNL     1       8.623  -1.888  21.145  1.00  0.00    -0.394 OA
ATOM     29  H   UNL     1       8.542  -2.616  20.474  1.00  0.00     0.210 HD
ENDBRANCH  27  28
ENDBRANCH  21  27
BRANCH  22  30
ATOM     30  O   UNL     1       8.163   0.697  19.758  1.00  0.00    -0.387 OA
ATOM     31  H   UNL     1       8.783   1.471  19.729  1.00  0.00     0.211 HD
ENDBRANCH  22  30
ENDBRANCH   1  17
TORSDOF 10
ENDMDL
MODEL 2
REMARK VINA RESULT:    37.480      1.682      3.630
REMARK INTER + INTRA:          55.590
REMARK INTER:                  52.033
REMARK INTRA:                   3.557
REMARK UNBOUND:                 2.773
REMARK SMILES OC[C@H]1O[C@H](O[C@@H]2OC=C[C@@H]3[C@H](O)[C@H]4O[C@@]4(CO)[C@@H]23)[C@H](O)[C@@H](O)[C@@H]1O
REMARK SMILES IDX 6 1 7 2 10 3 9 4 11 5 8 6 19 7 12 8 16 9 14 10 15 11 13 12
REMARK SMILES IDX 17 14 18 15 5 17 20 18 4 19 22 20 3 21 24 22 21 23 23 25
REMARK SMILES IDX 2 27 1 28 25 30
REMARK H PARENT 13 13 18 16 21 24 23 26 1 29 25 31
REMARK Flexibility Score: inf
ROOT
ATOM      1  O   UNL     1      12.266   1.512  16.106  1.00  0.00    -0.310 OA
ENDROOT
BRANCH   1   2
ATOM      2  C   UNL     1      11.582   2.497  16.866  1.00  0.00     0.315 C 
ATOM      3  C   UNL     1      11.922   4.475  18.974  1.00  0.00     0.018 C 
ATOM      4  C   UNL     1      12.449   4.694  17.760  1.00  0.00     0.186 C 
ATOM      5  C   UNL     1      11.021   3.290  19.128  1.00  0.00     0.059 C 
ATOM      6  O   UNL     1      12.277   3.755  16.715  1.00  0.00    -0.472 OA
ATOM      7  C   UNL     1      11.597   2.117  18.353  1.00  0.00     0.105 C 
ATOM      8  C   UNL     1      10.742   2.713  20.511  1.00  0.00     0.154 C 
ATOM      9  C   UNL     1      10.788   0.910  18.828  1.00  0.00     0.130 C 
ATOM     10  C   UNL     1      10.369   1.246  20.217  1.00  0.00     0.183 C 
ATOM     11  O   UNL     1       9.431   1.109  19.171  1.00  0.00    -0.360 OA
BRANCH   8  12
ATOM     12  O   UNL     1      11.894   2.764  21.309  1.00  0.00    -0.390 OA
ATOM     13  H   UNL     1      12.616   3.134  20.738  1.00  0.00     0.211 HD
ENDBRANCH   8  12
BRANCH   9  14
ATOM     14  C   UNL     1      11.239  -0.539  18.612  1.00  0.00     0.195 C 
BRANCH  14  15
ATOM     15  O   UNL     1      10.427  -1.400  19.361  1.00  0.00    -0.393 OA
ATOM     16  H   UNL     1      11.041  -1.926  19.938  1.00  0.00     0.210 HD
ENDBRANCH  14  15
ENDBRANCH   9  14
ENDBRANCH   1   2
BRANCH   1  17
ATOM     17  C   UNL     1      11.524   1.135  14.955  1.00  0.00     0.286 C 
ATOM     18  C   UNL     1      10.011   1.327  15.197  1.00  0.00     0.202 C 
ATOM     19  O   UNL     1      11.801  -0.201  14.554  1.00  0.00    -0.341 OA
ATOM     20  C   UNL     1       9.502   0.310  16.229  1.00  0.00     0.179 C 
ATOM     21  C   UNL     1      11.449  -1.140  15.560  1.00  0.00     0.178 C 
ATOM     22  C   UNL     1       9.924  -1.107  15.822  1.00  0.00     0.177 C 
BRANCH  18  23
ATOM     23  O   UNL     1       9.750   2.629  15.650  1.00  0.00    -0.385 OA
ATOM     24  H   UNL     1       9.104   2.545  16.399  1.00  0.00     0.211 HD
ENDBRANCH  18  23
BRANCH  20  25
ATOM     25  O   UNL     1       8.101   0.368  16.309  1.00  0.00    -0.387 OA
ATOM     26  H   UNL     1       7.785  -0.550  16.524  1.00  0.00     0.211 HD
ENDBRANCH  20  25
BRANCH  21  27
ATOM     27  C   UNL     1      11.910  -2.527  15.090  1.00  0.00     0.191 C 
BRANCH  27  28
ATOM     28  O   UNL     1      13.125  -2.432  14.397  1.00  0.00    -0.394 OA
ATOM     29  H   UNL     1      13.808  -2.177  15.071  1.00  0.00     0.210 HD
ENDBRANCH  27  28
ENDBRANCH  21  27
BRANCH  22  30
ATOM     30  O   UNL     1       9.586  -1.994  16.859  1.00  0.00    -0.387 OA
ATOM     31  H   UNL     1      10.402  -2.511  17.086  1.00  0.00     0.211 HD
ENDBRANCH  22  30
ENDBRANCH   1  17
TORSDOF 10
ENDMDL
