MODEL 1
REMARK VINA RESULT:    -4.881      0.000      0.000
REMARK INTER + INTRA:          -4.881
REMARK INTER:                  -4.881
REMARK INTRA:                   0.000
REMARK UNBOUND:                 0.000
REMARK SMILES CC(C)=C1CC[C@H](C)CC1=O
REMARK SMILES IDX 8 1 7 2 6 3 5 4 4 5 2 6 1 7 3 8 10 9 11 10 9 11
REMARK H PARENT
REMARK Flexibility Score: inf
ROOT
ATOM      1  C   UNL     1      49.890  22.985  19.436  1.00  0.00     0.008 C 
ATOM      2  C   UNL     1      49.444  22.215  20.689  1.00  0.00    -0.006 C 
ATOM      3  C   UNL     1      49.174  23.149  21.882  1.00  0.00     0.008 C 
ATOM      4  C   UNL     1      47.961  24.069  21.664  1.00  0.00     0.039 C 
ATOM      5  C   UNL     1      46.725  23.319  21.186  1.00  0.00    -0.006 C 
ATOM      6  C   UNL     1      45.469  23.757  21.495  1.00  0.00    -0.070 C 
ATOM      7  C   UNL     1      44.234  22.993  21.075  1.00  0.00     0.039 C 
ATOM      8  C   UNL     1      45.256  25.013  22.309  1.00  0.00     0.039 C 
ATOM      9  C   UNL     1      46.965  22.164  20.271  1.00  0.00     0.159 C 
ATOM     10  O   UNL     1      46.143  21.864  19.364  1.00  0.00    -0.295 OA
ATOM     11  C   UNL     1      48.212  21.339  20.411  1.00  0.00     0.084 C 
ENDROOT
TORSDOF 0
ENDMDL
MODEL 2
REMARK VINA RESULT:    -4.874      1.729      2.921
REMARK INTER + INTRA:          -4.874
REMARK INTER:                  -4.874
REMARK INTRA:                   0.000
REMARK UNBOUND:                 0.000
REMARK SMILES CC(C)=C1CC[C@H](C)CC1=O
REMARK SMILES IDX 8 1 7 2 6 3 5 4 4 5 2 6 1 7 3 8 10 9 11 10 9 11
REMARK H PARENT
REMARK Flexibility Score: inf
ROOT
ATOM      1  C   UNL     1      47.705  19.811  21.122  1.00  0.00     0.008 C 
ATOM      2  C   UNL     1      47.692  20.815  19.958  1.00  0.00    -0.006 C 
ATOM      3  C   UNL     1      46.324  21.502  19.795  1.00  0.00     0.008 C 
ATOM      4  C   UNL     1      45.971  22.425  20.973  1.00  0.00     0.039 C 
ATOM      5  C   UNL     1      47.096  23.386  21.333  1.00  0.00    -0.006 C 
ATOM      6  C   UNL     1      46.833  24.613  21.870  1.00  0.00    -0.070 C 
ATOM      7  C   UNL     1      47.936  25.599  22.181  1.00  0.00     0.039 C 
ATOM      8  C   UNL     1      45.415  25.060  22.143  1.00  0.00     0.039 C 
ATOM      9  C   UNL     1      48.486  22.863  21.180  1.00  0.00     0.159 C 
ATOM     10  O   UNL     1      49.413  23.231  21.951  1.00  0.00    -0.295 OA
ATOM     11  C   UNL     1      48.802  21.868  20.101  1.00  0.00     0.084 C 
ENDROOT
TORSDOF 0
ENDMDL
MODEL 3
REMARK VINA RESULT:    -4.608      1.679      2.623
REMARK INTER + INTRA:          -4.608
REMARK INTER:                  -4.608
REMARK INTRA:                   0.000
REMARK UNBOUND:                 0.000
REMARK SMILES CC(C)=C1CC[C@H](C)CC1=O
REMARK SMILES IDX 8 1 7 2 6 3 5 4 4 5 2 6 1 7 3 8 10 9 11 10 9 11
REMARK H PARENT
REMARK Flexibility Score: inf
ROOT
ATOM      1  C   UNL     1      49.857  22.970  22.259  1.00  0.00     0.008 C 
ATOM      2  C   UNL     1      49.341  23.515  20.918  1.00  0.00    -0.006 C 
ATOM      3  C   UNL     1      48.702  22.418  20.048  1.00  0.00     0.008 C 
ATOM      4  C   UNL     1      47.402  21.857  20.647  1.00  0.00     0.039 C 
ATOM      5  C   UNL     1      46.425  22.946  21.070  1.00  0.00    -0.006 C 
ATOM      6  C   UNL     1      45.076  22.733  21.045  1.00  0.00    -0.070 C 
ATOM      7  C   UNL     1      44.092  23.821  21.409  1.00  0.00     0.039 C 
ATOM      8  C   UNL     1      44.501  21.403  20.614  1.00  0.00     0.039 C 
ATOM      9  C   UNL     1      47.026  24.196  21.620  1.00  0.00     0.159 C 
ATOM     10  O   UNL     1      46.443  24.863  22.517  1.00  0.00    -0.295 OA
ATOM     11  C   UNL     1      48.355  24.678  21.116  1.00  0.00     0.084 C 
ENDROOT
TORSDOF 0
ENDMDL
MODEL 4
REMARK VINA RESULT:    -4.547      1.305      3.985
REMARK INTER + INTRA:          -4.547
REMARK INTER:                  -4.547
REMARK INTRA:                   0.000
REMARK UNBOUND:                 0.000
REMARK SMILES CC(C)=C1CC[C@H](C)CC1=O
REMARK SMILES IDX 8 1 7 2 6 3 5 4 4 5 2 6 1 7 3 8 10 9 11 10 9 11
REMARK H PARENT
REMARK Flexibility Score: inf
ROOT
ATOM      1  C   UNL     1      44.131  24.977  22.926  1.00  0.00     0.008 C 
ATOM      2  C   UNL     1      44.692  25.216  21.516  1.00  0.00    -0.006 C 
ATOM      3  C   UNL     1      46.118  25.794  21.545  1.00  0.00     0.008 C 
ATOM      4  C   UNL     1      47.157  24.806  22.102  1.00  0.00     0.039 C 
ATOM      5  C   UNL     1      47.071  23.429  21.458  1.00  0.00    -0.006 C 
ATOM      6  C   UNL     1      48.177  22.639  21.331  1.00  0.00    -0.070 C 
ATOM      7  C   UNL     1      48.119  21.293  20.645  1.00  0.00     0.039 C 
ATOM      8  C   UNL     1      49.527  23.092  21.839  1.00  0.00     0.039 C 
ATOM      9  C   UNL     1      45.704  22.954  21.093  1.00  0.00     0.159 C 
ATOM     10  O   UNL     1      45.399  21.732  21.146  1.00  0.00    -0.295 OA
ATOM     11  C   UNL     1      44.655  23.938  20.663  1.00  0.00     0.084 C 
ENDROOT
TORSDOF 0
ENDMDL
MODEL 5
REMARK VINA RESULT:    -4.480      2.422      3.713
REMARK INTER + INTRA:          -4.480
REMARK INTER:                  -4.480
REMARK INTRA:                   0.000
REMARK UNBOUND:                 0.000
REMARK SMILES CC(C)=C1CC[C@H](C)CC1=O
REMARK SMILES IDX 8 1 7 2 6 3 5 4 4 5 2 6 1 7 3 8 10 9 11 10 9 11
REMARK H PARENT
REMARK Flexibility Score: inf
ROOT
ATOM      1  C   UNL     1      51.300  25.931  22.596  1.00  0.00     0.008 C 
ATOM      2  C   UNL     1      50.810  25.914  21.139  1.00  0.00    -0.006 C 
ATOM      3  C   UNL     1      51.086  24.568  20.446  1.00  0.00     0.008 C 
ATOM      4  C   UNL     1      50.268  23.408  21.037  1.00  0.00     0.039 C 
ATOM      5  C   UNL     1      48.786  23.732  21.167  1.00  0.00    -0.006 C 
ATOM      6  C   UNL     1      47.838  22.754  21.078  1.00  0.00    -0.070 C 
ATOM      7  C   UNL     1      46.361  23.068  21.151  1.00  0.00     0.039 C 
ATOM      8  C   UNL     1      48.223  21.308  20.863  1.00  0.00     0.039 C 
ATOM      9  C   UNL     1      48.447  25.143  21.516  1.00  0.00     0.159 C 
ATOM     10  O   UNL     1      47.439  25.420  22.222  1.00  0.00    -0.295 OA
ATOM     11  C   UNL     1      49.317  26.268  21.036  1.00  0.00     0.084 C 
ENDROOT
TORSDOF 0
ENDMDL
MODEL 6
REMARK VINA RESULT:    -4.452      3.618      5.700
REMARK INTER + INTRA:          -4.452
REMARK INTER:                  -4.452
REMARK INTRA:                   0.000
REMARK UNBOUND:                 0.000
REMARK SMILES CC(C)=C1CC[C@H](C)CC1=O
REMARK SMILES IDX 8 1 7 2 6 3 5 4 4 5 2 6 1 7 3 8 10 9 11 10 9 11
REMARK H PARENT
REMARK Flexibility Score: inf
ROOT
ATOM      1  C   UNL     1      49.370  23.321  21.087  1.00  0.00     0.008 C 
ATOM      2  C   UNL     1      50.847  23.573  20.743  1.00  0.00    -0.006 C 
ATOM      3  C   UNL     1      51.189  23.160  19.301  1.00  0.00     0.008 C 
ATOM      4  C   UNL     1      50.496  24.035  18.243  1.00  0.00     0.039 C 
ATOM      5  C   UNL     1      50.662  25.526  18.505  1.00  0.00    -0.006 C 
ATOM      6  C   UNL     1      50.683  26.425  17.478  1.00  0.00    -0.070 C 
ATOM      7  C   UNL     1      50.901  27.902  17.718  1.00  0.00     0.039 C 
ATOM      8  C   UNL     1      50.526  25.978  16.042  1.00  0.00     0.039 C 
ATOM      9  C   UNL     1      50.675  25.948  19.937  1.00  0.00     0.159 C 
ATOM     10  O   UNL     1      50.203  27.060  20.296  1.00  0.00    -0.295 OA
ATOM     11  C   UNL     1      51.246  25.038  20.985  1.00  0.00     0.084 C 
ENDROOT
TORSDOF 0
ENDMDL
MODEL 7
REMARK VINA RESULT:    -4.448      1.778      3.164
REMARK INTER + INTRA:          -4.448
REMARK INTER:                  -4.448
REMARK INTRA:                   0.000
REMARK UNBOUND:                 0.000
REMARK SMILES CC(C)=C1CC[C@H](C)CC1=O
REMARK SMILES IDX 8 1 7 2 6 3 5 4 4 5 2 6 1 7 3 8 10 9 11 10 9 11
REMARK H PARENT
REMARK Flexibility Score: inf
ROOT
ATOM      1  C   UNL     1      49.042  25.977  20.580  1.00  0.00     0.008 C 
ATOM      2  C   UNL     1      49.138  25.085  21.828  1.00  0.00    -0.006 C 
ATOM      3  C   UNL     1      47.754  24.677  22.363  1.00  0.00     0.008 C 
ATOM      4  C   UNL     1      46.989  23.748  21.406  1.00  0.00     0.039 C 
ATOM      5  C   UNL     1      47.826  22.571  20.924  1.00  0.00    -0.006 C 
ATOM      6  C   UNL     1      47.248  21.376  20.605  1.00  0.00    -0.070 C 
ATOM      7  C   UNL     1      48.071  20.183  20.178  1.00  0.00     0.039 C 
ATOM      8  C   UNL     1      45.752  21.180  20.700  1.00  0.00     0.039 C 
ATOM      9  C   UNL     1      49.279  22.838  20.709  1.00  0.00     0.159 C 
ATOM     10  O   UNL     1      49.927  22.247  19.804  1.00  0.00    -0.295 OA
ATOM     11  C   UNL     1      49.997  23.836  21.570  1.00  0.00     0.084 C 
ENDROOT
TORSDOF 0
ENDMDL
MODEL 8
REMARK VINA RESULT:    -4.404      1.477      3.759
REMARK INTER + INTRA:          -4.404
REMARK INTER:                  -4.404
REMARK INTRA:                   0.000
REMARK UNBOUND:                 0.000
REMARK SMILES CC(C)=C1CC[C@H](C)CC1=O
REMARK SMILES IDX 8 1 7 2 6 3 5 4 4 5 2 6 1 7 3 8 10 9 11 10 9 11
REMARK H PARENT
REMARK Flexibility Score: inf
ROOT
ATOM      1  C   UNL     1      45.266  21.137  21.411  1.00  0.00     0.008 C 
ATOM      2  C   UNL     1      45.449  22.225  20.341  1.00  0.00    -0.006 C 
ATOM      3  C   UNL     1      45.780  23.597  20.954  1.00  0.00     0.008 C 
ATOM      4  C   UNL     1      47.157  23.635  21.637  1.00  0.00     0.039 C 
ATOM      5  C   UNL     1      48.270  23.075  20.761  1.00  0.00    -0.006 C 
ATOM      6  C   UNL     1      49.552  23.530  20.871  1.00  0.00    -0.070 C 
ATOM      7  C   UNL     1      50.656  23.023  19.971  1.00  0.00     0.039 C 
ATOM      8  C   UNL     1      49.921  24.595  21.878  1.00  0.00     0.039 C 
ATOM      9  C   UNL     1      47.902  21.930  19.876  1.00  0.00     0.159 C 
ATOM     10  O   UNL     1      48.732  21.023  19.599  1.00  0.00    -0.295 OA
ATOM     11  C   UNL     1      46.516  21.834  19.306  1.00  0.00     0.084 C 
ENDROOT
TORSDOF 0
ENDMDL
MODEL 9
REMARK VINA RESULT:    -4.350      1.689      2.241
REMARK INTER + INTRA:          -4.350
REMARK INTER:                  -4.350
REMARK INTRA:                   0.000
REMARK UNBOUND:                 0.000
REMARK SMILES CC(C)=C1CC[C@H](C)CC1=O
REMARK SMILES IDX 8 1 7 2 6 3 5 4 4 5 2 6 1 7 3 8 10 9 11 10 9 11
REMARK H PARENT
REMARK Flexibility Score: inf
ROOT
ATOM      1  C   UNL     1      50.726  23.509  19.737  1.00  0.00     0.008 C 
ATOM      2  C   UNL     1      50.614  23.737  21.253  1.00  0.00    -0.006 C 
ATOM      3  C   UNL     1      50.492  25.229  21.611  1.00  0.00     0.008 C 
ATOM      4  C   UNL     1      49.175  25.858  21.129  1.00  0.00     0.039 C 
ATOM      5  C   UNL     1      47.950  25.038  21.512  1.00  0.00    -0.006 C 
ATOM      6  C   UNL     1      46.742  25.635  21.736  1.00  0.00    -0.070 C 
ATOM      7  C   UNL     1      45.531  24.842  22.170  1.00  0.00     0.039 C 
ATOM      8  C   UNL     1      46.570  27.130  21.596  1.00  0.00     0.039 C 
ATOM      9  C   UNL     1      48.119  23.555  21.506  1.00  0.00     0.159 C 
ATOM     10  O   UNL     1      47.168  22.789  21.196  1.00  0.00    -0.295 OA
ATOM     11  C   UNL     1      49.445  22.947  21.863  1.00  0.00     0.084 C 
ENDROOT
TORSDOF 0
ENDMDL
