MODEL 1
REMARK VINA RESULT:    -1.042      0.000      0.000
REMARK INTER + INTRA:           0.282
REMARK INTER:                  -1.589
REMARK INTRA:                   1.871
REMARK UNBOUND:                 1.871
REMARK SMILES OC[C@@H]1O[C@H](O[C@]2(CO)O[C@H](CO)[C@H](O)[C@@H]2O)[C@@H](O)[C@@H](O)[C@H]1O
REMARK SMILES IDX 6 1 5 2 3 3 22 4 4 5 20 6 18 7 2 8 1 9 23 11 21 13 19 15
REMARK SMILES IDX 7 17 16 18 10 19 14 20 11 21 8 22 9 23 17 25 15 27 12 29
REMARK SMILES IDX 13 30
REMARK H PARENT 1 10 23 12 21 14 19 16 9 24 17 26 15 28 13 31
REMARK Flexibility Score: inf
ROOT
ATOM      1  O   UNL     1       1.931  11.363  18.573  1.00  0.00    -0.313 OA
ENDROOT
BRANCH   1   2
ATOM      2  C   UNL     1       2.414  12.156  17.460  1.00  0.00     0.285 C 
ATOM      3  C   UNL     1       1.715  14.479  17.204  1.00  0.00     0.178 C 
ATOM      4  C   UNL     1       2.147  14.662  18.656  1.00  0.00     0.177 C 
ATOM      5  O   UNL     1       1.451  13.108  16.944  1.00  0.00    -0.341 OA
ATOM      6  C   UNL     1       3.535  14.080  18.917  1.00  0.00     0.179 C 
ATOM      7  C   UNL     1       3.766  12.858  17.967  1.00  0.00     0.202 C 
BRANCH   3   8
ATOM      8  C   UNL     1       0.460  15.368  16.876  1.00  0.00     0.191 C 
BRANCH   8   9
ATOM      9  O   UNL     1       0.812  16.738  16.953  1.00  0.00    -0.394 OA
ATOM     10  H   UNL     1       1.606  16.896  16.330  1.00  0.00     0.210 HD
ENDBRANCH   8   9
ENDBRANCH   3   8
BRANCH   4  11
ATOM     11  O   UNL     1       2.079  16.021  19.032  1.00  0.00    -0.387 OA
ATOM     12  H   UNL     1       1.117  16.242  19.093  1.00  0.00     0.211 HD
ENDBRANCH   4  11
BRANCH   6  13
ATOM     13  O   UNL     1       4.553  15.034  18.766  1.00  0.00    -0.387 OA
ATOM     14  H   UNL     1       4.358  15.761  19.419  1.00  0.00     0.211 HD
ENDBRANCH   6  13
BRANCH   7  15
ATOM     15  O   UNL     1       4.650  13.250  16.917  1.00  0.00    -0.385 OA
ATOM     16  H   UNL     1       4.276  12.937  16.040  1.00  0.00     0.211 HD
ENDBRANCH   7  15
ENDBRANCH   1   2
BRANCH   1  17
ATOM     17  C   UNL     1       1.068  10.222  18.284  1.00  0.00     0.224 C 
ATOM     18  C   UNL     1       1.932   8.891  18.102  1.00  0.00     0.208 C 
ATOM     19  O   UNL     1       0.246   9.962  19.436  1.00  0.00    -0.337 OA
ATOM     20  C   UNL     1       2.276   8.638  19.560  1.00  0.00     0.180 C 
ATOM     21  C   UNL     1       0.847   8.836  20.098  1.00  0.00     0.179 C 
BRANCH  17  22
ATOM     22  C   UNL     1       0.150  10.515  17.073  1.00  0.00     0.225 C 
BRANCH  22  23
ATOM     23  O   UNL     1      -0.124  11.888  16.941  1.00  0.00    -0.391 OA
ATOM     24  H   UNL     1       0.349  12.210  16.111  1.00  0.00     0.210 HD
ENDBRANCH  22  23
ENDBRANCH  17  22
BRANCH  18  25
ATOM     25  O   UNL     1       3.041   8.946  17.164  1.00  0.00    -0.385 OA
ATOM     26  H   UNL     1       3.249   8.016  16.809  1.00  0.00     0.211 HD
ENDBRANCH  18  25
BRANCH  20  27
ATOM     27  O   UNL     1       3.215   9.569  20.056  1.00  0.00    -0.387 OA
ATOM     28  H   UNL     1       3.797   9.114  20.723  1.00  0.00     0.211 HD
ENDBRANCH  20  27
BRANCH  21  29
ATOM     29  C   UNL     1       0.695   8.706  21.635  1.00  0.00     0.191 C 
BRANCH  29  30
ATOM     30  O   UNL     1       1.334   7.559  22.190  1.00  0.00    -0.394 OA
ATOM     31  H   UNL     1       0.609   6.990  22.572  1.00  0.00     0.210 HD
ENDBRANCH  29  30
ENDBRANCH  21  29
ENDBRANCH   1  17
TORSDOF 13
ENDMDL
MODEL 2
REMARK VINA RESULT:    -0.203      1.626      6.112
REMARK INTER + INTRA:           1.561
REMARK INTER:                  -0.847
REMARK INTRA:                   2.408
REMARK UNBOUND:                 1.871
REMARK SMILES OC[C@@H]1O[C@H](O[C@]2(CO)O[C@H](CO)[C@H](O)[C@@H]2O)[C@@H](O)[C@@H](O)[C@H]1O
REMARK SMILES IDX 6 1 5 2 3 3 22 4 4 5 20 6 18 7 2 8 1 9 23 11 21 13 19 15
REMARK SMILES IDX 7 17 16 18 10 19 14 20 11 21 8 22 9 23 17 25 15 27 12 29
REMARK SMILES IDX 13 30
REMARK H PARENT 1 10 23 12 21 14 19 16 9 24 17 26 15 28 13 31
REMARK Flexibility Score: inf
ROOT
ATOM      1  O   UNL     1       3.168  11.180  19.037  1.00  0.00    -0.313 OA
ENDROOT
BRANCH   1   2
ATOM      2  C   UNL     1       3.301   9.737  19.049  1.00  0.00     0.285 C 
ATOM      3  C   UNL     1       2.255   8.416  20.813  1.00  0.00     0.178 C 
ATOM      4  C   UNL     1       0.971   9.170  20.475  1.00  0.00     0.177 C 
ATOM      5  O   UNL     1       3.384   9.157  20.375  1.00  0.00    -0.341 OA
ATOM      6  C   UNL     1       0.699   9.188  18.971  1.00  0.00     0.179 C 
ATOM      7  C   UNL     1       2.061   9.168  18.203  1.00  0.00     0.202 C 
BRANCH   3   8
ATOM      8  C   UNL     1       2.338   8.114  22.354  1.00  0.00     0.191 C 
BRANCH   8   9
ATOM      9  O   UNL     1       1.656   6.908  22.643  1.00  0.00    -0.394 OA
ATOM     10  H   UNL     1       2.232   6.132  22.313  1.00  0.00     0.210 HD
ENDBRANCH   8   9
ENDBRANCH   3   8
BRANCH   4  11
ATOM     11  O   UNL     1      -0.125   8.640  21.191  1.00  0.00    -0.387 OA
ATOM     12  H   UNL     1       0.256   8.007  21.848  1.00  0.00     0.211 HD
ENDBRANCH   4  11
BRANCH   6  13
ATOM     13  O   UNL     1      -0.125   8.128  18.564  1.00  0.00    -0.387 OA
ATOM     14  H   UNL     1      -0.382   7.634  19.390  1.00  0.00     0.211 HD
ENDBRANCH   6  13
BRANCH   7  15
ATOM     15  O   UNL     1       2.271   7.862  17.666  1.00  0.00    -0.385 OA
ATOM     16  H   UNL     1       3.247   7.742  17.467  1.00  0.00     0.211 HD
ENDBRANCH   7  15
ENDBRANCH   1   2
BRANCH   1  17
ATOM     17  C   UNL     1       3.262  11.871  17.755  1.00  0.00     0.224 C 
ATOM     18  C   UNL     1       1.842  11.903  17.024  1.00  0.00     0.208 C 
ATOM     19  O   UNL     1       3.573  13.255  17.998  1.00  0.00    -0.337 OA
ATOM     20  C   UNL     1       1.166  12.961  17.880  1.00  0.00     0.180 C 
ATOM     21  C   UNL     1       2.333  13.966  17.843  1.00  0.00     0.179 C 
BRANCH  17  22
ATOM     22  C   UNL     1       4.378  11.257  16.876  1.00  0.00     0.225 C 
BRANCH  22  23
ATOM     23  O   UNL     1       5.564  11.048  17.602  1.00  0.00    -0.391 OA
ATOM     24  H   UNL     1       5.360  11.240  18.571  1.00  0.00     0.210 HD
ENDBRANCH  22  23
ENDBRANCH  17  22
BRANCH  18  25
ATOM     25  O   UNL     1       1.146  10.636  16.875  1.00  0.00    -0.385 OA
ATOM     26  H   UNL     1       0.850  10.287  17.783  1.00  0.00     0.211 HD
ENDBRANCH  18  25
BRANCH  20  27
ATOM     27  O   UNL     1       0.857  12.485  19.173  1.00  0.00    -0.387 OA
ATOM     28  H   UNL     1       0.595  11.527  19.108  1.00  0.00     0.211 HD
ENDBRANCH  20  27
BRANCH  21  29
ATOM     29  C   UNL     1       2.113  15.267  18.656  1.00  0.00     0.191 C 
BRANCH  29  30
ATOM     30  O   UNL     1       3.122  15.525  19.630  1.00  0.00    -0.394 OA
ATOM     31  H   UNL     1       3.103  14.758  20.266  1.00  0.00     0.210 HD
ENDBRANCH  29  30
ENDBRANCH  21  29
ENDBRANCH   1  17
TORSDOF 13
ENDMDL
MODEL 3
REMARK VINA RESULT:     1.382     21.027     23.074
REMARK INTER + INTRA:           3.980
REMARK INTER:                   4.594
REMARK INTRA:                  -0.614
REMARK UNBOUND:                 1.871
REMARK SMILES OC[C@@H]1O[C@H](O[C@]2(CO)O[C@H](CO)[C@H](O)[C@@H]2O)[C@@H](O)[C@@H](O)[C@H]1O
REMARK SMILES IDX 6 1 5 2 3 3 22 4 4 5 20 6 18 7 2 8 1 9 23 11 21 13 19 15
REMARK SMILES IDX 7 17 16 18 10 19 14 20 11 21 8 22 9 23 17 25 15 27 12 29
REMARK SMILES IDX 13 30
REMARK H PARENT 1 10 23 12 21 14 19 16 9 24 17 26 15 28 13 31
REMARK Flexibility Score: inf
ROOT
ATOM      1  O   UNL     1      17.154  12.725  34.763  1.00  0.00    -0.313 OA
ENDROOT
BRANCH   1   2
ATOM      2  C   UNL     1      18.392  12.672  34.011  1.00  0.00     0.285 C 
ATOM      3  C   UNL     1      19.407  10.525  33.455  1.00  0.00     0.178 C 
ATOM      4  C   UNL     1      18.037  10.134  32.907  1.00  0.00     0.177 C 
ATOM      5  O   UNL     1      19.273  11.586  34.390  1.00  0.00    -0.341 OA
ATOM      6  C   UNL     1      17.461  11.212  31.990  1.00  0.00     0.179 C 
ATOM      7  C   UNL     1      17.970  12.614  32.462  1.00  0.00     0.202 C 
BRANCH   3   8
ATOM      8  C   UNL     1      20.125   9.286  34.106  1.00  0.00     0.191 C 
BRANCH   8   9
ATOM      9  O   UNL     1      19.798   9.212  35.482  1.00  0.00    -0.394 OA
ATOM     10  H   UNL     1      19.822  10.159  35.864  1.00  0.00     0.210 HD
ENDBRANCH   8   9
ENDBRANCH   3   8
BRANCH   4  11
ATOM     11  O   UNL     1      18.095   8.882  32.258  1.00  0.00    -0.387 OA
ATOM     12  H   UNL     1      17.160   8.636  32.050  1.00  0.00     0.211 HD
ENDBRANCH   4  11
BRANCH   6  13
ATOM     13  O   UNL     1      17.775  10.990  30.641  1.00  0.00    -0.387 OA
ATOM     14  H   UNL     1      17.075  11.456  30.107  1.00  0.00     0.211 HD
ENDBRANCH   6  13
BRANCH   7  15
ATOM     15  O   UNL     1      18.983  13.065  31.564  1.00  0.00    -0.385 OA
ATOM     16  H   UNL     1      19.075  14.060  31.647  1.00  0.00     0.211 HD
ENDBRANCH   7  15
ENDBRANCH   1   2
BRANCH   1  17
ATOM     17  C   UNL     1      17.231  12.944  36.204  1.00  0.00     0.224 C 
ATOM     18  C   UNL     1      17.088  14.497  36.549  1.00  0.00     0.208 C 
ATOM     19  O   UNL     1      16.089  12.330  36.826  1.00  0.00    -0.337 OA
ATOM     20  C   UNL     1      15.595  14.649  36.308  1.00  0.00     0.180 C 
ATOM     21  C   UNL     1      15.175  13.403  37.110  1.00  0.00     0.179 C 
BRANCH  17  22
ATOM     22  C   UNL     1      18.517  12.313  36.792  1.00  0.00     0.225 C 
BRANCH  22  23
ATOM     23  O   UNL     1      18.333  10.959  37.125  1.00  0.00    -0.391 OA
ATOM     24  H   UNL     1      18.258  10.905  38.129  1.00  0.00     0.210 HD
ENDBRANCH  22  23
ENDBRANCH  17  22
BRANCH  18  25
ATOM     25  O   UNL     1      17.965  15.416  35.843  1.00  0.00    -0.385 OA
ATOM     26  H   UNL     1      17.571  16.353  35.848  1.00  0.00     0.211 HD
ENDBRANCH  18  25
BRANCH  20  27
ATOM     27  O   UNL     1      15.267  14.589  34.936  1.00  0.00    -0.387 OA
ATOM     28  H   UNL     1      14.289  14.738  34.833  1.00  0.00     0.211 HD
ENDBRANCH  20  27
BRANCH  21  29
ATOM     29  C   UNL     1      13.655  13.106  37.123  1.00  0.00     0.191 C 
BRANCH  29  30
ATOM     30  O   UNL     1      13.019  13.255  35.856  1.00  0.00    -0.394 OA
ATOM     31  H   UNL     1      13.234  12.432  35.334  1.00  0.00     0.210 HD
ENDBRANCH  29  30
ENDBRANCH  21  29
ENDBRANCH   1  17
TORSDOF 13
ENDMDL
