MODEL 1
REMARK VINA RESULT:    -4.352      0.000      0.000
REMARK INTER + INTRA:          -4.607
REMARK INTER:                  -4.607
REMARK INTRA:                   0.000
REMARK UNBOUND:                 0.000
REMARK SMILES O=c1ccc2cc(O)c(O)cc2o1
REMARK SMILES IDX 4 1 3 2 2 3 1 4 13 5 12 6 11 7 9 8 7 9 6 10 5 11 8 12 10 14
REMARK H PARENT 8 13 10 15
REMARK Flexibility Score: inf
ROOT
ATOM      1  C   UNL     1      -5.123   1.208  15.116  1.00  0.00     0.019 A 
ATOM      2  C   UNL     1      -5.862   2.046  14.280  1.00  0.00     0.094 A 
ATOM      3  C   UNL     1      -6.194   3.329  14.728  1.00  0.00     0.336 A 
ATOM      4  O   UNL     1      -6.861   4.099  13.988  1.00  0.00    -0.246 OA
ATOM      5  O   UNL     1      -5.811   3.742  15.934  1.00  0.00    -0.423 OA
ATOM      6  C   UNL     1      -5.105   2.975  16.761  1.00  0.00     0.142 A 
ATOM      7  C   UNL     1      -4.730   3.464  18.017  1.00  0.00     0.098 A 
ATOM      8  C   UNL     1      -3.986   2.661  18.895  1.00  0.00     0.161 A 
ATOM      9  C   UNL     1      -3.616   1.359  18.512  1.00  0.00     0.158 A 
ATOM     10  C   UNL     1      -3.991   0.867  17.255  1.00  0.00     0.062 A 
ATOM     11  C   UNL     1      -4.734   1.669  16.378  1.00  0.00     0.022 A 
ENDROOT
BRANCH   9  12
ATOM     12  O   UNL     1      -2.877   0.540  19.365  1.00  0.00    -0.504 OA
ATOM     13  H   UNL     1      -2.053   0.873  19.851  1.00  0.00     0.293 HD
ENDBRANCH   9  12
BRANCH   8  14
ATOM     14  O   UNL     1      -3.616   3.152  20.146  1.00  0.00    -0.504 OA
ATOM     15  H   UNL     1      -2.643   3.239  20.416  1.00  0.00     0.293 HD
ENDBRANCH   8  14
TORSDOF 2
ENDMDL
MODEL 2
REMARK VINA RESULT:    -4.333      1.097      2.277
REMARK INTER + INTRA:          -4.587
REMARK INTER:                  -4.587
REMARK INTRA:                   0.000
REMARK UNBOUND:                 0.000
REMARK SMILES O=c1ccc2cc(O)c(O)cc2o1
REMARK SMILES IDX 4 1 3 2 2 3 1 4 13 5 12 6 11 7 9 8 7 9 6 10 5 11 8 12 10 14
REMARK H PARENT 8 13 10 15
REMARK Flexibility Score: inf
ROOT
ATOM      1  C   UNL     1      -5.541   4.113  16.953  1.00  0.00     0.019 A 
ATOM      2  C   UNL     1      -6.178   4.039  15.714  1.00  0.00     0.094 A 
ATOM      3  C   UNL     1      -6.125   2.839  14.996  1.00  0.00     0.336 A 
ATOM      4  O   UNL     1      -6.693   2.753  13.875  1.00  0.00    -0.246 OA
ATOM      5  O   UNL     1      -5.477   1.786  15.488  1.00  0.00    -0.423 OA
ATOM      6  C   UNL     1      -4.858   1.815  16.666  1.00  0.00     0.142 A 
ATOM      7  C   UNL     1      -4.193   0.677  17.133  1.00  0.00     0.098 A 
ATOM      8  C   UNL     1      -3.537   0.700  18.373  1.00  0.00     0.161 A 
ATOM      9  C   UNL     1      -3.548   1.872  19.151  1.00  0.00     0.158 A 
ATOM     10  C   UNL     1      -4.214   3.013  18.685  1.00  0.00     0.062 A 
ATOM     11  C   UNL     1      -4.868   2.991  17.447  1.00  0.00     0.022 A 
ENDROOT
BRANCH   9  12
ATOM     12  O   UNL     1      -2.905   1.922  20.387  1.00  0.00    -0.504 OA
ATOM     13  H   UNL     1      -3.397   2.159  21.241  1.00  0.00     0.293 HD
ENDBRANCH   9  12
BRANCH   8  14
ATOM     14  O   UNL     1      -2.875  -0.437  18.835  1.00  0.00    -0.504 OA
ATOM     15  H   UNL     1      -2.434  -1.091  18.198  1.00  0.00     0.293 HD
ENDBRANCH   8  14
TORSDOF 2
ENDMDL
MODEL 3
REMARK VINA RESULT:    -3.773      1.911      2.833
REMARK INTER + INTRA:          -3.993
REMARK INTER:                  -3.993
REMARK INTRA:                   0.000
REMARK UNBOUND:                 0.000
REMARK SMILES O=c1ccc2cc(O)c(O)cc2o1
REMARK SMILES IDX 4 1 3 2 2 3 1 4 13 5 12 6 11 7 9 8 7 9 6 10 5 11 8 12 10 14
REMARK H PARENT 8 13 10 15
REMARK Flexibility Score: inf
ROOT
ATOM      1  C   UNL     1      -3.619   4.039  17.170  1.00  0.00     0.019 A 
ATOM      2  C   UNL     1      -3.866   4.055  15.797  1.00  0.00     0.094 A 
ATOM      3  C   UNL     1      -3.980   2.839  15.115  1.00  0.00     0.336 A 
ATOM      4  O   UNL     1      -4.202   2.833  13.875  1.00  0.00    -0.246 OA
ATOM      5  O   UNL     1      -3.854   1.686  15.767  1.00  0.00    -0.423 OA
ATOM      6  C   UNL     1      -3.619   1.626  17.076  1.00  0.00     0.142 A 
ATOM      7  C   UNL     1      -3.496   0.385  17.708  1.00  0.00     0.098 A 
ATOM      8  C   UNL     1      -3.248   0.315  19.087  1.00  0.00     0.161 A 
ATOM      9  C   UNL     1      -3.122   1.498  19.838  1.00  0.00     0.158 A 
ATOM     10  C   UNL     1      -3.244   2.743  19.207  1.00  0.00     0.062 A 
ATOM     11  C   UNL     1      -3.492   2.813  17.830  1.00  0.00     0.022 A 
ENDROOT
BRANCH   9  12
ATOM     12  O   UNL     1      -2.875   1.457  21.209  1.00  0.00    -0.504 OA
ATOM     13  H   UNL     1      -2.686   2.294  21.748  1.00  0.00     0.293 HD
ENDBRANCH   9  12
BRANCH   8  14
ATOM     14  O   UNL     1      -3.126  -0.925  19.713  1.00  0.00    -0.504 OA
ATOM     15  H   UNL     1      -3.490  -1.089  20.644  1.00  0.00     0.293 HD
ENDBRANCH   8  14
TORSDOF 2
ENDMDL
MODEL 4
REMARK VINA RESULT:    -3.767      1.682      5.147
REMARK INTER + INTRA:          -3.987
REMARK INTER:                  -3.987
REMARK INTRA:                   0.000
REMARK UNBOUND:                 0.000
REMARK SMILES O=c1ccc2cc(O)c(O)cc2o1
REMARK SMILES IDX 4 1 3 2 2 3 1 4 13 5 12 6 11 7 9 8 7 9 6 10 5 11 8 12 10 14
REMARK H PARENT 8 13 10 15
REMARK Flexibility Score: inf
ROOT
ATOM      1  C   UNL     1      -3.171   2.331  19.224  1.00  0.00     0.019 A 
ATOM      2  C   UNL     1      -2.882   1.218  20.012  1.00  0.00     0.094 A 
ATOM      3  C   UNL     1      -3.129  -0.060  19.498  1.00  0.00     0.336 A 
ATOM      4  O   UNL     1      -2.875  -1.077  20.195  1.00  0.00    -0.246 OA
ATOM      5  O   UNL     1      -3.633  -0.208  18.275  1.00  0.00    -0.423 OA
ATOM      6  C   UNL     1      -3.921   0.827  17.490  1.00  0.00     0.142 A 
ATOM      7  C   UNL     1      -4.448   0.610  16.213  1.00  0.00     0.098 A 
ATOM      8  C   UNL     1      -4.755   1.697  15.381  1.00  0.00     0.161 A 
ATOM      9  C   UNL     1      -4.533   3.011  15.831  1.00  0.00     0.158 A 
ATOM     10  C   UNL     1      -4.006   3.231  17.110  1.00  0.00     0.062 A 
ATOM     11  C   UNL     1      -3.699   2.146  17.942  1.00  0.00     0.022 A 
ENDROOT
BRANCH   9  12
ATOM     12  O   UNL     1      -4.830   4.109  15.025  1.00  0.00    -0.504 OA
ATOM     13  H   UNL     1      -5.259   4.948  15.395  1.00  0.00     0.293 HD
ENDBRANCH   9  12
BRANCH   8  14
ATOM     14  O   UNL     1      -5.281   1.476  14.108  1.00  0.00    -0.504 OA
ATOM     15  H   UNL     1      -5.331   2.215  13.418  1.00  0.00     0.293 HD
ENDBRANCH   8  14
TORSDOF 2
ENDMDL
MODEL 5
REMARK VINA RESULT:    -3.242      1.448      4.436
REMARK INTER + INTRA:          -3.432
REMARK INTER:                  -3.432
REMARK INTRA:                   0.000
REMARK UNBOUND:                 0.000
REMARK SMILES O=c1ccc2cc(O)c(O)cc2o1
REMARK SMILES IDX 4 1 3 2 2 3 1 4 13 5 12 6 11 7 9 8 7 9 6 10 5 11 8 12 10 14
REMARK H PARENT 8 13 10 15
REMARK Flexibility Score: inf
ROOT
ATOM      1  C   UNL     1      -3.247   0.943  18.135  1.00  0.00     0.019 A 
ATOM      2  C   UNL     1      -2.960   1.759  19.229  1.00  0.00     0.094 A 
ATOM      3  C   UNL     1      -3.498   3.050  19.271  1.00  0.00     0.336 A 
ATOM      4  O   UNL     1      -3.250   3.802  20.250  1.00  0.00    -0.246 OA
ATOM      5  O   UNL     1      -4.270   3.492  18.280  1.00  0.00    -0.423 OA
ATOM      6  C   UNL     1      -4.569   2.745  17.220  1.00  0.00     0.142 A 
ATOM      7  C   UNL     1      -5.386   3.262  16.210  1.00  0.00     0.098 A 
ATOM      8  C   UNL     1      -5.705   2.480  15.089  1.00  0.00     0.161 A 
ATOM      9  C   UNL     1      -5.200   1.172  14.979  1.00  0.00     0.158 A 
ATOM     10  C   UNL     1      -4.380   0.652  15.989  1.00  0.00     0.062 A 
ATOM     11  C   UNL     1      -4.062   1.432  17.109  1.00  0.00     0.022 A 
ENDROOT
BRANCH   9  12
ATOM     12  O   UNL     1      -5.500   0.374  13.876  1.00  0.00    -0.504 OA
ATOM     13  H   UNL     1      -5.709   0.770  12.967  1.00  0.00     0.293 HD
ENDBRANCH   9  12
BRANCH   8  14
ATOM     14  O   UNL     1      -6.519   3.000  14.084  1.00  0.00    -0.504 OA
ATOM     15  H   UNL     1      -7.507   3.172  14.235  1.00  0.00     0.293 HD
ENDBRANCH   8  14
TORSDOF 2
ENDMDL
MODEL 6
REMARK VINA RESULT:    -2.668      1.410      4.557
REMARK INTER + INTRA:          -2.824
REMARK INTER:                  -2.824
REMARK INTRA:                   0.000
REMARK UNBOUND:                 0.000
REMARK SMILES O=c1ccc2cc(O)c(O)cc2o1
REMARK SMILES IDX 4 1 3 2 2 3 1 4 13 5 12 6 11 7 9 8 7 9 6 10 5 11 8 12 10 14
REMARK H PARENT 8 13 10 15
REMARK Flexibility Score: inf
ROOT
ATOM      1  C   UNL     1      -3.392  -0.122  16.190  1.00  0.00     0.019 A 
ATOM      2  C   UNL     1      -2.887  -0.605  17.397  1.00  0.00     0.094 A 
ATOM      3  C   UNL     1      -3.344  -0.044  18.595  1.00  0.00     0.336 A 
ATOM      4  O   UNL     1      -2.899  -0.466  19.695  1.00  0.00    -0.246 OA
ATOM      5  O   UNL     1      -4.245   0.936  18.581  1.00  0.00    -0.423 OA
ATOM      6  C   UNL     1      -4.753   1.424  17.451  1.00  0.00     0.142 A 
ATOM      7  C   UNL     1      -5.698   2.453  17.498  1.00  0.00     0.098 A 
ATOM      8  C   UNL     1      -6.236   2.973  16.312  1.00  0.00     0.161 A 
ATOM      9  C   UNL     1      -5.824   2.457  15.069  1.00  0.00     0.158 A 
ATOM     10  C   UNL     1      -4.878   1.426  15.020  1.00  0.00     0.062 A 
ATOM     11  C   UNL     1      -4.339   0.907  16.205  1.00  0.00     0.022 A 
ENDROOT
BRANCH   9  12
ATOM     12  O   UNL     1      -6.344   2.956  13.875  1.00  0.00    -0.504 OA
ATOM     13  H   UNL     1      -6.272   2.446  13.002  1.00  0.00     0.293 HD
ENDBRANCH   9  12
BRANCH   8  14
ATOM     14  O   UNL     1      -7.178   4.000  16.363  1.00  0.00    -0.504 OA
ATOM     15  H   UNL     1      -8.118   3.842  16.706  1.00  0.00     0.293 HD
ENDBRANCH   8  14
TORSDOF 2
ENDMDL
MODEL 7
REMARK VINA RESULT:    -2.527      3.030      6.129
REMARK INTER + INTRA:          -2.675
REMARK INTER:                  -2.675
REMARK INTRA:                   0.000
REMARK UNBOUND:                 0.000
REMARK SMILES O=c1ccc2cc(O)c(O)cc2o1
REMARK SMILES IDX 4 1 3 2 2 3 1 4 13 5 12 6 11 7 9 8 7 9 6 10 5 11 8 12 10 14
REMARK H PARENT 8 13 10 15
REMARK Flexibility Score: inf
ROOT
ATOM      1  C   UNL     1      -2.875   1.170  21.853  1.00  0.00     0.019 A 
ATOM      2  C   UNL     1      -2.875  -0.086  22.458  1.00  0.00     0.094 A 
ATOM      3  C   UNL     1      -2.940  -1.227  21.651  1.00  0.00     0.336 A 
ATOM      4  O   UNL     1      -2.943  -2.371  22.179  1.00  0.00    -0.246 OA
ATOM      5  O   UNL     1      -3.002  -1.113  20.326  1.00  0.00    -0.423 OA
ATOM      6  C   UNL     1      -3.003   0.066  19.709  1.00  0.00     0.142 A 
ATOM      7  C   UNL     1      -3.069   0.124  18.314  1.00  0.00     0.098 A 
ATOM      8  C   UNL     1      -3.071   1.364  17.657  1.00  0.00     0.161 A 
ATOM      9  C   UNL     1      -3.007   2.554  18.404  1.00  0.00     0.158 A 
ATOM     10  C   UNL     1      -2.942   2.498  19.802  1.00  0.00     0.062 A 
ATOM     11  C   UNL     1      -2.940   1.260  20.459  1.00  0.00     0.022 A 
ENDROOT
BRANCH   9  12
ATOM     12  O   UNL     1      -3.008   3.799  17.777  1.00  0.00    -0.504 OA
ATOM     13  H   UNL     1      -2.198   4.152  17.281  1.00  0.00     0.293 HD
ENDBRANCH   9  12
BRANCH   8  14
ATOM     14  O   UNL     1      -3.137   1.417  16.265  1.00  0.00    -0.504 OA
ATOM     15  H   UNL     1      -4.021   1.360  15.773  1.00  0.00     0.293 HD
ENDBRANCH   8  14
TORSDOF 2
ENDMDL
MODEL 8
REMARK VINA RESULT:    -2.297      3.210      4.685
REMARK INTER + INTRA:          -2.431
REMARK INTER:                  -2.431
REMARK INTRA:                   0.000
REMARK UNBOUND:                 0.000
REMARK SMILES O=c1ccc2cc(O)c(O)cc2o1
REMARK SMILES IDX 4 1 3 2 2 3 1 4 13 5 12 6 11 7 9 8 7 9 6 10 5 11 8 12 10 14
REMARK H PARENT 8 13 10 15
REMARK Flexibility Score: inf
ROOT
ATOM      1  C   UNL     1      -2.878   2.395  18.949  1.00  0.00     0.019 A 
ATOM      2  C   UNL     1      -2.892   2.198  17.569  1.00  0.00     0.094 A 
ATOM      3  C   UNL     1      -2.916   0.890  17.071  1.00  0.00     0.336 A 
ATOM      4  O   UNL     1      -2.928   0.692  15.827  1.00  0.00    -0.246 OA
ATOM      5  O   UNL     1      -2.926  -0.148  17.903  1.00  0.00    -0.423 OA
ATOM      6  C   UNL     1      -2.914  -0.003  19.227  1.00  0.00     0.142 A 
ATOM      7  C   UNL     1      -2.926  -1.132  20.052  1.00  0.00     0.098 A 
ATOM      8  C   UNL     1      -2.913  -0.987  21.448  1.00  0.00     0.161 A 
ATOM      9  C   UNL     1      -2.888   0.298  22.020  1.00  0.00     0.158 A 
ATOM     10  C   UNL     1      -2.877   1.430  21.194  1.00  0.00     0.062 A 
ATOM     11  C   UNL     1      -2.889   1.286  19.801  1.00  0.00     0.022 A 
ENDROOT
BRANCH   9  12
ATOM     12  O   UNL     1      -2.875   0.470  23.403  1.00  0.00    -0.504 OA
ATOM     13  H   UNL     1      -3.407  -0.127  24.025  1.00  0.00     0.293 HD
ENDBRANCH   9  12
BRANCH   8  14
ATOM     14  O   UNL     1      -2.924  -2.115  22.267  1.00  0.00    -0.504 OA
ATOM     15  H   UNL     1      -3.225  -2.067  23.234  1.00  0.00     0.293 HD
ENDBRANCH   8  14
TORSDOF 2
ENDMDL
