MODEL 1
REMARK VINA RESULT:    -6.396      0.000      0.000
REMARK INTER + INTRA:         -10.777
REMARK INTER:                  -9.948
REMARK INTRA:                  -0.829
REMARK UNBOUND:                -0.829
REMARK SMILES COc1cc(CNC(=O)CCCCC=CC(C)C)ccc1O
REMARK SMILES IDX 11 1 12 2 13 3 14 4 15 5 16 6 17 7 18 8 10 9 8 10 9 11 7 12
REMARK SMILES IDX 6 14 5 15 4 16 19 17 3 18 20 19 21 20 2 21 1 22 22 23
REMARK H PARENT 7 13 22 24
REMARK Flexibility Score: inf
ROOT
ATOM      1  C   UNL     1       1.573  19.524 -33.353  1.00  0.00     0.010 C 
ENDROOT
BRANCH   1   2
ATOM      2  C   UNL     1       2.596  19.021 -34.391  1.00  0.00     0.005 C 
BRANCH   2   3
ATOM      3  C   UNL     1       3.995  18.759 -33.801  1.00  0.00     0.027 C 
BRANCH   3   4
ATOM      4  C   UNL     1       3.930  18.267 -32.375  1.00  0.00    -0.031 C 
ATOM      5  C   UNL     1       4.013  16.980 -31.983  1.00  0.00    -0.028 C 
BRANCH   5   6
ATOM      6  C   UNL     1       4.098  15.744 -32.863  1.00  0.00     0.005 C 
ATOM      7  C   UNL     1       4.825  14.589 -32.164  1.00  0.00     0.012 C 
ATOM      8  C   UNL     1       2.751  15.309 -33.454  1.00  0.00     0.012 C 
ENDBRANCH   5   6
ENDBRANCH   3   4
ENDBRANCH   2   3
ENDBRANCH   1   2
BRANCH   1   9
ATOM      9  C   UNL     1       0.143  19.687 -33.893  1.00  0.00     0.100 C 
BRANCH   9  10
ATOM     10  C   UNL     1      -0.607  18.386 -33.953  1.00  0.00     0.220 C 
ATOM     11  O   UNL     1      -0.363  17.486 -33.103  1.00  0.00    -0.275 OA
ATOM     12  N   UNL     1      -1.628  18.188 -34.941  1.00  0.00    -0.352 N 
ATOM     13  H   UNL     1      -1.837  18.952 -35.622  1.00  0.00     0.163 HD
BRANCH  12  14
ATOM     14  C   UNL     1      -2.378  16.939 -35.054  1.00  0.00     0.151 C 
BRANCH  14  15
ATOM     15  C   UNL     1      -3.463  17.074 -36.087  1.00  0.00    -0.025 A 
ATOM     16  C   UNL     1      -4.811  17.023 -35.698  1.00  0.00     0.056 A 
ATOM     17  C   UNL     1      -3.143  17.225 -37.444  1.00  0.00     0.009 A 
ATOM     18  C   UNL     1      -5.838  17.129 -36.658  1.00  0.00     0.160 A 
ATOM     19  C   UNL     1      -4.156  17.330 -38.399  1.00  0.00     0.050 A 
ATOM     20  C   UNL     1      -5.502  17.284 -38.010  1.00  0.00     0.157 A 
BRANCH  18  21
ATOM     21  O   UNL     1      -7.197  17.083 -36.307  1.00  0.00    -0.493 OA
ATOM     22  C   UNL     1      -7.978  18.223 -35.962  1.00  0.00     0.278 C 
ENDBRANCH  18  21
BRANCH  20  23
ATOM     23  O   UNL     1      -6.512  17.390 -38.964  1.00  0.00    -0.504 OA
ATOM     24  H   UNL     1      -7.435  17.004 -38.804  1.00  0.00     0.293 HD
ENDBRANCH  20  23
ENDBRANCH  14  15
ENDBRANCH  12  14
ENDBRANCH   9  10
ENDBRANCH   1   9
TORSDOF 10
ENDMDL
MODEL 2
REMARK VINA RESULT:    -6.338      2.224      2.775
REMARK INTER + INTRA:         -10.687
REMARK INTER:                  -9.904
REMARK INTRA:                  -0.783
REMARK UNBOUND:                -0.829
REMARK SMILES COc1cc(CNC(=O)CCCCC=CC(C)C)ccc1O
REMARK SMILES IDX 11 1 12 2 13 3 14 4 15 5 16 6 17 7 18 8 10 9 8 10 9 11 7 12
REMARK SMILES IDX 6 14 5 15 4 16 19 17 3 18 20 19 21 20 2 21 1 22 22 23
REMARK H PARENT 7 13 22 24
REMARK Flexibility Score: inf
ROOT
ATOM      1  C   UNL     1       1.592  15.965 -33.579  1.00  0.00     0.010 C 
ENDROOT
BRANCH   1   2
ATOM      2  C   UNL     1       3.014  16.017 -32.983  1.00  0.00     0.005 C 
BRANCH   2   3
ATOM      3  C   UNL     1       3.066  16.627 -31.569  1.00  0.00     0.027 C 
BRANCH   3   4
ATOM      4  C   UNL     1       3.505  15.624 -30.530  1.00  0.00    -0.031 C 
ATOM      5  C   UNL     1       2.753  15.174 -29.504  1.00  0.00    -0.028 C 
BRANCH   5   6
ATOM      6  C   UNL     1       1.357  15.626 -29.108  1.00  0.00     0.005 C 
ATOM      7  C   UNL     1       0.271  14.920 -29.927  1.00  0.00     0.012 C 
ATOM      8  C   UNL     1       1.086  15.553 -27.600  1.00  0.00     0.012 C 
ENDBRANCH   5   6
ENDBRANCH   3   4
ENDBRANCH   2   3
ENDBRANCH   1   2
BRANCH   1   9
ATOM      9  C   UNL     1       1.232  17.162 -34.474  1.00  0.00     0.100 C 
BRANCH   9  10
ATOM     10  C   UNL     1      -0.160  17.673 -34.227  1.00  0.00     0.220 C 
ATOM     11  O   UNL     1      -0.324  18.835 -33.763  1.00  0.00    -0.275 OA
ATOM     12  N   UNL     1      -1.296  16.864 -34.564  1.00  0.00    -0.352 N 
ATOM     13  H   UNL     1      -1.145  15.915 -34.973  1.00  0.00     0.163 HD
BRANCH  12  14
ATOM     14  C   UNL     1      -2.669  17.306 -34.333  1.00  0.00     0.151 C 
BRANCH  14  15
ATOM     15  C   UNL     1      -3.566  16.818 -35.437  1.00  0.00    -0.025 A 
ATOM     16  C   UNL     1      -4.888  17.284 -35.525  1.00  0.00     0.056 A 
ATOM     17  C   UNL     1      -3.105  15.877 -36.369  1.00  0.00     0.009 A 
ATOM     18  C   UNL     1      -5.745  16.821 -36.543  1.00  0.00     0.160 A 
ATOM     19  C   UNL     1      -3.950  15.414 -37.379  1.00  0.00     0.050 A 
ATOM     20  C   UNL     1      -5.268  15.884 -37.470  1.00  0.00     0.157 A 
BRANCH  18  21
ATOM     21  O   UNL     1      -7.071  17.265 -36.663  1.00  0.00    -0.493 OA
ATOM     22  C   UNL     1      -7.714  18.143 -35.744  1.00  0.00     0.278 C 
ENDBRANCH  18  21
BRANCH  20  23
ATOM     23  O   UNL     1      -6.110  15.421 -38.479  1.00  0.00    -0.504 OA
ATOM     24  H   UNL     1      -6.393  16.017 -39.247  1.00  0.00     0.293 HD
ENDBRANCH  20  23
ENDBRANCH  14  15
ENDBRANCH  12  14
ENDBRANCH   9  10
ENDBRANCH   1   9
TORSDOF 10
ENDMDL
MODEL 3
REMARK VINA RESULT:    -6.336      2.454      4.132
REMARK INTER + INTRA:         -10.684
REMARK INTER:                  -9.710
REMARK INTRA:                  -0.974
REMARK UNBOUND:                -0.829
REMARK SMILES COc1cc(CNC(=O)CCCCC=CC(C)C)ccc1O
REMARK SMILES IDX 11 1 12 2 13 3 14 4 15 5 16 6 17 7 18 8 10 9 8 10 9 11 7 12
REMARK SMILES IDX 6 14 5 15 4 16 19 17 3 18 20 19 21 20 2 21 1 22 22 23
REMARK H PARENT 7 13 22 24
REMARK Flexibility Score: inf
ROOT
ATOM      1  C   UNL     1       0.607  20.367 -34.202  1.00  0.00     0.010 C 
ENDROOT
BRANCH   1   2
ATOM      2  C   UNL     1      -0.387  21.096 -35.129  1.00  0.00     0.005 C 
BRANCH   2   3
ATOM      3  C   UNL     1       0.127  22.457 -35.635  1.00  0.00     0.027 C 
BRANCH   3   4
ATOM      4  C   UNL     1       0.253  22.496 -37.139  1.00  0.00    -0.031 C 
ATOM      5  C   UNL     1       1.384  22.276 -37.839  1.00  0.00    -0.028 C 
BRANCH   5   6
ATOM      6  C   UNL     1       2.781  22.031 -37.294  1.00  0.00     0.005 C 
ATOM      7  C   UNL     1       3.070  20.538 -37.103  1.00  0.00     0.012 C 
ATOM      8  C   UNL     1       3.888  22.740 -38.085  1.00  0.00     0.012 C 
ENDBRANCH   5   6
ENDBRANCH   3   4
ENDBRANCH   2   3
ENDBRANCH   1   2
BRANCH   1   9
ATOM      9  C   UNL     1       0.873  18.901 -34.577  1.00  0.00     0.100 C 
BRANCH   9  10
ATOM     10  C   UNL     1      -0.282  17.998 -34.243  1.00  0.00     0.220 C 
ATOM     11  O   UNL     1      -0.295  17.384 -33.141  1.00  0.00    -0.275 OA
ATOM     12  N   UNL     1      -1.385  17.872 -35.152  1.00  0.00    -0.352 N 
ATOM     13  H   UNL     1      -1.372  18.407 -36.049  1.00  0.00     0.163 HD
BRANCH  12  14
ATOM     14  C   UNL     1      -2.525  16.998 -34.885  1.00  0.00     0.151 C 
BRANCH  14  15
ATOM     15  C   UNL     1      -3.549  17.130 -35.979  1.00  0.00    -0.025 A 
ATOM     16  C   UNL     1      -4.917  17.105 -35.666  1.00  0.00     0.056 A 
ATOM     17  C   UNL     1      -3.152  17.248 -37.319  1.00  0.00     0.009 A 
ATOM     18  C   UNL     1      -5.887  17.207 -36.683  1.00  0.00     0.160 A 
ATOM     19  C   UNL     1      -4.108  17.350 -38.330  1.00  0.00     0.050 A 
ATOM     20  C   UNL     1      -5.474  17.331 -38.017  1.00  0.00     0.157 A 
BRANCH  18  21
ATOM     21  O   UNL     1      -7.264  17.189 -36.408  1.00  0.00    -0.493 OA
ATOM     22  C   UNL     1      -8.004  18.305 -35.925  1.00  0.00     0.278 C 
ENDBRANCH  18  21
BRANCH  20  23
ATOM     23  O   UNL     1      -6.428  17.432 -39.028  1.00  0.00    -0.504 OA
ATOM     24  H   UNL     1      -6.740  16.620 -39.546  1.00  0.00     0.293 HD
ENDBRANCH  20  23
ENDBRANCH  14  15
ENDBRANCH  12  14
ENDBRANCH   9  10
ENDBRANCH   1   9
TORSDOF 10
ENDMDL
MODEL 4
REMARK VINA RESULT:    -6.235      1.946      3.903
REMARK INTER + INTRA:         -10.526
REMARK INTER:                  -9.468
REMARK INTRA:                  -1.058
REMARK UNBOUND:                -0.829
REMARK SMILES COc1cc(CNC(=O)CCCCC=CC(C)C)ccc1O
REMARK SMILES IDX 11 1 12 2 13 3 14 4 15 5 16 6 17 7 18 8 10 9 8 10 9 11 7 12
REMARK SMILES IDX 6 14 5 15 4 16 19 17 3 18 20 19 21 20 2 21 1 22 22 23
REMARK H PARENT 7 13 22 24
REMARK Flexibility Score: inf
ROOT
ATOM      1  C   UNL     1       1.651  19.215 -33.556  1.00  0.00     0.010 C 
ENDROOT
BRANCH   1   2
ATOM      2  C   UNL     1       2.333  18.580 -34.785  1.00  0.00     0.005 C 
BRANCH   2   3
ATOM      3  C   UNL     1       2.810  19.611 -35.826  1.00  0.00     0.027 C 
BRANCH   3   4
ATOM      4  C   UNL     1       1.909  19.660 -37.036  1.00  0.00    -0.031 C 
ATOM      5  C   UNL     1       1.248  20.747 -37.482  1.00  0.00    -0.028 C 
BRANCH   5   6
ATOM      6  C   UNL     1       1.182  22.122 -36.838  1.00  0.00     0.005 C 
ATOM      7  C   UNL     1       1.499  23.241 -37.838  1.00  0.00     0.012 C 
ATOM      8  C   UNL     1      -0.117  22.385 -36.065  1.00  0.00     0.012 C 
ENDBRANCH   5   6
ENDBRANCH   3   4
ENDBRANCH   2   3
ENDBRANCH   1   2
BRANCH   1   9
ATOM      9  C   UNL     1       0.143  19.463 -33.721  1.00  0.00     0.100 C 
BRANCH   9  10
ATOM     10  C   UNL     1      -0.647  18.189 -33.831  1.00  0.00     0.220 C 
ATOM     11  O   UNL     1      -0.421  17.245 -33.025  1.00  0.00    -0.275 OA
ATOM     12  N   UNL     1      -1.683  18.066 -34.814  1.00  0.00    -0.352 N 
ATOM     13  H   UNL     1      -1.876  18.866 -35.457  1.00  0.00     0.163 HD
BRANCH  12  14
ATOM     14  C   UNL     1      -2.471  16.846 -34.974  1.00  0.00     0.151 C 
BRANCH  14  15
ATOM     15  C   UNL     1      -3.524  17.040 -36.032  1.00  0.00    -0.025 A 
ATOM     16  C   UNL     1      -4.882  17.020 -35.681  1.00  0.00     0.056 A 
ATOM     17  C   UNL     1      -3.162  17.214 -37.376  1.00  0.00     0.009 A 
ATOM     18  C   UNL     1      -5.879  17.182 -36.664  1.00  0.00     0.160 A 
ATOM     19  C   UNL     1      -4.145  17.374 -38.354  1.00  0.00     0.050 A 
ATOM     20  C   UNL     1      -5.501  17.360 -38.003  1.00  0.00     0.157 A 
BRANCH  18  21
ATOM     21  O   UNL     1      -7.248  17.169 -36.352  1.00  0.00    -0.493 OA
ATOM     22  C   UNL     1      -7.994  18.315 -35.953  1.00  0.00     0.278 C 
ENDBRANCH  18  21
BRANCH  20  23
ATOM     23  O   UNL     1      -6.481  17.520 -38.980  1.00  0.00    -0.504 OA
ATOM     24  H   UNL     1      -6.897  16.725 -39.450  1.00  0.00     0.293 HD
ENDBRANCH  20  23
ENDBRANCH  14  15
ENDBRANCH  12  14
ENDBRANCH   9  10
ENDBRANCH   1   9
TORSDOF 10
ENDMDL
MODEL 5
REMARK VINA RESULT:    -5.970      2.028      3.360
REMARK INTER + INTRA:         -10.114
REMARK INTER:                  -9.241
REMARK INTRA:                  -0.873
REMARK UNBOUND:                -0.829
REMARK SMILES COc1cc(CNC(=O)CCCCC=CC(C)C)ccc1O
REMARK SMILES IDX 11 1 12 2 13 3 14 4 15 5 16 6 17 7 18 8 10 9 8 10 9 11 7 12
REMARK SMILES IDX 6 14 5 15 4 16 19 17 3 18 20 19 21 20 2 21 1 22 22 23
REMARK H PARENT 7 13 22 24
REMARK Flexibility Score: inf
ROOT
ATOM      1  C   UNL     1       0.988  19.668 -33.143  1.00  0.00     0.010 C 
ENDROOT
BRANCH   1   2
ATOM      2  C   UNL     1       2.382  19.113 -33.497  1.00  0.00     0.005 C 
BRANCH   2   3
ATOM      3  C   UNL     1       2.471  18.537 -34.924  1.00  0.00     0.027 C 
BRANCH   3   4
ATOM      4  C   UNL     1       3.676  19.052 -35.673  1.00  0.00    -0.031 C 
ATOM      5  C   UNL     1       3.688  20.103 -36.517  1.00  0.00    -0.028 C 
BRANCH   5   6
ATOM      6  C   UNL     1       2.505  20.941 -36.973  1.00  0.00     0.005 C 
ATOM      7  C   UNL     1       2.946  22.282 -37.571  1.00  0.00     0.012 C 
ATOM      8  C   UNL     1       1.528  20.191 -37.887  1.00  0.00     0.012 C 
ENDBRANCH   5   6
ENDBRANCH   3   4
ENDBRANCH   2   3
ENDBRANCH   1   2
BRANCH   1   9
ATOM      9  C   UNL     1      -0.082  19.444 -34.223  1.00  0.00     0.100 C 
BRANCH   9  10
ATOM     10  C   UNL     1      -0.950  18.248 -33.943  1.00  0.00     0.220 C 
ATOM     11  O   UNL     1      -0.453  17.237 -33.376  1.00  0.00    -0.275 OA
ATOM     12  N   UNL     1      -2.345  18.277 -34.274  1.00  0.00    -0.352 N 
ATOM     13  H   UNL     1      -2.748  19.131 -34.720  1.00  0.00     0.163 HD
BRANCH  12  14
ATOM     14  C   UNL     1      -3.230  17.139 -34.037  1.00  0.00     0.151 C 
BRANCH  14  15
ATOM     15  C   UNL     1      -3.952  16.767 -35.304  1.00  0.00    -0.025 A 
ATOM     16  C   UNL     1      -5.206  17.332 -35.587  1.00  0.00     0.056 A 
ATOM     17  C   UNL     1      -3.397  15.838 -36.196  1.00  0.00     0.009 A 
ATOM     18  C   UNL     1      -5.902  16.978 -36.761  1.00  0.00     0.160 A 
ATOM     19  C   UNL     1      -4.083  15.484 -37.359  1.00  0.00     0.050 A 
ATOM     20  C   UNL     1      -5.332  16.051 -37.645  1.00  0.00     0.157 A 
BRANCH  18  21
ATOM     21  O   UNL     1      -7.156  17.522 -37.079  1.00  0.00    -0.493 OA
ATOM     22  C   UNL     1      -8.009  18.180 -36.147  1.00  0.00     0.278 C 
ENDBRANCH  18  21
BRANCH  20  23
ATOM     23  O   UNL     1      -6.014  15.697 -38.807  1.00  0.00    -0.504 OA
ATOM     24  H   UNL     1      -5.995  14.750 -39.166  1.00  0.00     0.293 HD
ENDBRANCH  20  23
ENDBRANCH  14  15
ENDBRANCH  12  14
ENDBRANCH   9  10
ENDBRANCH   1   9
TORSDOF 10
ENDMDL
MODEL 6
REMARK VINA RESULT:    -5.900      1.169      2.100
REMARK INTER + INTRA:         -10.006
REMARK INTER:                  -9.348
REMARK INTRA:                  -0.657
REMARK UNBOUND:                -0.829
REMARK SMILES COc1cc(CNC(=O)CCCCC=CC(C)C)ccc1O
REMARK SMILES IDX 11 1 12 2 13 3 14 4 15 5 16 6 17 7 18 8 10 9 8 10 9 11 7 12
REMARK SMILES IDX 6 14 5 15 4 16 19 17 3 18 20 19 21 20 2 21 1 22 22 23
REMARK H PARENT 7 13 22 24
REMARK Flexibility Score: inf
ROOT
ATOM      1  C   UNL     1       1.112  19.432 -33.286  1.00  0.00     0.010 C 
ENDROOT
BRANCH   1   2
ATOM      2  C   UNL     1       2.544  19.119 -33.767  1.00  0.00     0.005 C 
BRANCH   2   3
ATOM      3  C   UNL     1       3.507  18.736 -32.627  1.00  0.00     0.027 C 
BRANCH   3   4
ATOM      4  C   UNL     1       4.781  18.110 -33.141  1.00  0.00    -0.031 C 
ATOM      5  C   UNL     1       5.063  16.792 -33.147  1.00  0.00    -0.028 C 
BRANCH   5   6
ATOM      6  C   UNL     1       4.227  15.661 -32.571  1.00  0.00     0.005 C 
ATOM      7  C   UNL     1       3.051  15.293 -33.483  1.00  0.00     0.012 C 
ATOM      8  C   UNL     1       5.047  14.432 -32.157  1.00  0.00     0.012 C 
ENDBRANCH   5   6
ENDBRANCH   3   4
ENDBRANCH   2   3
ENDBRANCH   1   2
BRANCH   1   9
ATOM      9  C   UNL     1       0.034  19.320 -34.376  1.00  0.00     0.100 C 
BRANCH   9  10
ATOM     10  C   UNL     1      -0.726  18.025 -34.311  1.00  0.00     0.220 C 
ATOM     11  O   UNL     1      -0.097  16.940 -34.169  1.00  0.00    -0.275 OA
ATOM     12  N   UNL     1      -2.159  18.026 -34.360  1.00  0.00    -0.352 N 
ATOM     13  H   UNL     1      -2.667  18.935 -34.451  1.00  0.00     0.163 HD
BRANCH  12  14
ATOM     14  C   UNL     1      -2.946  16.796 -34.315  1.00  0.00     0.151 C 
BRANCH  14  15
ATOM     15  C   UNL     1      -4.229  16.970 -35.082  1.00  0.00    -0.025 A 
ATOM     16  C   UNL     1      -4.428  16.270 -36.282  1.00  0.00     0.056 A 
ATOM     17  C   UNL     1      -5.221  17.850 -34.625  1.00  0.00     0.009 A 
ATOM     18  C   UNL     1      -5.617  16.438 -37.021  1.00  0.00     0.160 A 
ATOM     19  C   UNL     1      -6.400  18.020 -35.353  1.00  0.00     0.050 A 
ATOM     20  C   UNL     1      -6.601  17.317 -36.549  1.00  0.00     0.157 A 
BRANCH  18  21
ATOM     21  O   UNL     1      -5.853  15.754 -38.224  1.00  0.00    -0.493 OA
ATOM     22  C   UNL     1      -4.833  15.332 -39.125  1.00  0.00     0.278 C 
ENDBRANCH  18  21
BRANCH  20  23
ATOM     23  O   UNL     1      -7.778  17.489 -37.274  1.00  0.00    -0.504 OA
ATOM     24  H   UNL     1      -8.100  16.792 -37.935  1.00  0.00     0.293 HD
ENDBRANCH  20  23
ENDBRANCH  14  15
ENDBRANCH  12  14
ENDBRANCH   9  10
ENDBRANCH   1   9
TORSDOF 10
ENDMDL
MODEL 7
REMARK VINA RESULT:    -5.816      1.776      2.771
REMARK INTER + INTRA:          -9.875
REMARK INTER:                  -8.762
REMARK INTRA:                  -1.114
REMARK UNBOUND:                -0.829
REMARK SMILES COc1cc(CNC(=O)CCCCC=CC(C)C)ccc1O
REMARK SMILES IDX 11 1 12 2 13 3 14 4 15 5 16 6 17 7 18 8 10 9 8 10 9 11 7 12
REMARK SMILES IDX 6 14 5 15 4 16 19 17 3 18 20 19 21 20 2 21 1 22 22 23
REMARK H PARENT 7 13 22 24
REMARK Flexibility Score: inf
ROOT
ATOM      1  C   UNL     1       0.133  20.489 -35.849  1.00  0.00     0.010 C 
ENDROOT
BRANCH   1   2
ATOM      2  C   UNL     1       1.258  21.429 -36.329  1.00  0.00     0.005 C 
BRANCH   2   3
ATOM      3  C   UNL     1       2.083  20.856 -37.497  1.00  0.00     0.027 C 
BRANCH   3   4
ATOM      4  C   UNL     1       3.568  20.920 -37.233  1.00  0.00    -0.031 C 
ATOM      5  C   UNL     1       4.298  19.972 -36.612  1.00  0.00    -0.028 C 
BRANCH   5   6
ATOM      6  C   UNL     1       3.800  18.690 -35.967  1.00  0.00     0.005 C 
ATOM      7  C   UNL     1       4.266  17.444 -36.729  1.00  0.00     0.012 C 
ATOM      8  C   UNL     1       4.094  18.595 -34.464  1.00  0.00     0.012 C 
ENDBRANCH   5   6
ENDBRANCH   3   4
ENDBRANCH   2   3
ENDBRANCH   1   2
BRANCH   1   9
ATOM      9  C   UNL     1       0.525  19.569 -34.681  1.00  0.00     0.100 C 
BRANCH   9  10
ATOM     10  C   UNL     1      -0.213  18.260 -34.701  1.00  0.00     0.220 C 
ATOM     11  O   UNL     1       0.402  17.194 -34.424  1.00  0.00    -0.275 OA
ATOM     12  N   UNL     1      -1.619  18.229 -34.985  1.00  0.00    -0.352 N 
ATOM     13  H   UNL     1      -2.120  19.123 -35.187  1.00  0.00     0.163 HD
BRANCH  12  14
ATOM     14  C   UNL     1      -2.382  16.983 -35.031  1.00  0.00     0.151 C 
BRANCH  14  15
ATOM     15  C   UNL     1      -3.435  17.057 -36.102  1.00  0.00    -0.025 A 
ATOM     16  C   UNL     1      -4.794  17.030 -35.752  1.00  0.00     0.056 A 
ATOM     17  C   UNL     1      -3.074  17.125 -37.456  1.00  0.00     0.009 A 
ATOM     18  C   UNL     1      -5.792  17.079 -36.747  1.00  0.00     0.160 A 
ATOM     19  C   UNL     1      -4.058  17.174 -38.445  1.00  0.00     0.050 A 
ATOM     20  C   UNL     1      -5.414  17.152 -38.095  1.00  0.00     0.157 A 
BRANCH  18  21
ATOM     21  O   UNL     1      -7.160  17.055 -36.436  1.00  0.00    -0.493 OA
ATOM     22  C   UNL     1      -7.895  18.174 -35.947  1.00  0.00     0.278 C 
ENDBRANCH  18  21
BRANCH  20  23
ATOM     23  O   UNL     1      -6.395  17.201 -39.084  1.00  0.00    -0.504 OA
ATOM     24  H   UNL     1      -7.375  17.066 -38.866  1.00  0.00     0.293 HD
ENDBRANCH  20  23
ENDBRANCH  14  15
ENDBRANCH  12  14
ENDBRANCH   9  10
ENDBRANCH   1   9
TORSDOF 10
ENDMDL
MODEL 8
REMARK VINA RESULT:    -5.804      3.129      8.939
REMARK INTER + INTRA:          -9.856
REMARK INTER:                  -9.053
REMARK INTRA:                  -0.804
REMARK UNBOUND:                -0.829
REMARK SMILES COc1cc(CNC(=O)CCCCC=CC(C)C)ccc1O
REMARK SMILES IDX 11 1 12 2 13 3 14 4 15 5 16 6 17 7 18 8 10 9 8 10 9 11 7 12
REMARK SMILES IDX 6 14 5 15 4 16 19 17 3 18 20 19 21 20 2 21 1 22 22 23
REMARK H PARENT 7 13 22 24
REMARK Flexibility Score: inf
ROOT
ATOM      1  C   UNL     1      -1.268  17.420 -34.637  1.00  0.00     0.010 C 
ENDROOT
BRANCH   1   2
ATOM      2  C   UNL     1      -2.595  17.609 -33.875  1.00  0.00     0.005 C 
BRANCH   2   3
ATOM      3  C   UNL     1      -3.761  16.787 -34.457  1.00  0.00     0.027 C 
BRANCH   3   4
ATOM      4  C   UNL     1      -3.394  16.117 -35.759  1.00  0.00    -0.031 C 
ATOM      5  C   UNL     1      -4.003  16.316 -36.945  1.00  0.00    -0.028 C 
BRANCH   5   6
ATOM      6  C   UNL     1      -5.227  17.171 -37.229  1.00  0.00     0.005 C 
ATOM      7  C   UNL     1      -5.359  17.510 -38.718  1.00  0.00     0.012 C 
ATOM      8  C   UNL     1      -6.528  16.605 -36.645  1.00  0.00     0.012 C 
ENDBRANCH   5   6
ENDBRANCH   3   4
ENDBRANCH   2   3
ENDBRANCH   1   2
BRANCH   1   9
ATOM      9  C   UNL     1      -0.487  18.719 -34.891  1.00  0.00     0.100 C 
BRANCH   9  10
ATOM     10  C   UNL     1       0.747  18.831 -34.039  1.00  0.00     0.220 C 
ATOM     11  O   UNL     1       0.637  19.131 -32.819  1.00  0.00    -0.275 OA
ATOM     12  N   UNL     1       2.037  18.551 -34.600  1.00  0.00    -0.352 N 
ATOM     13  H   UNL     1       2.110  18.279 -35.606  1.00  0.00     0.163 HD
BRANCH  12  14
ATOM     14  C   UNL     1       3.270  18.659 -33.822  1.00  0.00     0.151 C 
BRANCH  14  15
ATOM     15  C   UNL     1       3.666  17.310 -33.286  1.00  0.00    -0.025 A 
ATOM     16  C   UNL     1       3.318  16.946 -31.976  1.00  0.00     0.056 A 
ATOM     17  C   UNL     1       4.408  16.418 -34.074  1.00  0.00     0.009 A 
ATOM     18  C   UNL     1       3.699  15.694 -31.454  1.00  0.00     0.160 A 
ATOM     19  C   UNL     1       4.789  15.176 -33.562  1.00  0.00     0.050 A 
ATOM     20  C   UNL     1       4.436  14.811 -32.256  1.00  0.00     0.157 A 
BRANCH  18  21
ATOM     21  O   UNL     1       3.368  15.295 -30.149  1.00  0.00    -0.493 OA
ATOM     22  C   UNL     1       2.090  15.484 -29.549  1.00  0.00     0.278 C 
ENDBRANCH  18  21
BRANCH  20  23
ATOM     23  O   UNL     1       4.817  13.571 -31.746  1.00  0.00    -0.504 OA
ATOM     24  H   UNL     1       4.136  12.847 -31.551  1.00  0.00     0.293 HD
ENDBRANCH  20  23
ENDBRANCH  14  15
ENDBRANCH  12  14
ENDBRANCH   9  10
ENDBRANCH   1   9
TORSDOF 10
ENDMDL
MODEL 9
REMARK VINA RESULT:    -5.692      4.657      6.489
REMARK INTER + INTRA:          -9.682
REMARK INTER:                  -8.709
REMARK INTRA:                  -0.972
REMARK UNBOUND:                -0.829
REMARK SMILES COc1cc(CNC(=O)CCCCC=CC(C)C)ccc1O
REMARK SMILES IDX 11 1 12 2 13 3 14 4 15 5 16 6 17 7 18 8 10 9 8 10 9 11 7 12
REMARK SMILES IDX 6 14 5 15 4 16 19 17 3 18 20 19 21 20 2 21 1 22 22 23
REMARK H PARENT 7 13 22 24
REMARK Flexibility Score: inf
ROOT
ATOM      1  C   UNL     1       1.240  17.539 -32.759  1.00  0.00     0.010 C 
ENDROOT
BRANCH   1   2
ATOM      2  C   UNL     1       2.621  16.852 -32.764  1.00  0.00     0.005 C 
BRANCH   2   3
ATOM      3  C   UNL     1       3.415  17.058 -31.459  1.00  0.00     0.027 C 
BRANCH   3   4
ATOM      4  C   UNL     1       3.681  15.756 -30.742  1.00  0.00    -0.031 C 
ATOM      5  C   UNL     1       2.843  15.147 -29.879  1.00  0.00    -0.028 C 
BRANCH   5   6
ATOM      6  C   UNL     1       1.506  15.657 -29.367  1.00  0.00     0.005 C 
ATOM      7  C   UNL     1       0.325  15.010 -30.100  1.00  0.00     0.012 C 
ATOM      8  C   UNL     1       1.355  15.582 -27.842  1.00  0.00     0.012 C 
ENDBRANCH   5   6
ENDBRANCH   3   4
ENDBRANCH   2   3
ENDBRANCH   1   2
BRANCH   1   9
ATOM      9  C   UNL     1       1.289  19.072 -32.855  1.00  0.00     0.100 C 
BRANCH   9  10
ATOM     10  C   UNL     1       0.581  19.602 -34.070  1.00  0.00     0.220 C 
ATOM     11  O   UNL     1      -0.514  20.213 -33.937  1.00  0.00    -0.275 OA
ATOM     12  N   UNL     1       1.172  19.455 -35.369  1.00  0.00    -0.352 N 
ATOM     13  H   UNL     1       2.092  18.970 -35.461  1.00  0.00     0.163 HD
BRANCH  12  14
ATOM     14  C   UNL     1       0.521  19.938 -36.585  1.00  0.00     0.151 C 
BRANCH  14  15
ATOM     15  C   UNL     1       1.151  21.227 -37.037  1.00  0.00    -0.025 A 
ATOM     16  C   UNL     1       0.355  22.368 -37.227  1.00  0.00     0.056 A 
ATOM     17  C   UNL     1       2.528  21.297 -37.297  1.00  0.00     0.009 A 
ATOM     18  C   UNL     1       0.929  23.577 -37.669  1.00  0.00     0.160 A 
ATOM     19  C   UNL     1       3.101  22.492 -37.734  1.00  0.00     0.050 A 
ATOM     20  C   UNL     1       2.307  23.632 -37.920  1.00  0.00     0.157 A 
BRANCH  18  21
ATOM     21  O   UNL     1       0.165  24.738 -37.869  1.00  0.00    -0.493 OA
ATOM     22  C   UNL     1      -1.173  24.911 -37.413  1.00  0.00     0.278 C 
ENDBRANCH  18  21
BRANCH  20  23
ATOM     23  O   UNL     1       2.881  24.824 -38.356  1.00  0.00    -0.504 OA
ATOM     24  H   UNL     1       3.886  24.935 -38.425  1.00  0.00     0.293 HD
ENDBRANCH  20  23
ENDBRANCH  14  15
ENDBRANCH  12  14
ENDBRANCH   9  10
ENDBRANCH   1   9
TORSDOF 10
ENDMDL
