MODEL 1
REMARK VINA RESULT:    -5.730      0.000      0.000
REMARK INTER + INTRA:          -9.769
REMARK INTER:                  -8.075
REMARK INTRA:                  -1.694
REMARK UNBOUND:                -1.694
REMARK SMILES COc1c(O[C@H]2O[C@@H](C(=O)[O-])[C@H](O)[C@@H](O)[C@H]2O)cc(O)c2c(=O)cc(-c3ccccc3)oc12
REMARK SMILES IDX 5 1 6 2 8 3 12 4 7 5 14 6 16 7 9 8 10 9 11 10 13 11 15 13
REMARK SMILES IDX 17 15 4 17 3 18 18 19 33 20 19 21 21 22 32 23 22 24 25 25
REMARK SMILES IDX 24 26 23 27 2 28 1 29 20 30 26 32 27 33 31 34 28 35 30 36
REMARK SMILES IDX 29 37
REMARK H PARENT 13 12 15 14 17 16 20 31
REMARK Flexibility Score: inf
ROOT
ATOM      1  O   UNL     1     187.288 191.812 207.430  1.00  0.00    -0.458 OA
ENDROOT
BRANCH   1   2
ATOM      2  C   UNL     1     186.182 192.641 207.056  1.00  0.00     0.339 C 
ATOM      3  C   UNL     1     185.562 191.556 205.016  1.00  0.00     0.199 C 
ATOM      4  C   UNL     1     184.220 191.056 205.606  1.00  0.00     0.180 C 
ATOM      5  O   UNL     1     186.040 192.740 205.643  1.00  0.00    -0.328 OA
ATOM      6  C   UNL     1     184.258 190.950 207.143  1.00  0.00     0.181 C 
ATOM      7  C   UNL     1     184.882 192.209 207.767  1.00  0.00     0.214 C 
BRANCH   3   8
ATOM      8  C   UNL     1     186.637 190.504 204.867  1.00  0.00     0.073 C 
ATOM      9  O   UNL     1     187.747 190.811 204.360  1.00  0.00    -0.547 OA
ATOM     10  O   UNL     1     186.373 189.169 205.153  1.00  0.00    -0.547 OA
ENDBRANCH   3   8
BRANCH   4  11
ATOM     11  O   UNL     1     183.209 191.959 205.228  1.00  0.00    -0.387 OA
ATOM     12  H   UNL     1     183.428 192.833 205.644  1.00  0.00     0.211 HD
ENDBRANCH   4  11
BRANCH   6  13
ATOM     13  O   UNL     1     184.885 189.767 207.574  1.00  0.00    -0.387 OA
ATOM     14  H   UNL     1     185.103 189.226 206.778  1.00  0.00     0.211 HD
ENDBRANCH   6  13
BRANCH   7  15
ATOM     15  O   UNL     1     185.115 191.995 209.135  1.00  0.00    -0.384 OA
ATOM     16  H   UNL     1     185.528 192.826 209.488  1.00  0.00     0.211 HD
ENDBRANCH   7  15
ENDBRANCH   1   2
BRANCH   1  17
ATOM     17  C   UNL     1     188.413 192.242 208.159  1.00  0.00     0.172 A 
ATOM     18  C   UNL     1     188.667 191.705 209.439  1.00  0.00     0.205 A 
ATOM     19  C   UNL     1     189.320 193.170 207.619  1.00  0.00     0.097 A 
ATOM     20  C   UNL     1     189.845 192.046 210.118  1.00  0.00     0.188 A 
ATOM     21  C   UNL     1     190.497 193.521 208.284  1.00  0.00     0.134 A 
ATOM     22  C   UNL     1     190.769 192.974 209.570  1.00  0.00     0.111 A 
ATOM     23  O   UNL     1     190.069 191.492 211.306  1.00  0.00    -0.452 OA
ATOM     24  C   UNL     1     191.888 193.313 210.369  1.00  0.00     0.197 A 
ATOM     25  C   UNL     1     191.128 191.764 212.060  1.00  0.00     0.138 A 
ATOM     26  C   UNL     1     192.073 192.692 211.604  1.00  0.00     0.100 A 
ATOM     27  O   UNL     1     192.725 194.183 210.014  1.00  0.00    -0.289 OA
BRANCH  18  28
ATOM     28  O   UNL     1     187.777 190.838 210.097  1.00  0.00    -0.490 OA
ATOM     29  C   UNL     1     187.671 189.438 209.866  1.00  0.00     0.278 C 
ENDBRANCH  18  28
BRANCH  21  30
ATOM     30  O   UNL     1     191.357 194.389 207.602  1.00  0.00    -0.507 OA
ATOM     31  H   UNL     1     191.462 195.373 207.792  1.00  0.00     0.293 HD
ENDBRANCH  21  30
BRANCH  25  32
ATOM     32  C   UNL     1     191.275 191.068 213.363  1.00  0.00     0.017 A 
ATOM     33  C   UNL     1     190.189 190.421 213.986  1.00  0.00     0.012 A 
ATOM     34  C   UNL     1     192.537 191.024 213.984  1.00  0.00     0.012 A 
ATOM     35  C   UNL     1     190.362 189.770 215.213  1.00  0.00     0.001 A 
ATOM     36  C   UNL     1     192.704 190.371 215.209  1.00  0.00     0.001 A 
ATOM     37  C   UNL     1     191.617 189.748 215.825  1.00  0.00     0.000 A 
ENDBRANCH  25  32
ENDBRANCH   1  17
TORSDOF 9
ENDMDL
MODEL 2
REMARK VINA RESULT:    -5.687      3.421      5.790
REMARK INTER + INTRA:          -9.708
REMARK INTER:                  -8.408
REMARK INTRA:                  -1.300
REMARK UNBOUND:                -1.694
REMARK SMILES COc1c(O[C@H]2O[C@@H](C(=O)[O-])[C@H](O)[C@@H](O)[C@H]2O)cc(O)c2c(=O)cc(-c3ccccc3)oc12
REMARK SMILES IDX 5 1 6 2 8 3 12 4 7 5 14 6 16 7 9 8 10 9 11 10 13 11 15 13
REMARK SMILES IDX 17 15 4 17 3 18 18 19 33 20 19 21 21 22 32 23 22 24 25 25
REMARK SMILES IDX 24 26 23 27 2 28 1 29 20 30 26 32 27 33 31 34 28 35 30 36
REMARK SMILES IDX 29 37
REMARK H PARENT 13 12 15 14 17 16 20 31
REMARK Flexibility Score: inf
ROOT
ATOM      1  O   UNL     1     190.417 191.998 210.256  1.00  0.00    -0.458 OA
ENDROOT
BRANCH   1   2
ATOM      2  C   UNL     1     189.428 191.516 209.339  1.00  0.00     0.339 C 
ATOM      3  C   UNL     1     188.912 189.430 210.392  1.00  0.00     0.199 C 
ATOM      4  C   UNL     1     187.481 189.891 210.766  1.00  0.00     0.180 C 
ATOM      5  O   UNL     1     189.430 190.096 209.246  1.00  0.00    -0.328 OA
ATOM      6  C   UNL     1     187.363 191.425 210.855  1.00  0.00     0.181 C 
ATOM      7  C   UNL     1     188.033 192.101 209.647  1.00  0.00     0.214 C 
BRANCH   3   8
ATOM      8  C   UNL     1     189.900 189.391 211.536  1.00  0.00     0.073 C 
ATOM      9  O   UNL     1     189.591 189.896 212.646  1.00  0.00    -0.547 OA
ATOM     10  O   UNL     1     191.197 188.930 211.342  1.00  0.00    -0.547 OA
ENDBRANCH   3   8
BRANCH   4  11
ATOM     11  O   UNL     1     186.593 189.415 209.784  1.00  0.00    -0.387 OA
ATOM     12  H   UNL     1     185.674 189.622 210.095  1.00  0.00     0.211 HD
ENDBRANCH   4  11
BRANCH   6  13
ATOM     13  O   UNL     1     187.841 191.920 212.082  1.00  0.00    -0.387 OA
ATOM     14  H   UNL     1     188.764 191.597 212.205  1.00  0.00     0.211 HD
ENDBRANCH   6  13
BRANCH   7  15
ATOM     15  O   UNL     1     188.116 193.486 209.863  1.00  0.00    -0.384 OA
ATOM     16  H   UNL     1     187.309 193.743 210.379  1.00  0.00     0.211 HD
ENDBRANCH   7  15
ENDBRANCH   1   2
BRANCH   1  17
ATOM     17  C   UNL     1     191.371 192.993 209.970  1.00  0.00     0.172 A 
ATOM     18  C   UNL     1     192.251 193.433 210.981  1.00  0.00     0.205 A 
ATOM     19  C   UNL     1     191.496 193.532 208.678  1.00  0.00     0.097 A 
ATOM     20  C   UNL     1     193.274 194.339 210.671  1.00  0.00     0.188 A 
ATOM     21  C   UNL     1     192.509 194.437 208.354  1.00  0.00     0.134 A 
ATOM     22  C   UNL     1     193.410 194.876 209.364  1.00  0.00     0.111 A 
ATOM     23  O   UNL     1     194.107 194.703 211.642  1.00  0.00    -0.452 OA
ATOM     24  C   UNL     1     194.425 195.845 209.172  1.00  0.00     0.197 A 
ATOM     25  C   UNL     1     195.090 195.581 211.480  1.00  0.00     0.138 A 
ATOM     26  C   UNL     1     195.274 196.180 210.227  1.00  0.00     0.100 A 
ATOM     27  O   UNL     1     194.582 196.442 208.076  1.00  0.00    -0.289 OA
BRANCH  18  28
ATOM     28  O   UNL     1     192.148 193.017 212.321  1.00  0.00    -0.490 OA
ATOM     29  C   UNL     1     192.708 191.822 212.856  1.00  0.00     0.278 C 
ENDBRANCH  18  28
BRANCH  21  30
ATOM     30  O   UNL     1     192.579 194.834 207.014  1.00  0.00    -0.507 OA
ATOM     31  H   UNL     1     193.099 195.623 206.666  1.00  0.00     0.293 HD
ENDBRANCH  21  30
BRANCH  25  32
ATOM     32  C   UNL     1     195.966 195.894 212.637  1.00  0.00     0.017 A 
ATOM     33  C   UNL     1     196.676 197.109 212.723  1.00  0.00     0.012 A 
ATOM     34  C   UNL     1     196.074 194.970 213.692  1.00  0.00     0.012 A 
ATOM     35  C   UNL     1     197.491 197.375 213.829  1.00  0.00     0.001 A 
ATOM     36  C   UNL     1     196.889 195.242 214.795  1.00  0.00     0.001 A 
ATOM     37  C   UNL     1     197.600 196.441 214.862  1.00  0.00     0.000 A 
ENDBRANCH  25  32
ENDBRANCH   1  17
TORSDOF 9
ENDMDL
MODEL 3
REMARK VINA RESULT:    -5.626      2.660      3.959
REMARK INTER + INTRA:          -9.623
REMARK INTER:                  -7.912
REMARK INTRA:                  -1.710
REMARK UNBOUND:                -1.694
REMARK SMILES COc1c(O[C@H]2O[C@@H](C(=O)[O-])[C@H](O)[C@@H](O)[C@H]2O)cc(O)c2c(=O)cc(-c3ccccc3)oc12
REMARK SMILES IDX 5 1 6 2 8 3 12 4 7 5 14 6 16 7 9 8 10 9 11 10 13 11 15 13
REMARK SMILES IDX 17 15 4 17 3 18 18 19 33 20 19 21 21 22 32 23 22 24 25 25
REMARK SMILES IDX 24 26 23 27 2 28 1 29 20 30 26 32 27 33 31 34 28 35 30 36
REMARK SMILES IDX 29 37
REMARK H PARENT 13 12 15 14 17 16 20 31
REMARK Flexibility Score: inf
ROOT
ATOM      1  O   UNL     1     189.592 192.202 209.317  1.00  0.00    -0.458 OA
ENDROOT
BRANCH   1   2
ATOM      2  C   UNL     1     188.214 192.588 209.357  1.00  0.00     0.339 C 
ATOM      3  C   UNL     1     187.360 191.138 207.656  1.00  0.00     0.199 C 
ATOM      4  C   UNL     1     186.540 190.307 208.674  1.00  0.00     0.180 C 
ATOM      5  O   UNL     1     187.589 192.475 208.083  1.00  0.00    -0.328 OA
ATOM      6  C   UNL     1     187.117 190.394 210.101  1.00  0.00     0.181 C 
ATOM      7  C   UNL     1     187.448 191.848 210.474  1.00  0.00     0.214 C 
BRANCH   3   8
ATOM      8  C   UNL     1     188.614 190.473 207.136  1.00  0.00     0.073 C 
ATOM      9  O   UNL     1     189.326 191.061 206.281  1.00  0.00    -0.547 OA
ATOM     10  O   UNL     1     188.922 189.161 207.482  1.00  0.00    -0.547 OA
ENDBRANCH   3   8
BRANCH   4  11
ATOM     11  O   UNL     1     185.220 190.792 208.678  1.00  0.00    -0.387 OA
ATOM     12  H   UNL     1     184.761 190.397 207.891  1.00  0.00     0.211 HD
ENDBRANCH   4  11
BRANCH   6  13
ATOM     13  O   UNL     1     188.212 189.529 210.281  1.00  0.00    -0.387 OA
ATOM     14  H   UNL     1     188.623 189.366 209.399  1.00  0.00     0.211 HD
ENDBRANCH   6  13
BRANCH   7  15
ATOM     15  O   UNL     1     188.177 191.876 211.675  1.00  0.00    -0.384 OA
ATOM     16  H   UNL     1     188.782 192.661 211.623  1.00  0.00     0.211 HD
ENDBRANCH   7  15
ENDBRANCH   1   2
BRANCH   1  17
ATOM     17  C   UNL     1     190.683 193.074 209.494  1.00  0.00     0.172 A 
ATOM     18  C   UNL     1     191.521 192.930 210.619  1.00  0.00     0.205 A 
ATOM     19  C   UNL     1     190.985 194.065 208.544  1.00  0.00     0.097 A 
ATOM     20  C   UNL     1     192.672 193.722 210.739  1.00  0.00     0.188 A 
ATOM     21  C   UNL     1     192.126 194.863 208.650  1.00  0.00     0.134 A 
ATOM     22  C   UNL     1     192.985 194.716 209.775  1.00  0.00     0.111 A 
ATOM     23  O   UNL     1     193.458 193.533 211.795  1.00  0.00    -0.452 OA
ATOM     24  C   UNL     1     194.125 195.517 210.028  1.00  0.00     0.197 A 
ATOM     25  C   UNL     1     194.553 194.245 212.037  1.00  0.00     0.138 A 
ATOM     26  C   UNL     1     194.916 195.266 211.149  1.00  0.00     0.100 A 
ATOM     27  O   UNL     1     194.448 196.477 209.281  1.00  0.00    -0.289 OA
BRANCH  18  28
ATOM     28  O   UNL     1     191.254 192.027 211.664  1.00  0.00    -0.490 OA
ATOM     29  C   UNL     1     191.554 190.636 211.645  1.00  0.00     0.278 C 
ENDBRANCH  18  28
BRANCH  21  30
ATOM     30  O   UNL     1     192.358 195.753 207.596  1.00  0.00    -0.507 OA
ATOM     31  H   UNL     1     193.248 196.170 207.371  1.00  0.00     0.293 HD
ENDBRANCH  21  30
BRANCH  25  32
ATOM     32  C   UNL     1     195.359 193.928 213.243  1.00  0.00     0.017 A 
ATOM     33  C   UNL     1     195.224 192.703 213.925  1.00  0.00     0.012 A 
ATOM     34  C   UNL     1     196.305 194.861 213.706  1.00  0.00     0.012 A 
ATOM     35  C   UNL     1     196.001 192.433 215.057  1.00  0.00     0.001 A 
ATOM     36  C   UNL     1     197.080 194.586 214.837  1.00  0.00     0.001 A 
ATOM     37  C   UNL     1     196.926 193.375 215.514  1.00  0.00     0.000 A 
ENDBRANCH  25  32
ENDBRANCH   1  17
TORSDOF 9
ENDMDL
MODEL 4
REMARK VINA RESULT:    -5.569      2.010      4.782
REMARK INTER + INTRA:          -9.543
REMARK INTER:                  -8.080
REMARK INTRA:                  -1.462
REMARK UNBOUND:                -1.694
REMARK SMILES COc1c(O[C@H]2O[C@@H](C(=O)[O-])[C@H](O)[C@@H](O)[C@H]2O)cc(O)c2c(=O)cc(-c3ccccc3)oc12
REMARK SMILES IDX 5 1 6 2 8 3 12 4 7 5 14 6 16 7 9 8 10 9 11 10 13 11 15 13
REMARK SMILES IDX 17 15 4 17 3 18 18 19 33 20 19 21 21 22 32 23 22 24 25 25
REMARK SMILES IDX 24 26 23 27 2 28 1 29 20 30 26 32 27 33 31 34 28 35 30 36
REMARK SMILES IDX 29 37
REMARK H PARENT 13 12 15 14 17 16 20 31
REMARK Flexibility Score: inf
ROOT
ATOM      1  O   UNL     1     187.301 192.069 207.371  1.00  0.00    -0.458 OA
ENDROOT
BRANCH   1   2
ATOM      2  C   UNL     1     186.572 190.926 206.910  1.00  0.00     0.339 C 
ATOM      3  C   UNL     1     184.345 191.706 207.307  1.00  0.00     0.199 C 
ATOM      4  C   UNL     1     184.023 191.778 205.793  1.00  0.00     0.180 C 
ATOM      5  O   UNL     1     185.350 190.749 207.618  1.00  0.00    -0.328 OA
ATOM      6  C   UNL     1     185.291 191.933 204.931  1.00  0.00     0.181 C 
ATOM      7  C   UNL     1     186.386 190.950 205.378  1.00  0.00     0.214 C 
BRANCH   3   8
ATOM      8  C   UNL     1     184.582 193.037 207.983  1.00  0.00     0.073 C 
ATOM      9  O   UNL     1     184.858 193.074 209.210  1.00  0.00    -0.547 OA
ATOM     10  O   UNL     1     184.364 194.231 207.305  1.00  0.00    -0.547 OA
ENDBRANCH   3   8
BRANCH   4  11
ATOM     11  O   UNL     1     183.356 190.594 205.427  1.00  0.00    -0.387 OA
ATOM     12  H   UNL     1     183.725 190.311 204.550  1.00  0.00     0.211 HD
ENDBRANCH   4  11
BRANCH   6  13
ATOM     13  O   UNL     1     185.745 193.264 204.895  1.00  0.00    -0.387 OA
ATOM     14  H   UNL     1     186.549 193.331 205.464  1.00  0.00     0.211 HD
ENDBRANCH   6  13
BRANCH   7  15
ATOM     15  O   UNL     1     187.597 191.264 204.739  1.00  0.00    -0.384 OA
ATOM     16  H   UNL     1     188.141 191.775 205.392  1.00  0.00     0.211 HD
ENDBRANCH   7  15
ENDBRANCH   1   2
BRANCH   1  17
ATOM     17  C   UNL     1     188.299 192.047 208.364  1.00  0.00     0.172 A 
ATOM     18  C   UNL     1     189.423 192.891 208.247  1.00  0.00     0.205 A 
ATOM     19  C   UNL     1     188.178 191.229 209.500  1.00  0.00     0.097 A 
ATOM     20  C   UNL     1     190.360 192.955 209.288  1.00  0.00     0.188 A 
ATOM     21  C   UNL     1     189.104 191.279 210.544  1.00  0.00     0.134 A 
ATOM     22  C   UNL     1     190.235 192.137 210.441  1.00  0.00     0.111 A 
ATOM     23  O   UNL     1     191.388 193.789 209.159  1.00  0.00    -0.452 OA
ATOM     24  C   UNL     1     191.275 192.217 211.399  1.00  0.00     0.197 A 
ATOM     25  C   UNL     1     192.358 193.910 210.058  1.00  0.00     0.138 A 
ATOM     26  C   UNL     1     192.324 193.117 211.213  1.00  0.00     0.100 A 
ATOM     27  O   UNL     1     191.304 191.480 212.419  1.00  0.00    -0.289 OA
BRANCH  18  28
ATOM     28  O   UNL     1     189.675 193.681 207.111  1.00  0.00    -0.490 OA
ATOM     29  C   UNL     1     190.239 193.211 205.891  1.00  0.00     0.278 C 
ENDBRANCH  18  28
BRANCH  21  30
ATOM     30  O   UNL     1     188.826 190.477 211.657  1.00  0.00    -0.507 OA
ATOM     31  H   UNL     1     188.010 189.895 211.766  1.00  0.00     0.293 HD
ENDBRANCH  21  30
BRANCH  25  32
ATOM     32  C   UNL     1     193.445 194.890 209.809  1.00  0.00     0.017 A 
ATOM     33  C   UNL     1     194.435 195.161 210.775  1.00  0.00     0.012 A 
ATOM     34  C   UNL     1     193.511 195.548 208.567  1.00  0.00     0.012 A 
ATOM     35  C   UNL     1     195.449 196.088 210.508  1.00  0.00     0.001 A 
ATOM     36  C   UNL     1     194.527 196.472 208.306  1.00  0.00     0.001 A 
ATOM     37  C   UNL     1     195.493 196.745 209.276  1.00  0.00     0.000 A 
ENDBRANCH  25  32
ENDBRANCH   1  17
TORSDOF 9
ENDMDL
MODEL 5
REMARK VINA RESULT:    -5.560      2.180      3.432
REMARK INTER + INTRA:          -9.529
REMARK INTER:                  -8.244
REMARK INTRA:                  -1.285
REMARK UNBOUND:                -1.694
REMARK SMILES COc1c(O[C@H]2O[C@@H](C(=O)[O-])[C@H](O)[C@@H](O)[C@H]2O)cc(O)c2c(=O)cc(-c3ccccc3)oc12
REMARK SMILES IDX 5 1 6 2 8 3 12 4 7 5 14 6 16 7 9 8 10 9 11 10 13 11 15 13
REMARK SMILES IDX 17 15 4 17 3 18 18 19 33 20 19 21 21 22 32 23 22 24 25 25
REMARK SMILES IDX 24 26 23 27 2 28 1 29 20 30 26 32 27 33 31 34 28 35 30 36
REMARK SMILES IDX 29 37
REMARK H PARENT 13 12 15 14 17 16 20 31
REMARK Flexibility Score: inf
ROOT
ATOM      1  O   UNL     1     187.579 192.814 207.010  1.00  0.00    -0.458 OA
ENDROOT
BRANCH   1   2
ATOM      2  C   UNL     1     186.770 192.479 205.877  1.00  0.00     0.339 C 
ATOM      3  C   UNL     1     185.210 191.010 206.941  1.00  0.00     0.199 C 
ATOM      4  C   UNL     1     184.033 191.997 206.739  1.00  0.00     0.180 C 
ATOM      5  O   UNL     1     186.238 191.162 205.970  1.00  0.00    -0.328 OA
ATOM      6  C   UNL     1     184.509 193.455 206.589  1.00  0.00     0.181 C 
ATOM      7  C   UNL     1     185.692 193.550 205.611  1.00  0.00     0.214 C 
BRANCH   3   8
ATOM      8  C   UNL     1     185.751 190.926 208.350  1.00  0.00     0.073 C 
ATOM      9  O   UNL     1     186.352 189.887 208.728  1.00  0.00    -0.547 OA
ATOM     10  O   UNL     1     185.475 191.921 209.281  1.00  0.00    -0.547 OA
ENDBRANCH   3   8
BRANCH   4  11
ATOM     11  O   UNL     1     183.332 191.617 205.579  1.00  0.00    -0.387 OA
ATOM     12  H   UNL     1     183.805 190.832 205.198  1.00  0.00     0.211 HD
ENDBRANCH   4  11
BRANCH   6  13
ATOM     13  O   UNL     1     184.790 194.048 207.833  1.00  0.00    -0.387 OA
ATOM     14  H   UNL     1     184.105 194.737 208.007  1.00  0.00     0.211 HD
ENDBRANCH   6  13
BRANCH   7  15
ATOM     15  O   UNL     1     186.251 194.838 205.666  1.00  0.00    -0.384 OA
ATOM     16  H   UNL     1     186.658 194.934 206.566  1.00  0.00     0.211 HD
ENDBRANCH   7  15
ENDBRANCH   1   2
BRANCH   1  17
ATOM     17  C   UNL     1     188.970 193.024 206.978  1.00  0.00     0.172 A 
ATOM     18  C   UNL     1     189.706 193.034 208.182  1.00  0.00     0.205 A 
ATOM     19  C   UNL     1     189.656 193.183 205.761  1.00  0.00     0.097 A 
ATOM     20  C   UNL     1     191.105 193.129 208.145  1.00  0.00     0.188 A 
ATOM     21  C   UNL     1     191.048 193.281 205.708  1.00  0.00     0.134 A 
ATOM     22  C   UNL     1     191.800 193.278 206.917  1.00  0.00     0.111 A 
ATOM     23  O   UNL     1     191.767 193.097 209.298  1.00  0.00    -0.452 OA
ATOM     24  C   UNL     1     193.204 193.447 206.991  1.00  0.00     0.197 A 
ATOM     25  C   UNL     1     193.087 193.217 209.394  1.00  0.00     0.138 A 
ATOM     26  C   UNL     1     193.845 193.396 208.229  1.00  0.00     0.100 A 
ATOM     27  O   UNL     1     193.907 193.665 205.971  1.00  0.00    -0.289 OA
BRANCH  18  28
ATOM     28  O   UNL     1     189.103 192.968 209.450  1.00  0.00    -0.490 OA
ATOM     29  C   UNL     1     188.908 191.778 210.208  1.00  0.00     0.278 C 
ENDBRANCH  18  28
BRANCH  21  30
ATOM     30  O   UNL     1     191.615 193.350 204.431  1.00  0.00    -0.507 OA
ATOM     31  H   UNL     1     192.296 194.029 204.132  1.00  0.00     0.293 HD
ENDBRANCH  21  30
BRANCH  25  32
ATOM     32  C   UNL     1     193.714 193.149 210.738  1.00  0.00     0.017 A 
ATOM     33  C   UNL     1     192.989 192.742 211.876  1.00  0.00     0.012 A 
ATOM     34  C   UNL     1     195.076 193.472 210.881  1.00  0.00     0.012 A 
ATOM     35  C   UNL     1     193.611 192.686 213.128  1.00  0.00     0.001 A 
ATOM     36  C   UNL     1     195.692 193.413 212.135  1.00  0.00     0.001 A 
ATOM     37  C   UNL     1     194.960 193.023 213.258  1.00  0.00     0.000 A 
ENDBRANCH  25  32
ENDBRANCH   1  17
TORSDOF 9
ENDMDL
MODEL 6
REMARK VINA RESULT:    -5.481      1.920      3.387
REMARK INTER + INTRA:          -9.418
REMARK INTER:                  -7.965
REMARK INTRA:                  -1.454
REMARK UNBOUND:                -1.694
REMARK SMILES COc1c(O[C@H]2O[C@@H](C(=O)[O-])[C@H](O)[C@@H](O)[C@H]2O)cc(O)c2c(=O)cc(-c3ccccc3)oc12
REMARK SMILES IDX 5 1 6 2 8 3 12 4 7 5 14 6 16 7 9 8 10 9 11 10 13 11 15 13
REMARK SMILES IDX 17 15 4 17 3 18 18 19 33 20 19 21 21 22 32 23 22 24 25 25
REMARK SMILES IDX 24 26 23 27 2 28 1 29 20 30 26 32 27 33 31 34 28 35 30 36
REMARK SMILES IDX 29 37
REMARK H PARENT 13 12 15 14 17 16 20 31
REMARK Flexibility Score: inf
ROOT
ATOM      1  O   UNL     1     188.863 192.969 208.279  1.00  0.00    -0.458 OA
ENDROOT
BRANCH   1   2
ATOM      2  C   UNL     1     188.753 191.820 207.432  1.00  0.00     0.339 C 
ATOM      3  C   UNL     1     186.610 191.024 208.140  1.00  0.00     0.199 C 
ATOM      4  C   UNL     1     185.957 191.354 206.775  1.00  0.00     0.180 C 
ATOM      5  O   UNL     1     188.007 190.773 208.043  1.00  0.00    -0.328 OA
ATOM      6  C   UNL     1     186.716 192.456 206.012  1.00  0.00     0.181 C 
ATOM      7  C   UNL     1     188.231 192.195 206.029  1.00  0.00     0.214 C 
BRANCH   3   8
ATOM      8  C   UNL     1     186.268 191.971 209.268  1.00  0.00     0.073 C 
ATOM      9  O   UNL     1     186.757 191.783 210.412  1.00  0.00    -0.547 OA
ATOM     10  O   UNL     1     185.313 192.967 209.098  1.00  0.00    -0.547 OA
ENDBRANCH   3   8
BRANCH   4  11
ATOM     11  O   UNL     1     185.941 190.180 205.999  1.00  0.00    -0.387 OA
ATOM     12  H   UNL     1     185.312 189.549 206.436  1.00  0.00     0.211 HD
ENDBRANCH   4  11
BRANCH   6  13
ATOM     13  O   UNL     1     186.386 193.743 206.477  1.00  0.00    -0.387 OA
ATOM     14  H   UNL     1     185.780 193.644 207.249  1.00  0.00     0.211 HD
ENDBRANCH   6  13
BRANCH   7  15
ATOM     15  O   UNL     1     188.913 193.319 205.533  1.00  0.00    -0.384 OA
ATOM     16  H   UNL     1     188.860 193.272 204.544  1.00  0.00     0.211 HD
ENDBRANCH   7  15
ENDBRANCH   1   2
BRANCH   1  17
ATOM     17  C   UNL     1     190.070 193.506 208.765  1.00  0.00     0.172 A 
ATOM     18  C   UNL     1     190.659 192.968 209.928  1.00  0.00     0.205 A 
ATOM     19  C   UNL     1     190.730 194.546 208.087  1.00  0.00     0.097 A 
ATOM     20  C   UNL     1     191.917 193.424 210.348  1.00  0.00     0.188 A 
ATOM     21  C   UNL     1     191.981 195.012 208.494  1.00  0.00     0.134 A 
ATOM     22  C   UNL     1     192.590 194.466 209.660  1.00  0.00     0.111 A 
ATOM     23  O   UNL     1     192.458 192.867 211.429  1.00  0.00    -0.452 OA
ATOM     24  C   UNL     1     193.817 194.910 210.210  1.00  0.00     0.197 A 
ATOM     25  C   UNL     1     193.624 193.240 211.945  1.00  0.00     0.138 A 
ATOM     26  C   UNL     1     194.339 194.282 211.340  1.00  0.00     0.100 A 
ATOM     27  O   UNL     1     194.457 195.879 209.725  1.00  0.00    -0.289 OA
BRANCH  18  28
ATOM     28  O   UNL     1     190.036 191.987 210.721  1.00  0.00    -0.490 OA
ATOM     29  C   UNL     1     190.261 190.585 210.622  1.00  0.00     0.278 C 
ENDBRANCH  18  28
BRANCH  21  30
ATOM     30  O   UNL     1     192.570 195.990 207.686  1.00  0.00    -0.507 OA
ATOM     31  H   UNL     1     192.576 196.979 207.879  1.00  0.00     0.293 HD
ENDBRANCH  21  30
BRANCH  25  32
ATOM     32  C   UNL     1     194.132 192.530 213.146  1.00  0.00     0.017 A 
ATOM     33  C   UNL     1     193.476 191.400 213.674  1.00  0.00     0.012 A 
ATOM     34  C   UNL     1     195.316 192.976 213.762  1.00  0.00     0.012 A 
ATOM     35  C   UNL     1     193.983 190.752 214.805  1.00  0.00     0.001 A 
ATOM     36  C   UNL     1     195.819 192.323 214.892  1.00  0.00     0.001 A 
ATOM     37  C   UNL     1     195.151 191.215 215.416  1.00  0.00     0.000 A 
ENDBRANCH  25  32
ENDBRANCH   1  17
TORSDOF 9
ENDMDL
MODEL 7
REMARK VINA RESULT:    -5.455      4.004      7.001
REMARK INTER + INTRA:          -9.382
REMARK INTER:                  -7.765
REMARK INTRA:                  -1.617
REMARK UNBOUND:                -1.694
REMARK SMILES COc1c(O[C@H]2O[C@@H](C(=O)[O-])[C@H](O)[C@@H](O)[C@H]2O)cc(O)c2c(=O)cc(-c3ccccc3)oc12
REMARK SMILES IDX 5 1 6 2 8 3 12 4 7 5 14 6 16 7 9 8 10 9 11 10 13 11 15 13
REMARK SMILES IDX 17 15 4 17 3 18 18 19 33 20 19 21 21 22 32 23 22 24 25 25
REMARK SMILES IDX 24 26 23 27 2 28 1 29 20 30 26 32 27 33 31 34 28 35 30 36
REMARK SMILES IDX 29 37
REMARK H PARENT 13 12 15 14 17 16 20 31
REMARK Flexibility Score: inf
ROOT
ATOM      1  O   UNL     1     190.886 192.816 210.631  1.00  0.00    -0.458 OA
ENDROOT
BRANCH   1   2
ATOM      2  C   UNL     1     190.702 192.168 209.367  1.00  0.00     0.339 C 
ATOM      3  C   UNL     1     189.138 190.481 210.025  1.00  0.00     0.199 C 
ATOM      4  C   UNL     1     187.995 191.115 209.193  1.00  0.00     0.180 C 
ATOM      5  O   UNL     1     190.431 190.778 209.512  1.00  0.00    -0.328 OA
ATOM      6  C   UNL     1     188.214 192.620 208.946  1.00  0.00     0.181 C 
ATOM      7  C   UNL     1     189.658 192.901 208.498  1.00  0.00     0.214 C 
BRANCH   3   8
ATOM      8  C   UNL     1     189.044 190.689 211.519  1.00  0.00     0.073 C 
ATOM      9  O   UNL     1     189.759 190.000 212.292  1.00  0.00    -0.547 OA
ATOM     10  O   UNL     1     188.081 191.531 212.063  1.00  0.00    -0.547 OA
ENDBRANCH   3   8
BRANCH   4  11
ATOM     11  O   UNL     1     187.928 190.448 207.956  1.00  0.00    -0.387 OA
ATOM     12  H   UNL     1     187.655 191.119 207.277  1.00  0.00     0.211 HD
ENDBRANCH   4  11
BRANCH   6  13
ATOM     13  O   UNL     1     187.834 193.397 210.056  1.00  0.00    -0.387 OA
ATOM     14  H   UNL     1     188.441 194.173 210.111  1.00  0.00     0.211 HD
ENDBRANCH   6  13
BRANCH   7  15
ATOM     15  O   UNL     1     189.897 194.285 208.503  1.00  0.00    -0.384 OA
ATOM     16  H   UNL     1     189.012 194.727 208.578  1.00  0.00     0.211 HD
ENDBRANCH   7  15
ENDBRANCH   1   2
BRANCH   1  17
ATOM     17  C   UNL     1     192.119 192.972 211.290  1.00  0.00     0.172 A 
ATOM     18  C   UNL     1     193.007 193.992 210.887  1.00  0.00     0.205 A 
ATOM     19  C   UNL     1     192.472 192.155 212.379  1.00  0.00     0.097 A 
ATOM     20  C   UNL     1     194.183 194.222 211.614  1.00  0.00     0.188 A 
ATOM     21  C   UNL     1     193.642 192.370 213.111  1.00  0.00     0.134 A 
ATOM     22  C   UNL     1     194.537 193.406 212.720  1.00  0.00     0.111 A 
ATOM     23  O   UNL     1     194.977 195.216 211.226  1.00  0.00    -0.452 OA
ATOM     24  C   UNL     1     195.784 193.668 213.337  1.00  0.00     0.197 A 
ATOM     25  C   UNL     1     196.134 195.507 211.810  1.00  0.00     0.138 A 
ATOM     26  C   UNL     1     196.570 194.730 212.892  1.00  0.00     0.100 A 
ATOM     27  O   UNL     1     196.229 192.956 214.274  1.00  0.00    -0.289 OA
BRANCH  18  28
ATOM     28  O   UNL     1     192.782 194.802 209.760  1.00  0.00    -0.490 OA
ATOM     29  C   UNL     1     193.330 194.580 208.465  1.00  0.00     0.278 C 
ENDBRANCH  18  28
BRANCH  21  30
ATOM     30  O   UNL     1     193.836 191.543 214.223  1.00  0.00    -0.507 OA
ATOM     31  H   UNL     1     194.337 191.799 215.059  1.00  0.00     0.293 HD
ENDBRANCH  21  30
BRANCH  25  32
ATOM     32  C   UNL     1     196.926 196.653 211.297  1.00  0.00     0.017 A 
ATOM     33  C   UNL     1     196.791 197.114 209.971  1.00  0.00     0.012 A 
ATOM     34  C   UNL     1     197.815 197.320 212.159  1.00  0.00     0.012 A 
ATOM     35  C   UNL     1     197.549 198.199 209.519  1.00  0.00     0.001 A 
ATOM     36  C   UNL     1     198.569 198.405 211.701  1.00  0.00     0.001 A 
ATOM     37  C   UNL     1     198.439 198.842 210.382  1.00  0.00     0.000 A 
ENDBRANCH  25  32
ENDBRANCH   1  17
TORSDOF 9
ENDMDL
MODEL 8
REMARK VINA RESULT:    -5.419      1.898      4.231
REMARK INTER + INTRA:          -9.331
REMARK INTER:                  -7.965
REMARK INTRA:                  -1.365
REMARK UNBOUND:                -1.694
REMARK SMILES COc1c(O[C@H]2O[C@@H](C(=O)[O-])[C@H](O)[C@@H](O)[C@H]2O)cc(O)c2c(=O)cc(-c3ccccc3)oc12
REMARK SMILES IDX 5 1 6 2 8 3 12 4 7 5 14 6 16 7 9 8 10 9 11 10 13 11 15 13
REMARK SMILES IDX 17 15 4 17 3 18 18 19 33 20 19 21 21 22 32 23 22 24 25 25
REMARK SMILES IDX 24 26 23 27 2 28 1 29 20 30 26 32 27 33 31 34 28 35 30 36
REMARK SMILES IDX 29 37
REMARK H PARENT 13 12 15 14 17 16 20 31
REMARK Flexibility Score: inf
ROOT
ATOM      1  O   UNL     1     187.051 191.582 207.556  1.00  0.00    -0.458 OA
ENDROOT
BRANCH   1   2
ATOM      2  C   UNL     1     186.211 192.671 207.159  1.00  0.00     0.339 C 
ATOM      3  C   UNL     1     185.557 191.882 204.996  1.00  0.00     0.199 C 
ATOM      4  C   UNL     1     184.084 191.686 205.434  1.00  0.00     0.180 C 
ATOM      5  O   UNL     1     186.234 192.880 205.751  1.00  0.00    -0.328 OA
ATOM      6  C   UNL     1     183.946 191.489 206.956  1.00  0.00     0.181 C 
ATOM      7  C   UNL     1     184.783 192.524 207.725  1.00  0.00     0.214 C 
BRANCH   3   8
ATOM      8  C   UNL     1     186.366 190.613 204.855  1.00  0.00     0.073 C 
ATOM      9  O   UNL     1     187.545 190.668 204.420  1.00  0.00    -0.547 OA
ATOM     10  O   UNL     1     185.783 189.368 205.065  1.00  0.00    -0.547 OA
ENDBRANCH   3   8
BRANCH   4  11
ATOM     11  O   UNL     1     183.353 192.825 205.047  1.00  0.00    -0.387 OA
ATOM     12  H   UNL     1     183.796 193.195 204.239  1.00  0.00     0.211 HD
ENDBRANCH   4  11
BRANCH   6  13
ATOM     13  O   UNL     1     184.234 190.167 207.345  1.00  0.00    -0.387 OA
ATOM     14  H   UNL     1     184.180 189.593 206.545  1.00  0.00     0.211 HD
ENDBRANCH   6  13
BRANCH   7  15
ATOM     15  O   UNL     1     184.825 192.185 209.088  1.00  0.00    -0.384 OA
ATOM     16  H   UNL     1     185.367 192.883 209.539  1.00  0.00     0.211 HD
ENDBRANCH   7  15
ENDBRANCH   1   2
BRANCH   1  17
ATOM     17  C   UNL     1     188.092 191.664 208.500  1.00  0.00     0.172 A 
ATOM     18  C   UNL     1     189.170 192.548 208.281  1.00  0.00     0.205 A 
ATOM     19  C   UNL     1     188.062 190.910 209.686  1.00  0.00     0.097 A 
ATOM     20  C   UNL     1     190.148 192.715 209.271  1.00  0.00     0.188 A 
ATOM     21  C   UNL     1     189.030 191.063 210.680  1.00  0.00     0.134 A 
ATOM     22  C   UNL     1     190.114 191.963 210.474  1.00  0.00     0.111 A 
ATOM     23  O   UNL     1     191.129 193.585 209.045  1.00  0.00    -0.452 OA
ATOM     24  C   UNL     1     191.191 192.145 211.375  1.00  0.00     0.197 A 
ATOM     25  C   UNL     1     192.132 193.801 209.889  1.00  0.00     0.138 A 
ATOM     26  C   UNL     1     192.187 193.078 211.088  1.00  0.00     0.100 A 
ATOM     27  O   UNL     1     191.300 191.473 212.433  1.00  0.00    -0.289 OA
BRANCH  18  28
ATOM     28  O   UNL     1     189.333 193.279 207.090  1.00  0.00    -0.490 OA
ATOM     29  C   UNL     1     189.934 192.784 205.898  1.00  0.00     0.278 C 
ENDBRANCH  18  28
BRANCH  21  30
ATOM     30  O   UNL     1     188.840 190.318 211.849  1.00  0.00    -0.507 OA
ATOM     31  H   UNL     1     188.732 190.703 212.774  1.00  0.00     0.293 HD
ENDBRANCH  21  30
BRANCH  25  32
ATOM     32  C   UNL     1     193.160 194.811 209.532  1.00  0.00     0.017 A 
ATOM     33  C   UNL     1     194.139 195.231 210.454  1.00  0.00     0.012 A 
ATOM     34  C   UNL     1     193.180 195.347 208.231  1.00  0.00     0.012 A 
ATOM     35  C   UNL     1     195.097 196.182 210.086  1.00  0.00     0.001 A 
ATOM     36  C   UNL     1     194.140 196.297 207.868  1.00  0.00     0.001 A 
ATOM     37  C   UNL     1     195.095 196.717 208.795  1.00  0.00     0.000 A 
ENDBRANCH  25  32
ENDBRANCH   1  17
TORSDOF 9
ENDMDL
MODEL 9
REMARK VINA RESULT:    -5.308      3.529      6.792
REMARK INTER + INTRA:          -9.174
REMARK INTER:                  -7.605
REMARK INTRA:                  -1.569
REMARK UNBOUND:                -1.694
REMARK SMILES COc1c(O[C@H]2O[C@@H](C(=O)[O-])[C@H](O)[C@@H](O)[C@H]2O)cc(O)c2c(=O)cc(-c3ccccc3)oc12
REMARK SMILES IDX 5 1 6 2 8 3 12 4 7 5 14 6 16 7 9 8 10 9 11 10 13 11 15 13
REMARK SMILES IDX 17 15 4 17 3 18 18 19 33 20 19 21 21 22 32 23 22 24 25 25
REMARK SMILES IDX 24 26 23 27 2 28 1 29 20 30 26 32 27 33 31 34 28 35 30 36
REMARK SMILES IDX 29 37
REMARK H PARENT 13 12 15 14 17 16 20 31
REMARK Flexibility Score: inf
ROOT
ATOM      1  O   UNL     1     189.471 192.763 209.255  1.00  0.00    -0.458 OA
ENDROOT
BRANCH   1   2
ATOM      2  C   UNL     1     189.124 191.605 208.487  1.00  0.00     0.339 C 
ATOM      3  C   UNL     1     187.885 190.403 210.143  1.00  0.00     0.199 C 
ATOM      4  C   UNL     1     186.551 190.578 209.375  1.00  0.00     0.180 C 
ATOM      5  O   UNL     1     189.025 190.437 209.294  1.00  0.00    -0.328 OA
ATOM      6  C   UNL     1     186.569 191.802 208.439  1.00  0.00     0.181 C 
ATOM      7  C   UNL     1     187.871 191.851 207.621  1.00  0.00     0.214 C 
BRANCH   3   8
ATOM      8  C   UNL     1     188.047 191.275 211.367  1.00  0.00     0.073 C 
ATOM      9  O   UNL     1     189.041 191.115 212.122  1.00  0.00    -0.547 OA
ATOM     10  O   UNL     1     187.044 192.159 211.752  1.00  0.00    -0.547 OA
ENDBRANCH   3   8
BRANCH   4  11
ATOM     11  O   UNL     1     186.325 189.416 208.614  1.00  0.00    -0.387 OA
ATOM     12  H   UNL     1     186.828 189.521 207.765  1.00  0.00     0.211 HD
ENDBRANCH   4  11
BRANCH   6  13
ATOM     13  O   UNL     1     186.323 193.000 209.133  1.00  0.00    -0.387 OA
ATOM     14  H   UNL     1     185.368 193.224 209.031  1.00  0.00     0.211 HD
ENDBRANCH   6  13
BRANCH   7  15
ATOM     15  O   UNL     1     187.966 193.084 206.954  1.00  0.00    -0.384 OA
ATOM     16  H   UNL     1     188.411 192.904 206.086  1.00  0.00     0.211 HD
ENDBRANCH   7  15
ENDBRANCH   1   2
BRANCH   1  17
ATOM     17  C   UNL     1     190.779 193.242 209.454  1.00  0.00     0.172 A 
ATOM     18  C   UNL     1     191.486 193.820 208.379  1.00  0.00     0.205 A 
ATOM     19  C   UNL     1     191.387 193.196 210.721  1.00  0.00     0.097 A 
ATOM     20  C   UNL     1     192.744 194.399 208.601  1.00  0.00     0.188 A 
ATOM     21  C   UNL     1     192.639 193.767 210.957  1.00  0.00     0.134 A 
ATOM     22  C   UNL     1     193.355 194.364 209.881  1.00  0.00     0.111 A 
ATOM     23  O   UNL     1     193.364 194.968 207.571  1.00  0.00    -0.452 OA
ATOM     24  C   UNL     1     194.660 194.905 209.984  1.00  0.00     0.197 A 
ATOM     25  C   UNL     1     194.572 195.515 207.648  1.00  0.00     0.138 A 
ATOM     26  C   UNL     1     195.256 195.496 208.870  1.00  0.00     0.100 A 
ATOM     27  O   UNL     1     195.323 194.855 211.052  1.00  0.00    -0.289 OA
BRANCH  18  28
ATOM     28  O   UNL     1     190.998 193.835 207.060  1.00  0.00    -0.490 OA
ATOM     29  C   UNL     1     191.361 192.912 206.039  1.00  0.00     0.278 C 
ENDBRANCH  18  28
BRANCH  21  30
ATOM     30  O   UNL     1     193.097 193.730 212.279  1.00  0.00    -0.507 OA
ATOM     31  H   UNL     1     192.553 193.975 213.091  1.00  0.00     0.293 HD
ENDBRANCH  21  30
BRANCH  25  32
ATOM     32  C   UNL     1     195.155 196.134 206.430  1.00  0.00     0.017 A 
ATOM     33  C   UNL     1     194.501 196.076 205.183  1.00  0.00     0.012 A 
ATOM     34  C   UNL     1     196.378 196.824 206.524  1.00  0.00     0.012 A 
ATOM     35  C   UNL     1     195.075 196.673 204.055  1.00  0.00     0.001 A 
ATOM     36  C   UNL     1     196.945 197.420 205.394  1.00  0.00     0.001 A 
ATOM     37  C   UNL     1     196.297 197.342 204.160  1.00  0.00     0.000 A 
ENDBRANCH  25  32
ENDBRANCH   1  17
TORSDOF 9
ENDMDL
