MODEL 1
REMARK VINA RESULT:    -4.123      0.000      0.000
REMARK INTER + INTRA:          -5.720
REMARK INTER:                  -5.569
REMARK INTRA:                  -0.150
REMARK UNBOUND:                -0.150
REMARK SMILES CCCCCCCC=O
REMARK SMILES IDX 5 1 4 2 3 3 2 4 1 5 6 6 7 7 8 8 9 9
REMARK H PARENT
REMARK Flexibility Score: inf
ROOT
ATOM      1  C   UNL     1      25.091  57.750  -9.368  1.00  0.00     0.000 C 
ENDROOT
BRANCH   1   2
ATOM      2  C   UNL     1      26.181  58.808  -9.612  1.00  0.00     0.000 C 
BRANCH   2   3
ATOM      3  C   UNL     1      26.979  58.558 -10.900  1.00  0.00    -0.000 C 
BRANCH   3   4
ATOM      4  C   UNL     1      28.333  59.276 -10.852  1.00  0.00    -0.003 C 
ATOM      5  C   UNL     1      28.161  60.758 -10.532  1.00  0.00     0.004 C 
ENDBRANCH   3   4
ENDBRANCH   2   3
ENDBRANCH   1   2
BRANCH   1   6
ATOM      6  C   UNL     1      25.607  56.349  -8.988  1.00  0.00     0.008 C 
BRANCH   6   7
ATOM      7  C   UNL     1      24.727  55.615  -7.959  1.00  0.00     0.072 C 
BRANCH   7   8
ATOM      8  C   UNL     1      23.442  55.120  -8.555  1.00  0.00     0.224 C 
ATOM      9  O   UNL     1      22.513  54.784  -7.836  1.00  0.00    -0.303 OA
ENDBRANCH   7   8
ENDBRANCH   6   7
ENDBRANCH   1   6
TORSDOF 6
ENDMDL
MODEL 2
REMARK VINA RESULT:    -4.107      3.077      5.804
REMARK INTER + INTRA:          -5.698
REMARK INTER:                  -5.545
REMARK INTRA:                  -0.153
REMARK UNBOUND:                -0.150
REMARK SMILES CCCCCCCC=O
REMARK SMILES IDX 5 1 4 2 3 3 2 4 1 5 6 6 7 7 8 8 9 9
REMARK H PARENT
REMARK Flexibility Score: inf
ROOT
ATOM      1  C   UNL     1      25.267  58.068  -9.379  1.00  0.00     0.000 C 
ENDROOT
BRANCH   1   2
ATOM      2  C   UNL     1      25.824  56.636  -9.302  1.00  0.00     0.000 C 
BRANCH   2   3
ATOM      3  C   UNL     1      25.014  55.729  -8.364  1.00  0.00    -0.000 C 
BRANCH   3   4
ATOM      4  C   UNL     1      23.599  55.503  -8.910  1.00  0.00    -0.003 C 
ATOM      5  C   UNL     1      22.721  54.788  -7.887  1.00  0.00     0.004 C 
ENDBRANCH   3   4
ENDBRANCH   2   3
ENDBRANCH   1   2
BRANCH   1   6
ATOM      6  C   UNL     1      26.294  59.155  -9.752  1.00  0.00     0.008 C 
BRANCH   6   7
ATOM      7  C   UNL     1      27.260  58.743 -10.879  1.00  0.00     0.072 C 
BRANCH   7   8
ATOM      8  C   UNL     1      28.483  59.611 -10.930  1.00  0.00     0.224 C 
ATOM      9  O   UNL     1      29.464  59.264 -11.569  1.00  0.00    -0.303 OA
ENDBRANCH   7   8
ENDBRANCH   6   7
ENDBRANCH   1   6
TORSDOF 6
ENDMDL
MODEL 3
REMARK VINA RESULT:    -4.020      3.251      5.915
REMARK INTER + INTRA:          -5.581
REMARK INTER:                  -5.472
REMARK INTRA:                  -0.109
REMARK UNBOUND:                -0.150
REMARK SMILES CCCCCCCC=O
REMARK SMILES IDX 5 1 4 2 3 3 2 4 1 5 6 6 7 7 8 8 9 9
REMARK H PARENT
REMARK Flexibility Score: inf
ROOT
ATOM      1  C   UNL     1      26.589  58.366 -10.196  1.00  0.00     0.000 C 
ENDROOT
BRANCH   1   2
ATOM      2  C   UNL     1      25.401  57.883  -9.345  1.00  0.00     0.000 C 
BRANCH   2   3
ATOM      3  C   UNL     1      25.379  56.358  -9.160  1.00  0.00    -0.000 C 
BRANCH   3   4
ATOM      4  C   UNL     1      23.960  55.806  -9.335  1.00  0.00    -0.003 C 
ATOM      5  C   UNL     1      23.439  55.201  -8.034  1.00  0.00     0.004 C 
ENDBRANCH   3   4
ENDBRANCH   2   3
ENDBRANCH   1   2
BRANCH   1   6
ATOM      6  C   UNL     1      27.022  59.825  -9.952  1.00  0.00     0.008 C 
BRANCH   6   7
ATOM      7  C   UNL     1      28.105  60.327 -10.925  1.00  0.00     0.072 C 
BRANCH   7   8
ATOM      8  C   UNL     1      29.389  59.560 -10.799  1.00  0.00     0.224 C 
ATOM      9  O   UNL     1      29.932  59.092 -11.787  1.00  0.00    -0.303 OA
ENDBRANCH   7   8
ENDBRANCH   6   7
ENDBRANCH   1   6
TORSDOF 6
ENDMDL
MODEL 4
REMARK VINA RESULT:    -3.954      0.988      1.154
REMARK INTER + INTRA:          -5.491
REMARK INTER:                  -5.424
REMARK INTRA:                  -0.067
REMARK UNBOUND:                -0.150
REMARK SMILES CCCCCCCC=O
REMARK SMILES IDX 5 1 4 2 3 3 2 4 1 5 6 6 7 7 8 8 9 9
REMARK H PARENT
REMARK Flexibility Score: inf
ROOT
ATOM      1  C   UNL     1      25.379  56.638  -9.684  1.00  0.00     0.000 C 
ENDROOT
BRANCH   1   2
ATOM      2  C   UNL     1      25.807  58.110  -9.553  1.00  0.00     0.000 C 
BRANCH   2   3
ATOM      3  C   UNL     1      26.924  58.497 -10.535  1.00  0.00    -0.000 C 
BRANCH   3   4
ATOM      4  C   UNL     1      27.397  59.934 -10.287  1.00  0.00    -0.003 C 
ATOM      5  C   UNL     1      28.851  60.118 -10.712  1.00  0.00     0.004 C 
ENDBRANCH   3   4
ENDBRANCH   2   3
ENDBRANCH   1   2
BRANCH   1   6
ATOM      6  C   UNL     1      23.978  56.309  -9.134  1.00  0.00     0.008 C 
BRANCH   6   7
ATOM      7  C   UNL     1      23.847  54.885  -8.563  1.00  0.00     0.072 C 
BRANCH   7   8
ATOM      8  C   UNL     1      22.533  54.661  -7.875  1.00  0.00     0.224 C 
ATOM      9  O   UNL     1      22.456  54.689  -6.657  1.00  0.00    -0.303 OA
ENDBRANCH   7   8
ENDBRANCH   6   7
ENDBRANCH   1   6
TORSDOF 6
ENDMDL
MODEL 5
REMARK VINA RESULT:    -3.948      2.556      5.753
REMARK INTER + INTRA:          -5.483
REMARK INTER:                  -5.254
REMARK INTRA:                  -0.229
REMARK UNBOUND:                -0.150
REMARK SMILES CCCCCCCC=O
REMARK SMILES IDX 5 1 4 2 3 3 2 4 1 5 6 6 7 7 8 8 9 9
REMARK H PARENT
REMARK Flexibility Score: inf
ROOT
ATOM      1  C   UNL     1      25.773  55.808  -8.377  1.00  0.00     0.000 C 
ENDROOT
BRANCH   1   2
ATOM      2  C   UNL     1      24.458  55.560  -7.617  1.00  0.00     0.000 C 
BRANCH   2   3
ATOM      3  C   UNL     1      23.337  55.024  -8.521  1.00  0.00    -0.000 C 
BRANCH   3   4
ATOM      4  C   UNL     1      22.119  54.604  -7.691  1.00  0.00    -0.003 C 
ATOM      5  C   UNL     1      22.486  54.438  -6.219  1.00  0.00     0.004 C 
ENDBRANCH   3   4
ENDBRANCH   2   3
ENDBRANCH   1   2
BRANCH   1   6
ATOM      6  C   UNL     1      25.639  56.639  -9.669  1.00  0.00     0.008 C 
BRANCH   6   7
ATOM      7  C   UNL     1      25.446  58.147  -9.426  1.00  0.00     0.072 C 
BRANCH   7   8
ATOM      8  C   UNL     1      26.591  58.963  -9.949  1.00  0.00     0.224 C 
ATOM      9  O   UNL     1      27.211  58.601 -10.937  1.00  0.00    -0.303 OA
ENDBRANCH   7   8
ENDBRANCH   6   7
ENDBRANCH   1   6
TORSDOF 6
ENDMDL
MODEL 6
REMARK VINA RESULT:    -3.532     15.193     16.794
REMARK INTER + INTRA:          -4.921
REMARK INTER:                  -4.737
REMARK INTRA:                  -0.184
REMARK UNBOUND:                -0.150
REMARK SMILES CCCCCCCC=O
REMARK SMILES IDX 5 1 4 2 3 3 2 4 1 5 6 6 7 7 8 8 9 9
REMARK H PARENT
REMARK Flexibility Score: inf
ROOT
ATOM      1  C   UNL     1      31.650  45.056   0.687  1.00  0.00     0.000 C 
ENDROOT
BRANCH   1   2
ATOM      2  C   UNL     1      32.530  45.216   1.938  1.00  0.00     0.000 C 
BRANCH   2   3
ATOM      3  C   UNL     1      32.943  46.673   2.196  1.00  0.00    -0.000 C 
BRANCH   3   4
ATOM      4  C   UNL     1      32.880  47.003   3.691  1.00  0.00    -0.003 C 
ATOM      5  C   UNL     1      31.814  48.056   3.980  1.00  0.00     0.004 C 
ENDBRANCH   3   4
ENDBRANCH   2   3
ENDBRANCH   1   2
BRANCH   1   6
ATOM      6  C   UNL     1      30.132  45.159   0.932  1.00  0.00     0.008 C 
BRANCH   6   7
ATOM      7  C   UNL     1      29.274  44.841  -0.307  1.00  0.00     0.072 C 
BRANCH   7   8
ATOM      8  C   UNL     1      28.037  45.687  -0.379  1.00  0.00     0.224 C 
ATOM      9  O   UNL     1      27.662  46.149  -1.445  1.00  0.00    -0.303 OA
ENDBRANCH   7   8
ENDBRANCH   6   7
ENDBRANCH   1   6
TORSDOF 6
ENDMDL
MODEL 7
REMARK VINA RESULT:    -3.491     17.740     19.090
REMARK INTER + INTRA:          -4.866
REMARK INTER:                  -4.575
REMARK INTRA:                  -0.291
REMARK UNBOUND:                -0.150
REMARK SMILES CCCCCCCC=O
REMARK SMILES IDX 5 1 4 2 3 3 2 4 1 5 6 6 7 7 8 8 9 9
REMARK H PARENT
REMARK Flexibility Score: inf
ROOT
ATOM      1  C   UNL     1      17.414  44.104  -0.044  1.00  0.00     0.000 C 
ENDROOT
BRANCH   1   2
ATOM      2  C   UNL     1      16.836  43.904   1.367  1.00  0.00     0.000 C 
BRANCH   2   3
ATOM      3  C   UNL     1      15.423  44.487   1.521  1.00  0.00    -0.000 C 
BRANCH   3   4
ATOM      4  C   UNL     1      14.745  44.647   0.155  1.00  0.00    -0.003 C 
ATOM      5  C   UNL     1      13.936  45.940   0.089  1.00  0.00     0.004 C 
ENDBRANCH   3   4
ENDBRANCH   2   3
ENDBRANCH   1   2
BRANCH   1   6
ATOM      6  C   UNL     1      18.924  44.407  -0.099  1.00  0.00     0.008 C 
BRANCH   6   7
ATOM      7  C   UNL     1      19.680  44.063   1.198  1.00  0.00     0.072 C 
BRANCH   7   8
ATOM      8  C   UNL     1      20.546  42.846   1.050  1.00  0.00     0.224 C 
ATOM      9  O   UNL     1      20.787  42.386  -0.055  1.00  0.00    -0.303 OA
ENDBRANCH   7   8
ENDBRANCH   6   7
ENDBRANCH   1   6
TORSDOF 6
ENDMDL
MODEL 8
REMARK VINA RESULT:    -3.439     17.458     18.863
REMARK INTER + INTRA:          -4.796
REMARK INTER:                  -4.504
REMARK INTRA:                  -0.292
REMARK UNBOUND:                -0.150
REMARK SMILES CCCCCCCC=O
REMARK SMILES IDX 5 1 4 2 3 3 2 4 1 5 6 6 7 7 8 8 9 9
REMARK H PARENT
REMARK Flexibility Score: inf
ROOT
ATOM      1  C   UNL     1      17.088  43.727   1.126  1.00  0.00     0.000 C 
ENDROOT
BRANCH   1   2
ATOM      2  C   UNL     1      17.651  44.384  -0.146  1.00  0.00     0.000 C 
BRANCH   2   3
ATOM      3  C   UNL     1      19.170  44.605  -0.082  1.00  0.00    -0.000 C 
BRANCH   3   4
ATOM      4  C   UNL     1      19.779  43.875   1.121  1.00  0.00    -0.003 C 
ATOM      5  C   UNL     1      20.636  42.695   0.673  1.00  0.00     0.004 C 
ENDBRANCH   3   4
ENDBRANCH   2   3
ENDBRANCH   1   2
BRANCH   1   6
ATOM      6  C   UNL     1      15.551  43.649   1.201  1.00  0.00     0.008 C 
BRANCH   6   7
ATOM      7  C   UNL     1      14.874  44.979   1.583  1.00  0.00     0.072 C 
BRANCH   7   8
ATOM      8  C   UNL     1      13.986  45.503   0.494  1.00  0.00     0.224 C 
ATOM      9  O   UNL     1      14.463  46.064  -0.480  1.00  0.00    -0.303 OA
ENDBRANCH   7   8
ENDBRANCH   6   7
ENDBRANCH   1   6
TORSDOF 6
ENDMDL
MODEL 9
REMARK VINA RESULT:    -3.412      1.760      2.826
REMARK INTER + INTRA:          -4.759
REMARK INTER:                  -4.617
REMARK INTRA:                  -0.142
REMARK UNBOUND:                -0.150
REMARK SMILES CCCCCCCC=O
REMARK SMILES IDX 5 1 4 2 3 3 2 4 1 5 6 6 7 7 8 8 9 9
REMARK H PARENT
REMARK Flexibility Score: inf
ROOT
ATOM      1  C   UNL     1      26.979  59.762 -10.270  1.00  0.00     0.000 C 
ENDROOT
BRANCH   1   2
ATOM      2  C   UNL     1      28.466  60.132 -10.405  1.00  0.00     0.000 C 
BRANCH   2   3
ATOM      3  C   UNL     1      29.184  59.328 -11.500  1.00  0.00    -0.000 C 
BRANCH   3   4
ATOM      4  C   UNL     1      30.697  59.299 -11.254  1.00  0.00    -0.003 C 
ATOM      5  C   UNL     1      31.421  58.538 -12.361  1.00  0.00     0.004 C 
ENDBRANCH   3   4
ENDBRANCH   2   3
ENDBRANCH   1   2
BRANCH   1   6
ATOM      6  C   UNL     1      26.675  58.251 -10.257  1.00  0.00     0.008 C 
BRANCH   6   7
ATOM      7  C   UNL     1      25.464  57.863  -9.388  1.00  0.00     0.072 C 
BRANCH   7   8
ATOM      8  C   UNL     1      25.437  56.398  -9.066  1.00  0.00     0.224 C 
ATOM      9  O   UNL     1      24.428  55.881  -8.612  1.00  0.00    -0.303 OA
ENDBRANCH   7   8
ENDBRANCH   6   7
ENDBRANCH   1   6
TORSDOF 6
ENDMDL
