MODEL 1
REMARK VINA RESULT:    -5.772      0.000      0.000
REMARK INTER + INTRA:          -7.281
REMARK INTER:                  -7.122
REMARK INTRA:                  -0.159
REMARK UNBOUND:                -0.159
REMARK SMILES O=C1c2c(O)cc(O)cc2O[C@@H](c2cc(O)c(O)c(O)c2)[C@H]1O
REMARK SMILES IDX 12 1 22 2 2 3 1 4 3 5 4 6 6 7 7 8 9 9 10 10 11 11 13 12
REMARK SMILES IDX 14 13 15 14 21 15 17 16 19 17 16 18 18 20 20 22 23 24 5 26
REMARK SMILES IDX 8 28
REMARK H PARENT 16 19 18 21 20 23 23 25 5 27 8 29
REMARK Flexibility Score: inf
ROOT
ATOM      1  C   UNL     1      45.329  15.062  -3.602  1.00  0.00     0.240 C 
ATOM      2  C   UNL     1      46.635  15.506  -4.285  1.00  0.00     0.231 C 
ATOM      3  C   UNL     1      47.544  14.311  -4.394  1.00  0.00     0.202 C 
ATOM      4  O   UNL     1      48.115  14.068  -5.490  1.00  0.00    -0.291 OA
ATOM      5  C   UNL     1      47.687  13.412  -3.222  1.00  0.00     0.105 A 
ATOM      6  C   UNL     1      48.770  12.511  -3.038  1.00  0.00     0.133 A 
ATOM      7  C   UNL     1      48.775  11.659  -1.926  1.00  0.00     0.093 A 
ATOM      8  C   UNL     1      47.758  11.724  -0.968  1.00  0.00     0.123 A 
ATOM      9  C   UNL     1      46.718  12.642  -1.122  1.00  0.00     0.093 A 
ATOM     10  C   UNL     1      46.672  13.474  -2.243  1.00  0.00     0.138 A 
ATOM     11  O   UNL     1      45.607  14.377  -2.376  1.00  0.00    -0.481 OA
ENDROOT
BRANCH   1  12
ATOM     12  C   UNL     1      44.405  16.234  -3.357  1.00  0.00     0.003 A 
ATOM     13  C   UNL     1      43.520  16.211  -2.267  1.00  0.00     0.058 A 
ATOM     14  C   UNL     1      42.633  17.273  -2.046  1.00  0.00     0.161 A 
ATOM     15  C   UNL     1      44.372  17.324  -4.243  1.00  0.00     0.058 A 
ATOM     16  C   UNL     1      42.617  18.367  -2.929  1.00  0.00     0.200 A 
ATOM     17  C   UNL     1      43.489  18.388  -4.031  1.00  0.00     0.161 A 
BRANCH  14  18
ATOM     18  O   UNL     1      41.767  17.243  -0.954  1.00  0.00    -0.504 OA
ATOM     19  H   UNL     1      42.057  17.561  -0.037  1.00  0.00     0.293 HD
ENDBRANCH  14  18
BRANCH  16  20
ATOM     20  O   UNL     1      41.741  19.434  -2.723  1.00  0.00    -0.502 OA
ATOM     21  H   UNL     1      42.070  20.372  -2.527  1.00  0.00     0.293 HD
ENDBRANCH  16  20
BRANCH  17  22
ATOM     22  O   UNL     1      43.491  19.455  -4.928  1.00  0.00    -0.504 OA
ATOM     23  H   UNL     1      43.831  20.375  -4.671  1.00  0.00     0.293 HD
ENDBRANCH  17  22
ENDBRANCH   1  12
BRANCH   2  24
ATOM     24  O   UNL     1      47.269  16.503  -3.526  1.00  0.00    -0.381 OA
ATOM     25  H   UNL     1      46.564  16.933  -2.976  1.00  0.00     0.211 HD
ENDBRANCH   2  24
BRANCH   6  26
ATOM     26  O   UNL     1      49.867  12.452  -3.898  1.00  0.00    -0.507 OA
ATOM     27  H   UNL     1      50.711  12.993  -3.775  1.00  0.00     0.293 HD
ENDBRANCH   6  26
BRANCH   8  28
ATOM     28  O   UNL     1      47.777  10.887   0.146  1.00  0.00    -0.508 OA
ATOM     29  H   UNL     1      47.291  11.132   1.001  1.00  0.00     0.293 HD
ENDBRANCH   8  28
TORSDOF 7
ENDMDL
MODEL 2
REMARK VINA RESULT:    -5.622      2.101      6.753
REMARK INTER + INTRA:          -7.096
REMARK INTER:                  -6.695
REMARK INTRA:                  -0.401
REMARK UNBOUND:                -0.159
REMARK SMILES O=C1c2c(O)cc(O)cc2O[C@@H](c2cc(O)c(O)c(O)c2)[C@H]1O
REMARK SMILES IDX 12 1 22 2 2 3 1 4 3 5 4 6 6 7 7 8 9 9 10 10 11 11 13 12
REMARK SMILES IDX 14 13 15 14 21 15 17 16 19 17 16 18 18 20 20 22 23 24 5 26
REMARK SMILES IDX 8 28
REMARK H PARENT 16 19 18 21 20 23 23 25 5 27 8 29
REMARK Flexibility Score: inf
ROOT
ATOM      1  C   UNL     1      46.316  16.869  -4.139  1.00  0.00     0.240 C 
ATOM      2  C   UNL     1      45.681  17.043  -5.531  1.00  0.00     0.231 C 
ATOM      3  C   UNL     1      44.368  17.760  -5.368  1.00  0.00     0.202 C 
ATOM      4  O   UNL     1      44.099  18.734  -6.120  1.00  0.00    -0.291 OA
ATOM      5  C   UNL     1      43.454  17.341  -4.277  1.00  0.00     0.105 A 
ATOM      6  C   UNL     1      42.065  17.634  -4.245  1.00  0.00     0.133 A 
ATOM      7  C   UNL     1      41.305  17.247  -3.134  1.00  0.00     0.093 A 
ATOM      8  C   UNL     1      41.884  16.526  -2.085  1.00  0.00     0.123 A 
ATOM      9  C   UNL     1      43.239  16.195  -2.136  1.00  0.00     0.093 A 
ATOM     10  C   UNL     1      44.025  16.605  -3.215  1.00  0.00     0.138 A 
ATOM     11  O   UNL     1      45.386  16.268  -3.232  1.00  0.00    -0.481 OA
ENDROOT
BRANCH   1  12
ATOM     12  C   UNL     1      47.590  16.058  -4.208  1.00  0.00     0.003 A 
ATOM     13  C   UNL     1      47.702  14.868  -3.472  1.00  0.00     0.058 A 
ATOM     14  C   UNL     1      48.889  14.123  -3.498  1.00  0.00     0.161 A 
ATOM     15  C   UNL     1      48.694  16.511  -4.950  1.00  0.00     0.058 A 
ATOM     16  C   UNL     1      49.984  14.574  -4.255  1.00  0.00     0.200 A 
ATOM     17  C   UNL     1      49.883  15.774  -4.980  1.00  0.00     0.161 A 
BRANCH  14  18
ATOM     18  O   UNL     1      48.983  12.937  -2.771  1.00  0.00    -0.504 OA
ATOM     19  H   UNL     1      49.471  12.127  -3.135  1.00  0.00     0.293 HD
ENDBRANCH  14  18
BRANCH  16  20
ATOM     20  O   UNL     1      51.172  13.844  -4.293  1.00  0.00    -0.502 OA
ATOM     21  H   UNL     1      51.563  13.493  -5.159  1.00  0.00     0.293 HD
ENDBRANCH  16  20
BRANCH  17  22
ATOM     22  O   UNL     1      50.953  16.252  -5.734  1.00  0.00    -0.504 OA
ATOM     23  H   UNL     1      51.871  15.823  -5.701  1.00  0.00     0.293 HD
ENDBRANCH  17  22
ENDBRANCH   1  12
BRANCH   2  24
ATOM     24  O   UNL     1      45.456  15.791  -6.125  1.00  0.00    -0.381 OA
ATOM     25  H   UNL     1      44.483  15.612  -6.052  1.00  0.00     0.211 HD
ENDBRANCH   2  24
BRANCH   6  26
ATOM     26  O   UNL     1      41.395  18.266  -5.294  1.00  0.00    -0.507 OA
ATOM     27  H   UNL     1      41.382  17.923  -6.244  1.00  0.00     0.293 HD
ENDBRANCH   6  26
BRANCH   8  28
ATOM     28  O   UNL     1      41.120  16.127  -0.990  1.00  0.00    -0.508 OA
ATOM     29  H   UNL     1      40.454  16.752  -0.553  1.00  0.00     0.293 HD
ENDBRANCH   8  28
TORSDOF 7
ENDMDL
MODEL 3
REMARK VINA RESULT:    -5.403      1.793      3.822
REMARK INTER + INTRA:          -6.826
REMARK INTER:                  -6.437
REMARK INTRA:                  -0.389
REMARK UNBOUND:                -0.159
REMARK SMILES O=C1c2c(O)cc(O)cc2O[C@@H](c2cc(O)c(O)c(O)c2)[C@H]1O
REMARK SMILES IDX 12 1 22 2 2 3 1 4 3 5 4 6 6 7 7 8 9 9 10 10 11 11 13 12
REMARK SMILES IDX 14 13 15 14 21 15 17 16 19 17 16 18 18 20 20 22 23 24 5 26
REMARK SMILES IDX 8 28
REMARK H PARENT 16 19 18 21 20 23 23 25 5 27 8 29
REMARK Flexibility Score: inf
ROOT
ATOM      1  C   UNL     1      45.457  16.037  -2.813  1.00  0.00     0.240 C 
ATOM      2  C   UNL     1      45.581  14.504  -2.736  1.00  0.00     0.231 C 
ATOM      3  C   UNL     1      47.042  14.149  -2.678  1.00  0.00     0.202 C 
ATOM      4  O   UNL     1      47.442  13.319  -1.819  1.00  0.00    -0.291 OA
ATOM      5  C   UNL     1      47.984  14.840  -3.592  1.00  0.00     0.105 A 
ATOM      6  C   UNL     1      49.274  14.348  -3.927  1.00  0.00     0.133 A 
ATOM      7  C   UNL     1      50.110  15.113  -4.750  1.00  0.00     0.093 A 
ATOM      8  C   UNL     1      49.670  16.325  -5.292  1.00  0.00     0.123 A 
ATOM      9  C   UNL     1      48.385  16.788  -5.003  1.00  0.00     0.093 A 
ATOM     10  C   UNL     1      47.549  16.061  -4.153  1.00  0.00     0.138 A 
ATOM     11  O   UNL     1      46.268  16.557  -3.871  1.00  0.00    -0.481 OA
ENDROOT
BRANCH   1  12
ATOM     12  C   UNL     1      44.019  16.469  -2.984  1.00  0.00     0.003 A 
ATOM     13  C   UNL     1      43.662  17.302  -4.056  1.00  0.00     0.058 A 
ATOM     14  C   UNL     1      42.339  17.740  -4.210  1.00  0.00     0.161 A 
ATOM     15  C   UNL     1      43.037  16.100  -2.049  1.00  0.00     0.058 A 
ATOM     16  C   UNL     1      41.360  17.354  -3.278  1.00  0.00     0.200 A 
ATOM     17  C   UNL     1      41.715  16.534  -2.193  1.00  0.00     0.161 A 
BRANCH  14  18
ATOM     18  O   UNL     1      41.996  18.559  -5.285  1.00  0.00    -0.504 OA
ATOM     19  H   UNL     1      41.293  18.283  -5.961  1.00  0.00     0.293 HD
ENDBRANCH  14  18
BRANCH  16  20
ATOM     20  O   UNL     1      40.039  17.780  -3.417  1.00  0.00    -0.502 OA
ATOM     21  H   UNL     1      39.407  17.367  -4.093  1.00  0.00     0.293 HD
ENDBRANCH  16  20
BRANCH  17  22
ATOM     22  O   UNL     1      40.769  16.140  -1.249  1.00  0.00    -0.504 OA
ATOM     23  H   UNL     1      41.026  15.883  -0.302  1.00  0.00     0.293 HD
ENDBRANCH  17  22
ENDBRANCH   1  12
BRANCH   2  24
ATOM     24  O   UNL     1      45.004  13.911  -3.870  1.00  0.00    -0.381 OA
ATOM     25  H   UNL     1      45.742  13.482  -4.375  1.00  0.00     0.211 HD
ENDBRANCH   2  24
BRANCH   6  26
ATOM     26  O   UNL     1      49.750  13.106  -3.504  1.00  0.00    -0.507 OA
ATOM     27  H   UNL     1      49.912  12.863  -2.537  1.00  0.00     0.293 HD
ENDBRANCH   6  26
BRANCH   8  28
ATOM     28  O   UNL     1      50.498  17.074  -6.125  1.00  0.00    -0.508 OA
ATOM     29  H   UNL     1      50.167  17.914  -6.585  1.00  0.00     0.293 HD
ENDBRANCH   8  28
TORSDOF 7
ENDMDL
MODEL 4
REMARK VINA RESULT:    -5.321      2.274      7.070
REMARK INTER + INTRA:          -6.724
REMARK INTER:                  -6.891
REMARK INTRA:                   0.167
REMARK UNBOUND:                -0.159
REMARK SMILES O=C1c2c(O)cc(O)cc2O[C@@H](c2cc(O)c(O)c(O)c2)[C@H]1O
REMARK SMILES IDX 12 1 22 2 2 3 1 4 3 5 4 6 6 7 7 8 9 9 10 10 11 11 13 12
REMARK SMILES IDX 14 13 15 14 21 15 17 16 19 17 16 18 18 20 20 22 23 24 5 26
REMARK SMILES IDX 8 28
REMARK H PARENT 16 19 18 21 20 23 23 25 5 27 8 29
REMARK Flexibility Score: inf
ROOT
ATOM      1  C   UNL     1      45.437  15.959  -4.053  1.00  0.00     0.240 C 
ATOM      2  C   UNL     1      44.986  14.913  -3.016  1.00  0.00     0.231 C 
ATOM      3  C   UNL     1      43.520  15.114  -2.745  1.00  0.00     0.202 C 
ATOM      4  O   UNL     1      42.750  14.117  -2.747  1.00  0.00    -0.291 OA
ATOM      5  C   UNL     1      43.010  16.494  -2.552  1.00  0.00     0.105 A 
ATOM      6  C   UNL     1      41.780  16.806  -1.915  1.00  0.00     0.133 A 
ATOM      7  C   UNL     1      41.360  18.141  -1.842  1.00  0.00     0.093 A 
ATOM      8  C   UNL     1      42.165  19.173  -2.337  1.00  0.00     0.123 A 
ATOM      9  C   UNL     1      43.396  18.873  -2.921  1.00  0.00     0.093 A 
ATOM     10  C   UNL     1      43.816  17.546  -3.039  1.00  0.00     0.138 A 
ATOM     11  O   UNL     1      45.053  17.275  -3.642  1.00  0.00    -0.481 OA
ENDROOT
BRANCH   1  12
ATOM     12  C   UNL     1      46.927  15.892  -4.296  1.00  0.00     0.003 A 
ATOM     13  C   UNL     1      47.552  16.872  -5.084  1.00  0.00     0.058 A 
ATOM     14  C   UNL     1      48.926  16.806  -5.348  1.00  0.00     0.161 A 
ATOM     15  C   UNL     1      47.693  14.825  -3.797  1.00  0.00     0.058 A 
ATOM     16  C   UNL     1      49.689  15.742  -4.833  1.00  0.00     0.200 A 
ATOM     17  C   UNL     1      49.065  14.749  -4.058  1.00  0.00     0.161 A 
BRANCH  14  18
ATOM     18  O   UNL     1      49.536  17.791  -6.123  1.00  0.00    -0.504 OA
ATOM     19  H   UNL     1      49.019  18.318  -6.817  1.00  0.00     0.293 HD
ENDBRANCH  14  18
BRANCH  16  20
ATOM     20  O   UNL     1      51.058  15.662  -5.085  1.00  0.00    -0.502 OA
ATOM     21  H   UNL     1      51.480  16.069  -5.911  1.00  0.00     0.293 HD
ENDBRANCH  16  20
BRANCH  17  22
ATOM     22  O   UNL     1      49.792  13.679  -3.539  1.00  0.00    -0.504 OA
ATOM     23  H   UNL     1      49.657  12.728  -3.860  1.00  0.00     0.293 HD
ENDBRANCH  17  22
ENDBRANCH   1  12
BRANCH   2  24
ATOM     24  O   UNL     1      45.705  15.072  -1.820  1.00  0.00    -0.381 OA
ATOM     25  H   UNL     1      45.546  16.001  -1.513  1.00  0.00     0.211 HD
ENDBRANCH   2  24
BRANCH   6  26
ATOM     26  O   UNL     1      40.967  15.844  -1.314  1.00  0.00    -0.507 OA
ATOM     27  H   UNL     1      40.027  16.022  -0.988  1.00  0.00     0.293 HD
ENDBRANCH   6  26
BRANCH   8  28
ATOM     28  O   UNL     1      41.752  20.500  -2.247  1.00  0.00    -0.508 OA
ATOM     29  H   UNL     1      42.108  21.118  -1.526  1.00  0.00     0.293 HD
ENDBRANCH   8  28
TORSDOF 7
ENDMDL
MODEL 5
REMARK VINA RESULT:    -5.227      1.922      7.599
REMARK INTER + INTRA:          -6.608
REMARK INTER:                  -6.224
REMARK INTRA:                  -0.384
REMARK UNBOUND:                -0.159
REMARK SMILES O=C1c2c(O)cc(O)cc2O[C@@H](c2cc(O)c(O)c(O)c2)[C@H]1O
REMARK SMILES IDX 12 1 22 2 2 3 1 4 3 5 4 6 6 7 7 8 9 9 10 10 11 11 13 12
REMARK SMILES IDX 14 13 15 14 21 15 17 16 19 17 16 18 18 20 20 22 23 24 5 26
REMARK SMILES IDX 8 28
REMARK H PARENT 16 19 18 21 20 23 23 25 5 27 8 29
REMARK Flexibility Score: inf
ROOT
ATOM      1  C   UNL     1      44.611  16.362  -4.342  1.00  0.00     0.240 C 
ATOM      2  C   UNL     1      43.725  16.367  -3.082  1.00  0.00     0.231 C 
ATOM      3  C   UNL     1      42.523  17.231  -3.351  1.00  0.00     0.202 C 
ATOM      4  O   UNL     1      41.376  16.803  -3.054  1.00  0.00    -0.291 OA
ATOM      5  C   UNL     1      42.718  18.540  -4.022  1.00  0.00     0.105 A 
ATOM      6  C   UNL     1      41.778  19.603  -3.983  1.00  0.00     0.133 A 
ATOM      7  C   UNL     1      42.032  20.775  -4.707  1.00  0.00     0.093 A 
ATOM      8  C   UNL     1      43.225  20.933  -5.420  1.00  0.00     0.123 A 
ATOM      9  C   UNL     1      44.172  19.908  -5.422  1.00  0.00     0.093 A 
ATOM     10  C   UNL     1      43.922  18.716  -4.739  1.00  0.00     0.138 A 
ATOM     11  O   UNL     1      44.888  17.699  -4.769  1.00  0.00    -0.481 OA
ENDROOT
BRANCH   1  12
ATOM     12  C   UNL     1      45.896  15.600  -4.112  1.00  0.00     0.003 A 
ATOM     13  C   UNL     1      45.851  14.249  -3.733  1.00  0.00     0.058 A 
ATOM     14  C   UNL     1      47.033  13.539  -3.483  1.00  0.00     0.161 A 
ATOM     15  C   UNL     1      47.143  16.242  -4.211  1.00  0.00     0.058 A 
ATOM     16  C   UNL     1      48.276  14.183  -3.599  1.00  0.00     0.200 A 
ATOM     17  C   UNL     1      48.327  15.540  -3.962  1.00  0.00     0.161 A 
BRANCH  14  18
ATOM     18  O   UNL     1      46.974  12.195  -3.117  1.00  0.00    -0.504 OA
ATOM     19  H   UNL     1      47.807  11.620  -3.066  1.00  0.00     0.293 HD
ENDBRANCH  14  18
BRANCH  16  20
ATOM     20  O   UNL     1      49.462  13.491  -3.355  1.00  0.00    -0.502 OA
ATOM     21  H   UNL     1      49.627  12.558  -3.715  1.00  0.00     0.293 HD
ENDBRANCH  16  20
BRANCH  17  22
ATOM     22  O   UNL     1      49.544  16.210  -4.078  1.00  0.00    -0.504 OA
ATOM     23  H   UNL     1      50.402  15.844  -3.680  1.00  0.00     0.293 HD
ENDBRANCH  17  22
ENDBRANCH   1  12
BRANCH   2  24
ATOM     24  O   UNL     1      44.435  16.886  -1.988  1.00  0.00    -0.381 OA
ATOM     25  H   UNL     1      43.855  17.575  -1.572  1.00  0.00     0.211 HD
ENDBRANCH   2  24
BRANCH   6  26
ATOM     26  O   UNL     1      40.610  19.560  -3.220  1.00  0.00    -0.507 OA
ATOM     27  H   UNL     1      40.556  19.168  -2.291  1.00  0.00     0.293 HD
ENDBRANCH   6  26
BRANCH   8  28
ATOM     28  O   UNL     1      43.482  22.108  -6.124  1.00  0.00    -0.508 OA
ATOM     29  H   UNL     1      44.428  22.395  -6.348  1.00  0.00     0.293 HD
ENDBRANCH   8  28
TORSDOF 7
ENDMDL
MODEL 6
REMARK VINA RESULT:    -5.189      2.598      7.637
REMARK INTER + INTRA:          -6.561
REMARK INTER:                  -6.279
REMARK INTRA:                  -0.282
REMARK UNBOUND:                -0.159
REMARK SMILES O=C1c2c(O)cc(O)cc2O[C@@H](c2cc(O)c(O)c(O)c2)[C@H]1O
REMARK SMILES IDX 12 1 22 2 2 3 1 4 3 5 4 6 6 7 7 8 9 9 10 10 11 11 13 12
REMARK SMILES IDX 14 13 15 14 21 15 17 16 19 17 16 18 18 20 20 22 23 24 5 26
REMARK SMILES IDX 8 28
REMARK H PARENT 16 19 18 21 20 23 23 25 5 27 8 29
REMARK Flexibility Score: inf
ROOT
ATOM      1  C   UNL     1      47.785  15.074  -5.038  1.00  0.00     0.240 C 
ATOM      2  C   UNL     1      47.460  14.906  -3.542  1.00  0.00     0.231 C 
ATOM      3  C   UNL     1      46.016  15.268  -3.326  1.00  0.00     0.202 C 
ATOM      4  O   UNL     1      45.283  14.505  -2.644  1.00  0.00    -0.291 OA
ATOM      5  C   UNL     1      45.478  16.485  -3.983  1.00  0.00     0.105 A 
ATOM      6  C   UNL     1      44.296  17.156  -3.570  1.00  0.00     0.133 A 
ATOM      7  C   UNL     1      43.840  18.261  -4.302  1.00  0.00     0.093 A 
ATOM      8  C   UNL     1      44.564  18.745  -5.396  1.00  0.00     0.123 A 
ATOM      9  C   UNL     1      45.750  18.116  -5.775  1.00  0.00     0.093 A 
ATOM     10  C   UNL     1      46.204  16.989  -5.084  1.00  0.00     0.138 A 
ATOM     11  O   UNL     1      47.393  16.372  -5.497  1.00  0.00    -0.481 OA
ENDROOT
BRANCH   1  12
ATOM     12  C   UNL     1      49.251  14.832  -5.317  1.00  0.00     0.003 A 
ATOM     13  C   UNL     1      49.738  13.519  -5.412  1.00  0.00     0.058 A 
ATOM     14  C   UNL     1      51.100  13.277  -5.636  1.00  0.00     0.161 A 
ATOM     15  C   UNL     1      50.153  15.905  -5.422  1.00  0.00     0.058 A 
ATOM     16  C   UNL     1      51.993  14.357  -5.755  1.00  0.00     0.200 A 
ATOM     17  C   UNL     1      51.514  15.673  -5.644  1.00  0.00     0.161 A 
BRANCH  14  18
ATOM     18  O   UNL     1      51.568  11.968  -5.739  1.00  0.00    -0.504 OA
ATOM     19  H   UNL     1      52.534  11.765  -5.970  1.00  0.00     0.293 HD
ENDBRANCH  14  18
BRANCH  16  20
ATOM     20  O   UNL     1      53.351  14.134  -5.980  1.00  0.00    -0.502 OA
ATOM     21  H   UNL     1      54.057  14.824  -5.749  1.00  0.00     0.293 HD
ENDBRANCH  16  20
BRANCH  17  22
ATOM     22  O   UNL     1      52.375  16.764  -5.750  1.00  0.00    -0.504 OA
ATOM     23  H   UNL     1      53.020  16.870  -6.525  1.00  0.00     0.293 HD
ENDBRANCH  17  22
ENDBRANCH   1  12
BRANCH   2  24
ATOM     24  O   UNL     1      48.272  15.751  -2.768  1.00  0.00    -0.381 OA
ATOM     25  H   UNL     1      47.663  16.289  -2.200  1.00  0.00     0.211 HD
ENDBRANCH   2  24
BRANCH   6  26
ATOM     26  O   UNL     1      43.570  16.793  -2.435  1.00  0.00    -0.507 OA
ATOM     27  H   UNL     1      43.867  16.986  -1.489  1.00  0.00     0.293 HD
ENDBRANCH   6  26
BRANCH   8  28
ATOM     28  O   UNL     1      44.116  19.854  -6.110  1.00  0.00    -0.508 OA
ATOM     29  H   UNL     1      44.605  20.188  -6.932  1.00  0.00     0.293 HD
ENDBRANCH   8  28
TORSDOF 7
ENDMDL
MODEL 7
REMARK VINA RESULT:    -5.177      1.604      3.094
REMARK INTER + INTRA:          -6.546
REMARK INTER:                  -6.147
REMARK INTRA:                  -0.399
REMARK UNBOUND:                -0.159
REMARK SMILES O=C1c2c(O)cc(O)cc2O[C@@H](c2cc(O)c(O)c(O)c2)[C@H]1O
REMARK SMILES IDX 12 1 22 2 2 3 1 4 3 5 4 6 6 7 7 8 9 9 10 10 11 11 13 12
REMARK SMILES IDX 14 13 15 14 21 15 17 16 19 17 16 18 18 20 20 22 23 24 5 26
REMARK SMILES IDX 8 28
REMARK H PARENT 16 19 18 21 20 23 23 25 5 27 8 29
REMARK Flexibility Score: inf
ROOT
ATOM      1  C   UNL     1      44.848  15.304  -2.519  1.00  0.00     0.240 C 
ATOM      2  C   UNL     1      44.307  13.972  -3.070  1.00  0.00     0.231 C 
ATOM      3  C   UNL     1      45.353  12.911  -2.859  1.00  0.00     0.202 C 
ATOM      4  O   UNL     1      45.017  11.802  -2.365  1.00  0.00    -0.291 OA
ATOM      5  C   UNL     1      46.768  13.228  -3.176  1.00  0.00     0.105 A 
ATOM      6  C   UNL     1      47.771  12.248  -3.405  1.00  0.00     0.133 A 
ATOM      7  C   UNL     1      49.091  12.656  -3.634  1.00  0.00     0.093 A 
ATOM      8  C   UNL     1      49.423  14.013  -3.696  1.00  0.00     0.123 A 
ATOM      9  C   UNL     1      48.430  14.978  -3.517  1.00  0.00     0.093 A 
ATOM     10  C   UNL     1      47.114  14.595  -3.250  1.00  0.00     0.138 A 
ATOM     11  O   UNL     1      46.141  15.587  -3.063  1.00  0.00    -0.481 OA
ENDROOT
BRANCH   1  12
ATOM     12  C   UNL     1      43.895  16.445  -2.794  1.00  0.00     0.003 A 
ATOM     13  C   UNL     1      44.286  17.495  -3.640  1.00  0.00     0.058 A 
ATOM     14  C   UNL     1      43.428  18.577  -3.877  1.00  0.00     0.161 A 
ATOM     15  C   UNL     1      42.641  16.506  -2.163  1.00  0.00     0.058 A 
ATOM     16  C   UNL     1      42.169  18.623  -3.254  1.00  0.00     0.200 A 
ATOM     17  C   UNL     1      41.779  17.583  -2.393  1.00  0.00     0.161 A 
BRANCH  14  18
ATOM     18  O   UNL     1      43.825  19.608  -4.728  1.00  0.00    -0.504 OA
ATOM     19  H   UNL     1      44.590  19.493  -5.382  1.00  0.00     0.293 HD
ENDBRANCH  14  18
BRANCH  16  20
ATOM     20  O   UNL     1      41.302  19.692  -3.480  1.00  0.00    -0.502 OA
ATOM     21  H   UNL     1      41.461  20.610  -3.081  1.00  0.00     0.293 HD
ENDBRANCH  16  20
BRANCH  17  22
ATOM     22  O   UNL     1      40.540  17.603  -1.755  1.00  0.00    -0.504 OA
ATOM     23  H   UNL     1      40.047  16.753  -1.504  1.00  0.00     0.293 HD
ENDBRANCH  17  22
ENDBRANCH   1  12
BRANCH   2  24
ATOM     24  O   UNL     1      44.032  14.086  -4.442  1.00  0.00    -0.381 OA
ATOM     25  H   UNL     1      43.059  14.262  -4.524  1.00  0.00     0.211 HD
ENDBRANCH   2  24
BRANCH   6  26
ATOM     26  O   UNL     1      47.503  10.879  -3.453  1.00  0.00    -0.507 OA
ATOM     27  H   UNL     1      48.187  10.163  -3.256  1.00  0.00     0.293 HD
ENDBRANCH   6  26
BRANCH   8  28
ATOM     28  O   UNL     1      50.734  14.414  -3.941  1.00  0.00    -0.508 OA
ATOM     29  H   UNL     1      51.524  13.891  -3.581  1.00  0.00     0.293 HD
ENDBRANCH   8  28
TORSDOF 7
ENDMDL
MODEL 8
REMARK VINA RESULT:    -5.123      1.570      6.857
REMARK INTER + INTRA:          -6.479
REMARK INTER:                  -6.088
REMARK INTRA:                  -0.392
REMARK UNBOUND:                -0.159
REMARK SMILES O=C1c2c(O)cc(O)cc2O[C@@H](c2cc(O)c(O)c(O)c2)[C@H]1O
REMARK SMILES IDX 12 1 22 2 2 3 1 4 3 5 4 6 6 7 7 8 9 9 10 10 11 11 13 12
REMARK SMILES IDX 14 13 15 14 21 15 17 16 19 17 16 18 18 20 20 22 23 24 5 26
REMARK SMILES IDX 8 28
REMARK H PARENT 16 19 18 21 20 23 23 25 5 27 8 29
REMARK Flexibility Score: inf
ROOT
ATOM      1  C   UNL     1      46.106  16.164  -3.512  1.00  0.00     0.240 C 
ATOM      2  C   UNL     1      45.881  16.495  -4.999  1.00  0.00     0.231 C 
ATOM      3  C   UNL     1      44.936  17.663  -5.088  1.00  0.00     0.202 C 
ATOM      4  O   UNL     1      45.216  18.627  -5.848  1.00  0.00    -0.291 OA
ATOM      5  C   UNL     1      43.731  17.677  -4.222  1.00  0.00     0.105 A 
ATOM      6  C   UNL     1      42.583  18.475  -4.467  1.00  0.00     0.133 A 
ATOM      7  C   UNL     1      41.525  18.461  -3.549  1.00  0.00     0.093 A 
ATOM      8  C   UNL     1      41.561  17.629  -2.426  1.00  0.00     0.123 A 
ATOM      9  C   UNL     1      42.668  16.808  -2.207  1.00  0.00     0.093 A 
ATOM     10  C   UNL     1      43.751  16.834  -3.088  1.00  0.00     0.138 A 
ATOM     11  O   UNL     1      44.855  16.006  -2.835  1.00  0.00    -0.481 OA
ENDROOT
BRANCH   1  12
ATOM     12  C   UNL     1      46.961  14.929  -3.342  1.00  0.00     0.003 A 
ATOM     13  C   UNL     1      46.406  13.765  -2.786  1.00  0.00     0.058 A 
ATOM     14  C   UNL     1      47.193  12.623  -2.589  1.00  0.00     0.161 A 
ATOM     15  C   UNL     1      48.326  14.944  -3.675  1.00  0.00     0.058 A 
ATOM     16  C   UNL     1      48.555  12.641  -2.939  1.00  0.00     0.200 A 
ATOM     17  C   UNL     1      49.120  13.809  -3.481  1.00  0.00     0.161 A 
BRANCH  14  18
ATOM     18  O   UNL     1      46.627  11.471  -2.046  1.00  0.00    -0.504 OA
ATOM     19  H   UNL     1      47.158  10.613  -1.946  1.00  0.00     0.293 HD
ENDBRANCH  14  18
BRANCH  16  20
ATOM     20  O   UNL     1      49.353  11.513  -2.752  1.00  0.00    -0.502 OA
ATOM     21  H   UNL     1      50.351  11.523  -2.923  1.00  0.00     0.293 HD
ENDBRANCH  16  20
BRANCH  17  22
ATOM     22  O   UNL     1      50.468  13.861  -3.831  1.00  0.00    -0.504 OA
ATOM     23  H   UNL     1      50.877  13.220  -4.501  1.00  0.00     0.293 HD
ENDBRANCH  17  22
ENDBRANCH   1  12
BRANCH   2  24
ATOM     24  O   UNL     1      45.320  15.393  -5.665  1.00  0.00    -0.381 OA
ATOM     25  H   UNL     1      45.321  15.614  -6.632  1.00  0.00     0.211 HD
ENDBRANCH   2  24
BRANCH   6  26
ATOM     26  O   UNL     1      42.431  19.260  -5.612  1.00  0.00    -0.507 OA
ATOM     27  H   UNL     1      43.194  19.539  -6.211  1.00  0.00     0.293 HD
ENDBRANCH   6  26
BRANCH   8  28
ATOM     28  O   UNL     1      40.499  17.604  -1.525  1.00  0.00    -0.508 OA
ATOM     29  H   UNL     1      40.078  18.459  -1.179  1.00  0.00     0.293 HD
ENDBRANCH   8  28
TORSDOF 7
ENDMDL
MODEL 9
REMARK VINA RESULT:    -5.069      2.166      3.494
REMARK INTER + INTRA:          -6.414
REMARK INTER:                  -6.038
REMARK INTRA:                  -0.376
REMARK UNBOUND:                -0.159
REMARK SMILES O=C1c2c(O)cc(O)cc2O[C@@H](c2cc(O)c(O)c(O)c2)[C@H]1O
REMARK SMILES IDX 12 1 22 2 2 3 1 4 3 5 4 6 6 7 7 8 9 9 10 10 11 11 13 12
REMARK SMILES IDX 14 13 15 14 21 15 17 16 19 17 16 18 18 20 20 22 23 24 5 26
REMARK SMILES IDX 8 28
REMARK H PARENT 16 19 18 21 20 23 23 25 5 27 8 29
REMARK Flexibility Score: inf
ROOT
ATOM      1  C   UNL     1      46.818  15.205  -3.494  1.00  0.00     0.240 C 
ATOM      2  C   UNL     1      46.663  13.829  -4.168  1.00  0.00     0.231 C 
ATOM      3  C   UNL     1      48.017  13.177  -4.231  1.00  0.00     0.202 C 
ATOM      4  O   UNL     1      48.142  11.977  -3.869  1.00  0.00    -0.291 OA
ATOM      5  C   UNL     1      49.184  13.989  -4.656  1.00  0.00     0.105 A 
ATOM      6  C   UNL     1      50.403  13.440  -5.136  1.00  0.00     0.133 A 
ATOM      7  C   UNL     1      51.467  14.296  -5.449  1.00  0.00     0.093 A 
ATOM      8  C   UNL     1      51.324  15.684  -5.351  1.00  0.00     0.123 A 
ATOM      9  C   UNL     1      50.112  16.227  -4.924  1.00  0.00     0.093 A 
ATOM     10  C   UNL     1      49.050  15.392  -4.569  1.00  0.00     0.138 A 
ATOM     11  O   UNL     1      47.848  15.967  -4.133  1.00  0.00    -0.481 OA
ENDROOT
BRANCH   1  12
ATOM     12  C   UNL     1      45.515  15.972  -3.492  1.00  0.00     0.003 A 
ATOM     13  C   UNL     1      44.435  15.512  -2.723  1.00  0.00     0.058 A 
ATOM     14  C   UNL     1      43.209  16.191  -2.736  1.00  0.00     0.161 A 
ATOM     15  C   UNL     1      45.345  17.108  -4.300  1.00  0.00     0.058 A 
ATOM     16  C   UNL     1      43.051  17.336  -3.536  1.00  0.00     0.200 A 
ATOM     17  C   UNL     1      44.124  17.792  -4.321  1.00  0.00     0.161 A 
BRANCH  14  18
ATOM     18  O   UNL     1      42.147  15.729  -1.960  1.00  0.00    -0.504 OA
ATOM     19  H   UNL     1      41.881  14.752  -1.950  1.00  0.00     0.293 HD
ENDBRANCH  14  18
BRANCH  16  20
ATOM     20  O   UNL     1      41.839  18.025  -3.560  1.00  0.00    -0.502 OA
ATOM     21  H   UNL     1      41.557  18.649  -2.813  1.00  0.00     0.293 HD
ENDBRANCH  16  20
BRANCH  17  22
ATOM     22  O   UNL     1      43.997  18.920  -5.129  1.00  0.00    -0.504 OA
ATOM     23  H   UNL     1      43.220  19.041  -5.769  1.00  0.00     0.293 HD
ENDBRANCH  17  22
ENDBRANCH   1  12
BRANCH   2  24
ATOM     24  O   UNL     1      46.158  13.978  -5.469  1.00  0.00    -0.381 OA
ATOM     25  H   UNL     1      46.346  14.912  -5.744  1.00  0.00     0.211 HD
ENDBRANCH   2  24
BRANCH   6  26
ATOM     26  O   UNL     1      50.593  12.074  -5.351  1.00  0.00    -0.507 OA
ATOM     27  H   UNL     1      49.857  11.385  -5.286  1.00  0.00     0.293 HD
ENDBRANCH   6  26
BRANCH   8  28
ATOM     28  O   UNL     1      52.379  16.532  -5.681  1.00  0.00    -0.508 OA
ATOM     29  H   UNL     1      53.127  16.727  -5.025  1.00  0.00     0.293 HD
ENDBRANCH   8  28
TORSDOF 7
ENDMDL
