MODEL 1
REMARK VINA RESULT:    -5.867      0.000      0.000
REMARK INTER + INTRA:          -6.304
REMARK INTER:                  -6.210
REMARK INTRA:                  -0.094
REMARK UNBOUND:                -0.094
REMARK SMILES C=C(C)[C@@H]1CC=C(C)C(=O)C1
REMARK SMILES IDX 8 1 7 2 6 3 5 4 4 5 11 6 9 7 10 8 2 9 1 10 3 11
REMARK H PARENT
REMARK Flexibility Score: inf
ROOT
ATOM      1  C   UNL     1     -11.638  72.505  32.422  1.00  0.00     0.048 C 
ATOM      2  C   UNL     1     -11.291  72.968  31.035  1.00  0.00    -0.012 C 
ATOM      3  C   UNL     1     -11.658  72.232  29.972  1.00  0.00    -0.019 C 
ATOM      4  C   UNL     1     -11.352  72.658  28.560  1.00  0.00     0.036 C 
ATOM      5  C   UNL     1     -10.023  73.433  28.492  1.00  0.00     0.025 C 
ATOM      6  C   UNL     1     -10.047  74.624  29.468  1.00  0.00     0.089 C 
ATOM      7  C   UNL     1     -10.438  74.168  30.848  1.00  0.00     0.158 C 
ATOM      8  O   UNL     1     -10.062  74.840  31.845  1.00  0.00    -0.295 OA
ENDROOT
BRANCH   5   9
ATOM      9  C   UNL     1      -9.705  73.879  27.070  1.00  0.00    -0.077 C 
ATOM     10  C   UNL     1     -10.239  74.998  26.551  1.00  0.00     0.008 C 
ATOM     11  C   UNL     1      -8.773  73.062  26.212  1.00  0.00     0.039 C 
ENDBRANCH   5   9
TORSDOF 1
ENDMDL
MODEL 2
REMARK VINA RESULT:    -5.761      1.745      4.869
REMARK INTER + INTRA:          -6.191
REMARK INTER:                  -6.098
REMARK INTRA:                  -0.093
REMARK UNBOUND:                -0.094
REMARK SMILES C=C(C)[C@@H]1CC=C(C)C(=O)C1
REMARK SMILES IDX 8 1 7 2 6 3 5 4 4 5 11 6 9 7 10 8 2 9 1 10 3 11
REMARK H PARENT
REMARK Flexibility Score: inf
ROOT
ATOM      1  C   UNL     1      -9.730  74.653  27.635  1.00  0.00     0.048 C 
ATOM      2  C   UNL     1     -10.186  74.278  29.018  1.00  0.00    -0.012 C 
ATOM      3  C   UNL     1      -9.581  74.815  30.091  1.00  0.00    -0.019 C 
ATOM      4  C   UNL     1     -10.010  74.488  31.497  1.00  0.00     0.036 C 
ATOM      5  C   UNL     1     -10.530  73.041  31.595  1.00  0.00     0.025 C 
ATOM      6  C   UNL     1     -11.658  72.808  30.573  1.00  0.00     0.089 C 
ATOM      7  C   UNL     1     -11.217  73.225  29.196  1.00  0.00     0.158 C 
ATOM      8  O   UNL     1     -11.761  72.694  28.190  1.00  0.00    -0.295 OA
ENDROOT
BRANCH   5   9
ATOM      9  C   UNL     1     -10.977  72.700  33.011  1.00  0.00    -0.077 C 
ATOM     10  C   UNL     1     -12.054  73.282  33.565  1.00  0.00     0.008 C 
ATOM     11  C   UNL     1     -10.207  71.689  33.823  1.00  0.00     0.039 C 
ENDBRANCH   5   9
TORSDOF 1
ENDMDL
MODEL 3
REMARK VINA RESULT:    -5.582      1.779      4.467
REMARK INTER + INTRA:          -6.002
REMARK INTER:                  -5.911
REMARK INTRA:                  -0.091
REMARK UNBOUND:                -0.094
REMARK SMILES C=C(C)[C@@H]1CC=C(C)C(=O)C1
REMARK SMILES IDX 8 1 7 2 6 3 5 4 4 5 11 6 9 7 10 8 2 9 1 10 3 11
REMARK H PARENT
REMARK Flexibility Score: inf
ROOT
ATOM      1  C   UNL     1      -8.776  72.933  26.457  1.00  0.00     0.048 C 
ATOM      2  C   UNL     1      -9.218  73.170  27.875  1.00  0.00    -0.012 C 
ATOM      3  C   UNL     1      -9.050  72.206  28.798  1.00  0.00    -0.019 C 
ATOM      4  C   UNL     1      -9.459  72.397  30.235  1.00  0.00     0.036 C 
ATOM      5  C   UNL     1     -10.694  73.310  30.344  1.00  0.00     0.025 C 
ATOM      6  C   UNL     1     -10.433  74.650  29.629  1.00  0.00     0.089 C 
ATOM      7  C   UNL     1      -9.948  74.414  28.224  1.00  0.00     0.158 C 
ATOM      8  O   UNL     1     -10.138  75.303  27.352  1.00  0.00    -0.295 OA
ENDROOT
BRANCH   5   9
ATOM      9  C   UNL     1     -11.112  73.520  31.794  1.00  0.00    -0.077 C 
ATOM     10  C   UNL     1     -11.649  72.524  32.518  1.00  0.00     0.008 C 
ATOM     11  C   UNL     1     -10.926  74.866  32.446  1.00  0.00     0.039 C 
ENDBRANCH   5   9
TORSDOF 1
ENDMDL
MODEL 4
REMARK VINA RESULT:    -5.479      1.772      2.750
REMARK INTER + INTRA:          -5.894
REMARK INTER:                  -5.803
REMARK INTRA:                  -0.091
REMARK UNBOUND:                -0.094
REMARK SMILES C=C(C)[C@@H]1CC=C(C)C(=O)C1
REMARK SMILES IDX 8 1 7 2 6 3 5 4 4 5 11 6 9 7 10 8 2 9 1 10 3 11
REMARK H PARENT
REMARK Flexibility Score: inf
ROOT
ATOM      1  C   UNL     1     -10.971  73.471  34.484  1.00  0.00     0.048 C 
ATOM      2  C   UNL     1     -10.821  73.601  32.994  1.00  0.00    -0.012 C 
ATOM      3  C   UNL     1     -10.855  74.817  32.422  1.00  0.00    -0.019 C 
ATOM      4  C   UNL     1     -10.693  75.007  30.936  1.00  0.00     0.036 C 
ATOM      5  C   UNL     1     -11.277  73.813  30.159  1.00  0.00     0.025 C 
ATOM      6  C   UNL     1     -10.650  72.495  30.651  1.00  0.00     0.089 C 
ATOM      7  C   UNL     1     -10.760  72.384  32.147  1.00  0.00     0.158 C 
ATOM      8  O   UNL     1     -10.763  71.242  32.679  1.00  0.00    -0.295 OA
ENDROOT
BRANCH   5   9
ATOM      9  C   UNL     1     -11.110  73.986  28.654  1.00  0.00    -0.077 C 
ATOM     10  C   UNL     1     -12.084  73.636  27.797  1.00  0.00     0.008 C 
ATOM     11  C   UNL     1      -9.833  74.562  28.097  1.00  0.00     0.039 C 
ENDBRANCH   5   9
TORSDOF 1
ENDMDL
MODEL 5
REMARK VINA RESULT:    -5.454      2.159      5.457
REMARK INTER + INTRA:          -5.867
REMARK INTER:                  -5.773
REMARK INTRA:                  -0.094
REMARK UNBOUND:                -0.094
REMARK SMILES C=C(C)[C@@H]1CC=C(C)C(=O)C1
REMARK SMILES IDX 8 1 7 2 6 3 5 4 4 5 11 6 9 7 10 8 2 9 1 10 3 11
REMARK H PARENT
REMARK Flexibility Score: inf
ROOT
ATOM      1  C   UNL     1     -10.781  74.257  28.919  1.00  0.00     0.048 C 
ATOM      2  C   UNL     1     -10.939  73.837  30.354  1.00  0.00    -0.012 C 
ATOM      3  C   UNL     1     -10.734  74.729  31.339  1.00  0.00    -0.019 C 
ATOM      4  C   UNL     1     -10.895  74.367  32.792  1.00  0.00     0.036 C 
ATOM      5  C   UNL     1     -10.513  72.896  33.042  1.00  0.00     0.025 C 
ATOM      6  C   UNL     1     -11.321  71.968  32.116  1.00  0.00     0.089 C 
ATOM      7  C   UNL     1     -11.199  72.413  30.684  1.00  0.00     0.158 C 
ATOM      8  O   UNL     1     -11.357  71.568  29.763  1.00  0.00    -0.295 OA
ENDROOT
BRANCH   5   9
ATOM      9  C   UNL     1     -10.681  72.513  34.507  1.00  0.00    -0.077 C 
ATOM     10  C   UNL     1     -11.643  73.063  35.268  1.00  0.00     0.008 C 
ATOM     11  C   UNL     1      -9.760  71.497  35.133  1.00  0.00     0.039 C 
ENDBRANCH   5   9
TORSDOF 1
ENDMDL
MODEL 6
REMARK VINA RESULT:    -5.362      1.544      2.019
REMARK INTER + INTRA:          -5.770
REMARK INTER:                  -5.672
REMARK INTRA:                  -0.098
REMARK UNBOUND:                -0.094
REMARK SMILES C=C(C)[C@@H]1CC=C(C)C(=O)C1
REMARK SMILES IDX 8 1 7 2 6 3 5 4 4 5 11 6 9 7 10 8 2 9 1 10 3 11
REMARK H PARENT
REMARK Flexibility Score: inf
ROOT
ATOM      1  C   UNL     1     -11.423  72.800  31.746  1.00  0.00     0.048 C 
ATOM      2  C   UNL     1     -10.846  73.111  30.392  1.00  0.00    -0.012 C 
ATOM      3  C   UNL     1     -11.519  73.909  29.545  1.00  0.00    -0.019 C 
ATOM      4  C   UNL     1     -10.979  74.268  28.186  1.00  0.00     0.036 C 
ATOM      5  C   UNL     1     -10.144  73.114  27.600  1.00  0.00     0.025 C 
ATOM      6  C   UNL     1      -9.028  72.709  28.581  1.00  0.00     0.089 C 
ATOM      7  C   UNL     1      -9.599  72.440  29.948  1.00  0.00     0.158 C 
ATOM      8  O   UNL     1      -8.985  71.664  30.727  1.00  0.00    -0.295 OA
ENDROOT
BRANCH   5   9
ATOM      9  C   UNL     1      -9.583  73.467  26.228  1.00  0.00    -0.077 C 
ATOM     10  C   UNL     1      -8.588  72.754  25.674  1.00  0.00     0.008 C 
ATOM     11  C   UNL     1     -10.143  74.638  25.461  1.00  0.00     0.039 C 
ENDBRANCH   5   9
TORSDOF 1
ENDMDL
MODEL 7
REMARK VINA RESULT:    -5.337      1.903      4.469
REMARK INTER + INTRA:          -5.743
REMARK INTER:                  -5.652
REMARK INTRA:                  -0.090
REMARK UNBOUND:                -0.094
REMARK SMILES C=C(C)[C@@H]1CC=C(C)C(=O)C1
REMARK SMILES IDX 8 1 7 2 6 3 5 4 4 5 11 6 9 7 10 8 2 9 1 10 3 11
REMARK H PARENT
REMARK Flexibility Score: inf
ROOT
ATOM      1  C   UNL     1      -8.991  72.829  26.902  1.00  0.00     0.048 C 
ATOM      2  C   UNL     1      -9.604  73.158  28.235  1.00  0.00    -0.012 C 
ATOM      3  C   UNL     1     -10.431  74.211  28.349  1.00  0.00    -0.019 C 
ATOM      4  C   UNL     1     -11.087  74.575  29.655  1.00  0.00     0.036 C 
ATOM      5  C   UNL     1     -10.178  74.222  30.848  1.00  0.00     0.025 C 
ATOM      6  C   UNL     1      -9.774  72.737  30.792  1.00  0.00     0.089 C 
ATOM      7  C   UNL     1      -9.200  72.396  29.443  1.00  0.00     0.158 C 
ATOM      8  O   UNL     1      -8.397  71.430  29.344  1.00  0.00    -0.295 OA
ENDROOT
BRANCH   5   9
ATOM      9  C   UNL     1     -10.834  74.576  32.177  1.00  0.00    -0.077 C 
ATOM     10  C   UNL     1     -10.893  75.846  32.612  1.00  0.00     0.008 C 
ATOM     11  C   UNL     1     -11.433  73.491  33.035  1.00  0.00     0.039 C 
ENDBRANCH   5   9
TORSDOF 1
ENDMDL
MODEL 8
REMARK VINA RESULT:    -5.329      2.112      4.478
REMARK INTER + INTRA:          -5.735
REMARK INTER:                  -5.645
REMARK INTRA:                  -0.090
REMARK UNBOUND:                -0.094
REMARK SMILES C=C(C)[C@@H]1CC=C(C)C(=O)C1
REMARK SMILES IDX 8 1 7 2 6 3 5 4 4 5 11 6 9 7 10 8 2 9 1 10 3 11
REMARK H PARENT
REMARK Flexibility Score: inf
ROOT
ATOM      1  C   UNL     1     -10.516  73.551  24.916  1.00  0.00     0.048 C 
ATOM      2  C   UNL     1     -10.588  73.503  26.417  1.00  0.00    -0.012 C 
ATOM      3  C   UNL     1     -11.715  73.877  27.045  1.00  0.00    -0.019 C 
ATOM      4  C   UNL     1     -11.847  73.831  28.545  1.00  0.00     0.036 C 
ATOM      5  C   UNL     1     -10.497  74.115  29.229  1.00  0.00     0.025 C 
ATOM      6  C   UNL     1      -9.420  73.145  28.709  1.00  0.00     0.089 C 
ATOM      7  C   UNL     1      -9.377  73.160  27.204  1.00  0.00     0.158 C 
ATOM      8  O   UNL     1      -8.308  72.843  26.618  1.00  0.00    -0.295 OA
ENDROOT
BRANCH   5   9
ATOM      9  C   UNL     1     -10.614  74.061  30.747  1.00  0.00    -0.077 C 
ATOM     10  C   UNL     1     -10.098  75.030  31.523  1.00  0.00     0.008 C 
ATOM     11  C   UNL     1     -11.320  72.906  31.410  1.00  0.00     0.039 C 
ENDBRANCH   5   9
TORSDOF 1
ENDMDL
MODEL 9
REMARK VINA RESULT:    -5.324      2.735      5.020
REMARK INTER + INTRA:          -5.729
REMARK INTER:                  -5.633
REMARK INTRA:                  -0.096
REMARK UNBOUND:                -0.094
REMARK SMILES C=C(C)[C@@H]1CC=C(C)C(=O)C1
REMARK SMILES IDX 8 1 7 2 6 3 5 4 4 5 11 6 9 7 10 8 2 9 1 10 3 11
REMARK H PARENT
REMARK Flexibility Score: inf
ROOT
ATOM      1  C   UNL     1      -9.774  74.623  24.177  1.00  0.00     0.048 C 
ATOM      2  C   UNL     1      -9.799  74.255  25.635  1.00  0.00    -0.012 C 
ATOM      3  C   UNL     1     -10.513  74.996  26.500  1.00  0.00    -0.019 C 
ATOM      4  C   UNL     1     -10.587  74.662  27.967  1.00  0.00     0.036 C 
ATOM      5  C   UNL     1      -9.273  74.024  28.457  1.00  0.00     0.025 C 
ATOM      6  C   UNL     1      -8.922  72.796  27.596  1.00  0.00     0.089 C 
ATOM      7  C   UNL     1      -8.939  73.153  26.134  1.00  0.00     0.158 C 
ATOM      8  O   UNL     1      -8.242  72.479  25.330  1.00  0.00    -0.295 OA
ENDROOT
BRANCH   5   9
ATOM      9  C   UNL     1      -9.338  73.672  29.938  1.00  0.00    -0.077 C 
ATOM     10  C   UNL     1      -9.324  72.394  30.354  1.00  0.00     0.008 C 
ATOM     11  C   UNL     1      -9.419  74.766  30.971  1.00  0.00     0.039 C 
ENDBRANCH   5   9
TORSDOF 1
ENDMDL
