MODEL 1
REMARK VINA RESULT:     2.951      0.000      0.000
REMARK INTER + INTRA:           6.719
REMARK INTER:                   4.245
REMARK INTRA:                   2.474
REMARK UNBOUND:                 2.474
REMARK SMILES O=c1c(O[C@H]2O[C@@H](CO)[C@H](O)[C@H](O)[C@@H]2O)c(-c2ccc(O)cc2)oc2cc(O)cc(O)c12
REMARK SMILES IDX 4 1 3 2 16 3 24 4 2 5 25 6 1 7 32 8 26 9 30 10 27 11 29 12
REMARK SMILES IDX 17 13 18 14 19 15 20 16 23 17 22 18 21 19 31 21 28 23 5 25
REMARK SMILES IDX 14 26 6 27 12 28 7 29 10 30 15 31 13 33 8 35 9 36 11 38
REMARK H PARENT 21 20 31 22 28 24 15 32 13 34 9 37 11 39
REMARK Flexibility Score: inf
ROOT
ATOM      1  O   UNL     1      10.684  68.404  -0.978  1.00  0.00    -0.454 OA
ENDROOT
BRANCH   1   2
ATOM      2  C   UNL     1      10.319  69.388  -0.053  1.00  0.00     0.214 A 
ATOM      3  C   UNL     1      10.440  70.761  -0.342  1.00  0.00     0.180 A 
ATOM      4  O   UNL     1      10.005  71.655   0.538  1.00  0.00    -0.452 OA
ATOM      5  C   UNL     1       9.822  68.999   1.197  1.00  0.00     0.239 A 
ATOM      6  C   UNL     1       9.489  71.334   1.719  1.00  0.00     0.146 A 
ATOM      7  O   UNL     1       9.768  67.770   1.453  1.00  0.00    -0.285 OA
ATOM      8  C   UNL     1       9.385  69.977   2.126  1.00  0.00     0.111 A 
ATOM      9  C   UNL     1       9.050  72.366   2.549  1.00  0.00     0.094 A 
ATOM     10  C   UNL     1       8.839  69.698   3.419  1.00  0.00     0.134 A 
ATOM     11  C   UNL     1       8.496  72.082   3.793  1.00  0.00     0.123 A 
ATOM     12  C   UNL     1       8.394  70.756   4.219  1.00  0.00     0.093 A 
BRANCH   3  13
ATOM     13  C   UNL     1      11.044  71.269  -1.599  1.00  0.00     0.021 A 
ATOM     14  C   UNL     1      11.335  70.412  -2.676  1.00  0.00     0.016 A 
ATOM     15  C   UNL     1      11.915  70.917  -3.843  1.00  0.00     0.047 A 
ATOM     16  C   UNL     1      12.238  72.272  -3.940  1.00  0.00     0.115 A 
ATOM     17  C   UNL     1      11.392  72.626  -1.694  1.00  0.00     0.016 A 
ATOM     18  C   UNL     1      11.980  73.125  -2.859  1.00  0.00     0.047 A 
BRANCH  16  19
ATOM     19  O   UNL     1      12.826  72.763  -5.104  1.00  0.00    -0.508 OA
ATOM     20  H   UNL     1      12.674  72.320  -5.999  1.00  0.00     0.293 HD
ENDBRANCH  16  19
ENDBRANCH   3  13
BRANCH  10  21
ATOM     21  O   UNL     1       8.708  68.418   3.967  1.00  0.00    -0.507 OA
ATOM     22  H   UNL     1       8.569  67.561   3.461  1.00  0.00     0.293 HD
ENDBRANCH  10  21
BRANCH  11  23
ATOM     23  O   UNL     1       8.029  73.125   4.588  1.00  0.00    -0.508 OA
ATOM     24  H   UNL     1       8.481  73.374   5.457  1.00  0.00     0.293 HD
ENDBRANCH  11  23
ENDBRANCH   1   2
BRANCH   1  25
ATOM     25  C   UNL     1      10.119  68.310  -2.287  1.00  0.00     0.339 C 
ATOM     26  C   UNL     1       8.735  68.992  -2.350  1.00  0.00     0.214 C 
ATOM     27  O   UNL     1      10.083  66.960  -2.720  1.00  0.00    -0.332 OA
ATOM     28  C   UNL     1       7.690  68.189  -1.561  1.00  0.00     0.180 C 
ATOM     29  C   UNL     1       9.171  66.137  -1.999  1.00  0.00     0.179 C 
ATOM     30  C   UNL     1       7.722  66.693  -1.942  1.00  0.00     0.177 C 
BRANCH  26  31
ATOM     31  O   UNL     1       8.326  69.207  -3.681  1.00  0.00    -0.384 OA
ATOM     32  H   UNL     1       7.612  68.555  -3.896  1.00  0.00     0.211 HD
ENDBRANCH  26  31
BRANCH  28  33
ATOM     33  O   UNL     1       6.412  68.728  -1.781  1.00  0.00    -0.387 OA
ATOM     34  H   UNL     1       5.797  68.278  -1.142  1.00  0.00     0.211 HD
ENDBRANCH  28  33
BRANCH  29  35
ATOM     35  C   UNL     1       9.738  65.650  -0.642  1.00  0.00     0.191 C 
BRANCH  35  36
ATOM     36  O   UNL     1       8.748  65.567   0.340  1.00  0.00    -0.394 OA
ATOM     37  H   UNL     1       8.712  66.457   0.779  1.00  0.00     0.210 HD
ENDBRANCH  35  36
ENDBRANCH  29  35
BRANCH  30  38
ATOM     38  O   UNL     1       7.108  66.493  -3.192  1.00  0.00    -0.387 OA
ATOM     39  H   UNL     1       6.374  65.836  -3.057  1.00  0.00     0.211 HD
ENDBRANCH  30  38
ENDBRANCH   1  25
TORSDOF 11
ENDMDL
MODEL 2
REMARK VINA RESULT:     4.190      1.667      6.167
REMARK INTER + INTRA:           8.500
REMARK INTER:                   6.504
REMARK INTRA:                   1.997
REMARK UNBOUND:                 2.474
REMARK SMILES O=c1c(O[C@H]2O[C@@H](CO)[C@H](O)[C@H](O)[C@@H]2O)c(-c2ccc(O)cc2)oc2cc(O)cc(O)c12
REMARK SMILES IDX 4 1 3 2 16 3 24 4 2 5 25 6 1 7 32 8 26 9 30 10 27 11 29 12
REMARK SMILES IDX 17 13 18 14 19 15 20 16 23 17 22 18 21 19 31 21 28 23 5 25
REMARK SMILES IDX 14 26 6 27 12 28 7 29 10 30 15 31 13 33 8 35 9 36 11 38
REMARK H PARENT 21 20 31 22 28 24 15 32 13 34 9 37 11 39
REMARK Flexibility Score: inf
ROOT
ATOM      1  O   UNL     1       8.781  68.642   0.857  1.00  0.00    -0.454 OA
ENDROOT
BRANCH   1   2
ATOM      2  C   UNL     1       9.374  69.598   0.025  1.00  0.00     0.214 A 
ATOM      3  C   UNL     1       9.552  70.933   0.436  1.00  0.00     0.180 A 
ATOM      4  O   UNL     1      10.193  71.782  -0.359  1.00  0.00    -0.452 OA
ATOM      5  C   UNL     1       9.801  69.219  -1.254  1.00  0.00     0.239 A 
ATOM      6  C   UNL     1      10.651  71.459  -1.562  1.00  0.00     0.146 A 
ATOM      7  O   UNL     1       9.588  68.036  -1.618  1.00  0.00    -0.285 OA
ATOM      8  C   UNL     1      10.463  70.153  -2.089  1.00  0.00     0.111 A 
ATOM      9  C   UNL     1      11.324  72.436  -2.296  1.00  0.00     0.094 A 
ATOM     10  C   UNL     1      10.963  69.874  -3.401  1.00  0.00     0.134 A 
ATOM     11  C   UNL     1      11.829  72.146  -3.559  1.00  0.00     0.123 A 
ATOM     12  C   UNL     1      11.647  70.873  -4.102  1.00  0.00     0.093 A 
BRANCH   3  13
ATOM     13  C   UNL     1       9.046  71.451   1.732  1.00  0.00     0.021 A 
ATOM     14  C   UNL     1       7.960  70.848   2.394  1.00  0.00     0.016 A 
ATOM     15  C   UNL     1       7.498  71.365   3.607  1.00  0.00     0.047 A 
ATOM     16  C   UNL     1       8.091  72.502   4.160  1.00  0.00     0.115 A 
ATOM     17  C   UNL     1       9.624  72.606   2.283  1.00  0.00     0.016 A 
ATOM     18  C   UNL     1       9.153  73.124   3.491  1.00  0.00     0.047 A 
BRANCH  16  19
ATOM     19  O   UNL     1       7.616  73.014   5.365  1.00  0.00    -0.508 OA
ATOM     20  H   UNL     1       7.045  72.460   5.987  1.00  0.00     0.293 HD
ENDBRANCH  16  19
ENDBRANCH   3  13
BRANCH  10  21
ATOM     21  O   UNL     1      10.821  68.649  -4.062  1.00  0.00    -0.507 OA
ATOM     22  H   UNL     1      10.314  67.846  -3.732  1.00  0.00     0.293 HD
ENDBRANCH  10  21
BRANCH  11  23
ATOM     23  O   UNL     1      12.533  73.125  -4.256  1.00  0.00    -0.508 OA
ATOM     24  H   UNL     1      12.699  74.041  -3.862  1.00  0.00     0.293 HD
ENDBRANCH  11  23
ENDBRANCH   1   2
BRANCH   1  25
ATOM     25  C   UNL     1       9.040  68.554   2.260  1.00  0.00     0.339 C 
ATOM     26  C   UNL     1      10.519  68.863   2.577  1.00  0.00     0.214 C 
ATOM     27  O   UNL     1       8.624  67.296   2.767  1.00  0.00    -0.332 OA
ATOM     28  C   UNL     1      11.436  67.738   2.075  1.00  0.00     0.180 C 
ATOM     29  C   UNL     1       9.397  66.193   2.304  1.00  0.00     0.179 C 
ATOM     30  C   UNL     1      10.926  66.352   2.526  1.00  0.00     0.177 C 
BRANCH  26  31
ATOM     31  O   UNL     1      10.710  69.115   3.950  1.00  0.00    -0.384 OA
ATOM     32  H   UNL     1      11.660  68.936   4.170  1.00  0.00     0.211 HD
ENDBRANCH  26  31
BRANCH  28  33
ATOM     33  O   UNL     1      12.746  67.956   2.531  1.00  0.00    -0.387 OA
ATOM     34  H   UNL     1      12.792  68.904   2.830  1.00  0.00     0.211 HD
ENDBRANCH  28  33
BRANCH  29  35
ATOM     35  C   UNL     1       8.987  65.718   0.888  1.00  0.00     0.191 C 
BRANCH  35  36
ATOM     36  O   UNL     1       9.967  66.007  -0.066  1.00  0.00    -0.394 OA
ATOM     37  H   UNL     1      10.405  66.848   0.228  1.00  0.00     0.210 HD
ENDBRANCH  35  36
ENDBRANCH  29  35
BRANCH  30  38
ATOM     38  O   UNL     1      11.214  66.143   3.887  1.00  0.00    -0.387 OA
ATOM     39  H   UNL     1      10.994  65.195   4.092  1.00  0.00     0.211 HD
ENDBRANCH  30  38
ENDBRANCH   1  25
TORSDOF 11
ENDMDL
MODEL 3
REMARK VINA RESULT:     4.577      1.715      6.398
REMARK INTER + INTRA:           9.057
REMARK INTER:                   8.025
REMARK INTRA:                   1.032
REMARK UNBOUND:                 2.474
REMARK SMILES O=c1c(O[C@H]2O[C@@H](CO)[C@H](O)[C@H](O)[C@@H]2O)c(-c2ccc(O)cc2)oc2cc(O)cc(O)c12
REMARK SMILES IDX 4 1 3 2 16 3 24 4 2 5 25 6 1 7 32 8 26 9 30 10 27 11 29 12
REMARK SMILES IDX 17 13 18 14 19 15 20 16 23 17 22 18 21 19 31 21 28 23 5 25
REMARK SMILES IDX 14 26 6 27 12 28 7 29 10 30 15 31 13 33 8 35 9 36 11 38
REMARK H PARENT 21 20 31 22 28 24 15 32 13 34 9 37 11 39
REMARK Flexibility Score: inf
ROOT
ATOM      1  O   UNL     1      10.102  70.497  -0.221  1.00  0.00    -0.454 OA
ENDROOT
BRANCH   1   2
ATOM      2  C   UNL     1       9.782  69.207   0.216  1.00  0.00     0.214 A 
ATOM      3  C   UNL     1       9.218  68.969   1.484  1.00  0.00     0.180 A 
ATOM      4  O   UNL     1       8.858  67.736   1.819  1.00  0.00    -0.452 OA
ATOM      5  C   UNL     1      10.031  68.119  -0.631  1.00  0.00     0.239 A 
ATOM      6  C   UNL     1       9.036  66.679   1.035  1.00  0.00     0.146 A 
ATOM      7  O   UNL     1      10.579  68.348  -1.738  1.00  0.00    -0.285 OA
ATOM      8  C   UNL     1       9.655  66.810  -0.237  1.00  0.00     0.111 A 
ATOM      9  C   UNL     1       8.599  65.436   1.494  1.00  0.00     0.094 A 
ATOM     10  C   UNL     1       9.837  65.629  -1.026  1.00  0.00     0.134 A 
ATOM     11  C   UNL     1       8.757  64.300   0.708  1.00  0.00     0.123 A 
ATOM     12  C   UNL     1       9.372  64.402  -0.542  1.00  0.00     0.093 A 
BRANCH   3  13
ATOM     13  C   UNL     1       9.008  70.044   2.486  1.00  0.00     0.021 A 
ATOM     14  C   UNL     1       9.583  69.980   3.769  1.00  0.00     0.016 A 
ATOM     15  C   UNL     1       9.357  71.001   4.696  1.00  0.00     0.047 A 
ATOM     16  C   UNL     1       8.536  72.082   4.367  1.00  0.00     0.115 A 
ATOM     17  C   UNL     1       8.166  71.123   2.170  1.00  0.00     0.016 A 
ATOM     18  C   UNL     1       7.937  72.137   3.102  1.00  0.00     0.047 A 
BRANCH  16  19
ATOM     19  O   UNL     1       8.311  73.090   5.302  1.00  0.00    -0.508 OA
ATOM     20  H   UNL     1       8.789  73.978   5.248  1.00  0.00     0.293 HD
ENDBRANCH  16  19
ENDBRANCH   3  13
BRANCH  10  21
ATOM     21  O   UNL     1      10.460  65.598  -2.278  1.00  0.00    -0.507 OA
ATOM     22  H   UNL     1      10.144  66.056  -3.115  1.00  0.00     0.293 HD
ENDBRANCH  10  21
BRANCH  11  23
ATOM     23  O   UNL     1       8.276  63.077   1.168  1.00  0.00    -0.508 OA
ATOM     24  H   UNL     1       8.856  62.446   1.704  1.00  0.00     0.293 HD
ENDBRANCH  11  23
ENDBRANCH   1   2
BRANCH   1  25
ATOM     25  C   UNL     1       9.593  71.064  -1.430  1.00  0.00     0.339 C 
ATOM     26  C   UNL     1      10.298  70.469  -2.668  1.00  0.00     0.214 C 
ATOM     27  O   UNL     1       9.667  72.480  -1.387  1.00  0.00    -0.332 OA
ATOM     28  C   UNL     1      11.755  70.947  -2.753  1.00  0.00     0.180 C 
ATOM     29  C   UNL     1      10.993  72.999  -1.410  1.00  0.00     0.179 C 
ATOM     30  C   UNL     1      11.857  72.479  -2.591  1.00  0.00     0.177 C 
BRANCH  26  31
ATOM     31  O   UNL     1       9.589  70.754  -3.852  1.00  0.00    -0.384 OA
ATOM     32  H   UNL     1       8.752  71.224  -3.607  1.00  0.00     0.211 HD
ENDBRANCH  26  31
BRANCH  28  33
ATOM     33  O   UNL     1      12.317  70.540  -3.974  1.00  0.00    -0.387 OA
ATOM     34  H   UNL     1      11.761  69.784  -4.308  1.00  0.00     0.211 HD
ENDBRANCH  28  33
BRANCH  29  35
ATOM     35  C   UNL     1      11.685  72.956  -0.025  1.00  0.00     0.191 C 
BRANCH  35  36
ATOM     36  O   UNL     1      10.774  73.125   1.021  1.00  0.00    -0.394 OA
ATOM     37  H   UNL     1      11.304  73.409   1.811  1.00  0.00     0.210 HD
ENDBRANCH  35  36
ENDBRANCH  29  35
BRANCH  30  38
ATOM     38  O   UNL     1      11.450  73.124  -3.773  1.00  0.00    -0.387 OA
ATOM     39  H   UNL     1      12.247  73.589  -4.144  1.00  0.00     0.211 HD
ENDBRANCH  30  38
ENDBRANCH   1  25
TORSDOF 11
ENDMDL
MODEL 4
REMARK VINA RESULT:     5.307      1.609      6.124
REMARK INTER + INTRA:          10.108
REMARK INTER:                   6.282
REMARK INTRA:                   3.826
REMARK UNBOUND:                 2.474
REMARK SMILES O=c1c(O[C@H]2O[C@@H](CO)[C@H](O)[C@H](O)[C@@H]2O)c(-c2ccc(O)cc2)oc2cc(O)cc(O)c12
REMARK SMILES IDX 4 1 3 2 16 3 24 4 2 5 25 6 1 7 32 8 26 9 30 10 27 11 29 12
REMARK SMILES IDX 17 13 18 14 19 15 20 16 23 17 22 18 21 19 31 21 28 23 5 25
REMARK SMILES IDX 14 26 6 27 12 28 7 29 10 30 15 31 13 33 8 35 9 36 11 38
REMARK H PARENT 21 20 31 22 28 24 15 32 13 34 9 37 11 39
REMARK Flexibility Score: inf
ROOT
ATOM      1  O   UNL     1       8.655  68.606   0.467  1.00  0.00    -0.454 OA
ENDROOT
BRANCH   1   2
ATOM      2  C   UNL     1       9.326  69.568  -0.295  1.00  0.00     0.214 A 
ATOM      3  C   UNL     1       9.596  70.856   0.204  1.00  0.00     0.180 A 
ATOM      4  O   UNL     1      10.307  71.706  -0.529  1.00  0.00    -0.452 OA
ATOM      5  C   UNL     1       9.739  69.243  -1.594  1.00  0.00     0.239 A 
ATOM      6  C   UNL     1      10.754  71.429  -1.748  1.00  0.00     0.146 A 
ATOM      7  O   UNL     1       9.444  68.105  -2.038  1.00  0.00    -0.285 OA
ATOM      8  C   UNL     1      10.477  70.178  -2.362  1.00  0.00     0.111 A 
ATOM      9  C   UNL     1      11.506  72.401  -2.411  1.00  0.00     0.094 A 
ATOM     10  C   UNL     1      10.970  69.950  -3.686  1.00  0.00     0.134 A 
ATOM     11  C   UNL     1      12.002  72.157  -3.687  1.00  0.00     0.123 A 
ATOM     12  C   UNL     1      11.733  70.939  -4.314  1.00  0.00     0.093 A 
BRANCH   3  13
ATOM     13  C   UNL     1       9.115  71.324   1.528  1.00  0.00     0.021 A 
ATOM     14  C   UNL     1       8.370  70.487   2.379  1.00  0.00     0.016 A 
ATOM     15  C   UNL     1       7.920  70.959   3.615  1.00  0.00     0.047 A 
ATOM     16  C   UNL     1       8.180  72.274   4.005  1.00  0.00     0.115 A 
ATOM     17  C   UNL     1       9.355  72.652   1.916  1.00  0.00     0.016 A 
ATOM     18  C   UNL     1       8.895  73.122   3.148  1.00  0.00     0.047 A 
BRANCH  16  19
ATOM     19  O   UNL     1       7.718  72.737   5.235  1.00  0.00    -0.508 OA
ATOM     20  H   UNL     1       7.443  72.101   5.969  1.00  0.00     0.293 HD
ENDBRANCH  16  19
ENDBRANCH   3  13
BRANCH  10  21
ATOM     21  O   UNL     1      10.746  68.785  -4.427  1.00  0.00    -0.507 OA
ATOM     22  H   UNL     1       9.866  68.469  -4.796  1.00  0.00     0.293 HD
ENDBRANCH  10  21
BRANCH  11  23
ATOM     23  O   UNL     1      12.784  73.125  -4.313  1.00  0.00    -0.508 OA
ATOM     24  H   UNL     1      12.703  73.314  -5.302  1.00  0.00     0.293 HD
ENDBRANCH  11  23
ENDBRANCH   1   2
BRANCH   1  25
ATOM     25  C   UNL     1       9.093  67.250   0.580  1.00  0.00     0.339 C 
ATOM     26  C   UNL     1       8.471  66.561   1.814  1.00  0.00     0.214 C 
ATOM     27  O   UNL     1      10.510  67.180   0.572  1.00  0.00    -0.332 OA
ATOM     28  C   UNL     1       9.057  67.129   3.114  1.00  0.00     0.180 C 
ATOM     29  C   UNL     1      11.131  67.737   1.726  1.00  0.00     0.179 C 
ATOM     30  C   UNL     1      10.600  67.166   3.070  1.00  0.00     0.177 C 
BRANCH  26  31
ATOM     31  O   UNL     1       8.615  65.161   1.749  1.00  0.00    -0.384 OA
ATOM     32  H   UNL     1       7.735  64.769   1.516  1.00  0.00     0.211 HD
ENDBRANCH  26  31
BRANCH  28  33
ATOM     33  O   UNL     1       8.612  66.369   4.207  1.00  0.00    -0.387 OA
ATOM     34  H   UNL     1       9.387  65.825   4.513  1.00  0.00     0.211 HD
ENDBRANCH  28  33
BRANCH  29  35
ATOM     35  C   UNL     1      11.242  69.281   1.670  1.00  0.00     0.191 C 
BRANCH  35  36
ATOM     36  O   UNL     1      11.222  69.855   2.944  1.00  0.00    -0.394 OA
ATOM     37  H   UNL     1      12.100  69.646   3.359  1.00  0.00     0.210 HD
ENDBRANCH  35  36
ENDBRANCH  29  35
BRANCH  30  38
ATOM     38  O   UNL     1      11.126  65.875   3.256  1.00  0.00    -0.387 OA
ATOM     39  H   UNL     1      10.461  65.232   2.891  1.00  0.00     0.211 HD
ENDBRANCH  30  38
ENDBRANCH   1  25
TORSDOF 11
ENDMDL
MODEL 5
REMARK VINA RESULT:     5.312      1.705      5.812
REMARK INTER + INTRA:          10.115
REMARK INTER:                   8.363
REMARK INTRA:                   1.753
REMARK UNBOUND:                 2.474
REMARK SMILES O=c1c(O[C@H]2O[C@@H](CO)[C@H](O)[C@H](O)[C@@H]2O)c(-c2ccc(O)cc2)oc2cc(O)cc(O)c12
REMARK SMILES IDX 4 1 3 2 16 3 24 4 2 5 25 6 1 7 32 8 26 9 30 10 27 11 29 12
REMARK SMILES IDX 17 13 18 14 19 15 20 16 23 17 22 18 21 19 31 21 28 23 5 25
REMARK SMILES IDX 14 26 6 27 12 28 7 29 10 30 15 31 13 33 8 35 9 36 11 38
REMARK H PARENT 21 20 31 22 28 24 15 32 13 34 9 37 11 39
REMARK Flexibility Score: inf
ROOT
ATOM      1  O   UNL     1       9.536  70.362   0.647  1.00  0.00    -0.454 OA
ENDROOT
BRANCH   1   2
ATOM      2  C   UNL     1       9.628  69.086   0.081  1.00  0.00     0.214 A 
ATOM      3  C   UNL     1      10.253  68.868  -1.162  1.00  0.00     0.180 A 
ATOM      4  O   UNL     1      10.386  67.628  -1.618  1.00  0.00    -0.452 OA
ATOM      5  C   UNL     1       9.082  67.994   0.768  1.00  0.00     0.239 A 
ATOM      6  C   UNL     1       9.921  66.558  -0.984  1.00  0.00     0.146 A 
ATOM      7  O   UNL     1       8.486  68.218   1.851  1.00  0.00    -0.285 OA
ATOM      8  C   UNL     1       9.220  66.684   0.245  1.00  0.00     0.111 A 
ATOM      9  C   UNL     1      10.140  65.305  -1.558  1.00  0.00     0.094 A 
ATOM     10  C   UNL     1       8.726  65.493   0.868  1.00  0.00     0.134 A 
ATOM     11  C   UNL     1       9.678  64.153  -0.931  1.00  0.00     0.123 A 
ATOM     12  C   UNL     1       8.977  64.252   0.273  1.00  0.00     0.093 A 
BRANCH   3  13
ATOM     13  C   UNL     1      10.774  69.972  -2.006  1.00  0.00     0.021 A 
ATOM     14  C   UNL     1      11.072  69.781  -3.368  1.00  0.00     0.016 A 
ATOM     15  C   UNL     1      11.573  70.836  -4.136  1.00  0.00     0.047 A 
ATOM     16  C   UNL     1      11.809  72.082  -3.552  1.00  0.00     0.115 A 
ATOM     17  C   UNL     1      11.033  71.221  -1.420  1.00  0.00     0.016 A 
ATOM     18  C   UNL     1      11.542  72.271  -2.189  1.00  0.00     0.047 A 
BRANCH  16  19
ATOM     19  O   UNL     1      12.317  73.124  -4.324  1.00  0.00    -0.508 OA
ATOM     20  H   UNL     1      12.325  73.079  -5.333  1.00  0.00     0.293 HD
ENDBRANCH  16  19
ENDBRANCH   3  13
BRANCH  10  21
ATOM     21  O   UNL     1       7.991  65.465   2.057  1.00  0.00    -0.507 OA
ATOM     22  H   UNL     1       8.166  64.879   2.856  1.00  0.00     0.293 HD
ENDBRANCH  10  21
BRANCH  11  23
ATOM     23  O   UNL     1       9.943  62.910  -1.501  1.00  0.00    -0.508 OA
ATOM     24  H   UNL     1      10.464  62.199  -1.007  1.00  0.00     0.293 HD
ENDBRANCH  11  23
ENDBRANCH   1   2
BRANCH   1  25
ATOM     25  C   UNL     1      10.269  70.760   1.808  1.00  0.00     0.339 C 
ATOM     26  C   UNL     1       9.561  70.304   3.102  1.00  0.00     0.214 C 
ATOM     27  O   UNL     1      10.520  72.156   1.786  1.00  0.00    -0.332 OA
ATOM     28  C   UNL     1       8.268  71.099   3.330  1.00  0.00     0.180 C 
ATOM     29  C   UNL     1       9.357  72.963   1.941  1.00  0.00     0.179 C 
ATOM     30  C   UNL     1       8.507  72.618   3.194  1.00  0.00     0.177 C 
BRANCH  26  31
ATOM     31  O   UNL     1      10.421  70.382   4.215  1.00  0.00    -0.384 OA
ATOM     32  H   UNL     1       9.867  70.416   5.035  1.00  0.00     0.211 HD
ENDBRANCH  26  31
BRANCH  28  33
ATOM     33  O   UNL     1       7.741  70.793   4.596  1.00  0.00    -0.387 OA
ATOM     34  H   UNL     1       7.674  71.652   5.094  1.00  0.00     0.211 HD
ENDBRANCH  28  33
BRANCH  29  35
ATOM     35  C   UNL     1       8.551  73.123   0.627  1.00  0.00     0.191 C 
BRANCH  35  36
ATOM     36  O   UNL     1       9.378  73.116  -0.499  1.00  0.00    -0.394 OA
ATOM     37  H   UNL     1      10.311  73.072  -0.162  1.00  0.00     0.210 HD
ENDBRANCH  35  36
ENDBRANCH  29  35
BRANCH  30  38
ATOM     38  O   UNL     1       9.158  73.116   4.337  1.00  0.00    -0.387 OA
ATOM     39  H   UNL     1       8.505  73.690   4.820  1.00  0.00     0.211 HD
ENDBRANCH  30  38
ENDBRANCH   1  25
TORSDOF 11
ENDMDL
MODEL 6
REMARK VINA RESULT:     5.804      1.294      5.831
REMARK INTER + INTRA:          10.822
REMARK INTER:                   7.933
REMARK INTRA:                   2.890
REMARK UNBOUND:                 2.474
REMARK SMILES O=c1c(O[C@H]2O[C@@H](CO)[C@H](O)[C@H](O)[C@@H]2O)c(-c2ccc(O)cc2)oc2cc(O)cc(O)c12
REMARK SMILES IDX 4 1 3 2 16 3 24 4 2 5 25 6 1 7 32 8 26 9 30 10 27 11 29 12
REMARK SMILES IDX 17 13 18 14 19 15 20 16 23 17 22 18 21 19 31 21 28 23 5 25
REMARK SMILES IDX 14 26 6 27 12 28 7 29 10 30 15 31 13 33 8 35 9 36 11 38
REMARK H PARENT 21 20 31 22 28 24 15 32 13 34 9 37 11 39
REMARK Flexibility Score: inf
ROOT
ATOM      1  O   UNL     1       8.016  69.558  -0.269  1.00  0.00    -0.454 OA
ENDROOT
BRANCH   1   2
ATOM      2  C   UNL     1       9.051  70.339  -0.794  1.00  0.00     0.214 A 
ATOM      3  C   UNL     1       9.745  71.279  -0.009  1.00  0.00     0.180 A 
ATOM      4  O   UNL     1      10.773  71.937  -0.533  1.00  0.00    -0.452 OA
ATOM      5  C   UNL     1       9.405  70.184  -2.140  1.00  0.00     0.239 A 
ATOM      6  C   UNL     1      11.172  71.795  -1.791  1.00  0.00     0.146 A 
ATOM      7  O   UNL     1       8.741  69.376  -2.835  1.00  0.00    -0.285 OA
ATOM      8  C   UNL     1      10.493  70.917  -2.678  1.00  0.00     0.111 A 
ATOM      9  C   UNL     1      12.278  72.530  -2.219  1.00  0.00     0.094 A 
ATOM     10  C   UNL     1      10.960  70.824  -4.028  1.00  0.00     0.134 A 
ATOM     11  C   UNL     1      12.740  72.412  -3.526  1.00  0.00     0.123 A 
ATOM     12  C   UNL     1      12.081  71.564  -4.419  1.00  0.00     0.093 A 
BRANCH   3  13
ATOM     13  C   UNL     1       9.379  71.581   1.397  1.00  0.00     0.021 A 
ATOM     14  C   UNL     1       9.541  70.631   2.422  1.00  0.00     0.016 A 
ATOM     15  C   UNL     1       9.175  70.940   3.735  1.00  0.00     0.047 A 
ATOM     16  C   UNL     1       8.620  72.185   4.038  1.00  0.00     0.115 A 
ATOM     17  C   UNL     1       8.800  72.823   1.704  1.00  0.00     0.016 A 
ATOM     18  C   UNL     1       8.428  73.125   3.016  1.00  0.00     0.047 A 
BRANCH  16  19
ATOM     19  O   UNL     1       8.251  72.479   5.349  1.00  0.00    -0.508 OA
ATOM     20  H   UNL     1       7.517  73.142   5.555  1.00  0.00     0.293 HD
ENDBRANCH  16  19
ENDBRANCH   3  13
BRANCH  10  21
ATOM     21  O   UNL     1      10.373  70.032  -5.020  1.00  0.00    -0.507 OA
ATOM     22  H   UNL     1      10.852  69.523  -5.742  1.00  0.00     0.293 HD
ENDBRANCH  10  21
BRANCH  11  23
ATOM     23  O   UNL     1      13.869  73.125  -3.920  1.00  0.00    -0.508 OA
ATOM     24  H   UNL     1      13.961  74.115  -3.740  1.00  0.00     0.293 HD
ENDBRANCH  11  23
ENDBRANCH   1   2
BRANCH   1  25
ATOM     25  C   UNL     1       8.236  68.450   0.607  1.00  0.00     0.339 C 
ATOM     26  C   UNL     1       9.743  68.219   0.849  1.00  0.00     0.214 C 
ATOM     27  O   UNL     1       7.577  67.292   0.123  1.00  0.00    -0.332 OA
ATOM     28  C   UNL     1      10.428  67.686  -0.418  1.00  0.00     0.180 C 
ATOM     29  C   UNL     1       8.124  66.766  -1.083  1.00  0.00     0.179 C 
ATOM     30  C   UNL     1       9.652  66.494  -1.020  1.00  0.00     0.177 C 
BRANCH  26  31
ATOM     31  O   UNL     1       9.964  67.372   1.953  1.00  0.00    -0.384 OA
ATOM     32  H   UNL     1      10.673  67.773   2.516  1.00  0.00     0.211 HD
ENDBRANCH  26  31
BRANCH  28  33
ATOM     33  O   UNL     1      11.750  67.316  -0.122  1.00  0.00    -0.387 OA
ATOM     34  H   UNL     1      12.341  67.961  -0.597  1.00  0.00     0.211 HD
ENDBRANCH  28  33
BRANCH  29  35
ATOM     35  C   UNL     1       7.646  67.524  -2.347  1.00  0.00     0.191 C 
BRANCH  35  36
ATOM     36  O   UNL     1       6.465  68.234  -2.116  1.00  0.00    -0.394 OA
ATOM     37  H   UNL     1       6.345  68.266  -1.131  1.00  0.00     0.210 HD
ENDBRANCH  35  36
ENDBRANCH  29  35
BRANCH  30  38
ATOM     38  O   UNL     1       9.877  65.330  -0.263  1.00  0.00    -0.387 OA
ATOM     39  H   UNL     1      10.197  64.629  -0.891  1.00  0.00     0.211 HD
ENDBRANCH  30  38
ENDBRANCH   1  25
TORSDOF 11
ENDMDL
