MODEL 1
REMARK VINA RESULT:    -4.594      0.000      0.000
REMARK INTER + INTRA:          -4.594
REMARK INTER:                  -4.594
REMARK INTRA:                   0.000
REMARK UNBOUND:                 0.000
REMARK SMILES O=c1ccc2ccc3occc3c2o1
REMARK SMILES IDX 6 1 7 2 8 3 12 4 11 5 10 6 9 7 13 8 5 9 4 10 3 11 2 12 1 13
REMARK SMILES IDX 14 14
REMARK H PARENT
REMARK Flexibility Score: inf
ROOT
ATOM      1  C   UNL     1      44.898   1.894 -42.539  1.00  0.00     0.016 A 
ATOM      2  C   UNL     1      46.230   2.300 -42.325  1.00  0.00     0.048 A 
ATOM      3  C   UNL     1      46.812   3.155 -43.259  1.00  0.00     0.137 A 
ATOM      4  C   UNL     1      46.129   3.602 -44.357  1.00  0.00     0.064 A 
ATOM      5  C   UNL     1      46.987   4.418 -45.058  1.00  0.00     0.054 A 
ATOM      6  C   UNL     1      48.163   4.409 -44.316  1.00  0.00     0.196 A 
ATOM      7  O   UNL     1      48.028   3.646 -43.246  1.00  0.00    -0.464 OA
ATOM      8  C   UNL     1      44.811   3.224 -44.604  1.00  0.00     0.149 A 
ATOM      9  C   UNL     1      44.186   2.353 -43.674  1.00  0.00     0.018 A 
ATOM     10  C   UNL     1      42.864   1.971 -43.916  1.00  0.00     0.019 A 
ATOM     11  C   UNL     1      42.208   2.453 -45.051  1.00  0.00     0.094 A 
ATOM     12  C   UNL     1      42.892   3.310 -45.922  1.00  0.00     0.336 A 
ATOM     13  O   UNL     1      42.314   3.752 -46.949  1.00  0.00    -0.246 OA
ATOM     14  O   UNL     1      44.151   3.662 -45.673  1.00  0.00    -0.422 OA
ENDROOT
TORSDOF 0
ENDMDL
MODEL 2
REMARK VINA RESULT:    -4.587     10.531     11.771
REMARK INTER + INTRA:          -4.587
REMARK INTER:                  -4.587
REMARK INTRA:                   0.000
REMARK UNBOUND:                 0.000
REMARK SMILES O=c1ccc2ccc3occc3c2o1
REMARK SMILES IDX 6 1 7 2 8 3 12 4 11 5 10 6 9 7 13 8 5 9 4 10 3 11 2 12 1 13
REMARK SMILES IDX 14 14
REMARK H PARENT
REMARK Flexibility Score: inf
ROOT
ATOM      1  C   UNL     1      55.873   5.892 -49.082  1.00  0.00     0.016 A 
ATOM      2  C   UNL     1      55.454   6.430 -50.315  1.00  0.00     0.048 A 
ATOM      3  C   UNL     1      54.531   7.473 -50.295  1.00  0.00     0.137 A 
ATOM      4  C   UNL     1      54.034   7.979 -49.124  1.00  0.00     0.064 A 
ATOM      5  C   UNL     1      53.159   8.986 -49.462  1.00  0.00     0.054 A 
ATOM      6  C   UNL     1      53.188   9.022 -50.852  1.00  0.00     0.196 A 
ATOM      7  O   UNL     1      54.017   8.107 -51.321  1.00  0.00    -0.464 OA
ATOM      8  C   UNL     1      54.422   7.475 -47.885  1.00  0.00     0.149 A 
ATOM      9  C   UNL     1      55.361   6.411 -47.868  1.00  0.00     0.018 A 
ATOM     10  C   UNL     1      55.756   5.902 -46.628  1.00  0.00     0.019 A 
ATOM     11  C   UNL     1      55.220   6.449 -45.460  1.00  0.00     0.094 A 
ATOM     12  C   UNL     1      54.299   7.499 -45.559  1.00  0.00     0.336 A 
ATOM     13  O   UNL     1      53.807   8.003 -44.516  1.00  0.00    -0.246 OA
ATOM     14  O   UNL     1      53.936   7.969 -46.750  1.00  0.00    -0.422 OA
ENDROOT
TORSDOF 0
ENDMDL
MODEL 3
REMARK VINA RESULT:    -4.546      1.574      4.833
REMARK INTER + INTRA:          -4.546
REMARK INTER:                  -4.546
REMARK INTRA:                   0.000
REMARK UNBOUND:                 0.000
REMARK SMILES O=c1ccc2ccc3occc3c2o1
REMARK SMILES IDX 6 1 7 2 8 3 12 4 11 5 10 6 9 7 13 8 5 9 4 10 3 11 2 12 1 13
REMARK SMILES IDX 14 14
REMARK H PARENT
REMARK Flexibility Score: inf
ROOT
ATOM      1  C   UNL     1      46.074   4.169 -45.705  1.00  0.00     0.016 A 
ATOM      2  C   UNL     1      44.868   4.140 -46.433  1.00  0.00     0.048 A 
ATOM      3  C   UNL     1      43.786   3.456 -45.882  1.00  0.00     0.137 A 
ATOM      4  C   UNL     1      43.870   2.825 -44.670  1.00  0.00     0.064 A 
ATOM      5  C   UNL     1      42.640   2.257 -44.429  1.00  0.00     0.054 A 
ATOM      6  C   UNL     1      41.875   2.593 -45.541  1.00  0.00     0.196 A 
ATOM      7  O   UNL     1      42.587   3.310 -46.392  1.00  0.00    -0.464 OA
ATOM      8  C   UNL     1      45.043   2.830 -43.920  1.00  0.00     0.149 A 
ATOM      9  C   UNL     1      46.166   3.518 -44.452  1.00  0.00     0.018 A 
ATOM     10  C   UNL     1      47.346   3.528 -43.703  1.00  0.00     0.019 A 
ATOM     11  C   UNL     1      47.383   2.868 -42.473  1.00  0.00     0.094 A 
ATOM     12  C   UNL     1      46.233   2.212 -42.015  1.00  0.00     0.336 A 
ATOM     13  O   UNL     1      46.251   1.614 -40.908  1.00  0.00    -0.246 OA
ATOM     14  O   UNL     1      45.119   2.215 -42.744  1.00  0.00    -0.422 OA
ENDROOT
TORSDOF 0
ENDMDL
MODEL 4
REMARK VINA RESULT:    -4.488     13.706     14.466
REMARK INTER + INTRA:          -4.488
REMARK INTER:                  -4.488
REMARK INTRA:                   0.000
REMARK UNBOUND:                 0.000
REMARK SMILES O=c1ccc2ccc3occc3c2o1
REMARK SMILES IDX 6 1 7 2 8 3 12 4 11 5 10 6 9 7 13 8 5 9 4 10 3 11 2 12 1 13
REMARK SMILES IDX 14 14
REMARK H PARENT
REMARK Flexibility Score: inf
ROOT
ATOM      1  C   UNL     1      53.685  -5.576 -49.373  1.00  0.00     0.016 A 
ATOM      2  C   UNL     1      53.055  -6.800 -49.075  1.00  0.00     0.048 A 
ATOM      3  C   UNL     1      52.416  -7.478 -50.112  1.00  0.00     0.137 A 
ATOM      4  C   UNL     1      52.390  -6.988 -51.389  1.00  0.00     0.064 A 
ATOM      5  C   UNL     1      51.686  -7.893 -52.151  1.00  0.00     0.054 A 
ATOM      6  C   UNL     1      51.326  -8.896 -51.258  1.00  0.00     0.196 A 
ATOM      7  O   UNL     1      51.777  -8.620 -50.047  1.00  0.00    -0.464 OA
ATOM      8  C   UNL     1      53.000  -5.781 -51.724  1.00  0.00     0.149 A 
ATOM      9  C   UNL     1      53.660  -5.064 -50.693  1.00  0.00     0.018 A 
ATOM     10  C   UNL     1      54.275  -3.853 -51.023  1.00  0.00     0.019 A 
ATOM     11  C   UNL     1      54.220  -3.394 -52.340  1.00  0.00     0.094 A 
ATOM     12  C   UNL     1      53.550  -4.159 -53.303  1.00  0.00     0.336 A 
ATOM     13  O   UNL     1      53.492  -3.758 -54.494  1.00  0.00    -0.246 OA
ATOM     14  O   UNL     1      52.971  -5.309 -52.967  1.00  0.00    -0.422 OA
ENDROOT
TORSDOF 0
ENDMDL
MODEL 5
REMARK VINA RESULT:    -4.372      9.060     10.438
REMARK INTER + INTRA:          -4.372
REMARK INTER:                  -4.372
REMARK INTRA:                   0.000
REMARK UNBOUND:                 0.000
REMARK SMILES O=c1ccc2ccc3occc3c2o1
REMARK SMILES IDX 6 1 7 2 8 3 12 4 11 5 10 6 9 7 13 8 5 9 4 10 3 11 2 12 1 13
REMARK SMILES IDX 14 14
REMARK H PARENT
REMARK Flexibility Score: inf
ROOT
ATOM      1  C   UNL     1      51.916   7.056 -45.854  1.00  0.00     0.016 A 
ATOM      2  C   UNL     1      52.472   7.448 -44.621  1.00  0.00     0.048 A 
ATOM      3  C   UNL     1      53.814   7.826 -44.598  1.00  0.00     0.137 A 
ATOM      4  C   UNL     1      54.586   7.826 -45.727  1.00  0.00     0.064 A 
ATOM      5  C   UNL     1      55.842   8.247 -45.354  1.00  0.00     0.054 A 
ATOM      6  C   UNL     1      55.740   8.480 -43.987  1.00  0.00     0.196 A 
ATOM      7  O   UNL     1      54.516   8.220 -43.564  1.00  0.00    -0.464 OA
ATOM      8  C   UNL     1      54.074   7.445 -46.966  1.00  0.00     0.149 A 
ATOM      9  C   UNL     1      52.711   7.053 -47.026  1.00  0.00     0.018 A 
ATOM     10  C   UNL     1      52.191   6.671 -48.266  1.00  0.00     0.019 A 
ATOM     11  C   UNL     1      53.019   6.686 -49.390  1.00  0.00     0.094 A 
ATOM     12  C   UNL     1      54.354   7.086 -49.250  1.00  0.00     0.336 A 
ATOM     13  O   UNL     1      55.112   7.104 -50.254  1.00  0.00    -0.246 OA
ATOM     14  O   UNL     1      54.829   7.446 -48.060  1.00  0.00    -0.422 OA
ENDROOT
TORSDOF 0
ENDMDL
MODEL 6
REMARK VINA RESULT:    -4.330     13.606     14.211
REMARK INTER + INTRA:          -4.330
REMARK INTER:                  -4.330
REMARK INTRA:                   0.000
REMARK UNBOUND:                 0.000
REMARK SMILES O=c1ccc2ccc3occc3c2o1
REMARK SMILES IDX 6 1 7 2 8 3 12 4 11 5 10 6 9 7 13 8 5 9 4 10 3 11 2 12 1 13
REMARK SMILES IDX 14 14
REMARK H PARENT
REMARK Flexibility Score: inf
ROOT
ATOM      1  C   UNL     1      53.552  -4.962 -51.020  1.00  0.00     0.016 A 
ATOM      2  C   UNL     1      54.210  -4.588 -49.832  1.00  0.00     0.048 A 
ATOM      3  C   UNL     1      54.177  -5.474 -48.757  1.00  0.00     0.137 A 
ATOM      4  C   UNL     1      53.532  -6.678 -48.831  1.00  0.00     0.064 A 
ATOM      5  C   UNL     1      53.694  -7.295 -47.612  1.00  0.00     0.054 A 
ATOM      6  C   UNL     1      54.447  -6.397 -46.863  1.00  0.00     0.196 A 
ATOM      7  O   UNL     1      54.721  -5.318 -47.575  1.00  0.00    -0.464 OA
ATOM      8  C   UNL     1      52.869  -7.085 -49.987  1.00  0.00     0.149 A 
ATOM      9  C   UNL     1      52.882  -6.207 -51.102  1.00  0.00     0.018 A 
ATOM     10  C   UNL     1      52.220  -6.610 -52.265  1.00  0.00     0.019 A 
ATOM     11  C   UNL     1      51.574  -7.848 -52.292  1.00  0.00     0.094 A 
ATOM     12  C   UNL     1      51.607  -8.659 -51.151  1.00  0.00     0.336 A 
ATOM     13  O   UNL     1      51.030  -9.778 -51.160  1.00  0.00    -0.246 OA
ATOM     14  O   UNL     1      52.243  -8.257 -50.054  1.00  0.00    -0.422 OA
ENDROOT
TORSDOF 0
ENDMDL
MODEL 7
REMARK VINA RESULT:    -4.298     13.484     14.047
REMARK INTER + INTRA:          -4.298
REMARK INTER:                  -4.298
REMARK INTRA:                   0.000
REMARK UNBOUND:                 0.000
REMARK SMILES O=c1ccc2ccc3occc3c2o1
REMARK SMILES IDX 6 1 7 2 8 3 12 4 11 5 10 6 9 7 13 8 5 9 4 10 3 11 2 12 1 13
REMARK SMILES IDX 14 14
REMARK H PARENT
REMARK Flexibility Score: inf
ROOT
ATOM      1  C   UNL     1      53.830  -5.401 -49.207  1.00  0.00     0.016 A 
ATOM      2  C   UNL     1      54.364  -4.199 -49.709  1.00  0.00     0.048 A 
ATOM      3  C   UNL     1      54.179  -3.912 -51.060  1.00  0.00     0.137 A 
ATOM      4  C   UNL     1      53.499  -4.758 -51.893  1.00  0.00     0.064 A 
ATOM      5  C   UNL     1      53.500  -4.179 -53.141  1.00  0.00     0.054 A 
ATOM      6  C   UNL     1      54.200  -2.988 -52.973  1.00  0.00     0.196 A 
ATOM      7  O   UNL     1      54.592  -2.857 -51.719  1.00  0.00    -0.464 OA
ATOM      8  C   UNL     1      52.955  -5.957 -51.436  1.00  0.00     0.149 A 
ATOM      9  C   UNL     1      53.126  -6.281 -50.065  1.00  0.00     0.018 A 
ATOM     10  C   UNL     1      52.582  -7.481 -49.600  1.00  0.00     0.019 A 
ATOM     11  C   UNL     1      51.897  -8.313 -50.489  1.00  0.00     0.094 A 
ATOM     12  C   UNL     1      51.770  -7.923 -51.828  1.00  0.00     0.336 A 
ATOM     13  O   UNL     1      51.155  -8.662 -52.641  1.00  0.00    -0.246 OA
ATOM     14  O   UNL     1      52.295  -6.775 -52.250  1.00  0.00    -0.422 OA
ENDROOT
TORSDOF 0
ENDMDL
MODEL 8
REMARK VINA RESULT:    -4.250      1.896      3.312
REMARK INTER + INTRA:          -4.250
REMARK INTER:                  -4.250
REMARK INTRA:                   0.000
REMARK UNBOUND:                 0.000
REMARK SMILES O=c1ccc2ccc3occc3c2o1
REMARK SMILES IDX 6 1 7 2 8 3 12 4 11 5 10 6 9 7 13 8 5 9 4 10 3 11 2 12 1 13
REMARK SMILES IDX 14 14
REMARK H PARENT
REMARK Flexibility Score: inf
ROOT
ATOM      1  C   UNL     1      47.729   3.742 -43.777  1.00  0.00     0.016 A 
ATOM      2  C   UNL     1      48.498   3.422 -42.642  1.00  0.00     0.048 A 
ATOM      3  C   UNL     1      47.907   2.647 -41.646  1.00  0.00     0.137 A 
ATOM      4  C   UNL     1      46.619   2.197 -41.748  1.00  0.00     0.064 A 
ATOM      5  C   UNL     1      46.356   1.472 -40.608  1.00  0.00     0.054 A 
ATOM      6  C   UNL     1      47.537   1.534 -39.875  1.00  0.00     0.196 A 
ATOM      7  O   UNL     1      48.445   2.243 -40.521  1.00  0.00    -0.464 OA
ATOM      8  C   UNL     1      45.825   2.491 -42.854  1.00  0.00     0.149 A 
ATOM      9  C   UNL     1      46.395   3.279 -43.888  1.00  0.00     0.018 A 
ATOM     10  C   UNL     1      45.604   3.576 -45.001  1.00  0.00     0.019 A 
ATOM     11  C   UNL     1      44.294   3.095 -45.059  1.00  0.00     0.094 A 
ATOM     12  C   UNL     1      43.803   2.323 -43.999  1.00  0.00     0.336 A 
ATOM     13  O   UNL     1      42.625   1.882 -44.037  1.00  0.00    -0.246 OA
ATOM     14  O   UNL     1      44.573   2.051 -42.948  1.00  0.00    -0.422 OA
ENDROOT
TORSDOF 0
ENDMDL
MODEL 9
REMARK VINA RESULT:    -4.128     16.204     17.504
REMARK INTER + INTRA:          -4.128
REMARK INTER:                  -4.128
REMARK INTRA:                   0.000
REMARK UNBOUND:                 0.000
REMARK SMILES O=c1ccc2ccc3occc3c2o1
REMARK SMILES IDX 6 1 7 2 8 3 12 4 11 5 10 6 9 7 13 8 5 9 4 10 3 11 2 12 1 13
REMARK SMILES IDX 14 14
REMARK H PARENT
REMARK Flexibility Score: inf
ROOT
ATOM      1  C   UNL     1      59.109  -2.500 -47.245  1.00  0.00     0.016 A 
ATOM      2  C   UNL     1      59.770  -3.052 -46.130  1.00  0.00     0.048 A 
ATOM      3  C   UNL     1      60.682  -4.082 -46.353  1.00  0.00     0.137 A 
ATOM      4  C   UNL     1      60.944  -4.558 -47.609  1.00  0.00     0.064 A 
ATOM      5  C   UNL     1      61.879  -5.559 -47.470  1.00  0.00     0.054 A 
ATOM      6  C   UNL     1      62.125  -5.621 -46.103  1.00  0.00     0.196 A 
ATOM      7  O   UNL     1      61.395  -4.726 -45.461  1.00  0.00    -0.464 OA
ATOM      8  C   UNL     1      60.312  -4.040 -48.736  1.00  0.00     0.149 A 
ATOM      9  C   UNL     1      59.376  -2.989 -48.547  1.00  0.00     0.018 A 
ATOM     10  C   UNL     1      58.739  -2.464 -49.674  1.00  0.00     0.019 A 
ATOM     11  C   UNL     1      59.039  -2.984 -50.935  1.00  0.00     0.094 A 
ATOM     12  C   UNL     1      59.974  -4.021 -51.041  1.00  0.00     0.336 A 
ATOM     13  O   UNL     1      60.255  -4.500 -52.171  1.00  0.00    -0.246 OA
ATOM     14  O   UNL     1      60.570  -4.507 -49.954  1.00  0.00    -0.422 OA
ENDROOT
TORSDOF 0
ENDMDL
