MODEL 1
REMARK VINA RESULT:    -2.371      0.000      0.000
REMARK INTER + INTRA:          -2.833
REMARK INTER:                  -2.786
REMARK INTRA:                  -0.046
REMARK UNBOUND:                -0.046
REMARK SMILES O=C([O-])CCC(=O)[O-]
REMARK SMILES IDX 4 1 2 2 1 3 3 4 5 5 6 6 7 7 8 8
REMARK H PARENT
REMARK Flexibility Score: inf
ROOT
ATOM      1  C   UNL     1     171.953 153.881 151.012  1.00  0.00     0.059 C 
ENDROOT
BRANCH   1   2
ATOM      2  C   UNL     1     172.694 152.640 151.400  1.00  0.00     0.042 C 
ATOM      3  O   UNL     1     173.114 152.495 152.578  1.00  0.00    -0.550 OA
ATOM      4  O   UNL     1     172.878 151.621 150.473  1.00  0.00    -0.550 OA
ENDBRANCH   1   2
BRANCH   1   5
ATOM      5  C   UNL     1     172.512 155.093 151.757  1.00  0.00     0.059 C 
BRANCH   5   6
ATOM      6  C   UNL     1     171.500 156.194 151.799  1.00  0.00     0.042 C 
ATOM      7  O   UNL     1     170.382 156.049 151.239  1.00  0.00    -0.550 OA
ATOM      8  O   UNL     1     171.774 157.363 152.499  1.00  0.00    -0.550 OA
ENDBRANCH   5   6
ENDBRANCH   1   5
TORSDOF 3
ENDMDL
MODEL 2
REMARK VINA RESULT:    -2.253      7.995      9.385
REMARK INTER + INTRA:          -2.694
REMARK INTER:                  -2.578
REMARK INTRA:                  -0.116
REMARK UNBOUND:                -0.046
REMARK SMILES O=C([O-])CCC(=O)[O-]
REMARK SMILES IDX 4 1 2 2 1 3 3 4 5 5 6 6 7 7 8 8
REMARK H PARENT
REMARK Flexibility Score: inf
ROOT
ATOM      1  C   UNL     1     170.503 160.555 146.296  1.00  0.00     0.059 C 
ENDROOT
BRANCH   1   2
ATOM      2  C   UNL     1     170.351 161.435 147.496  1.00  0.00     0.042 C 
ATOM      3  O   UNL     1     170.192 162.676 147.356  1.00  0.00    -0.550 OA
ATOM      4  O   UNL     1     170.336 160.878 148.769  1.00  0.00    -0.550 OA
ENDBRANCH   1   2
BRANCH   1   5
ATOM      5  C   UNL     1     171.982 160.359 145.961  1.00  0.00     0.059 C 
BRANCH   5   6
ATOM      6  C   UNL     1     172.390 161.270 144.846  1.00  0.00     0.042 C 
ATOM      7  O   UNL     1     172.034 161.025 143.664  1.00  0.00    -0.550 OA
ATOM      8  O   UNL     1     173.125 162.417 145.120  1.00  0.00    -0.550 OA
ENDBRANCH   5   6
ENDBRANCH   1   5
TORSDOF 3
ENDMDL
MODEL 3
REMARK VINA RESULT:    -2.185     15.360     16.373
REMARK INTER + INTRA:          -2.615
REMARK INTER:                  -2.438
REMARK INTRA:                  -0.176
REMARK UNBOUND:                -0.046
REMARK SMILES O=C([O-])CCC(=O)[O-]
REMARK SMILES IDX 4 1 2 2 1 3 3 4 5 5 6 6 7 7 8 8
REMARK H PARENT
REMARK Flexibility Score: inf
ROOT
ATOM      1  C   UNL     1     168.055 169.034 152.256  1.00  0.00     0.059 C 
ENDROOT
BRANCH   1   2
ATOM      2  C   UNL     1     167.758 170.447 152.650  1.00  0.00     0.042 C 
ATOM      3  O   UNL     1     168.617 171.125 153.272  1.00  0.00    -0.550 OA
ATOM      4  O   UNL     1     166.551 171.031 152.286  1.00  0.00    -0.550 OA
ENDBRANCH   1   2
BRANCH   1   5
ATOM      5  C   UNL     1     169.202 168.990 151.246  1.00  0.00     0.059 C 
BRANCH   5   6
ATOM      6  C   UNL     1     168.757 169.531 149.924  1.00  0.00     0.042 C 
ATOM      7  O   UNL     1     169.480 170.349 149.296  1.00  0.00    -0.550 OA
ATOM      8  O   UNL     1     167.564 169.094 149.361  1.00  0.00    -0.550 OA
ENDBRANCH   5   6
ENDBRANCH   1   5
TORSDOF 3
ENDMDL
MODEL 4
REMARK VINA RESULT:    -2.166     15.348     16.175
REMARK INTER + INTRA:          -2.592
REMARK INTER:                  -2.470
REMARK INTRA:                  -0.122
REMARK UNBOUND:                -0.046
REMARK SMILES O=C([O-])CCC(=O)[O-]
REMARK SMILES IDX 4 1 2 2 1 3 3 4 5 5 6 6 7 7 8 8
REMARK H PARENT
REMARK Flexibility Score: inf
ROOT
ATOM      1  C   UNL     1     168.905 169.612 151.319  1.00  0.00     0.059 C 
ENDROOT
BRANCH   1   2
ATOM      2  C   UNL     1     168.254 169.691 149.974  1.00  0.00     0.042 C 
ATOM      3  O   UNL     1     167.273 170.458 149.788  1.00  0.00    -0.550 OA
ATOM      4  O   UNL     1     168.763 168.953 148.911  1.00  0.00    -0.550 OA
ENDBRANCH   1   2
BRANCH   1   5
ATOM      5  C   UNL     1     167.942 169.013 152.344  1.00  0.00     0.059 C 
BRANCH   5   6
ATOM      6  C   UNL     1     167.599 170.024 153.393  1.00  0.00     0.042 C 
ATOM      7  O   UNL     1     167.080 171.124 153.068  1.00  0.00    -0.550 OA
ATOM      8  O   UNL     1     167.808 169.732 154.735  1.00  0.00    -0.550 OA
ENDBRANCH   5   6
ENDBRANCH   1   5
TORSDOF 3
ENDMDL
MODEL 5
REMARK VINA RESULT:    -2.161     15.264     16.964
REMARK INTER + INTRA:          -2.586
REMARK INTER:                  -2.466
REMARK INTRA:                  -0.120
REMARK UNBOUND:                -0.046
REMARK SMILES O=C([O-])CCC(=O)[O-]
REMARK SMILES IDX 4 1 2 2 1 3 3 4 5 5 6 6 7 7 8 8
REMARK H PARENT
REMARK Flexibility Score: inf
ROOT
ATOM      1  C   UNL     1     167.850 170.642 153.490  1.00  0.00     0.059 C 
ENDROOT
BRANCH   1   2
ATOM      2  C   UNL     1     166.411 170.967 153.741  1.00  0.00     0.042 C 
ATOM      3  O   UNL     1     165.619 171.125 152.775  1.00  0.00    -0.550 OA
ATOM      4  O   UNL     1     165.934 171.049 155.044  1.00  0.00    -0.550 OA
ENDBRANCH   1   2
BRANCH   1   5
ATOM      5  C   UNL     1     167.972 169.366 152.657  1.00  0.00     0.059 C 
BRANCH   5   6
ATOM      6  C   UNL     1     168.721 169.637 151.391  1.00  0.00     0.042 C 
ATOM      7  O   UNL     1     168.387 170.597 150.649  1.00  0.00    -0.550 OA
ATOM      8  O   UNL     1     169.822 168.858 151.054  1.00  0.00    -0.550 OA
ENDBRANCH   5   6
ENDBRANCH   1   5
TORSDOF 3
ENDMDL
MODEL 6
REMARK VINA RESULT:    -2.160      2.468      3.301
REMARK INTER + INTRA:          -2.585
REMARK INTER:                  -2.465
REMARK INTRA:                  -0.120
REMARK UNBOUND:                -0.046
REMARK SMILES O=C([O-])CCC(=O)[O-]
REMARK SMILES IDX 4 1 2 2 1 3 3 4 5 5 6 6 7 7 8 8
REMARK H PARENT
REMARK Flexibility Score: inf
ROOT
ATOM      1  C   UNL     1     172.017 152.397 152.883  1.00  0.00     0.059 C 
ENDROOT
BRANCH   1   2
ATOM      2  C   UNL     1     172.493 152.748 151.510  1.00  0.00     0.042 C 
ATOM      3  O   UNL     1     172.916 151.850 150.736  1.00  0.00    -0.550 OA
ATOM      4  O   UNL     1     172.425 154.064 151.066  1.00  0.00    -0.550 OA
ENDBRANCH   1   2
BRANCH   1   5
ATOM      5  C   UNL     1     173.125 152.632 153.911  1.00  0.00     0.059 C 
BRANCH   5   6
ATOM      6  C   UNL     1     172.797 153.810 154.774  1.00  0.00     0.042 C 
ATOM      7  O   UNL     1     172.796 154.971 154.289  1.00  0.00    -0.550 OA
ATOM      8  O   UNL     1     172.443 153.619 156.104  1.00  0.00    -0.550 OA
ENDBRANCH   5   6
ENDBRANCH   1   5
TORSDOF 3
ENDMDL
MODEL 7
REMARK VINA RESULT:    -1.948      1.076      4.077
REMARK INTER + INTRA:          -2.336
REMARK INTER:                  -2.217
REMARK INTRA:                  -0.119
REMARK UNBOUND:                -0.046
REMARK SMILES O=C([O-])CCC(=O)[O-]
REMARK SMILES IDX 4 1 2 2 1 3 3 4 5 5 6 6 7 7 8 8
REMARK H PARENT
REMARK Flexibility Score: inf
ROOT
ATOM      1  C   UNL     1     172.339 155.141 151.539  1.00  0.00     0.059 C 
ENDROOT
BRANCH   1   2
ATOM      2  C   UNL     1     172.274 156.068 152.711  1.00  0.00     0.042 C 
ATOM      3  O   UNL     1     171.729 157.197 152.597  1.00  0.00    -0.550 OA
ATOM      4  O   UNL     1     172.773 155.665 153.944  1.00  0.00    -0.550 OA
ENDBRANCH   1   2
BRANCH   1   5
ATOM      5  C   UNL     1     171.564 153.855 151.829  1.00  0.00     0.059 C 
BRANCH   5   6
ATOM      6  C   UNL     1     172.496 152.687 151.903  1.00  0.00     0.042 C 
ATOM      7  O   UNL     1     172.748 152.011 150.871  1.00  0.00    -0.550 OA
ATOM      8  O   UNL     1     173.125 152.374 153.101  1.00  0.00    -0.550 OA
ENDBRANCH   5   6
ENDBRANCH   1   5
TORSDOF 3
ENDMDL
MODEL 8
REMARK VINA RESULT:     0.312     11.014     12.020
REMARK INTER + INTRA:           0.320
REMARK INTER:                  -0.743
REMARK INTRA:                   1.063
REMARK UNBOUND:                -0.046
REMARK SMILES O=C([O-])CCC(=O)[O-]
REMARK SMILES IDX 4 1 2 2 1 3 3 4 5 5 6 6 7 7 8 8
REMARK H PARENT
REMARK Flexibility Score: inf
ROOT
ATOM      1  C   UNL     1     168.933 161.930 144.658  1.00  0.00     0.059 C 
ENDROOT
BRANCH   1   2
ATOM      2  C   UNL     1     169.539 161.125 143.552  1.00  0.00     0.042 C 
ATOM      3  O   UNL     1     168.836 160.300 142.910  1.00  0.00    -0.550 OA
ATOM      4  O   UNL     1     170.868 161.320 143.198  1.00  0.00    -0.550 OA
ENDBRANCH   1   2
BRANCH   1   5
ATOM      5  C   UNL     1     168.571 163.331 144.163  1.00  0.00     0.059 C 
BRANCH   5   6
ATOM      6  C   UNL     1     169.384 163.687 142.958  1.00  0.00     0.042 C 
ATOM      7  O   UNL     1     170.476 164.299 143.088  1.00  0.00    -0.550 OA
ATOM      8  O   UNL     1     168.958 163.299 141.694  1.00  0.00    -0.550 OA
ENDBRANCH   5   6
ENDBRANCH   1   5
TORSDOF 3
ENDMDL
