MODEL 1
REMARK VINA RESULT:    -4.530      0.000      0.000
REMARK INTER + INTRA:          -6.447
REMARK INTER:                  -5.590
REMARK INTRA:                  -0.857
REMARK UNBOUND:                -0.857
REMARK SMILES CCCCCc1ccccc1
REMARK SMILES IDX 4 1 3 2 2 3 1 4 5 5 6 6 7 7 11 8 8 9 10 10 9 11
REMARK H PARENT
REMARK Flexibility Score: inf
ROOT
ATOM      1  C   UNL     1     146.276 184.972 156.105  1.00  0.00     0.005 C 
ENDROOT
BRANCH   1   2
ATOM      2  C   UNL     1     144.991 184.734 155.292  1.00  0.00     0.000 C 
BRANCH   2   3
ATOM      3  C   UNL     1     144.966 183.417 154.495  1.00  0.00    -0.003 C 
ATOM      4  C   UNL     1     144.104 182.338 155.150  1.00  0.00     0.004 C 
ENDBRANCH   2   3
ENDBRANCH   1   2
BRANCH   1   5
ATOM      5  C   UNL     1     146.003 185.227 157.594  1.00  0.00     0.035 C 
BRANCH   5   6
ATOM      6  C   UNL     1     145.335 184.032 158.219  1.00  0.00    -0.048 A 
ATOM      7  C   UNL     1     146.031 182.817 158.345  1.00  0.00     0.004 A 
ATOM      8  C   UNL     1     144.031 184.134 158.732  1.00  0.00     0.004 A 
ATOM      9  C   UNL     1     145.422 181.716 158.955  1.00  0.00     0.000 A 
ATOM     10  C   UNL     1     143.425 183.031 159.341  1.00  0.00     0.000 A 
ATOM     11  C   UNL     1     144.120 181.823 159.451  1.00  0.00     0.000 A 
ENDBRANCH   5   6
ENDBRANCH   1   5
TORSDOF 4
ENDMDL
MODEL 2
REMARK VINA RESULT:    -4.409      2.046      2.835
REMARK INTER + INTRA:          -6.298
REMARK INTER:                  -5.950
REMARK INTRA:                  -0.348
REMARK UNBOUND:                -0.857
REMARK SMILES CCCCCc1ccccc1
REMARK SMILES IDX 4 1 3 2 2 3 1 4 5 5 6 6 7 7 11 8 8 9 10 10 9 11
REMARK H PARENT
REMARK Flexibility Score: inf
ROOT
ATOM      1  C   UNL     1     144.286 182.703 155.291  1.00  0.00     0.005 C 
ENDROOT
BRANCH   1   2
ATOM      2  C   UNL     1     144.743 183.176 153.899  1.00  0.00     0.000 C 
BRANCH   2   3
ATOM      3  C   UNL     1     143.688 183.970 153.108  1.00  0.00    -0.003 C 
ATOM      4  C   UNL     1     143.677 183.630 151.618  1.00  0.00     0.004 C 
ENDBRANCH   2   3
ENDBRANCH   1   2
BRANCH   1   5
ATOM      5  C   UNL     1     142.893 183.222 155.671  1.00  0.00     0.035 C 
BRANCH   5   6
ATOM      6  C   UNL     1     142.843 183.574 157.134  1.00  0.00    -0.048 A 
ATOM      7  C   UNL     1     143.604 182.845 158.064  1.00  0.00     0.004 A 
ATOM      8  C   UNL     1     142.083 184.670 157.575  1.00  0.00     0.004 A 
ATOM      9  C   UNL     1     143.583 183.193 159.419  1.00  0.00     0.000 A 
ATOM     10  C   UNL     1     142.064 185.014 158.931  1.00  0.00     0.000 A 
ATOM     11  C   UNL     1     142.813 184.276 159.851  1.00  0.00     0.000 A 
ENDBRANCH   5   6
ENDBRANCH   1   5
TORSDOF 4
ENDMDL
MODEL 3
REMARK VINA RESULT:    -4.386      2.208      3.196
REMARK INTER + INTRA:          -6.269
REMARK INTER:                  -5.881
REMARK INTRA:                  -0.389
REMARK UNBOUND:                -0.857
REMARK SMILES CCCCCc1ccccc1
REMARK SMILES IDX 4 1 3 2 2 3 1 4 5 5 6 6 7 7 11 8 8 9 10 10 9 11
REMARK H PARENT
REMARK Flexibility Score: inf
ROOT
ATOM      1  C   UNL     1     145.007 183.750 155.269  1.00  0.00     0.005 C 
ENDROOT
BRANCH   1   2
ATOM      2  C   UNL     1     144.755 183.193 153.856  1.00  0.00     0.000 C 
BRANCH   2   3
ATOM      3  C   UNL     1     143.665 183.930 153.057  1.00  0.00    -0.003 C 
ATOM      4  C   UNL     1     143.672 183.578 151.569  1.00  0.00     0.004 C 
ENDBRANCH   2   3
ENDBRANCH   1   2
BRANCH   1   5
ATOM      5  C   UNL     1     144.385 182.884 156.372  1.00  0.00     0.035 C 
BRANCH   5   6
ATOM      6  C   UNL     1     143.273 183.628 157.062  1.00  0.00    -0.048 A 
ATOM      7  C   UNL     1     143.442 184.093 158.378  1.00  0.00     0.004 A 
ATOM      8  C   UNL     1     142.080 183.916 156.379  1.00  0.00     0.004 A 
ATOM      9  C   UNL     1     142.421 184.814 159.007  1.00  0.00     0.000 A 
ATOM     10  C   UNL     1     141.061 184.636 157.011  1.00  0.00     0.000 A 
ATOM     11  C   UNL     1     141.232 185.083 158.325  1.00  0.00     0.000 A 
ENDBRANCH   5   6
ENDBRANCH   1   5
TORSDOF 4
ENDMDL
MODEL 4
REMARK VINA RESULT:    -4.373      1.325      2.516
REMARK INTER + INTRA:          -6.253
REMARK INTER:                  -5.333
REMARK INTRA:                  -0.919
REMARK UNBOUND:                -0.857
REMARK SMILES CCCCCc1ccccc1
REMARK SMILES IDX 4 1 3 2 2 3 1 4 5 5 6 6 7 7 11 8 8 9 10 10 9 11
REMARK H PARENT
REMARK Flexibility Score: inf
ROOT
ATOM      1  C   UNL     1     142.256 184.732 157.153  1.00  0.00     0.005 C 
ENDROOT
BRANCH   1   2
ATOM      2  C   UNL     1     142.156 183.548 156.174  1.00  0.00     0.000 C 
BRANCH   2   3
ATOM      3  C   UNL     1     143.175 183.577 155.020  1.00  0.00    -0.003 C 
ATOM      4  C   UNL     1     144.255 182.503 155.149  1.00  0.00     0.004 C 
ENDBRANCH   2   3
ENDBRANCH   1   2
BRANCH   1   5
ATOM      5  C   UNL     1     142.571 184.294 158.590  1.00  0.00     0.035 C 
BRANCH   5   6
ATOM      6  C   UNL     1     143.938 183.666 158.661  1.00  0.00    -0.048 A 
ATOM      7  C   UNL     1     144.083 182.332 159.079  1.00  0.00     0.004 A 
ATOM      8  C   UNL     1     145.073 184.387 158.256  1.00  0.00     0.004 A 
ATOM      9  C   UNL     1     145.349 181.738 159.114  1.00  0.00     0.000 A 
ATOM     10  C   UNL     1     146.337 183.791 158.293  1.00  0.00     0.000 A 
ATOM     11  C   UNL     1     146.475 182.468 158.723  1.00  0.00     0.000 A 
ENDBRANCH   5   6
ENDBRANCH   1   5
TORSDOF 4
ENDMDL
MODEL 5
REMARK VINA RESULT:    -4.347      1.513      2.555
REMARK INTER + INTRA:          -6.221
REMARK INTER:                  -5.983
REMARK INTRA:                  -0.238
REMARK UNBOUND:                -0.857
REMARK SMILES CCCCCc1ccccc1
REMARK SMILES IDX 4 1 3 2 2 3 1 4 5 5 6 6 7 7 11 8 8 9 10 10 9 11
REMARK H PARENT
REMARK Flexibility Score: inf
ROOT
ATOM      1  C   UNL     1     144.451 182.627 154.960  1.00  0.00     0.005 C 
ENDROOT
BRANCH   1   2
ATOM      2  C   UNL     1     144.653 183.144 153.524  1.00  0.00     0.000 C 
BRANCH   2   3
ATOM      3  C   UNL     1     143.539 184.074 153.009  1.00  0.00    -0.003 C 
ATOM      4  C   UNL     1     143.324 183.972 151.499  1.00  0.00     0.004 C 
ENDBRANCH   2   3
ENDBRANCH   1   2
BRANCH   1   5
ATOM      5  C   UNL     1     145.064 183.551 156.020  1.00  0.00     0.035 C 
BRANCH   5   6
ATOM      6  C   UNL     1     144.577 183.173 157.394  1.00  0.00    -0.048 A 
ATOM      7  C   UNL     1     143.562 183.921 158.016  1.00  0.00     0.004 A 
ATOM      8  C   UNL     1     145.089 182.037 158.041  1.00  0.00     0.004 A 
ATOM      9  C   UNL     1     143.087 183.550 159.278  1.00  0.00     0.000 A 
ATOM     10  C   UNL     1     144.612 181.670 159.303  1.00  0.00     0.000 A 
ATOM     11  C   UNL     1     143.612 182.427 159.921  1.00  0.00     0.000 A 
ENDBRANCH   5   6
ENDBRANCH   1   5
TORSDOF 4
ENDMDL
MODEL 6
REMARK VINA RESULT:    -4.260      1.041      1.802
REMARK INTER + INTRA:          -6.114
REMARK INTER:                  -5.266
REMARK INTRA:                  -0.848
REMARK UNBOUND:                -0.857
REMARK SMILES CCCCCc1ccccc1
REMARK SMILES IDX 4 1 3 2 2 3 1 4 5 5 6 6 7 7 11 8 8 9 10 10 9 11
REMARK H PARENT
REMARK Flexibility Score: inf
ROOT
ATOM      1  C   UNL     1     145.621 184.690 155.932  1.00  0.00     0.005 C 
ENDROOT
BRANCH   1   2
ATOM      2  C   UNL     1     144.855 183.560 155.220  1.00  0.00     0.000 C 
BRANCH   2   3
ATOM      3  C   UNL     1     143.367 183.854 154.957  1.00  0.00    -0.003 C 
ATOM      4  C   UNL     1     142.435 183.170 155.957  1.00  0.00     0.004 C 
ENDBRANCH   2   3
ENDBRANCH   1   2
BRANCH   1   5
ATOM      5  C   UNL     1     146.286 184.232 157.236  1.00  0.00     0.035 C 
BRANCH   5   6
ATOM      6  C   UNL     1     145.253 183.712 158.201  1.00  0.00    -0.048 A 
ATOM      7  C   UNL     1     144.259 184.570 158.703  1.00  0.00     0.004 A 
ATOM      8  C   UNL     1     145.237 182.355 158.562  1.00  0.00     0.004 A 
ATOM      9  C   UNL     1     143.280 184.080 159.573  1.00  0.00     0.000 A 
ATOM     10  C   UNL     1     144.256 181.869 159.432  1.00  0.00     0.000 A 
ATOM     11  C   UNL     1     143.279 182.732 159.938  1.00  0.00     0.000 A 
ENDBRANCH   5   6
ENDBRANCH   1   5
TORSDOF 4
ENDMDL
MODEL 7
REMARK VINA RESULT:    -4.248      2.035      3.033
REMARK INTER + INTRA:          -6.099
REMARK INTER:                  -5.787
REMARK INTRA:                  -0.311
REMARK UNBOUND:                -0.857
REMARK SMILES CCCCCc1ccccc1
REMARK SMILES IDX 4 1 3 2 2 3 1 4 5 5 6 6 7 7 11 8 8 9 10 10 9 11
REMARK H PARENT
REMARK Flexibility Score: inf
ROOT
ATOM      1  C   UNL     1     144.734 183.332 153.840  1.00  0.00     0.005 C 
ENDROOT
BRANCH   1   2
ATOM      2  C   UNL     1     143.512 183.893 153.091  1.00  0.00     0.000 C 
BRANCH   2   3
ATOM      3  C   UNL     1     143.640 183.899 151.557  1.00  0.00    -0.003 C 
ATOM      4  C   UNL     1     142.484 183.185 150.857  1.00  0.00     0.004 C 
ENDBRANCH   2   3
ENDBRANCH   1   2
BRANCH   1   5
ATOM      5  C   UNL     1     144.351 182.383 154.984  1.00  0.00     0.035 C 
BRANCH   5   6
ATOM      6  C   UNL     1     144.302 183.128 156.291  1.00  0.00    -0.048 A 
ATOM      7  C   UNL     1     145.447 183.786 156.774  1.00  0.00     0.004 A 
ATOM      8  C   UNL     1     143.100 183.222 157.011  1.00  0.00     0.004 A 
ATOM      9  C   UNL     1     145.393 184.506 157.972  1.00  0.00     0.000 A 
ATOM     10  C   UNL     1     143.050 183.941 158.209  1.00  0.00     0.000 A 
ATOM     11  C   UNL     1     144.196 184.582 158.689  1.00  0.00     0.000 A 
ENDBRANCH   5   6
ENDBRANCH   1   5
TORSDOF 4
ENDMDL
MODEL 8
REMARK VINA RESULT:    -4.247      2.272      4.268
REMARK INTER + INTRA:          -6.097
REMARK INTER:                  -5.456
REMARK INTRA:                  -0.641
REMARK UNBOUND:                -0.857
REMARK SMILES CCCCCc1ccccc1
REMARK SMILES IDX 4 1 3 2 2 3 1 4 5 5 6 6 7 7 11 8 8 9 10 10 9 11
REMARK H PARENT
REMARK Flexibility Score: inf
ROOT
ATOM      1  C   UNL     1     143.670 182.707 158.512  1.00  0.00     0.005 C 
ENDROOT
BRANCH   1   2
ATOM      2  C   UNL     1     145.157 182.315 158.577  1.00  0.00     0.000 C 
BRANCH   2   3
ATOM      3  C   UNL     1     146.141 183.454 158.256  1.00  0.00    -0.003 C 
ATOM      4  C   UNL     1     145.699 184.310 157.069  1.00  0.00     0.004 C 
ENDBRANCH   2   3
ENDBRANCH   1   2
BRANCH   1   5
ATOM      5  C   UNL     1     143.169 183.370 159.802  1.00  0.00     0.035 C 
BRANCH   5   6
ATOM      6  C   UNL     1     142.750 184.791 159.536  1.00  0.00    -0.048 A 
ATOM      7  C   UNL     1     143.387 185.853 160.200  1.00  0.00     0.004 A 
ATOM      8  C   UNL     1     141.760 185.073 158.580  1.00  0.00     0.004 A 
ATOM      9  C   UNL     1     143.020 187.175 159.929  1.00  0.00     0.000 A 
ATOM     10  C   UNL     1     141.395 186.396 158.312  1.00  0.00     0.000 A 
ATOM     11  C   UNL     1     142.024 187.446 158.987  1.00  0.00     0.000 A 
ENDBRANCH   5   6
ENDBRANCH   1   5
TORSDOF 4
ENDMDL
MODEL 9
REMARK VINA RESULT:    -4.168      2.240      4.217
REMARK INTER + INTRA:          -6.000
REMARK INTER:                  -5.308
REMARK INTRA:                  -0.692
REMARK UNBOUND:                -0.857
REMARK SMILES CCCCCc1ccccc1
REMARK SMILES IDX 4 1 3 2 2 3 1 4 5 5 6 6 7 7 11 8 8 9 10 10 9 11
REMARK H PARENT
REMARK Flexibility Score: inf
ROOT
ATOM      1  C   UNL     1     143.929 182.732 158.386  1.00  0.00     0.005 C 
ENDROOT
BRANCH   1   2
ATOM      2  C   UNL     1     145.462 182.679 158.523  1.00  0.00     0.000 C 
BRANCH   2   3
ATOM      3  C   UNL     1     146.207 183.876 157.905  1.00  0.00    -0.003 C 
ATOM      4  C   UNL     1     145.460 184.505 156.729  1.00  0.00     0.004 C 
ENDBRANCH   2   3
ENDBRANCH   1   2
BRANCH   1   5
ATOM      5  C   UNL     1     143.237 183.294 159.635  1.00  0.00     0.035 C 
BRANCH   5   6
ATOM      6  C   UNL     1     142.826 184.725 159.411  1.00  0.00    -0.048 A 
ATOM      7  C   UNL     1     141.765 185.029 158.541  1.00  0.00     0.004 A 
ATOM      8  C   UNL     1     143.461 185.764 160.111  1.00  0.00     0.004 A 
ATOM      9  C   UNL     1     141.362 186.356 158.358  1.00  0.00     0.000 A 
ATOM     10  C   UNL     1     143.056 187.089 159.925  1.00  0.00     0.000 A 
ATOM     11  C   UNL     1     142.008 187.384 159.048  1.00  0.00     0.000 A 
ENDBRANCH   5   6
ENDBRANCH   1   5
TORSDOF 4
ENDMDL
