MODEL 1
REMARK VINA RESULT:    -6.032      0.000      0.000
REMARK INTER + INTRA:          -6.032
REMARK INTER:                  -6.032
REMARK INTRA:                   0.000
REMARK UNBOUND:                 0.000
REMARK SMILES CC1=CC(=O)[C@H]2C[C@@H]1C2(C)C
REMARK SMILES IDX 1 1 2 2 3 3 4 4 5 5 6 6 7 7 8 8 9 9 10 10 11 11
REMARK H PARENT
REMARK Flexibility Score: inf
ROOT
ATOM      1  C   UNL     1      -5.956 -11.492  -7.382  1.00  0.00     0.040 C 
ATOM      2  C   UNL     1      -5.399 -12.878  -7.305  1.00  0.00    -0.066 C 
ATOM      3  C   UNL     1      -5.620 -13.671  -6.219  1.00  0.00     0.047 C 
ATOM      4  C   UNL     1      -4.982 -15.027  -6.247  1.00  0.00     0.159 C 
ATOM      5  O   UNL     1      -5.080 -15.835  -5.286  1.00  0.00    -0.295 OA
ATOM      6  C   UNL     1      -4.205 -15.358  -7.521  1.00  0.00     0.067 C 
ATOM      7  C   UNL     1      -5.140 -14.904  -8.663  1.00  0.00     0.021 C 
ATOM      8  C   UNL     1      -4.564 -13.486  -8.452  1.00  0.00     0.022 C 
ATOM      9  C   UNL     1      -3.285 -14.153  -7.867  1.00  0.00    -0.019 C 
ATOM     10  C   UNL     1      -2.546 -13.430  -6.706  1.00  0.00     0.012 C 
ATOM     11  C   UNL     1      -2.247 -14.500  -8.964  1.00  0.00     0.012 C 
ENDROOT
TORSDOF 0
ENDMDL
MODEL 2
REMARK VINA RESULT:    -5.916      1.563      3.203
REMARK INTER + INTRA:          -5.916
REMARK INTER:                  -5.916
REMARK INTRA:                   0.000
REMARK UNBOUND:                 0.000
REMARK SMILES CC1=CC(=O)[C@H]2C[C@@H]1C2(C)C
REMARK SMILES IDX 1 1 2 2 3 3 4 4 5 5 6 6 7 7 8 8 9 9 10 10 11 11
REMARK H PARENT
REMARK Flexibility Score: inf
ROOT
ATOM      1  C   UNL     1      -3.745 -17.710  -5.908  1.00  0.00     0.040 C 
ATOM      2  C   UNL     1      -3.834 -16.245  -6.196  1.00  0.00    -0.066 C 
ATOM      3  C   UNL     1      -4.880 -15.497  -5.748  1.00  0.00     0.047 C 
ATOM      4  C   UNL     1      -4.871 -14.047  -6.130  1.00  0.00     0.159 C 
ATOM      5  O   UNL     1      -5.802 -13.263  -5.810  1.00  0.00    -0.295 OA
ATOM      6  C   UNL     1      -3.654 -13.591  -6.934  1.00  0.00     0.067 C 
ATOM      7  C   UNL     1      -2.453 -14.218  -6.192  1.00  0.00     0.021 C 
ATOM      8  C   UNL     1      -2.741 -15.505  -6.996  1.00  0.00     0.022 C 
ATOM      9  C   UNL     1      -3.407 -14.611  -8.082  1.00  0.00    -0.019 C 
ATOM     10  C   UNL     1      -4.639 -15.177  -8.844  1.00  0.00     0.012 C 
ATOM     11  C   UNL     1      -2.387 -14.090  -9.125  1.00  0.00     0.012 C 
ENDROOT
TORSDOF 0
ENDMDL
MODEL 3
REMARK VINA RESULT:    -5.611      2.117      2.994
REMARK INTER + INTRA:          -5.611
REMARK INTER:                  -5.611
REMARK INTRA:                   0.000
REMARK UNBOUND:                 0.000
REMARK SMILES CC1=CC(=O)[C@H]2C[C@@H]1C2(C)C
REMARK SMILES IDX 1 1 2 2 3 3 4 4 5 5 6 6 7 7 8 8 9 9 10 10 11 11
REMARK H PARENT
REMARK Flexibility Score: inf
ROOT
ATOM      1  C   UNL     1      -6.373 -14.157  -9.125  1.00  0.00     0.040 C 
ATOM      2  C   UNL     1      -5.214 -13.685  -8.306  1.00  0.00    -0.066 C 
ATOM      3  C   UNL     1      -4.677 -12.446  -8.485  1.00  0.00     0.047 C 
ATOM      4  C   UNL     1      -3.499 -12.102  -7.625  1.00  0.00     0.159 C 
ATOM      5  O   UNL     1      -2.892 -11.003  -7.725  1.00  0.00    -0.295 OA
ATOM      6  C   UNL     1      -3.087 -13.178  -6.621  1.00  0.00     0.067 C 
ATOM      7  C   UNL     1      -4.419 -13.634  -5.986  1.00  0.00     0.021 C 
ATOM      8  C   UNL     1      -4.581 -14.566  -7.208  1.00  0.00     0.022 C 
ATOM      9  C   UNL     1      -3.032 -14.547  -7.356  1.00  0.00    -0.019 C 
ATOM     10  C   UNL     1      -2.431 -14.592  -8.790  1.00  0.00     0.012 C 
ATOM     11  C   UNL     1      -2.345 -15.646  -6.506  1.00  0.00     0.012 C 
ENDROOT
TORSDOF 0
ENDMDL
MODEL 4
REMARK VINA RESULT:    -5.575      1.999      3.530
REMARK INTER + INTRA:          -5.575
REMARK INTER:                  -5.575
REMARK INTRA:                   0.000
REMARK UNBOUND:                 0.000
REMARK SMILES CC1=CC(=O)[C@H]2C[C@@H]1C2(C)C
REMARK SMILES IDX 1 1 2 2 3 3 4 4 5 5 6 6 7 7 8 8 9 9 10 10 11 11
REMARK H PARENT
REMARK Flexibility Score: inf
ROOT
ATOM      1  C   UNL     1      -2.304 -15.802  -5.709  1.00  0.00     0.040 C 
ATOM      2  C   UNL     1      -2.793 -14.771  -6.677  1.00  0.00    -0.066 C 
ATOM      3  C   UNL     1      -2.540 -13.446  -6.488  1.00  0.00     0.047 C 
ATOM      4  C   UNL     1      -3.109 -12.510  -7.512  1.00  0.00     0.159 C 
ATOM      5  O   UNL     1      -2.978 -11.261  -7.426  1.00  0.00    -0.295 OA
ATOM      6  C   UNL     1      -3.860 -13.179  -8.663  1.00  0.00     0.067 C 
ATOM      7  C   UNL     1      -2.941 -14.345  -9.088  1.00  0.00     0.021 C 
ATOM      8  C   UNL     1      -3.588 -15.156  -7.943  1.00  0.00     0.022 C 
ATOM      9  C   UNL     1      -4.836 -14.236  -8.071  1.00  0.00    -0.019 C 
ATOM     10  C   UNL     1      -5.618 -13.875  -6.777  1.00  0.00     0.012 C 
ATOM     11  C   UNL     1      -5.848 -14.757  -9.122  1.00  0.00     0.012 C 
ENDROOT
TORSDOF 0
ENDMDL
MODEL 5
REMARK VINA RESULT:    -5.493      1.389      2.375
REMARK INTER + INTRA:          -5.493
REMARK INTER:                  -5.493
REMARK INTRA:                   0.000
REMARK UNBOUND:                 0.000
REMARK SMILES CC1=CC(=O)[C@H]2C[C@@H]1C2(C)C
REMARK SMILES IDX 1 1 2 2 3 3 4 4 5 5 6 6 7 7 8 8 9 9 10 10 11 11
REMARK H PARENT
REMARK Flexibility Score: inf
ROOT
ATOM      1  C   UNL     1      -2.935 -11.046  -7.736  1.00  0.00     0.040 C 
ATOM      2  C   UNL     1      -3.375 -12.416  -7.326  1.00  0.00    -0.066 C 
ATOM      3  C   UNL     1      -2.631 -13.172  -6.472  1.00  0.00     0.047 C 
ATOM      4  C   UNL     1      -3.163 -14.539  -6.162  1.00  0.00     0.159 C 
ATOM      5  O   UNL     1      -2.546 -15.347  -5.418  1.00  0.00    -0.295 OA
ATOM      6  C   UNL     1      -4.503 -14.883  -6.812  1.00  0.00     0.067 C 
ATOM      7  C   UNL     1      -5.371 -13.628  -6.575  1.00  0.00     0.021 C 
ATOM      8  C   UNL     1      -4.697 -13.031  -7.831  1.00  0.00     0.022 C 
ATOM      9  C   UNL     1      -4.440 -14.488  -8.315  1.00  0.00    -0.019 C 
ATOM     10  C   UNL     1      -3.130 -14.780  -9.101  1.00  0.00     0.012 C 
ATOM     11  C   UNL     1      -5.631 -15.060  -9.125  1.00  0.00     0.012 C 
ENDROOT
TORSDOF 0
ENDMDL
MODEL 6
REMARK VINA RESULT:    -5.478      1.389      2.563
REMARK INTER + INTRA:          -5.478
REMARK INTER:                  -5.478
REMARK INTRA:                   0.000
REMARK UNBOUND:                 0.000
REMARK SMILES CC1=CC(=O)[C@H]2C[C@@H]1C2(C)C
REMARK SMILES IDX 1 1 2 2 3 3 4 4 5 5 6 6 7 7 8 8 9 9 10 10 11 11
REMARK H PARENT
REMARK Flexibility Score: inf
ROOT
ATOM      1  C   UNL     1      -6.009 -15.201  -9.125  1.00  0.00     0.040 C 
ATOM      2  C   UNL     1      -5.021 -14.501  -8.246  1.00  0.00    -0.066 C 
ATOM      3  C   UNL     1      -5.014 -14.691  -6.898  1.00  0.00     0.047 C 
ATOM      4  C   UNL     1      -3.996 -13.909  -6.123  1.00  0.00     0.159 C 
ATOM      5  O   UNL     1      -3.916 -13.969  -4.868  1.00  0.00    -0.295 OA
ATOM      6  C   UNL     1      -3.064 -13.036  -6.964  1.00  0.00     0.067 C 
ATOM      7  C   UNL     1      -2.633 -13.955  -8.128  1.00  0.00     0.021 C 
ATOM      8  C   UNL     1      -3.952 -13.548  -8.822  1.00  0.00     0.022 C 
ATOM      9  C   UNL     1      -3.922 -12.236  -7.985  1.00  0.00    -0.019 C 
ATOM     10  C   UNL     1      -5.276 -11.640  -7.505  1.00  0.00     0.012 C 
ATOM     11  C   UNL     1      -3.114 -11.112  -8.680  1.00  0.00     0.012 C 
ENDROOT
TORSDOF 0
ENDMDL
MODEL 7
REMARK VINA RESULT:    -5.433      0.902      3.113
REMARK INTER + INTRA:          -5.433
REMARK INTER:                  -5.433
REMARK INTRA:                   0.000
REMARK UNBOUND:                 0.000
REMARK SMILES CC1=CC(=O)[C@H]2C[C@@H]1C2(C)C
REMARK SMILES IDX 1 1 2 2 3 3 4 4 5 5 6 6 7 7 8 8 9 9 10 10 11 11
REMARK H PARENT
REMARK Flexibility Score: inf
ROOT
ATOM      1  C   UNL     1      -1.875 -14.375  -9.125  1.00  0.00     0.040 C 
ATOM      2  C   UNL     1      -3.007 -14.239  -8.157  1.00  0.00    -0.066 C 
ATOM      3  C   UNL     1      -3.277 -15.210  -7.241  1.00  0.00     0.047 C 
ATOM      4  C   UNL     1      -4.456 -14.970  -6.347  1.00  0.00     0.159 C 
ATOM      5  O   UNL     1      -4.830 -15.811  -5.488  1.00  0.00    -0.295 OA
ATOM      6  C   UNL     1      -5.173 -13.636  -6.555  1.00  0.00     0.067 C 
ATOM      7  C   UNL     1      -4.030 -12.602  -6.643  1.00  0.00     0.021 C 
ATOM      8  C   UNL     1      -3.913 -12.989  -8.134  1.00  0.00     0.022 C 
ATOM      9  C   UNL     1      -5.404 -13.429  -8.079  1.00  0.00    -0.019 C 
ATOM     10  C   UNL     1      -5.840 -14.654  -8.932  1.00  0.00     0.012 C 
ATOM     11  C   UNL     1      -6.376 -12.260  -8.374  1.00  0.00     0.012 C 
ENDROOT
TORSDOF 0
ENDMDL
MODEL 8
REMARK VINA RESULT:    -5.272      1.796      3.140
REMARK INTER + INTRA:          -5.272
REMARK INTER:                  -5.272
REMARK INTRA:                   0.000
REMARK UNBOUND:                 0.000
REMARK SMILES CC1=CC(=O)[C@H]2C[C@@H]1C2(C)C
REMARK SMILES IDX 1 1 2 2 3 3 4 4 5 5 6 6 7 7 8 8 9 9 10 10 11 11
REMARK H PARENT
REMARK Flexibility Score: inf
ROOT
ATOM      1  C   UNL     1      -2.341 -15.788  -5.904  1.00  0.00     0.040 C 
ATOM      2  C   UNL     1      -3.343 -15.006  -6.692  1.00  0.00    -0.066 C 
ATOM      3  C   UNL     1      -4.222 -15.624  -7.530  1.00  0.00     0.047 C 
ATOM      4  C   UNL     1      -5.156 -14.729  -8.288  1.00  0.00     0.159 C 
ATOM      5  O   UNL     1      -5.987 -15.177  -9.121  1.00  0.00    -0.295 OA
ATOM      6  C   UNL     1      -5.027 -13.237  -7.980  1.00  0.00     0.067 C 
ATOM      7  C   UNL     1      -4.955 -13.174  -6.438  1.00  0.00     0.021 C 
ATOM      8  C   UNL     1      -3.445 -13.470  -6.585  1.00  0.00     0.022 C 
ATOM      9  C   UNL     1      -3.520 -12.854  -8.011  1.00  0.00    -0.019 C 
ATOM     10  C   UNL     1      -2.625 -13.468  -9.125  1.00  0.00     0.012 C 
ATOM     11  C   UNL     1      -3.302 -11.319  -8.004  1.00  0.00     0.012 C 
ENDROOT
TORSDOF 0
ENDMDL
MODEL 9
REMARK VINA RESULT:    -4.501      1.843      2.546
REMARK INTER + INTRA:          -4.501
REMARK INTER:                  -4.501
REMARK INTRA:                   0.000
REMARK UNBOUND:                 0.000
REMARK SMILES CC1=CC(=O)[C@H]2C[C@@H]1C2(C)C
REMARK SMILES IDX 1 1 2 2 3 3 4 4 5 5 6 6 7 7 8 8 9 9 10 10 11 11
REMARK H PARENT
REMARK Flexibility Score: inf
ROOT
ATOM      1  C   UNL     1      -3.047 -11.103  -8.235  1.00  0.00     0.040 C 
ATOM      2  C   UNL     1      -3.561 -12.505  -8.309  1.00  0.00    -0.066 C 
ATOM      3  C   UNL     1      -4.815 -12.777  -8.767  1.00  0.00     0.047 C 
ATOM      4  C   UNL     1      -5.225 -14.219  -8.763  1.00  0.00     0.159 C 
ATOM      5  O   UNL     1      -6.371 -14.592  -9.125  1.00  0.00    -0.295 OA
ATOM      6  C   UNL     1      -4.155 -15.202  -8.288  1.00  0.00     0.067 C 
ATOM      7  C   UNL     1      -2.873 -14.749  -9.022  1.00  0.00     0.021 C 
ATOM      8  C   UNL     1      -2.696 -13.713  -7.890  1.00  0.00     0.022 C 
ATOM      9  C   UNL     1      -3.529 -14.655  -6.973  1.00  0.00    -0.019 C 
ATOM     10  C   UNL     1      -4.472 -14.008  -5.919  1.00  0.00     0.012 C 
ATOM     11  C   UNL     1      -2.649 -15.710  -6.256  1.00  0.00     0.012 C 
ENDROOT
TORSDOF 0
ENDMDL
