MODEL 1
REMARK VINA RESULT:    -2.812      0.000      0.000
REMARK INTER + INTRA:          -4.128
REMARK INTER:                  -3.634
REMARK INTRA:                  -0.494
REMARK UNBOUND:                -0.494
REMARK SMILES C=CC(=O)CCCCC
REMARK SMILES IDX 6 1 7 2 8 3 9 4 5 5 3 6 4 7 2 8 1 9
REMARK H PARENT
REMARK Flexibility Score: inf
ROOT
ATOM      1  C   UNL     1     147.241 152.799 166.994  1.00  0.00     0.008 C 
ENDROOT
BRANCH   1   2
ATOM      2  C   UNL     1     148.361 153.202 167.968  1.00  0.00     0.000 C 
BRANCH   2   3
ATOM      3  C   UNL     1     149.452 152.127 168.090  1.00  0.00    -0.003 C 
ATOM      4  C   UNL     1     149.127 151.071 169.146  1.00  0.00     0.004 C 
ENDBRANCH   2   3
ENDBRANCH   1   2
BRANCH   1   5
ATOM      5  C   UNL     1     145.859 153.273 167.475  1.00  0.00     0.080 C 
BRANCH   5   6
ATOM      6  C   UNL     1     145.237 152.376 168.523  1.00  0.00     0.155 C 
ATOM      7  O   UNL     1     144.590 152.883 169.480  1.00  0.00    -0.295 OA
BRANCH   6   8
ATOM      8  C   UNL     1     145.406 150.908 168.501  1.00  0.00     0.039 C 
ATOM      9  C   UNL     1     145.596 150.170 169.594  1.00  0.00     0.012 C 
ENDBRANCH   6   8
ENDBRANCH   5   6
ENDBRANCH   1   5
TORSDOF 5
ENDMDL
MODEL 2
REMARK VINA RESULT:    -2.797      2.571      4.113
REMARK INTER + INTRA:          -4.108
REMARK INTER:                  -3.596
REMARK INTRA:                  -0.512
REMARK UNBOUND:                -0.494
REMARK SMILES C=CC(=O)CCCCC
REMARK SMILES IDX 6 1 7 2 8 3 9 4 5 5 3 6 4 7 2 8 1 9
REMARK H PARENT
REMARK Flexibility Score: inf
ROOT
ATOM      1  C   UNL     1     147.612 153.584 166.018  1.00  0.00     0.008 C 
ENDROOT
BRANCH   1   2
ATOM      2  C   UNL     1     148.538 154.283 165.008  1.00  0.00     0.000 C 
BRANCH   2   3
ATOM      3  C   UNL     1     149.439 155.339 165.666  1.00  0.00    -0.003 C 
ATOM      4  C   UNL     1     150.825 155.417 165.026  1.00  0.00     0.004 C 
ENDBRANCH   2   3
ENDBRANCH   1   2
BRANCH   1   5
ATOM      5  C   UNL     1     148.139 153.698 167.458  1.00  0.00     0.080 C 
BRANCH   5   6
ATOM      6  C   UNL     1     148.495 152.367 168.085  1.00  0.00     0.155 C 
ATOM      7  O   UNL     1     147.597 151.667 168.626  1.00  0.00    -0.295 OA
BRANCH   6   8
ATOM      8  C   UNL     1     149.887 151.871 168.136  1.00  0.00     0.039 C 
ATOM      9  C   UNL     1     150.830 152.227 167.265  1.00  0.00     0.012 C 
ENDBRANCH   6   8
ENDBRANCH   5   6
ENDBRANCH   1   5
TORSDOF 5
ENDMDL
MODEL 3
REMARK VINA RESULT:    -2.789      3.284      4.994
REMARK INTER + INTRA:          -4.097
REMARK INTER:                  -3.778
REMARK INTRA:                  -0.319
REMARK UNBOUND:                -0.494
REMARK SMILES C=CC(=O)CCCCC
REMARK SMILES IDX 6 1 7 2 8 3 9 4 5 5 3 6 4 7 2 8 1 9
REMARK H PARENT
REMARK Flexibility Score: inf
ROOT
ATOM      1  C   UNL     1     148.571 153.563 167.864  1.00  0.00     0.008 C 
ENDROOT
BRANCH   1   2
ATOM      2  C   UNL     1     147.869 152.246 168.238  1.00  0.00     0.000 C 
BRANCH   2   3
ATOM      3  C   UNL     1     148.791 151.284 169.004  1.00  0.00    -0.003 C 
ATOM      4  C   UNL     1     150.271 151.512 168.698  1.00  0.00     0.004 C 
ENDBRANCH   2   3
ENDBRANCH   1   2
BRANCH   1   5
ATOM      5  C   UNL     1     148.448 153.877 166.364  1.00  0.00     0.080 C 
BRANCH   5   6
ATOM      6  C   UNL     1     149.748 153.737 165.602  1.00  0.00     0.155 C 
ATOM      7  O   UNL     1     150.172 152.592 165.289  1.00  0.00    -0.295 OA
BRANCH   6   8
ATOM      8  C   UNL     1     150.583 154.905 165.253  1.00  0.00     0.039 C 
ATOM      9  C   UNL     1     150.142 156.162 165.275  1.00  0.00     0.012 C 
ENDBRANCH   6   8
ENDBRANCH   5   6
ENDBRANCH   1   5
TORSDOF 5
ENDMDL
MODEL 4
REMARK VINA RESULT:    -2.782      2.253      3.863
REMARK INTER + INTRA:          -4.089
REMARK INTER:                  -3.616
REMARK INTRA:                  -0.473
REMARK UNBOUND:                -0.494
REMARK SMILES C=CC(=O)CCCCC
REMARK SMILES IDX 6 1 7 2 8 3 9 4 5 5 3 6 4 7 2 8 1 9
REMARK H PARENT
REMARK Flexibility Score: inf
ROOT
ATOM      1  C   UNL     1     147.404 153.242 166.710  1.00  0.00     0.008 C 
ENDROOT
BRANCH   1   2
ATOM      2  C   UNL     1     145.940 153.385 167.161  1.00  0.00     0.000 C 
BRANCH   2   3
ATOM      3  C   UNL     1     145.645 152.614 168.458  1.00  0.00    -0.003 C 
ATOM      4  C   UNL     1     145.202 151.174 168.202  1.00  0.00     0.004 C 
ENDBRANCH   2   3
ENDBRANCH   1   2
BRANCH   1   5
ATOM      5  C   UNL     1     148.386 153.383 167.886  1.00  0.00     0.080 C 
BRANCH   5   6
ATOM      6  C   UNL     1     149.581 152.458 167.797  1.00  0.00     0.155 C 
ATOM      7  O   UNL     1     150.481 152.676 166.942  1.00  0.00    -0.295 OA
BRANCH   6   8
ATOM      8  C   UNL     1     149.710 151.258 168.649  1.00  0.00     0.039 C 
ATOM      9  C   UNL     1     148.760 150.840 169.485  1.00  0.00     0.012 C 
ENDBRANCH   6   8
ENDBRANCH   5   6
ENDBRANCH   1   5
TORSDOF 5
ENDMDL
MODEL 5
REMARK VINA RESULT:    -2.768      3.373      5.320
REMARK INTER + INTRA:          -4.071
REMARK INTER:                  -3.529
REMARK INTRA:                  -0.542
REMARK UNBOUND:                -0.494
REMARK SMILES C=CC(=O)CCCCC
REMARK SMILES IDX 6 1 7 2 8 3 9 4 5 5 3 6 4 7 2 8 1 9
REMARK H PARENT
REMARK Flexibility Score: inf
ROOT
ATOM      1  C   UNL     1     149.726 151.196 168.328  1.00  0.00     0.008 C 
ENDROOT
BRANCH   1   2
ATOM      2  C   UNL     1     148.335 151.764 168.661  1.00  0.00     0.000 C 
BRANCH   2   3
ATOM      3  C   UNL     1     148.171 153.224 168.212  1.00  0.00    -0.003 C 
ATOM      4  C   UNL     1     147.086 153.399 167.151  1.00  0.00     0.004 C 
ENDBRANCH   2   3
ENDBRANCH   1   2
BRANCH   1   5
ATOM      5  C   UNL     1     150.785 152.303 168.195  1.00  0.00     0.080 C 
BRANCH   5   6
ATOM      6  C   UNL     1     151.399 152.399 166.816  1.00  0.00     0.155 C 
ATOM      7  O   UNL     1     152.577 152.827 166.681  1.00  0.00    -0.295 OA
BRANCH   6   8
ATOM      8  C   UNL     1     150.642 152.055 165.593  1.00  0.00     0.039 C 
ATOM      9  C   UNL     1     150.005 152.953 164.843  1.00  0.00     0.012 C 
ENDBRANCH   6   8
ENDBRANCH   5   6
ENDBRANCH   1   5
TORSDOF 5
ENDMDL
MODEL 6
REMARK VINA RESULT:    -2.767      3.765      5.142
REMARK INTER + INTRA:          -4.070
REMARK INTER:                  -3.586
REMARK INTRA:                  -0.484
REMARK UNBOUND:                -0.494
REMARK SMILES C=CC(=O)CCCCC
REMARK SMILES IDX 6 1 7 2 8 3 9 4 5 5 3 6 4 7 2 8 1 9
REMARK H PARENT
REMARK Flexibility Score: inf
ROOT
ATOM      1  C   UNL     1     149.774 153.242 164.710  1.00  0.00     0.008 C 
ENDROOT
BRANCH   1   2
ATOM      2  C   UNL     1     148.956 154.271 165.510  1.00  0.00     0.000 C 
BRANCH   2   3
ATOM      3  C   UNL     1     149.580 155.675 165.477  1.00  0.00    -0.003 C 
ATOM      4  C   UNL     1     151.074 155.651 165.152  1.00  0.00     0.004 C 
ENDBRANCH   2   3
ENDBRANCH   1   2
BRANCH   1   5
ATOM      5  C   UNL     1     150.041 151.962 165.519  1.00  0.00     0.080 C 
BRANCH   5   6
ATOM      6  C   UNL     1     150.800 152.201 166.806  1.00  0.00     0.155 C 
ATOM      7  O   UNL     1     151.959 152.695 166.769  1.00  0.00    -0.295 OA
BRANCH   6   8
ATOM      8  C   UNL     1     150.250 151.821 168.125  1.00  0.00     0.039 C 
ATOM      9  C   UNL     1     148.948 151.824 168.411  1.00  0.00     0.012 C 
ENDBRANCH   6   8
ENDBRANCH   5   6
ENDBRANCH   1   5
TORSDOF 5
ENDMDL
MODEL 7
REMARK VINA RESULT:    -2.760      7.347      8.962
REMARK INTER + INTRA:          -4.061
REMARK INTER:                  -3.894
REMARK INTRA:                  -0.167
REMARK UNBOUND:                -0.494
REMARK SMILES C=CC(=O)CCCCC
REMARK SMILES IDX 6 1 7 2 8 3 9 4 5 5 3 6 4 7 2 8 1 9
REMARK H PARENT
REMARK Flexibility Score: inf
ROOT
ATOM      1  C   UNL     1     147.766 158.670 163.106  1.00  0.00     0.008 C 
ENDROOT
BRANCH   1   2
ATOM      2  C   UNL     1     147.462 160.044 163.729  1.00  0.00     0.000 C 
BRANCH   2   3
ATOM      3  C   UNL     1     145.987 160.447 163.578  1.00  0.00    -0.003 C 
ATOM      4  C   UNL     1     145.472 161.263 164.763  1.00  0.00     0.004 C 
ENDBRANCH   2   3
ENDBRANCH   1   2
BRANCH   1   5
ATOM      5  C   UNL     1     149.270 158.474 162.848  1.00  0.00     0.080 C 
BRANCH   5   6
ATOM      6  C   UNL     1     149.755 157.065 163.116  1.00  0.00     0.155 C 
ATOM      7  O   UNL     1     150.437 156.460 162.245  1.00  0.00    -0.295 OA
BRANCH   6   8
ATOM      8  C   UNL     1     149.411 156.338 164.355  1.00  0.00     0.039 C 
ATOM      9  C   UNL     1     150.249 156.185 165.380  1.00  0.00     0.012 C 
ENDBRANCH   6   8
ENDBRANCH   5   6
ENDBRANCH   1   5
TORSDOF 5
ENDMDL
MODEL 8
REMARK VINA RESULT:    -2.734      2.765      4.275
REMARK INTER + INTRA:          -4.027
REMARK INTER:                  -3.421
REMARK INTRA:                  -0.606
REMARK UNBOUND:                -0.494
REMARK SMILES C=CC(=O)CCCCC
REMARK SMILES IDX 6 1 7 2 8 3 9 4 5 5 3 6 4 7 2 8 1 9
REMARK H PARENT
REMARK Flexibility Score: inf
ROOT
ATOM      1  C   UNL     1     150.410 151.823 165.870  1.00  0.00     0.008 C 
ENDROOT
BRANCH   1   2
ATOM      2  C   UNL     1     150.041 152.983 164.929  1.00  0.00     0.000 C 
BRANCH   2   3
ATOM      3  C   UNL     1     150.604 154.331 165.406  1.00  0.00    -0.003 C 
ATOM      4  C   UNL     1     149.542 155.429 165.464  1.00  0.00     0.004 C 
ENDBRANCH   2   3
ENDBRANCH   1   2
BRANCH   1   5
ATOM      5  C   UNL     1     150.570 152.290 167.327  1.00  0.00     0.080 C 
BRANCH   5   6
ATOM      6  C   UNL     1     149.312 152.148 168.156  1.00  0.00     0.155 C 
ATOM      7  O   UNL     1     149.109 151.091 168.812  1.00  0.00    -0.295 OA
BRANCH   6   8
ATOM      8  C   UNL     1     148.268 153.193 168.184  1.00  0.00     0.039 C 
ATOM      9  C   UNL     1     147.193 153.184 167.397  1.00  0.00     0.012 C 
ENDBRANCH   6   8
ENDBRANCH   5   6
ENDBRANCH   1   5
TORSDOF 5
ENDMDL
MODEL 9
REMARK VINA RESULT:    -2.717      3.233      5.365
REMARK INTER + INTRA:          -4.004
REMARK INTER:                  -3.416
REMARK INTRA:                  -0.588
REMARK UNBOUND:                -0.494
REMARK SMILES C=CC(=O)CCCCC
REMARK SMILES IDX 6 1 7 2 8 3 9 4 5 5 3 6 4 7 2 8 1 9
REMARK H PARENT
REMARK Flexibility Score: inf
ROOT
ATOM      1  C   UNL     1     150.032 151.809 167.549  1.00  0.00     0.008 C 
ENDROOT
BRANCH   1   2
ATOM      2  C   UNL     1     148.952 152.734 168.136  1.00  0.00     0.000 C 
BRANCH   2   3
ATOM      3  C   UNL     1     147.535 152.350 167.681  1.00  0.00    -0.003 C 
ATOM      4  C   UNL     1     146.862 153.445 166.854  1.00  0.00     0.004 C 
ENDBRANCH   2   3
ENDBRANCH   1   2
BRANCH   1   5
ATOM      5  C   UNL     1     151.037 152.577 166.675  1.00  0.00     0.080 C 
BRANCH   5   6
ATOM      6  C   UNL     1     150.401 153.309 165.513  1.00  0.00     0.155 C 
ATOM      7  O   UNL     1     149.713 152.671 164.670  1.00  0.00    -0.295 OA
BRANCH   6   8
ATOM      8  C   UNL     1     150.601 154.756 165.291  1.00  0.00     0.039 C 
ATOM      9  C   UNL     1     149.673 155.678 165.544  1.00  0.00     0.012 C 
ENDBRANCH   6   8
ENDBRANCH   5   6
ENDBRANCH   1   5
TORSDOF 5
ENDMDL
