MODEL 1
REMARK VINA RESULT:    -5.290      0.000      0.000
REMARK INTER + INTRA:          -5.785
REMARK INTER:                  -5.754
REMARK INTRA:                  -0.031
REMARK UNBOUND:                -0.031
REMARK SMILES COc1ccccc1O
REMARK SMILES IDX 3 1 4 2 5 3 6 4 7 5 8 6 2 7 1 8 9 9
REMARK H PARENT 9 10
REMARK Flexibility Score: inf
ROOT
ATOM      1  C   UNL     1       1.744  32.475  78.246  1.00  0.00     0.160 A 
ATOM      2  C   UNL     1       0.579  32.054  77.573  1.00  0.00     0.050 A 
ATOM      3  C   UNL     1      -0.238  32.987  76.930  1.00  0.00     0.004 A 
ATOM      4  C   UNL     1       0.094  34.342  76.949  1.00  0.00     0.004 A 
ATOM      5  C   UNL     1       1.246  34.770  77.613  1.00  0.00     0.050 A 
ATOM      6  C   UNL     1       2.073  33.840  78.261  1.00  0.00     0.157 A 
ENDROOT
BRANCH   1   7
ATOM      7  O   UNL     1       2.595  31.573  78.905  1.00  0.00    -0.493 OA
ATOM      8  C   UNL     1       2.870  30.251  78.456  1.00  0.00     0.278 C 
ENDBRANCH   1   7
BRANCH   6   9
ATOM      9  O   UNL     1       3.223  34.265  78.924  1.00  0.00    -0.504 OA
ATOM     10  H   UNL     1       4.141  33.924  78.665  1.00  0.00     0.293 HD
ENDBRANCH   6   9
TORSDOF 2
ENDMDL
MODEL 2
REMARK VINA RESULT:    -4.771      1.619      2.462
REMARK INTER + INTRA:          -5.220
REMARK INTER:                  -5.192
REMARK INTRA:                  -0.028
REMARK UNBOUND:                -0.031
REMARK SMILES COc1ccccc1O
REMARK SMILES IDX 3 1 4 2 5 3 6 4 7 5 8 6 2 7 1 8 9 9
REMARK H PARENT 9 10
REMARK Flexibility Score: inf
ROOT
ATOM      1  C   UNL     1       1.660  32.146  77.409  1.00  0.00     0.160 A 
ATOM      2  C   UNL     1       2.195  33.133  78.261  1.00  0.00     0.050 A 
ATOM      3  C   UNL     1       1.692  34.436  78.231  1.00  0.00     0.004 A 
ATOM      4  C   UNL     1       0.656  34.769  77.357  1.00  0.00     0.004 A 
ATOM      5  C   UNL     1       0.119  33.799  76.508  1.00  0.00     0.050 A 
ATOM      6  C   UNL     1       0.618  32.488  76.532  1.00  0.00     0.157 A 
ENDROOT
BRANCH   1   7
ATOM      7  O   UNL     1       2.133  30.824  77.404  1.00  0.00    -0.493 OA
ATOM      8  C   UNL     1       2.817  30.210  78.492  1.00  0.00     0.278 C 
ENDBRANCH   1   7
BRANCH   6   9
ATOM      9  O   UNL     1       0.082  31.517  75.686  1.00  0.00    -0.504 OA
ATOM     10  H   UNL     1       0.056  30.540  75.949  1.00  0.00     0.293 HD
ENDBRANCH   6   9
TORSDOF 2
ENDMDL
MODEL 3
REMARK VINA RESULT:    -4.514      1.912      3.846
REMARK INTER + INTRA:          -4.940
REMARK INTER:                  -4.909
REMARK INTRA:                  -0.031
REMARK UNBOUND:                -0.031
REMARK SMILES COc1ccccc1O
REMARK SMILES IDX 3 1 4 2 5 3 6 4 7 5 8 6 2 7 1 8 9 9
REMARK H PARENT 9 10
REMARK Flexibility Score: inf
ROOT
ATOM      1  C   UNL     1       1.548  32.350  77.672  1.00  0.00     0.160 A 
ATOM      2  C   UNL     1       2.154  31.795  78.818  1.00  0.00     0.050 A 
ATOM      3  C   UNL     1       2.378  30.418  78.899  1.00  0.00     0.004 A 
ATOM      4  C   UNL     1       2.004  29.583  77.845  1.00  0.00     0.004 A 
ATOM      5  C   UNL     1       1.403  30.123  76.706  1.00  0.00     0.050 A 
ATOM      6  C   UNL     1       1.174  31.504  76.616  1.00  0.00     0.157 A 
ENDROOT
BRANCH   1   7
ATOM      7  O   UNL     1       1.304  33.727  77.546  1.00  0.00    -0.493 OA
ATOM      8  C   UNL     1       2.175  34.746  78.027  1.00  0.00     0.278 C 
ENDBRANCH   1   7
BRANCH   6   9
ATOM      9  O   UNL     1       0.575  32.044  75.479  1.00  0.00    -0.504 OA
ATOM     10  H   UNL     1       0.059  31.467  74.826  1.00  0.00     0.293 HD
ENDBRANCH   6   9
TORSDOF 2
ENDMDL
MODEL 4
REMARK VINA RESULT:    -4.446     13.261     14.429
REMARK INTER + INTRA:          -4.867
REMARK INTER:                  -4.840
REMARK INTRA:                  -0.027
REMARK UNBOUND:                -0.031
REMARK SMILES COc1ccccc1O
REMARK SMILES IDX 3 1 4 2 5 3 6 4 7 5 8 6 2 7 1 8 9 9
REMARK H PARENT 9 10
REMARK Flexibility Score: inf
ROOT
ATOM      1  C   UNL     1      12.984  35.189  85.499  1.00  0.00     0.160 A 
ATOM      2  C   UNL     1      12.709  36.545  85.767  1.00  0.00     0.050 A 
ATOM      3  C   UNL     1      12.489  36.973  87.079  1.00  0.00     0.004 A 
ATOM      4  C   UNL     1      12.541  36.059  88.132  1.00  0.00     0.004 A 
ATOM      5  C   UNL     1      12.812  34.713  87.877  1.00  0.00     0.050 A 
ATOM      6  C   UNL     1      13.034  34.275  86.563  1.00  0.00     0.157 A 
ENDROOT
BRANCH   1   7
ATOM      7  O   UNL     1      13.211  34.714  84.197  1.00  0.00    -0.493 OA
ATOM      8  C   UNL     1      13.065  35.498  83.017  1.00  0.00     0.278 C 
ENDBRANCH   1   7
BRANCH   6   9
ATOM      9  O   UNL     1      13.305  32.932  86.307  1.00  0.00    -0.504 OA
ATOM     10  H   UNL     1      12.851  32.191  86.826  1.00  0.00     0.293 HD
ENDBRANCH   6   9
TORSDOF 2
ENDMDL
MODEL 5
REMARK VINA RESULT:    -4.437      2.841      3.474
REMARK INTER + INTRA:          -4.857
REMARK INTER:                  -4.830
REMARK INTRA:                  -0.027
REMARK UNBOUND:                -0.031
REMARK SMILES COc1ccccc1O
REMARK SMILES IDX 3 1 4 2 5 3 6 4 7 5 8 6 2 7 1 8 9 9
REMARK H PARENT 9 10
REMARK Flexibility Score: inf
ROOT
ATOM      1  C   UNL     1       0.887  31.188  76.081  1.00  0.00     0.160 A 
ATOM      2  C   UNL     1       1.634  30.459  77.029  1.00  0.00     0.050 A 
ATOM      3  C   UNL     1       2.123  31.090  78.176  1.00  0.00     0.004 A 
ATOM      4  C   UNL     1       1.873  32.447  78.390  1.00  0.00     0.004 A 
ATOM      5  C   UNL     1       1.135  33.178  77.457  1.00  0.00     0.050 A 
ATOM      6  C   UNL     1       0.640  32.552  76.303  1.00  0.00     0.157 A 
ENDROOT
BRANCH   1   7
ATOM      7  O   UNL     1       0.376  30.596  74.915  1.00  0.00    -0.493 OA
ATOM      8  C   UNL     1       0.692  29.278  74.477  1.00  0.00     0.278 C 
ENDBRANCH   1   7
BRANCH   6   9
ATOM      9  O   UNL     1      -0.098  33.280  75.371  1.00  0.00    -0.504 OA
ATOM     10  H   UNL     1      -0.646  32.821  74.654  1.00  0.00     0.293 HD
ENDBRANCH   6   9
TORSDOF 2
ENDMDL
MODEL 6
REMARK VINA RESULT:    -4.426      3.606      4.851
REMARK INTER + INTRA:          -4.845
REMARK INTER:                  -4.810
REMARK INTRA:                  -0.035
REMARK UNBOUND:                -0.031
REMARK SMILES COc1ccccc1O
REMARK SMILES IDX 3 1 4 2 5 3 6 4 7 5 8 6 2 7 1 8 9 9
REMARK H PARENT 9 10
REMARK Flexibility Score: inf
ROOT
ATOM      1  C   UNL     1       2.108  29.326  79.594  1.00  0.00     0.160 A 
ATOM      2  C   UNL     1       2.121  27.920  79.500  1.00  0.00     0.050 A 
ATOM      3  C   UNL     1       2.900  27.287  78.528  1.00  0.00     0.004 A 
ATOM      4  C   UNL     1       3.671  28.043  77.645  1.00  0.00     0.004 A 
ATOM      5  C   UNL     1       3.665  29.437  77.730  1.00  0.00     0.050 A 
ATOM      6  C   UNL     1       2.886  30.081  78.702  1.00  0.00     0.157 A 
ENDROOT
BRANCH   1   7
ATOM      7  O   UNL     1       1.341  30.006  80.555  1.00  0.00    -0.493 OA
ATOM      8  C   UNL     1       1.288  29.659  81.934  1.00  0.00     0.278 C 
ENDBRANCH   1   7
BRANCH   6   9
ATOM      9  O   UNL     1       2.879  31.473  78.788  1.00  0.00    -0.504 OA
ATOM     10  H   UNL     1       2.666  31.949  79.656  1.00  0.00     0.293 HD
ENDBRANCH   6   9
TORSDOF 2
ENDMDL
MODEL 7
REMARK VINA RESULT:    -4.413     14.306     15.404
REMARK INTER + INTRA:          -4.831
REMARK INTER:                  -4.803
REMARK INTRA:                  -0.028
REMARK UNBOUND:                -0.031
REMARK SMILES COc1ccccc1O
REMARK SMILES IDX 3 1 4 2 5 3 6 4 7 5 8 6 2 7 1 8 9 9
REMARK H PARENT 9 10
REMARK Flexibility Score: inf
ROOT
ATOM      1  C   UNL     1      12.777  36.063  87.031  1.00  0.00     0.160 A 
ATOM      2  C   UNL     1      13.043  37.308  86.426  1.00  0.00     0.050 A 
ATOM      3  C   UNL     1      13.314  38.430  87.213  1.00  0.00     0.004 A 
ATOM      4  C   UNL     1      13.324  38.325  88.605  1.00  0.00     0.004 A 
ATOM      5  C   UNL     1      13.061  37.096  89.214  1.00  0.00     0.050 A 
ATOM      6  C   UNL     1      12.788  35.964  88.432  1.00  0.00     0.157 A 
ENDROOT
BRANCH   1   7
ATOM      7  O   UNL     1      12.500  34.909  86.280  1.00  0.00    -0.493 OA
ATOM      8  C   UNL     1      12.863  34.731  84.915  1.00  0.00     0.278 C 
ENDBRANCH   1   7
BRANCH   6   9
ATOM      9  O   UNL     1      12.526  34.737  89.039  1.00  0.00    -0.504 OA
ATOM     10  H   UNL     1      12.144  33.958  88.517  1.00  0.00     0.293 HD
ENDBRANCH   6   9
TORSDOF 2
ENDMDL
MODEL 8
REMARK VINA RESULT:    -4.395     14.628     15.783
REMARK INTER + INTRA:          -4.811
REMARK INTER:                  -4.784
REMARK INTRA:                  -0.027
REMARK UNBOUND:                -0.031
REMARK SMILES COc1ccccc1O
REMARK SMILES IDX 3 1 4 2 5 3 6 4 7 5 8 6 2 7 1 8 9 9
REMARK H PARENT 9 10
REMARK Flexibility Score: inf
ROOT
ATOM      1  C   UNL     1      13.052  36.866  86.961  1.00  0.00     0.160 A 
ATOM      2  C   UNL     1      13.220  35.644  87.641  1.00  0.00     0.050 A 
ATOM      3  C   UNL     1      13.480  35.632  89.014  1.00  0.00     0.004 A 
ATOM      4  C   UNL     1      13.573  36.832  89.721  1.00  0.00     0.004 A 
ATOM      5  C   UNL     1      13.408  38.049  89.056  1.00  0.00     0.050 A 
ATOM      6  C   UNL     1      13.148  38.070  87.678  1.00  0.00     0.157 A 
ENDROOT
BRANCH   1   7
ATOM      7  O   UNL     1      12.790  36.927  85.583  1.00  0.00    -0.493 OA
ATOM      8  C   UNL     1      12.909  35.823  84.692  1.00  0.00     0.278 C 
ENDBRANCH   1   7
BRANCH   6   9
ATOM      9  O   UNL     1      12.982  39.284  87.013  1.00  0.00    -0.504 OA
ATOM     10  H   UNL     1      13.770  39.785  86.620  1.00  0.00     0.293 HD
ENDBRANCH   6   9
TORSDOF 2
ENDMDL
MODEL 9
REMARK VINA RESULT:    -4.374     13.985     14.879
REMARK INTER + INTRA:          -4.788
REMARK INTER:                  -4.761
REMARK INTRA:                  -0.027
REMARK UNBOUND:                -0.031
REMARK SMILES COc1ccccc1O
REMARK SMILES IDX 3 1 4 2 5 3 6 4 7 5 8 6 2 7 1 8 9 9
REMARK H PARENT 9 10
REMARK Flexibility Score: inf
ROOT
ATOM      1  C   UNL     1       7.652  29.828  91.181  1.00  0.00     0.160 A 
ATOM      2  C   UNL     1       7.011  29.009  90.230  1.00  0.00     0.050 A 
ATOM      3  C   UNL     1       7.666  28.660  89.045  1.00  0.00     0.004 A 
ATOM      4  C   UNL     1       8.960  29.120  88.798  1.00  0.00     0.004 A 
ATOM      5  C   UNL     1       9.604  29.933  89.734  1.00  0.00     0.050 A 
ATOM      6  C   UNL     1       8.954  30.288  90.925  1.00  0.00     0.157 A 
ENDROOT
BRANCH   1   7
ATOM      7  O   UNL     1       7.033  30.204  92.384  1.00  0.00    -0.493 OA
ATOM      8  C   UNL     1       5.804  29.665  92.859  1.00  0.00     0.278 C 
ENDBRANCH   1   7
BRANCH   6   9
ATOM      9  O   UNL     1       9.595  31.099  91.860  1.00  0.00    -0.504 OA
ATOM     10  H   UNL     1      10.605  31.134  91.927  1.00  0.00     0.293 HD
ENDBRANCH   6   9
TORSDOF 2
ENDMDL
