MODEL 1
REMARK VINA RESULT:    -4.926      0.000      0.000
REMARK INTER + INTRA:         -16.194
REMARK INTER:                 -12.413
REMARK INTRA:                  -3.782
REMARK UNBOUND:                -3.782
REMARK SMILES CCCCCCCCCCCCCCCCCCCCCCCCCCCC(=O)[O-]
REMARK SMILES IDX 15 1 16 2 17 3 18 4 19 5 20 6 21 7 22 8 23 9 24 10 25 11
REMARK SMILES IDX 26 12 27 13 28 14 29 15 30 16 14 17 13 18 12 19 11 20 10 21
REMARK SMILES IDX 9 22 8 23 7 24 6 25 5 26 4 27 3 28 2 29 1 30
REMARK H PARENT
REMARK Flexibility Score: inf
ROOT
ATOM      1  C   UNL     1      10.205   6.471  13.622  1.00  0.00     0.000 C 
ENDROOT
BRANCH   1   2
ATOM      2  C   UNL     1      10.868   7.508  12.701  1.00  0.00     0.000 C 
BRANCH   2   3
ATOM      3  C   UNL     1      11.365   6.847  11.407  1.00  0.00     0.000 C 
BRANCH   3   4
ATOM      4  C   UNL     1      11.993   7.853  10.426  1.00  0.00     0.000 C 
BRANCH   4   5
ATOM      5  C   UNL     1      11.626   9.326  10.688  1.00  0.00     0.000 C 
BRANCH   5   6
ATOM      6  C   UNL     1      12.505  10.361   9.957  1.00  0.00     0.000 C 
BRANCH   6   7
ATOM      7  C   UNL     1      12.314  11.818  10.417  1.00  0.00     0.000 C 
BRANCH   7   8
ATOM      8  C   UNL     1      12.305  11.964  11.950  1.00  0.00     0.000 C 
BRANCH   8   9
ATOM      9  C   UNL     1      11.391  13.104  12.428  1.00  0.00     0.000 C 
BRANCH   9  10
ATOM     10  C   UNL     1      10.055  12.593  12.997  1.00  0.00     0.000 C 
BRANCH  10  11
ATOM     11  C   UNL     1      10.086  11.095  13.349  1.00  0.00     0.000 C 
BRANCH  11  12
ATOM     12  C   UNL     1       9.350  10.722  14.649  1.00  0.00     0.006 C 
BRANCH  12  13
ATOM     13  C   UNL     1       9.202  11.904  15.617  1.00  0.00     0.053 C 
BRANCH  13  14
ATOM     14  C   UNL     1      10.211  11.817  16.720  1.00  0.00     0.041 C 
ATOM     15  O   UNL     1      10.612  10.694  17.128  1.00  0.00    -0.550 OA
ATOM     16  O   UNL     1      10.696  12.977  17.313  1.00  0.00    -0.550 OA
ENDBRANCH  13  14
ENDBRANCH  12  13
ENDBRANCH  11  12
ENDBRANCH  10  11
ENDBRANCH   9  10
ENDBRANCH   8   9
ENDBRANCH   7   8
ENDBRANCH   6   7
ENDBRANCH   5   6
ENDBRANCH   4   5
ENDBRANCH   3   4
ENDBRANCH   2   3
ENDBRANCH   1   2
BRANCH   1  17
ATOM     17  C   UNL     1      10.611   5.026  13.290  1.00  0.00     0.000 C 
BRANCH  17  18
ATOM     18  C   UNL     1       9.796   3.939  14.021  1.00  0.00     0.000 C 
BRANCH  18  19
ATOM     19  C   UNL     1       8.564   3.441  13.233  1.00  0.00     0.000 C 
BRANCH  19  20
ATOM     20  C   UNL     1       8.904   2.605  11.981  1.00  0.00     0.000 C 
BRANCH  20  21
ATOM     21  C   UNL     1       8.531   3.253  10.630  1.00  0.00     0.000 C 
BRANCH  21  22
ATOM     22  C   UNL     1       9.712   3.811   9.815  1.00  0.00    -0.000 C 
BRANCH  22  23
ATOM     23  C   UNL     1      10.448   2.724   9.011  1.00  0.00    -0.000 C 
BRANCH  23  24
ATOM     24  C   UNL     1      11.856   2.437   9.558  1.00  0.00    -0.000 C 
BRANCH  24  25
ATOM     25  C   UNL     1      12.450   3.634  10.325  1.00  0.00    -0.000 C 
BRANCH  25  26
ATOM     26  C   UNL     1      13.272   3.203  11.559  1.00  0.00    -0.000 C 
BRANCH  26  27
ATOM     27  C   UNL     1      13.086   1.722  11.943  1.00  0.00    -0.000 C 
BRANCH  27  28
ATOM     28  C   UNL     1      12.450   1.478  13.325  1.00  0.00    -0.000 C 
BRANCH  28  29
ATOM     29  C   UNL     1      12.958   2.407  14.444  1.00  0.00    -0.003 C 
ATOM     30  C   UNL     1      13.826   1.680  15.470  1.00  0.00     0.004 C 
ENDBRANCH  28  29
ENDBRANCH  27  28
ENDBRANCH  26  27
ENDBRANCH  25  26
ENDBRANCH  24  25
ENDBRANCH  23  24
ENDBRANCH  22  23
ENDBRANCH  21  22
ENDBRANCH  20  21
ENDBRANCH  19  20
ENDBRANCH  18  19
ENDBRANCH  17  18
ENDBRANCH   1  17
TORSDOF 26
ENDMDL
MODEL 2
REMARK VINA RESULT:    -4.872      3.040      9.018
REMARK INTER + INTRA:         -16.059
REMARK INTER:                 -12.493
REMARK INTRA:                  -3.566
REMARK UNBOUND:                -3.782
REMARK SMILES CCCCCCCCCCCCCCCCCCCCCCCCCCCC(=O)[O-]
REMARK SMILES IDX 15 1 16 2 17 3 18 4 19 5 20 6 21 7 22 8 23 9 24 10 25 11
REMARK SMILES IDX 26 12 27 13 28 14 29 15 30 16 14 17 13 18 12 19 11 20 10 21
REMARK SMILES IDX 9 22 8 23 7 24 6 25 5 26 4 27 3 28 2 29 1 30
REMARK H PARENT
REMARK Flexibility Score: inf
ROOT
ATOM      1  C   UNL     1      10.886   7.665  12.445  1.00  0.00     0.000 C 
ENDROOT
BRANCH   1   2
ATOM      2  C   UNL     1      10.488   6.527  13.399  1.00  0.00     0.000 C 
BRANCH   2   3
ATOM      3  C   UNL     1      10.851   5.161  12.797  1.00  0.00     0.000 C 
BRANCH   3   4
ATOM      4  C   UNL     1       9.695   4.148  12.875  1.00  0.00     0.000 C 
BRANCH   4   5
ATOM      5  C   UNL     1       9.295   3.520  11.526  1.00  0.00     0.000 C 
BRANCH   5   6
ATOM      6  C   UNL     1       9.376   4.467  10.312  1.00  0.00     0.000 C 
BRANCH   6   7
ATOM      7  C   UNL     1      10.200   3.934   9.126  1.00  0.00     0.000 C 
BRANCH   7   8
ATOM      8  C   UNL     1      11.666   3.645   9.497  1.00  0.00     0.000 C 
BRANCH   8   9
ATOM      9  C   UNL     1      11.996   2.145   9.471  1.00  0.00     0.000 C 
BRANCH   9  10
ATOM     10  C   UNL     1      12.382   1.598  10.856  1.00  0.00     0.000 C 
BRANCH  10  11
ATOM     11  C   UNL     1      13.246   2.579  11.670  1.00  0.00     0.000 C 
BRANCH  11  12
ATOM     12  C   UNL     1      13.144   2.417  13.197  1.00  0.00     0.006 C 
BRANCH  12  13
ATOM     13  C   UNL     1      13.173   0.951  13.649  1.00  0.00     0.053 C 
BRANCH  13  14
ATOM     14  C   UNL     1      12.083   0.679  14.639  1.00  0.00     0.041 C 
ATOM     15  O   UNL     1      10.920   1.120  14.442  1.00  0.00    -0.550 OA
ATOM     16  O   UNL     1      12.356  -0.049  15.792  1.00  0.00    -0.550 OA
ENDBRANCH  13  14
ENDBRANCH  12  13
ENDBRANCH  11  12
ENDBRANCH  10  11
ENDBRANCH   9  10
ENDBRANCH   8   9
ENDBRANCH   7   8
ENDBRANCH   6   7
ENDBRANCH   5   6
ENDBRANCH   4   5
ENDBRANCH   3   4
ENDBRANCH   2   3
ENDBRANCH   1   2
BRANCH   1  17
ATOM     17  C   UNL     1      11.601   7.165  11.179  1.00  0.00     0.000 C 
BRANCH  17  18
ATOM     18  C   UNL     1      12.130   8.278  10.251  1.00  0.00     0.000 C 
BRANCH  18  19
ATOM     19  C   UNL     1      11.682   9.701  10.656  1.00  0.00     0.000 C 
BRANCH  19  20
ATOM     20  C   UNL     1      12.747  10.793  10.427  1.00  0.00     0.000 C 
BRANCH  20  21
ATOM     21  C   UNL     1      12.464  11.761   9.257  1.00  0.00     0.000 C 
BRANCH  21  22
ATOM     22  C   UNL     1      12.376  13.250   9.635  1.00  0.00    -0.000 C 
BRANCH  22  23
ATOM     23  C   UNL     1      12.059  13.470  11.125  1.00  0.00    -0.000 C 
BRANCH  23  24
ATOM     24  C   UNL     1      10.576  13.791  11.373  1.00  0.00    -0.000 C 
BRANCH  24  25
ATOM     25  C   UNL     1      10.102  13.359  12.774  1.00  0.00    -0.000 C 
BRANCH  25  26
ATOM     26  C   UNL     1      10.846  12.111  13.297  1.00  0.00    -0.000 C 
BRANCH  26  27
ATOM     27  C   UNL     1       9.984  11.203  14.194  1.00  0.00    -0.000 C 
BRANCH  27  28
ATOM     28  C   UNL     1       9.968  11.581  15.687  1.00  0.00    -0.000 C 
BRANCH  28  29
ATOM     29  C   UNL     1       9.474  10.468  16.631  1.00  0.00    -0.003 C 
ATOM     30  C   UNL     1       9.397   9.103  15.949  1.00  0.00     0.004 C 
ENDBRANCH  28  29
ENDBRANCH  27  28
ENDBRANCH  26  27
ENDBRANCH  25  26
ENDBRANCH  24  25
ENDBRANCH  23  24
ENDBRANCH  22  23
ENDBRANCH  21  22
ENDBRANCH  20  21
ENDBRANCH  19  20
ENDBRANCH  18  19
ENDBRANCH  17  18
ENDBRANCH   1  17
TORSDOF 26
ENDMDL
MODEL 3
REMARK VINA RESULT:    -4.872      4.512      7.634
REMARK INTER + INTRA:         -16.058
REMARK INTER:                 -10.806
REMARK INTRA:                  -5.252
REMARK UNBOUND:                -3.782
REMARK SMILES CCCCCCCCCCCCCCCCCCCCCCCCCCCC(=O)[O-]
REMARK SMILES IDX 15 1 16 2 17 3 18 4 19 5 20 6 21 7 22 8 23 9 24 10 25 11
REMARK SMILES IDX 26 12 27 13 28 14 29 15 30 16 14 17 13 18 12 19 11 20 10 21
REMARK SMILES IDX 9 22 8 23 7 24 6 25 5 26 4 27 3 28 2 29 1 30
REMARK H PARENT
REMARK Flexibility Score: inf
ROOT
ATOM      1  C   UNL     1      10.540   6.551  12.543  1.00  0.00     0.000 C 
ENDROOT
BRANCH   1   2
ATOM      2  C   UNL     1      11.586   7.406  11.810  1.00  0.00     0.000 C 
BRANCH   2   3
ATOM      3  C   UNL     1      11.959   6.770  10.463  1.00  0.00     0.000 C 
BRANCH   3   4
ATOM      4  C   UNL     1      12.405   5.304  10.598  1.00  0.00     0.000 C 
BRANCH   4   5
ATOM      5  C   UNL     1      11.589   4.301   9.759  1.00  0.00     0.000 C 
BRANCH   5   6
ATOM      6  C   UNL     1      10.121   4.700   9.504  1.00  0.00     0.000 C 
BRANCH   6   7
ATOM      7  C   UNL     1       9.394   3.858   8.440  1.00  0.00     0.000 C 
BRANCH   7   8
ATOM      8  C   UNL     1       8.293   2.962   9.037  1.00  0.00     0.000 C 
BRANCH   8   9
ATOM      9  C   UNL     1       8.825   1.592   9.482  1.00  0.00     0.000 C 
BRANCH   9  10
ATOM     10  C   UNL     1       9.425   0.782   8.319  1.00  0.00     0.000 C 
BRANCH  10  11
ATOM     11  C   UNL     1      10.812   0.199   8.645  1.00  0.00     0.000 C 
BRANCH  11  12
ATOM     12  C   UNL     1      11.467   0.762   9.919  1.00  0.00     0.006 C 
BRANCH  12  13
ATOM     13  C   UNL     1      12.158  -0.315  10.766  1.00  0.00     0.053 C 
BRANCH  13  14
ATOM     14  C   UNL     1      11.258  -0.785  11.867  1.00  0.00     0.041 C 
ATOM     15  O   UNL     1      10.015  -0.589  11.799  1.00  0.00    -0.550 OA
ATOM     16  O   UNL     1      11.794  -1.424  12.979  1.00  0.00    -0.550 OA
ENDBRANCH  13  14
ENDBRANCH  12  13
ENDBRANCH  11  12
ENDBRANCH  10  11
ENDBRANCH   9  10
ENDBRANCH   8   9
ENDBRANCH   7   8
ENDBRANCH   6   7
ENDBRANCH   5   6
ENDBRANCH   4   5
ENDBRANCH   3   4
ENDBRANCH   2   3
ENDBRANCH   1   2
BRANCH   1  17
ATOM     17  C   UNL     1      10.128   7.140  13.903  1.00  0.00     0.000 C 
BRANCH  17  18
ATOM     18  C   UNL     1      10.499   6.275  15.124  1.00  0.00     0.000 C 
BRANCH  18  19
ATOM     19  C   UNL     1       9.287   5.840  15.979  1.00  0.00     0.000 C 
BRANCH  19  20
ATOM     20  C   UNL     1       8.326   4.862  15.271  1.00  0.00     0.000 C 
BRANCH  20  21
ATOM     21  C   UNL     1       8.967   3.547  14.774  1.00  0.00     0.000 C 
BRANCH  21  22
ATOM     22  C   UNL     1       8.944   3.334  13.250  1.00  0.00    -0.000 C 
BRANCH  22  23
ATOM     23  C   UNL     1      10.258   2.743  12.710  1.00  0.00    -0.000 C 
BRANCH  23  24
ATOM     24  C   UNL     1      11.482   3.167  13.539  1.00  0.00    -0.000 C 
BRANCH  24  25
ATOM     25  C   UNL     1      12.790   2.530  13.033  1.00  0.00    -0.000 C 
BRANCH  25  26
ATOM     26  C   UNL     1      13.480   1.657  14.104  1.00  0.00    -0.000 C 
BRANCH  26  27
ATOM     27  C   UNL     1      12.824   1.746  15.496  1.00  0.00    -0.000 C 
BRANCH  27  28
ATOM     28  C   UNL     1      12.050   0.489  15.937  1.00  0.00    -0.000 C 
BRANCH  28  29
ATOM     29  C   UNL     1      10.869   0.757  16.889  1.00  0.00    -0.003 C 
ATOM     30  C   UNL     1      10.917   2.149  17.517  1.00  0.00     0.004 C 
ENDBRANCH  28  29
ENDBRANCH  27  28
ENDBRANCH  26  27
ENDBRANCH  25  26
ENDBRANCH  24  25
ENDBRANCH  23  24
ENDBRANCH  22  23
ENDBRANCH  21  22
ENDBRANCH  20  21
ENDBRANCH  19  20
ENDBRANCH  18  19
ENDBRANCH  17  18
ENDBRANCH   1  17
TORSDOF 26
ENDMDL
MODEL 4
REMARK VINA RESULT:    -4.788      1.723      3.431
REMARK INTER + INTRA:         -15.847
REMARK INTER:                 -11.696
REMARK INTRA:                  -4.151
REMARK UNBOUND:                -3.782
REMARK SMILES CCCCCCCCCCCCCCCCCCCCCCCCCCCC(=O)[O-]
REMARK SMILES IDX 15 1 16 2 17 3 18 4 19 5 20 6 21 7 22 8 23 9 24 10 25 11
REMARK SMILES IDX 26 12 27 13 28 14 29 15 30 16 14 17 13 18 12 19 11 20 10 21
REMARK SMILES IDX 9 22 8 23 7 24 6 25 5 26 4 27 3 28 2 29 1 30
REMARK H PARENT
REMARK Flexibility Score: inf
ROOT
ATOM      1  C   UNL     1      13.377   4.735  11.327  1.00  0.00     0.000 C 
ENDROOT
BRANCH   1   2
ATOM      2  C   UNL     1      12.302   5.049  10.274  1.00  0.00     0.000 C 
BRANCH   2   3
ATOM      3  C   UNL     1      12.054   6.561  10.184  1.00  0.00     0.000 C 
BRANCH   3   4
ATOM      4  C   UNL     1      11.488   7.152  11.487  1.00  0.00     0.000 C 
BRANCH   4   5
ATOM      5  C   UNL     1      11.436   8.692  11.529  1.00  0.00     0.000 C 
BRANCH   5   6
ATOM      6  C   UNL     1      11.965   9.401  10.266  1.00  0.00     0.000 C 
BRANCH   6   7
ATOM      7  C   UNL     1      12.717  10.719  10.527  1.00  0.00     0.000 C 
BRANCH   7   8
ATOM      8  C   UNL     1      12.337  11.831   9.532  1.00  0.00     0.000 C 
BRANCH   8   9
ATOM      9  C   UNL     1      12.294  13.220  10.188  1.00  0.00     0.000 C 
BRANCH   9  10
ATOM     10  C   UNL     1      12.685  13.184  11.676  1.00  0.00     0.000 C 
BRANCH  10  11
ATOM     11  C   UNL     1      11.830  14.124  12.545  1.00  0.00     0.000 C 
BRANCH  11  12
ATOM     12  C   UNL     1      10.672  13.439  13.293  1.00  0.00     0.006 C 
BRANCH  12  13
ATOM     13  C   UNL     1      10.787  11.908  13.304  1.00  0.00     0.053 C 
BRANCH  13  14
ATOM     14  C   UNL     1       9.478  11.280  13.669  1.00  0.00     0.041 C 
ATOM     15  O   UNL     1       8.479  11.406  12.911  1.00  0.00    -0.550 OA
ATOM     16  O   UNL     1       9.354  10.568  14.856  1.00  0.00    -0.550 OA
ENDBRANCH  13  14
ENDBRANCH  12  13
ENDBRANCH  11  12
ENDBRANCH  10  11
ENDBRANCH   9  10
ENDBRANCH   8   9
ENDBRANCH   7   8
ENDBRANCH   6   7
ENDBRANCH   5   6
ENDBRANCH   4   5
ENDBRANCH   3   4
ENDBRANCH   2   3
ENDBRANCH   1   2
BRANCH   1  17
ATOM     17  C   UNL     1      13.394   3.256  11.746  1.00  0.00     0.000 C 
BRANCH  17  18
ATOM     18  C   UNL     1      12.880   2.272  10.675  1.00  0.00     0.000 C 
BRANCH  18  19
ATOM     19  C   UNL     1      12.235   0.992  11.254  1.00  0.00     0.000 C 
BRANCH  19  20
ATOM     20  C   UNL     1      11.057   0.441  10.424  1.00  0.00     0.000 C 
BRANCH  20  21
ATOM     21  C   UNL     1      10.975   0.953   8.969  1.00  0.00     0.000 C 
BRANCH  21  22
ATOM     22  C   UNL     1       9.968   2.090   8.723  1.00  0.00    -0.000 C 
BRANCH  22  23
ATOM     23  C   UNL     1       9.026   2.323   9.918  1.00  0.00    -0.000 C 
BRANCH  23  24
ATOM     24  C   UNL     1       8.833   3.815  10.236  1.00  0.00    -0.000 C 
BRANCH  24  25
ATOM     25  C   UNL     1       9.298   4.182  11.659  1.00  0.00    -0.000 C 
BRANCH  25  26
ATOM     26  C   UNL     1       9.106   3.027  12.665  1.00  0.00    -0.000 C 
BRANCH  26  27
ATOM     27  C   UNL     1      10.219   2.936  13.727  1.00  0.00    -0.000 C 
BRANCH  27  28
ATOM     28  C   UNL     1      10.860   4.281  14.121  1.00  0.00    -0.000 C 
BRANCH  28  29
ATOM     29  C   UNL     1      10.060   5.101  15.151  1.00  0.00    -0.003 C 
ATOM     30  C   UNL     1      10.051   6.597  14.840  1.00  0.00     0.004 C 
ENDBRANCH  28  29
ENDBRANCH  27  28
ENDBRANCH  26  27
ENDBRANCH  25  26
ENDBRANCH  24  25
ENDBRANCH  23  24
ENDBRANCH  22  23
ENDBRANCH  21  22
ENDBRANCH  20  21
ENDBRANCH  19  20
ENDBRANCH  18  19
ENDBRANCH  17  18
ENDBRANCH   1  17
TORSDOF 26
ENDMDL
MODEL 5
REMARK VINA RESULT:    -4.748      2.907      8.525
REMARK INTER + INTRA:         -15.746
REMARK INTER:                 -12.122
REMARK INTRA:                  -3.624
REMARK UNBOUND:                -3.782
REMARK SMILES CCCCCCCCCCCCCCCCCCCCCCCCCCCC(=O)[O-]
REMARK SMILES IDX 15 1 16 2 17 3 18 4 19 5 20 6 21 7 22 8 23 9 24 10 25 11
REMARK SMILES IDX 26 12 27 13 28 14 29 15 30 16 14 17 13 18 12 19 11 20 10 21
REMARK SMILES IDX 9 22 8 23 7 24 6 25 5 26 4 27 3 28 2 29 1 30
REMARK H PARENT
REMARK Flexibility Score: inf
ROOT
ATOM      1  C   UNL     1       9.124   5.944  15.996  1.00  0.00     0.000 C 
ENDROOT
BRANCH   1   2
ATOM      2  C   UNL     1       8.881   4.427  15.975  1.00  0.00     0.000 C 
BRANCH   2   3
ATOM      3  C   UNL     1       9.830   3.710  16.947  1.00  0.00     0.000 C 
BRANCH   3   4
ATOM      4  C   UNL     1      10.291   2.337  16.428  1.00  0.00     0.000 C 
BRANCH   4   5
ATOM      5  C   UNL     1      11.147   2.386  15.147  1.00  0.00     0.000 C 
BRANCH   5   6
ATOM      6  C   UNL     1      12.654   2.134  15.355  1.00  0.00     0.000 C 
BRANCH   6   7
ATOM      7  C   UNL     1      13.487   2.069  14.061  1.00  0.00     0.000 C 
BRANCH   7   8
ATOM      8  C   UNL     1      12.794   1.270  12.943  1.00  0.00     0.000 C 
BRANCH   8   9
ATOM      9  C   UNL     1      12.618   2.089  11.655  1.00  0.00     0.000 C 
BRANCH   9  10
ATOM     10  C   UNL     1      12.985   3.572  11.841  1.00  0.00     0.000 C 
BRANCH  10  11
ATOM     11  C   UNL     1      12.665   4.430  10.604  1.00  0.00     0.000 C 
BRANCH  11  12
ATOM     12  C   UNL     1      11.705   3.776   9.594  1.00  0.00     0.006 C 
BRANCH  12  13
ATOM     13  C   UNL     1      10.359   4.506   9.485  1.00  0.00     0.053 C 
BRANCH  13  14
ATOM     14  C   UNL     1       9.276   3.727  10.163  1.00  0.00     0.041 C 
ATOM     15  O   UNL     1       8.296   3.290   9.502  1.00  0.00    -0.550 OA
ATOM     16  O   UNL     1       9.337   3.497  11.533  1.00  0.00    -0.550 OA
ENDBRANCH  13  14
ENDBRANCH  12  13
ENDBRANCH  11  12
ENDBRANCH  10  11
ENDBRANCH   9  10
ENDBRANCH   8   9
ENDBRANCH   7   8
ENDBRANCH   6   7
ENDBRANCH   5   6
ENDBRANCH   4   5
ENDBRANCH   3   4
ENDBRANCH   2   3
ENDBRANCH   1   2
BRANCH   1  17
ATOM     17  C   UNL     1      10.392   6.360  15.233  1.00  0.00     0.000 C 
BRANCH  17  18
ATOM     18  C   UNL     1      10.559   5.704  13.847  1.00  0.00     0.000 C 
BRANCH  18  19
ATOM     19  C   UNL     1      10.259   6.651  12.662  1.00  0.00     0.000 C 
BRANCH  19  20
ATOM     20  C   UNL     1      11.497   7.378  12.099  1.00  0.00     0.000 C 
BRANCH  20  21
ATOM     21  C   UNL     1      11.264   8.839  11.655  1.00  0.00     0.000 C 
BRANCH  21  22
ATOM     22  C   UNL     1      12.003   9.268  10.375  1.00  0.00    -0.000 C 
BRANCH  22  23
ATOM     23  C   UNL     1      12.340  10.770  10.356  1.00  0.00    -0.000 C 
BRANCH  23  24
ATOM     24  C   UNL     1      12.320  11.398  11.760  1.00  0.00    -0.000 C 
BRANCH  24  25
ATOM     25  C   UNL     1      11.367  12.605  11.856  1.00  0.00    -0.000 C 
BRANCH  25  26
ATOM     26  C   UNL     1      10.008  12.241  12.491  1.00  0.00    -0.000 C 
BRANCH  26  27
ATOM     27  C   UNL     1      10.098  11.874  13.985  1.00  0.00    -0.000 C 
BRANCH  27  28
ATOM     28  C   UNL     1       9.527  10.492  14.357  1.00  0.00    -0.000 C 
BRANCH  28  29
ATOM     29  C   UNL     1       9.417  10.223  15.870  1.00  0.00    -0.003 C 
ATOM     30  C   UNL     1      10.255  11.188  16.707  1.00  0.00     0.004 C 
ENDBRANCH  28  29
ENDBRANCH  27  28
ENDBRANCH  26  27
ENDBRANCH  25  26
ENDBRANCH  24  25
ENDBRANCH  23  24
ENDBRANCH  22  23
ENDBRANCH  21  22
ENDBRANCH  20  21
ENDBRANCH  19  20
ENDBRANCH  18  19
ENDBRANCH  17  18
ENDBRANCH   1  17
TORSDOF 26
ENDMDL
MODEL 6
REMARK VINA RESULT:    -4.732      1.220      2.353
REMARK INTER + INTRA:         -15.706
REMARK INTER:                 -11.968
REMARK INTRA:                  -3.738
REMARK UNBOUND:                -3.782
REMARK SMILES CCCCCCCCCCCCCCCCCCCCCCCCCCCC(=O)[O-]
REMARK SMILES IDX 15 1 16 2 17 3 18 4 19 5 20 6 21 7 22 8 23 9 24 10 25 11
REMARK SMILES IDX 26 12 27 13 28 14 29 15 30 16 14 17 13 18 12 19 11 20 10 21
REMARK SMILES IDX 9 22 8 23 7 24 6 25 5 26 4 27 3 28 2 29 1 30
REMARK H PARENT
REMARK Flexibility Score: inf
ROOT
ATOM      1  C   UNL     1      11.995   7.153  10.393  1.00  0.00     0.000 C 
ENDROOT
BRANCH   1   2
ATOM      2  C   UNL     1      11.310   7.788  11.614  1.00  0.00     0.000 C 
BRANCH   2   3
ATOM      3  C   UNL     1      11.485   9.314  11.604  1.00  0.00     0.000 C 
BRANCH   3   4
ATOM      4  C   UNL     1      12.033   9.843  10.267  1.00  0.00     0.000 C 
BRANCH   4   5
ATOM      5  C   UNL     1      12.766  11.195  10.358  1.00  0.00     0.000 C 
BRANCH   5   6
ATOM      6  C   UNL     1      12.379  12.226   9.278  1.00  0.00     0.000 C 
BRANCH   6   7
ATOM      7  C   UNL     1      12.473  13.698   9.719  1.00  0.00     0.000 C 
BRANCH   7   8
ATOM      8  C   UNL     1      11.126  14.264  10.204  1.00  0.00     0.000 C 
BRANCH   8   9
ATOM      9  C   UNL     1      10.925  14.091  11.718  1.00  0.00     0.000 C 
BRANCH   9  10
ATOM     10  C   UNL     1       9.514  13.590  12.074  1.00  0.00     0.000 C 
BRANCH  10  11
ATOM     11  C   UNL     1       9.508  12.149  12.617  1.00  0.00     0.000 C 
BRANCH  11  12
ATOM     12  C   UNL     1      10.341  11.935  13.893  1.00  0.00     0.006 C 
BRANCH  12  13
ATOM     13  C   UNL     1       9.562  11.220  15.006  1.00  0.00     0.053 C 
BRANCH  13  14
ATOM     14  C   UNL     1      10.157  11.519  16.347  1.00  0.00     0.041 C 
ATOM     15  O   UNL     1      10.577  10.583  17.080  1.00  0.00    -0.550 OA
ATOM     16  O   UNL     1      10.233  12.832  16.798  1.00  0.00    -0.550 OA
ENDBRANCH  13  14
ENDBRANCH  12  13
ENDBRANCH  11  12
ENDBRANCH  10  11
ENDBRANCH   9  10
ENDBRANCH   8   9
ENDBRANCH   7   8
ENDBRANCH   6   7
ENDBRANCH   5   6
ENDBRANCH   4   5
ENDBRANCH   3   4
ENDBRANCH   2   3
ENDBRANCH   1   2
BRANCH   1  17
ATOM     17  C   UNL     1      11.655   5.664  10.220  1.00  0.00     0.000 C 
BRANCH  17  18
ATOM     18  C   UNL     1      10.476   5.163  11.080  1.00  0.00     0.000 C 
BRANCH  18  19
ATOM     19  C   UNL     1       9.413   4.369  10.288  1.00  0.00     0.000 C 
BRANCH  19  20
ATOM     20  C   UNL     1       8.966   3.056  10.965  1.00  0.00     0.000 C 
BRANCH  20  21
ATOM     21  C   UNL     1       9.591   1.767  10.389  1.00  0.00     0.000 C 
BRANCH  21  22
ATOM     22  C   UNL     1      10.463   1.956   9.136  1.00  0.00    -0.000 C 
BRANCH  22  23
ATOM     23  C   UNL     1      11.969   1.834   9.431  1.00  0.00    -0.000 C 
BRANCH  23  24
ATOM     24  C   UNL     1      12.256   1.497  10.904  1.00  0.00    -0.000 C 
BRANCH  24  25
ATOM     25  C   UNL     1      13.113   2.571  11.601  1.00  0.00    -0.000 C 
BRANCH  25  26
ATOM     26  C   UNL     1      12.912   2.592  13.132  1.00  0.00    -0.000 C 
BRANCH  26  27
ATOM     27  C   UNL     1      11.489   2.203  13.577  1.00  0.00    -0.000 C 
BRANCH  27  28
ATOM     28  C   UNL     1      10.958   2.958  14.811  1.00  0.00    -0.000 C 
BRANCH  28  29
ATOM     29  C   UNL     1      10.616   4.440  14.565  1.00  0.00    -0.003 C 
ATOM     30  C   UNL     1       9.115   4.687  14.427  1.00  0.00     0.004 C 
ENDBRANCH  28  29
ENDBRANCH  27  28
ENDBRANCH  26  27
ENDBRANCH  25  26
ENDBRANCH  24  25
ENDBRANCH  23  24
ENDBRANCH  22  23
ENDBRANCH  21  22
ENDBRANCH  20  21
ENDBRANCH  19  20
ENDBRANCH  18  19
ENDBRANCH  17  18
ENDBRANCH   1  17
TORSDOF 26
ENDMDL
MODEL 7
REMARK VINA RESULT:    -4.673      2.592      5.229
REMARK INTER + INTRA:         -15.558
REMARK INTER:                 -11.064
REMARK INTRA:                  -4.494
REMARK UNBOUND:                -3.782
REMARK SMILES CCCCCCCCCCCCCCCCCCCCCCCCCCCC(=O)[O-]
REMARK SMILES IDX 15 1 16 2 17 3 18 4 19 5 20 6 21 7 22 8 23 9 24 10 25 11
REMARK SMILES IDX 26 12 27 13 28 14 29 15 30 16 14 17 13 18 12 19 11 20 10 21
REMARK SMILES IDX 9 22 8 23 7 24 6 25 5 26 4 27 3 28 2 29 1 30
REMARK H PARENT
REMARK Flexibility Score: inf
ROOT
ATOM      1  C   UNL     1      12.038   4.751   9.594  1.00  0.00     0.000 C 
ENDROOT
BRANCH   1   2
ATOM      2  C   UNL     1      12.712   4.776  10.975  1.00  0.00     0.000 C 
BRANCH   2   3
ATOM      3  C   UNL     1      12.925   3.349  11.502  1.00  0.00     0.000 C 
BRANCH   3   4
ATOM      4  C   UNL     1      12.172   3.079  12.816  1.00  0.00     0.000 C 
BRANCH   4   5
ATOM      5  C   UNL     1      10.645   2.933  12.667  1.00  0.00     0.000 C 
BRANCH   5   6
ATOM      6  C   UNL     1       9.814   4.088  13.261  1.00  0.00     0.000 C 
BRANCH   6   7
ATOM      7  C   UNL     1      10.547   4.945  14.309  1.00  0.00     0.000 C 
BRANCH   7   8
ATOM      8  C   UNL     1      10.431   6.456  14.035  1.00  0.00     0.000 C 
BRANCH   8   9
ATOM      9  C   UNL     1      10.484   6.788  12.536  1.00  0.00     0.000 C 
BRANCH   9  10
ATOM     10  C   UNL     1      11.192   8.124  12.250  1.00  0.00     0.000 C 
BRANCH  10  11
ATOM     11  C   UNL     1      11.765   8.207  10.824  1.00  0.00     0.000 C 
BRANCH  11  12
ATOM     12  C   UNL     1      12.000   9.637  10.303  1.00  0.00     0.006 C 
BRANCH  12  13
ATOM     13  C   UNL     1      11.886  10.703  11.402  1.00  0.00     0.053 C 
BRANCH  13  14
ATOM     14  C   UNL     1      12.369  12.031  10.907  1.00  0.00     0.041 C 
ATOM     15  O   UNL     1      12.763  12.908  11.720  1.00  0.00    -0.550 OA
ATOM     16  O   UNL     1      12.366  12.307   9.544  1.00  0.00    -0.550 OA
ENDBRANCH  13  14
ENDBRANCH  12  13
ENDBRANCH  11  12
ENDBRANCH  10  11
ENDBRANCH   9  10
ENDBRANCH   8   9
ENDBRANCH   7   8
ENDBRANCH   6   7
ENDBRANCH   5   6
ENDBRANCH   4   5
ENDBRANCH   3   4
ENDBRANCH   2   3
ENDBRANCH   1   2
BRANCH   1  17
ATOM     17  C   UNL     1      10.503   4.713   9.674  1.00  0.00     0.000 C 
BRANCH  17  18
ATOM     18  C   UNL     1       9.828   3.703   8.724  1.00  0.00     0.000 C 
BRANCH  18  19
ATOM     19  C   UNL     1       9.890   2.238   9.215  1.00  0.00     0.000 C 
BRANCH  19  20
ATOM     20  C   UNL     1      11.220   1.519   8.905  1.00  0.00     0.000 C 
BRANCH  20  21
ATOM     21  C   UNL     1      11.547   0.312   9.811  1.00  0.00     0.000 C 
BRANCH  21  22
ATOM     22  C   UNL     1      10.362  -0.617  10.131  1.00  0.00    -0.000 C 
BRANCH  22  23
ATOM     23  C   UNL     1      10.317  -1.040  11.610  1.00  0.00    -0.000 C 
BRANCH  23  24
ATOM     24  C   UNL     1      11.568  -0.600  12.389  1.00  0.00    -0.000 C 
BRANCH  24  25
ATOM     25  C   UNL     1      11.624  -1.199  13.808  1.00  0.00    -0.000 C 
BRANCH  25  26
ATOM     26  C   UNL     1      10.355  -0.894  14.633  1.00  0.00    -0.000 C 
BRANCH  26  27
ATOM     27  C   UNL     1      10.331   0.525  15.234  1.00  0.00    -0.000 C 
BRANCH  27  28
ATOM     28  C   UNL     1      11.303   0.758  16.406  1.00  0.00    -0.000 C 
BRANCH  28  29
ATOM     29  C   UNL     1      12.303   1.911  16.198  1.00  0.00    -0.003 C 
ATOM     30  C   UNL     1      13.566   1.474  15.457  1.00  0.00     0.004 C 
ENDBRANCH  28  29
ENDBRANCH  27  28
ENDBRANCH  26  27
ENDBRANCH  25  26
ENDBRANCH  24  25
ENDBRANCH  23  24
ENDBRANCH  22  23
ENDBRANCH  21  22
ENDBRANCH  20  21
ENDBRANCH  19  20
ENDBRANCH  18  19
ENDBRANCH  17  18
ENDBRANCH   1  17
TORSDOF 26
ENDMDL
MODEL 8
REMARK VINA RESULT:    -4.666      4.358      6.471
REMARK INTER + INTRA:         -15.541
REMARK INTER:                 -10.366
REMARK INTRA:                  -5.175
REMARK UNBOUND:                -3.782
REMARK SMILES CCCCCCCCCCCCCCCCCCCCCCCCCCCC(=O)[O-]
REMARK SMILES IDX 15 1 16 2 17 3 18 4 19 5 20 6 21 7 22 8 23 9 24 10 25 11
REMARK SMILES IDX 26 12 27 13 28 14 29 15 30 16 14 17 13 18 12 19 11 20 10 21
REMARK SMILES IDX 9 22 8 23 7 24 6 25 5 26 4 27 3 28 2 29 1 30
REMARK H PARENT
REMARK Flexibility Score: inf
ROOT
ATOM      1  C   UNL     1      12.799   2.819  10.865  1.00  0.00     0.000 C 
ENDROOT
BRANCH   1   2
ATOM      2  C   UNL     1      12.835   4.227  11.481  1.00  0.00     0.000 C 
BRANCH   2   3
ATOM      3  C   UNL     1      12.496   5.291  10.427  1.00  0.00     0.000 C 
BRANCH   3   4
ATOM      4  C   UNL     1      11.642   6.440  10.991  1.00  0.00     0.000 C 
BRANCH   4   5
ATOM      5  C   UNL     1      10.517   5.999  11.947  1.00  0.00     0.000 C 
BRANCH   5   6
ATOM      6  C   UNL     1      10.550   6.652  13.344  1.00  0.00     0.000 C 
BRANCH   6   7
ATOM      7  C   UNL     1      10.370   5.678  14.522  1.00  0.00     0.000 C 
BRANCH   7   8
ATOM      8  C   UNL     1       9.016   5.846  15.236  1.00  0.00     0.000 C 
BRANCH   8   9
ATOM      9  C   UNL     1       8.582   4.575  15.982  1.00  0.00     0.000 C 
BRANCH   9  10
ATOM     10  C   UNL     1       9.722   3.956  16.811  1.00  0.00     0.000 C 
BRANCH  10  11
ATOM     11  C   UNL     1       9.681   2.417  16.834  1.00  0.00     0.000 C 
BRANCH  11  12
ATOM     12  C   UNL     1      10.619   1.761  17.863  1.00  0.00     0.006 C 
BRANCH  12  13
ATOM     13  C   UNL     1      10.518   2.393  19.258  1.00  0.00     0.053 C 
BRANCH  13  14
ATOM     14  C   UNL     1      10.198   1.356  20.289  1.00  0.00     0.041 C 
ATOM     15  O   UNL     1      11.054   1.035  21.156  1.00  0.00    -0.550 OA
ATOM     16  O   UNL     1       8.957   0.728  20.282  1.00  0.00    -0.550 OA
ENDBRANCH  13  14
ENDBRANCH  12  13
ENDBRANCH  11  12
ENDBRANCH  10  11
ENDBRANCH   9  10
ENDBRANCH   8   9
ENDBRANCH   7   8
ENDBRANCH   6   7
ENDBRANCH   5   6
ENDBRANCH   4   5
ENDBRANCH   3   4
ENDBRANCH   2   3
ENDBRANCH   1   2
BRANCH   1  17
ATOM     17  C   UNL     1      12.119   2.784   9.487  1.00  0.00     0.000 C 
BRANCH  17  18
ATOM     18  C   UNL     1      11.248   1.537   9.225  1.00  0.00     0.000 C 
BRANCH  18  19
ATOM     19  C   UNL     1       9.798   1.861   8.800  1.00  0.00     0.000 C 
BRANCH  19  20
ATOM     20  C   UNL     1       9.478   3.369   8.725  1.00  0.00     0.000 C 
BRANCH  20  21
ATOM     21  C   UNL     1       8.419   3.872   9.729  1.00  0.00     0.000 C 
BRANCH  21  22
ATOM     22  C   UNL     1       7.969   2.849  10.787  1.00  0.00    -0.000 C 
BRANCH  22  23
ATOM     23  C   UNL     1       8.289   3.296  12.225  1.00  0.00    -0.000 C 
BRANCH  23  24
ATOM     24  C   UNL     1       8.781   2.137  13.108  1.00  0.00    -0.000 C 
BRANCH  24  25
ATOM     25  C   UNL     1      10.308   2.161  13.319  1.00  0.00    -0.000 C 
BRANCH  25  26
ATOM     26  C   UNL     1      10.950   0.764  13.178  1.00  0.00    -0.000 C 
BRANCH  26  27
ATOM     27  C   UNL     1      11.046  -0.013  14.505  1.00  0.00    -0.000 C 
BRANCH  27  28
ATOM     28  C   UNL     1      12.471  -0.178  15.067  1.00  0.00    -0.000 C 
BRANCH  28  29
ATOM     29  C   UNL     1      13.492   0.858  14.557  1.00  0.00    -0.003 C 
ATOM     30  C   UNL     1      13.546   2.115  15.423  1.00  0.00     0.004 C 
ENDBRANCH  28  29
ENDBRANCH  27  28
ENDBRANCH  26  27
ENDBRANCH  25  26
ENDBRANCH  24  25
ENDBRANCH  23  24
ENDBRANCH  22  23
ENDBRANCH  21  22
ENDBRANCH  20  21
ENDBRANCH  19  20
ENDBRANCH  18  19
ENDBRANCH  17  18
ENDBRANCH   1  17
TORSDOF 26
ENDMDL
MODEL 9
REMARK VINA RESULT:    -4.664      4.658      8.327
REMARK INTER + INTRA:         -15.535
REMARK INTER:                 -10.081
REMARK INTRA:                  -5.454
REMARK UNBOUND:                -3.782
REMARK SMILES CCCCCCCCCCCCCCCCCCCCCCCCCCCC(=O)[O-]
REMARK SMILES IDX 15 1 16 2 17 3 18 4 19 5 20 6 21 7 22 8 23 9 24 10 25 11
REMARK SMILES IDX 26 12 27 13 28 14 29 15 30 16 14 17 13 18 12 19 11 20 10 21
REMARK SMILES IDX 9 22 8 23 7 24 6 25 5 26 4 27 3 28 2 29 1 30
REMARK H PARENT
REMARK Flexibility Score: inf
ROOT
ATOM      1  C   UNL     1      11.613   6.806  12.046  1.00  0.00     0.000 C 
ENDROOT
BRANCH   1   2
ATOM      2  C   UNL     1      10.270   6.519  12.737  1.00  0.00     0.000 C 
BRANCH   2   3
ATOM      3  C   UNL     1      10.493   5.951  14.146  1.00  0.00     0.000 C 
BRANCH   3   4
ATOM      4  C   UNL     1      10.252   4.433  14.222  1.00  0.00     0.000 C 
BRANCH   4   5
ATOM      5  C   UNL     1       8.778   4.006  14.081  1.00  0.00     0.000 C 
BRANCH   5   6
ATOM      6  C   UNL     1       8.479   3.065  12.896  1.00  0.00     0.000 C 
BRANCH   6   7
ATOM      7  C   UNL     1       9.621   2.922  11.874  1.00  0.00     0.000 C 
BRANCH   7   8
ATOM      8  C   UNL     1       9.262   3.497  10.492  1.00  0.00     0.000 C 
BRANCH   8   9
ATOM      9  C   UNL     1      10.038   2.819   9.352  1.00  0.00     0.000 C 
BRANCH   9  10
ATOM     10  C   UNL     1       9.496   1.418   9.017  1.00  0.00     0.000 C 
BRANCH  10  11
ATOM     11  C   UNL     1      10.609   0.405   8.692  1.00  0.00     0.000 C 
BRANCH  11  12
ATOM     12  C   UNL     1      11.576   0.112   9.853  1.00  0.00     0.006 C 
BRANCH  12  13
ATOM     13  C   UNL     1      11.451  -1.320  10.392  1.00  0.00     0.053 C 
BRANCH  13  14
ATOM     14  C   UNL     1      11.038  -1.311  11.831  1.00  0.00     0.041 C 
ATOM     15  O   UNL     1      10.281  -0.405  12.270  1.00  0.00    -0.550 OA
ATOM     16  O   UNL     1      11.504  -2.296  12.694  1.00  0.00    -0.550 OA
ENDBRANCH  13  14
ENDBRANCH  12  13
ENDBRANCH  11  12
ENDBRANCH  10  11
ENDBRANCH   9  10
ENDBRANCH   8   9
ENDBRANCH   7   8
ENDBRANCH   6   7
ENDBRANCH   5   6
ENDBRANCH   4   5
ENDBRANCH   3   4
ENDBRANCH   2   3
ENDBRANCH   1   2
BRANCH   1  17
ATOM     17  C   UNL     1      11.698   6.217  10.629  1.00  0.00     0.000 C 
BRANCH  17  18
ATOM     18  C   UNL     1      12.804   5.160  10.431  1.00  0.00     0.000 C 
BRANCH  18  19
ATOM     19  C   UNL     1      13.082   4.298  11.684  1.00  0.00     0.000 C 
BRANCH  19  20
ATOM     20  C   UNL     1      13.174   2.783  11.406  1.00  0.00     0.000 C 
BRANCH  20  21
ATOM     21  C   UNL     1      13.176   1.878  12.658  1.00  0.00     0.000 C 
BRANCH  21  22
ATOM     22  C   UNL     1      13.511   2.584  13.984  1.00  0.00    -0.000 C 
BRANCH  22  23
ATOM     23  C   UNL     1      13.565   1.615  15.179  1.00  0.00    -0.000 C 
BRANCH  23  24
ATOM     24  C   UNL     1      12.920   0.254  14.866  1.00  0.00    -0.000 C 
BRANCH  24  25
ATOM     25  C   UNL     1      11.685  -0.032  15.741  1.00  0.00    -0.000 C 
BRANCH  25  26
ATOM     26  C   UNL     1      10.536   0.970  15.495  1.00  0.00    -0.000 C 
BRANCH  26  27
ATOM     27  C   UNL     1       9.297   0.724  16.379  1.00  0.00    -0.000 C 
BRANCH  27  28
ATOM     28  C   UNL     1       8.808   1.948  17.177  1.00  0.00    -0.000 C 
BRANCH  28  29
ATOM     29  C   UNL     1       9.929   2.836  17.751  1.00  0.00    -0.003 C 
ATOM     30  C   UNL     1      10.600   2.225  18.980  1.00  0.00     0.004 C 
ENDBRANCH  28  29
ENDBRANCH  27  28
ENDBRANCH  26  27
ENDBRANCH  25  26
ENDBRANCH  24  25
ENDBRANCH  23  24
ENDBRANCH  22  23
ENDBRANCH  21  22
ENDBRANCH  20  21
ENDBRANCH  19  20
ENDBRANCH  18  19
ENDBRANCH  17  18
ENDBRANCH   1  17
TORSDOF 26
ENDMDL
