MODEL 1
REMARK VINA RESULT:    -4.086      0.000      0.000
REMARK INTER + INTRA:          -5.878
REMARK INTER:                  -5.519
REMARK INTRA:                  -0.359
REMARK UNBOUND:                -0.359
REMARK SMILES C=C1C(=O)O[C@@H]2[C@@H]1CCC(C)=CCC[C@]1(C)O[C@H]21
REMARK SMILES IDX 6 1 7 2 2 3 1 4 3 5 4 6 5 7 8 8 9 9 10 10 11 11 12 12 18 14
REMARK SMILES IDX 15 15 17 16 16 17 14 18 13 19
REMARK H PARENT
REMARK Flexibility Score: 70.00
ROOT
ATOM      1  C   UNL     1      20.243  13.542  23.481  1.00  0.00     0.216 C 
ATOM      2  C   UNL     1      21.204  14.599  22.806  1.00  0.00     0.070 C 
ATOM      3  C   UNL     1      22.210  14.891  23.881  1.00  0.00     0.037 C 
ATOM      4  C   UNL     1      23.197  15.783  23.806  1.00  0.00     0.021 C 
ATOM      5  C   UNL     1      21.878  14.099  25.035  1.00  0.00     0.334 C 
ATOM      6  O   UNL     1      22.506  14.090  26.125  1.00  0.00    -0.247 OA
ATOM      7  O   UNL     1      20.752  13.342  24.798  1.00  0.00    -0.455 OA
ENDROOT
BRANCH   2   8
ATOM      8  C   UNL     1      21.898  14.065  21.514  1.00  0.00     0.017 C 
BRANCH   8   9
ATOM      9  C   UNL     1      21.010  14.175  20.250  1.00  0.00     0.031 C 
BRANCH   9  10
ATOM     10  C   UNL     1      20.727  12.821  19.612  1.00  0.00    -0.077 C 
ATOM     11  C   UNL     1      21.862  12.074  18.959  1.00  0.00     0.039 C 
ATOM     12  C   UNL     1      19.494  12.260  19.574  1.00  0.00    -0.028 CG0
ATOM     13  G   UNL     1      18.260  12.835  20.220  1.00  0.00     0.000 G0
ENDBRANCH   9  10
ENDBRANCH   8   9
ENDBRANCH   2   8
BRANCH   1  14
ATOM     14  C   UNL     1      18.744  13.939  23.599  1.00  0.00     0.192 C 
ATOM     15  C   UNL     1      17.713  13.312  22.709  1.00  0.00     0.096 C 
ATOM     16  O   UNL     1      18.232  14.600  22.462  1.00  0.00    -0.362 OA
ATOM     17  C   UNL     1      16.254  13.376  23.161  1.00  0.00     0.045 C 
BRANCH  15  18
ATOM     18  C   UNL     1      18.102  12.260  21.643  1.00  0.00     0.042 C 
BRANCH  18  19
ATOM     19  C   UNL     1      18.264  12.830  20.222  1.00  0.00     0.030 CG0
ATOM     20  G   UNL     1      19.491  12.257  19.560  1.00  0.00     0.000 G0
ENDBRANCH  18  19
ENDBRANCH  15  18
ENDBRANCH   1  14
TORSDOF 0
ENDMDL
MODEL 2
REMARK VINA RESULT:    -4.015      2.559      5.073
REMARK INTER + INTRA:          -5.782
REMARK INTER:                  -5.695
REMARK INTRA:                  -0.087
REMARK UNBOUND:                -0.359
REMARK SMILES C=C1C(=O)O[C@@H]2[C@@H]1CCC(C)=CCC[C@]1(C)O[C@H]21
REMARK SMILES IDX 6 1 7 2 2 3 1 4 3 5 4 6 5 7 8 8 9 9 10 10 11 11 12 12 18 14
REMARK SMILES IDX 15 15 17 16 16 17 14 18 13 19
REMARK H PARENT
REMARK Flexibility Score: 70.00
ROOT
ATOM      1  C   UNL     1      20.900  13.765  22.242  1.00  0.00     0.216 C 
ATOM      2  C   UNL     1      20.188  15.081  21.733  1.00  0.00     0.070 C 
ATOM      3  C   UNL     1      20.246  14.952  20.239  1.00  0.00     0.037 C 
ATOM      4  C   UNL     1      19.826  15.862  19.359  1.00  0.00     0.021 C 
ATOM      5  C   UNL     1      20.906  13.715  19.919  1.00  0.00     0.334 C 
ATOM      6  O   UNL     1      21.132  13.282  18.759  1.00  0.00    -0.247 OA
ATOM      7  O   UNL     1      21.280  13.052  21.066  1.00  0.00    -0.455 OA
ENDROOT
BRANCH   2   8
ATOM      8  C   UNL     1      18.715  15.216  22.230  1.00  0.00     0.017 C 
BRANCH   8   9
ATOM      9  C   UNL     1      18.558  14.989  23.754  1.00  0.00     0.031 C 
BRANCH   9  10
ATOM     10  C   UNL     1      18.071  13.586  24.092  1.00  0.00    -0.077 C 
ATOM     11  C   UNL     1      16.804  13.081  23.449  1.00  0.00     0.039 C 
ATOM     12  C   UNL     1      18.706  12.769  24.968  1.00  0.00    -0.028 CG0
ATOM     13  G   UNL     1      20.008  13.084  25.659  1.00  0.00     0.000 G0
ENDBRANCH   9  10
ENDBRANCH   8   9
ENDBRANCH   2   8
BRANCH   1  14
ATOM     14  C   UNL     1      22.168  13.956  23.122  1.00  0.00     0.192 C 
ATOM     15  C   UNL     1      22.297  13.256  24.442  1.00  0.00     0.096 C 
ATOM     16  O   UNL     1      21.926  14.614  24.347  1.00  0.00    -0.362 OA
ATOM     17  C   UNL     1      23.700  13.101  25.027  1.00  0.00     0.045 C 
BRANCH  15  18
ATOM     18  C   UNL     1      21.177  12.332  24.975  1.00  0.00     0.042 C 
BRANCH  18  19
ATOM     19  C   UNL     1      20.017  13.075  25.661  1.00  0.00     0.030 CG0
ATOM     20  G   UNL     1      18.712  12.770  24.972  1.00  0.00     0.000 G0
ENDBRANCH  18  19
ENDBRANCH  15  18
ENDBRANCH   1  14
TORSDOF 0
ENDMDL
MODEL 3
REMARK VINA RESULT:    -4.005      2.672      4.752
REMARK INTER + INTRA:          -5.769
REMARK INTER:                  -5.440
REMARK INTRA:                  -0.329
REMARK UNBOUND:                -0.359
REMARK SMILES C=C1C(=O)O[C@@H]2[C@@H]1CCC(C)=CCC[C@]1(C)O[C@H]21
REMARK SMILES IDX 6 1 7 2 2 3 1 4 3 5 4 6 5 7 8 8 9 9 10 10 11 11 12 12 18 14
REMARK SMILES IDX 15 15 17 16 16 17 14 18 13 19
REMARK H PARENT
REMARK Flexibility Score: 70.00
ROOT
ATOM      1  C   UNL     1      20.093  14.223  21.363  1.00  0.00     0.216 C 
ATOM      2  C   UNL     1      21.450  13.656  21.942  1.00  0.00     0.070 C 
ATOM      3  C   UNL     1      22.247  13.336  20.711  1.00  0.00     0.037 C 
ATOM      4  C   UNL     1      23.451  12.765  20.685  1.00  0.00     0.021 C 
ATOM      5  C   UNL     1      21.454  13.679  19.561  1.00  0.00     0.334 C 
ATOM      6  O   UNL     1      21.806  13.543  18.360  1.00  0.00    -0.247 OA
ATOM      7  O   UNL     1      20.229  14.175  19.944  1.00  0.00    -0.455 OA
ENDROOT
BRANCH   2   8
ATOM      8  C   UNL     1      22.204  14.673  22.854  1.00  0.00     0.017 C 
BRANCH   8   9
ATOM      9  C   UNL     1      22.184  14.285  24.353  1.00  0.00     0.031 C 
BRANCH   9  10
ATOM     10  C   UNL     1      21.606  15.383  25.236  1.00  0.00    -0.077 C 
ATOM     11  C   UNL     1      22.517  16.480  25.725  1.00  0.00     0.039 C 
ATOM     12  C   UNL     1      20.310  15.413  25.631  1.00  0.00    -0.028 CG0
ATOM     13  G   UNL     1      19.248  14.436  25.197  1.00  0.00     0.000 G0
ENDBRANCH   9  10
ENDBRANCH   8   9
ENDBRANCH   2   8
BRANCH   1  14
ATOM     14  C   UNL     1      18.797  13.457  21.750  1.00  0.00     0.192 C 
ATOM     15  C   UNL     1      18.041  13.812  22.996  1.00  0.00     0.096 C 
ATOM     16  O   UNL     1      18.907  12.700  22.936  1.00  0.00    -0.362 OA
ATOM     17  C   UNL     1      16.579  13.375  23.085  1.00  0.00     0.045 C 
BRANCH  15  18
ATOM     18  C   UNL     1      18.525  14.939  23.938  1.00  0.00     0.042 C 
BRANCH  18  19
ATOM     19  C   UNL     1      19.235  14.439  25.209  1.00  0.00     0.030 CG0
ATOM     20  G   UNL     1      20.307  15.411  25.632  1.00  0.00     0.000 G0
ENDBRANCH  18  19
ENDBRANCH  15  18
ENDBRANCH   1  14
TORSDOF 0
ENDMDL
MODEL 4
REMARK VINA RESULT:    -3.620      2.585      4.795
REMARK INTER + INTRA:          -5.248
REMARK INTER:                  -5.005
REMARK INTRA:                  -0.243
REMARK UNBOUND:                -0.359
REMARK SMILES C=C1C(=O)O[C@@H]2[C@@H]1CCC(C)=CCC[C@]1(C)O[C@H]21
REMARK SMILES IDX 6 1 7 2 2 3 1 4 3 5 4 6 5 7 8 8 9 9 10 10 11 11 12 12 18 14
REMARK SMILES IDX 15 15 17 16 16 17 14 18 13 19
REMARK H PARENT
REMARK Flexibility Score: 70.00
ROOT
ATOM      1  C   UNL     1      22.126  13.267  22.708  1.00  0.00     0.216 C 
ATOM      2  C   UNL     1      21.210  13.883  21.578  1.00  0.00     0.070 C 
ATOM      3  C   UNL     1      21.917  13.502  20.310  1.00  0.00     0.037 C 
ATOM      4  C   UNL     1      21.556  13.857  19.077  1.00  0.00     0.021 C 
ATOM      5  C   UNL     1      23.094  12.753  20.660  1.00  0.00     0.334 C 
ATOM      6  O   UNL     1      23.927  12.274  19.847  1.00  0.00    -0.247 OA
ATOM      7  O   UNL     1      23.207  12.633  22.027  1.00  0.00    -0.455 OA
ENDROOT
BRANCH   2   8
ATOM      8  C   UNL     1      19.750  13.331  21.598  1.00  0.00     0.017 C 
BRANCH   8   9
ATOM      9  C   UNL     1      18.683  14.425  21.851  1.00  0.00     0.031 C 
BRANCH   9  10
ATOM     10  C   UNL     1      17.821  14.133  23.072  1.00  0.00    -0.077 C 
ATOM     11  C   UNL     1      16.547  13.347  22.893  1.00  0.00     0.039 C 
ATOM     12  C   UNL     1      18.126  14.570  24.318  1.00  0.00    -0.028 CG0
ATOM     13  G   UNL     1      19.381  15.317  24.692  1.00  0.00     0.000 G0
ENDBRANCH   9  10
ENDBRANCH   8   9
ENDBRANCH   2   8
BRANCH   1  14
ATOM     14  C   UNL     1      22.725  14.264  23.740  1.00  0.00     0.192 C 
ATOM     15  C   UNL     1      21.913  14.737  24.909  1.00  0.00     0.096 C 
ATOM     16  O   UNL     1      22.094  15.527  23.754  1.00  0.00    -0.362 OA
ATOM     17  C   UNL     1      22.666  15.318  26.105  1.00  0.00     0.045 C 
BRANCH  15  18
ATOM     18  C   UNL     1      20.458  14.259  25.124  1.00  0.00     0.042 C 
BRANCH  18  19
ATOM     19  C   UNL     1      19.387  15.286  24.713  1.00  0.00     0.030 CG0
ATOM     20  G   UNL     1      18.101  14.590  24.345  1.00  0.00     0.000 G0
ENDBRANCH  18  19
ENDBRANCH  15  18
ENDBRANCH   1  14
TORSDOF 0
ENDMDL
MODEL 5
REMARK VINA RESULT:    -3.244      1.580      2.213
REMARK INTER + INTRA:          -4.740
REMARK INTER:                  -4.431
REMARK INTRA:                  -0.310
REMARK UNBOUND:                -0.359
REMARK SMILES C=C1C(=O)O[C@@H]2[C@@H]1CCC(C)=CCC[C@]1(C)O[C@H]21
REMARK SMILES IDX 6 1 7 2 2 3 1 4 3 5 4 6 5 7 8 8 9 9 10 10 11 11 12 12 18 14
REMARK SMILES IDX 15 15 17 16 16 17 14 18 13 19
REMARK H PARENT
REMARK Flexibility Score: 70.00
ROOT
ATOM      1  C   UNL     1      20.377  13.565  22.773  1.00  0.00     0.216 C 
ATOM      2  C   UNL     1      21.663  14.450  22.524  1.00  0.00     0.070 C 
ATOM      3  C   UNL     1      21.903  15.097  23.856  1.00  0.00     0.037 C 
ATOM      4  C   UNL     1      22.850  15.995  24.130  1.00  0.00     0.021 C 
ATOM      5  C   UNL     1      20.888  14.642  24.767  1.00  0.00     0.334 C 
ATOM      6  O   UNL     1      20.779  14.982  25.974  1.00  0.00    -0.247 OA
ATOM      7  O   UNL     1      20.021  13.777  24.138  1.00  0.00    -0.455 OA
ENDROOT
BRANCH   2   8
ATOM      8  C   UNL     1      22.903  13.621  22.067  1.00  0.00     0.017 C 
BRANCH   8   9
ATOM      9  C   UNL     1      23.345  13.927  20.615  1.00  0.00     0.031 C 
BRANCH   9  10
ATOM     10  C   UNL     1      23.396  12.680  19.742  1.00  0.00    -0.077 C 
ATOM     11  C   UNL     1      24.670  11.875  19.695  1.00  0.00     0.039 C 
ATOM     12  C   UNL     1      22.357  12.265  18.977  1.00  0.00    -0.028 CG0
ATOM     13  G   UNL     1      20.995  12.910  18.942  1.00  0.00     0.000 G0
ENDBRANCH   9  10
ENDBRANCH   8   9
ENDBRANCH   2   8
BRANCH   1  14
ATOM     14  C   UNL     1      19.134  13.880  21.895  1.00  0.00     0.192 C 
ATOM     15  C   UNL     1      18.971  13.252  20.543  1.00  0.00     0.096 C 
ATOM     16  O   UNL     1      19.431  14.576  20.704  1.00  0.00    -0.362 OA
ATOM     17  C   UNL     1      17.566  13.219  19.942  1.00  0.00     0.045 C 
BRANCH  15  18
ATOM     18  C   UNL     1      20.032  12.281  19.974  1.00  0.00     0.042 C 
BRANCH  18  19
ATOM     19  C   UNL     1      20.974  12.913  18.933  1.00  0.00     0.030 CG0
ATOM     20  G   UNL     1      22.336  12.269  18.995  1.00  0.00     0.000 G0
ENDBRANCH  18  19
ENDBRANCH  15  18
ENDBRANCH   1  14
TORSDOF 0
ENDMDL
MODEL 6
REMARK VINA RESULT:    -3.237      1.556      3.667
REMARK INTER + INTRA:          -4.731
REMARK INTER:                  -4.955
REMARK INTRA:                   0.224
REMARK UNBOUND:                -0.359
REMARK SMILES C=C1C(=O)O[C@@H]2[C@@H]1CCC(C)=CCC[C@]1(C)O[C@H]21
REMARK SMILES IDX 6 1 7 2 2 3 1 4 3 5 4 6 5 7 8 8 9 9 10 10 11 11 12 12 18 14
REMARK SMILES IDX 15 15 17 16 16 17 14 18 13 19
REMARK H PARENT
REMARK Flexibility Score: 70.00
ROOT
ATOM      1  C   UNL     1      21.561  14.112  22.144  1.00  0.00     0.216 C 
ATOM      2  C   UNL     1      21.336  13.041  23.284  1.00  0.00     0.070 C 
ATOM      3  C   UNL     1      22.145  13.577  24.429  1.00  0.00     0.037 C 
ATOM      4  C   UNL     1      22.323  12.979  25.607  1.00  0.00     0.021 C 
ATOM      5  C   UNL     1      22.760  14.807  24.009  1.00  0.00     0.334 C 
ATOM      6  O   UNL     1      23.511  15.530  24.713  1.00  0.00    -0.247 OA
ATOM      7  O   UNL     1      22.427  15.098  22.705  1.00  0.00    -0.455 OA
ENDROOT
BRANCH   2   8
ATOM      8  C   UNL     1      19.837  12.871  23.683  1.00  0.00     0.017 C 
BRANCH   8   9
ATOM      9  C   UNL     1      18.935  14.028  23.187  1.00  0.00     0.031 C 
BRANCH   9  10
ATOM     10  C   UNL     1      17.742  13.536  22.378  1.00  0.00    -0.077 C 
ATOM     11  C   UNL     1      16.447  13.245  23.094  1.00  0.00     0.039 C 
ATOM     12  C   UNL     1      17.789  13.318  21.041  1.00  0.00    -0.028 CG0
ATOM     13  G   UNL     1      18.975  13.607  20.157  1.00  0.00     0.000 G0
ENDBRANCH   9  10
ENDBRANCH   8   9
ENDBRANCH   2   8
BRANCH   1  14
ATOM     14  C   UNL     1      22.204  13.600  20.824  1.00  0.00     0.192 C 
ATOM     15  C   UNL     1      21.410  12.779  19.853  1.00  0.00     0.096 C 
ATOM     16  O   UNL     1      22.329  12.196  20.751  1.00  0.00    -0.362 OA
ATOM     17  C   UNL     1      21.914  12.703  18.412  1.00  0.00     0.045 C 
BRANCH  15  18
ATOM     18  C   UNL     1      19.934  12.409  20.131  1.00  0.00     0.042 C 
BRANCH  18  19
ATOM     19  C   UNL     1      18.971  13.609  20.138  1.00  0.00     0.030 CG0
ATOM     20  G   UNL     1      17.787  13.332  21.030  1.00  0.00     0.000 G0
ENDBRANCH  18  19
ENDBRANCH  15  18
ENDBRANCH   1  14
TORSDOF 0
ENDMDL
MODEL 7
REMARK VINA RESULT:    -3.165      1.822      3.546
REMARK INTER + INTRA:          -4.633
REMARK INTER:                  -5.428
REMARK INTRA:                   0.795
REMARK UNBOUND:                -0.359
REMARK SMILES C=C1C(=O)O[C@@H]2[C@@H]1CCC(C)=CCC[C@]1(C)O[C@H]21
REMARK SMILES IDX 6 1 7 2 2 3 1 4 3 5 4 6 5 7 8 8 9 9 10 10 11 11 12 12 18 14
REMARK SMILES IDX 15 15 17 16 16 17 14 18 13 19
REMARK H PARENT
REMARK Flexibility Score: 70.00
ROOT
ATOM      1  C   UNL     1      21.691  14.704  22.797  1.00  0.00     0.216 C 
ATOM      2  C   UNL     1      20.133  14.475  22.932  1.00  0.00     0.070 C 
ATOM      3  C   UNL     1      19.822  14.995  24.305  1.00  0.00     0.037 C 
ATOM      4  C   UNL     1      18.632  14.956  24.904  1.00  0.00     0.021 C 
ATOM      5  C   UNL     1      21.045  15.470  24.893  1.00  0.00     0.334 C 
ATOM      6  O   UNL     1      21.160  15.973  26.042  1.00  0.00    -0.247 OA
ATOM      7  O   UNL     1      22.103  15.293  24.030  1.00  0.00    -0.455 OA
ENDROOT
BRANCH   2   8
ATOM      8  C   UNL     1      19.305  15.225  21.843  1.00  0.00     0.017 C 
BRANCH   8   9
ATOM      9  C   UNL     1      19.603  14.742  20.403  1.00  0.00     0.031 C 
BRANCH   9  10
ATOM     10  C   UNL     1      19.108  13.324  20.145  1.00  0.00    -0.077 C 
ATOM     11  C   UNL     1      17.712  12.951  20.573  1.00  0.00     0.039 C 
ATOM     12  C   UNL     1      19.872  12.363  19.571  1.00  0.00    -0.028 CG0
ATOM     13  G   UNL     1      21.265  12.570  19.032  1.00  0.00     0.000 G0
ENDBRANCH   9  10
ENDBRANCH   8   9
ENDBRANCH   2   8
BRANCH   1  14
ATOM     14  C   UNL     1      22.562  13.440  22.552  1.00  0.00     0.192 C 
ATOM     15  C   UNL     1      22.734  12.884  21.170  1.00  0.00     0.096 C 
ATOM     16  O   UNL     1      21.835  12.318  22.099  1.00  0.00    -0.362 OA
ATOM     17  C   UNL     1      23.929  11.965  20.920  1.00  0.00     0.045 C 
BRANCH  15  18
ATOM     18  C   UNL     1      22.049  13.540  19.948  1.00  0.00     0.042 C 
BRANCH  18  19
ATOM     19  C   UNL     1      21.280  12.555  19.049  1.00  0.00     0.030 CG0
ATOM     20  G   UNL     1      19.878  12.354  19.564  1.00  0.00     0.000 G0
ENDBRANCH  18  19
ENDBRANCH  15  18
ENDBRANCH   1  14
TORSDOF 0
ENDMDL
MODEL 8
REMARK VINA RESULT:    -3.135      2.146      4.273
REMARK INTER + INTRA:          -4.593
REMARK INTER:                  -4.582
REMARK INTRA:                  -0.011
REMARK UNBOUND:                -0.359
REMARK SMILES C=C1C(=O)O[C@@H]2[C@@H]1CCC(C)=CCC[C@]1(C)O[C@H]21
REMARK SMILES IDX 6 1 7 2 2 3 1 4 3 5 4 6 5 7 8 8 9 9 10 10 11 11 12 12 18 14
REMARK SMILES IDX 15 15 17 16 16 17 14 18 13 19
REMARK H PARENT
REMARK Flexibility Score: 70.00
ROOT
ATOM      1  C   UNL     1      20.168  14.043  23.763  1.00  0.00     0.216 C 
ATOM      2  C   UNL     1      19.635  13.325  22.459  1.00  0.00     0.070 C 
ATOM      3  C   UNL     1      18.147  13.499  22.549  1.00  0.00     0.037 C 
ATOM      4  C   UNL     1      17.249  13.000  21.700  1.00  0.00     0.021 C 
ATOM      5  C   UNL     1      17.852  14.231  23.752  1.00  0.00     0.334 C 
ATOM      6  O   UNL     1      16.703  14.556  24.149  1.00  0.00    -0.247 OA
ATOM      7  O   UNL     1      19.008  14.527  24.438  1.00  0.00    -0.455 OA
ENDROOT
BRANCH   2   8
ATOM      8  C   UNL     1      20.197  13.944  21.142  1.00  0.00     0.017 C 
BRANCH   8   9
ATOM      9  C   UNL     1      20.779  12.890  20.167  1.00  0.00     0.031 C 
BRANCH   9  10
ATOM     10  C   UNL     1      22.251  13.126  19.858  1.00  0.00    -0.077 C 
ATOM     11  C   UNL     1      22.625  13.787  18.555  1.00  0.00     0.039 C 
ATOM     12  C   UNL     1      23.255  12.746  20.686  1.00  0.00    -0.028 CG0
ATOM     13  G   UNL     1      23.068  12.125  22.047  1.00  0.00     0.000 G0
ENDBRANCH   9  10
ENDBRANCH   8   9
ENDBRANCH   2   8
BRANCH   1  14
ATOM     14  C   UNL     1      20.975  13.165  24.760  1.00  0.00     0.192 C 
ATOM     15  C   UNL     1      22.387  12.760  24.455  1.00  0.00     0.096 C 
ATOM     16  O   UNL     1      21.298  11.882  24.268  1.00  0.00    -0.362 OA
ATOM     17  C   UNL     1      23.265  12.318  25.625  1.00  0.00     0.045 C 
BRANCH  15  18
ATOM     18  C   UNL     1      23.082  13.192  23.143  1.00  0.00     0.042 C 
BRANCH  18  19
ATOM     19  C   UNL     1      23.073  12.118  22.040  1.00  0.00     0.030 CG0
ATOM     20  G   UNL     1      23.268  12.750  20.685  1.00  0.00     0.000 G0
ENDBRANCH  18  19
ENDBRANCH  15  18
ENDBRANCH   1  14
TORSDOF 0
ENDMDL
MODEL 9
REMARK VINA RESULT:    -2.988      2.842      4.588
REMARK INTER + INTRA:          -4.395
REMARK INTER:                  -4.604
REMARK INTRA:                   0.209
REMARK UNBOUND:                -0.359
REMARK SMILES C=C1C(=O)O[C@@H]2[C@@H]1CCC(C)=CCC[C@]1(C)O[C@H]21
REMARK SMILES IDX 6 1 7 2 2 3 1 4 3 5 4 6 5 7 8 8 9 9 10 10 11 11 12 12 18 14
REMARK SMILES IDX 15 15 17 16 16 17 14 18 13 19
REMARK H PARENT
REMARK Flexibility Score: 70.00
ROOT
ATOM      1  C   UNL     1      19.866  14.677  22.346  1.00  0.00     0.216 C 
ATOM      2  C   UNL     1      20.147  13.333  21.562  1.00  0.00     0.070 C 
ATOM      3  C   UNL     1      20.178  13.768  20.126  1.00  0.00     0.037 C 
ATOM      4  C   UNL     1      20.321  12.966  19.071  1.00  0.00     0.021 C 
ATOM      5  C   UNL     1      19.949  15.186  20.081  1.00  0.00     0.334 C 
ATOM      6  O   UNL     1      19.906  15.890  19.038  1.00  0.00    -0.247 OA
ATOM      7  O   UNL     1      19.765  15.691  21.348  1.00  0.00    -0.455 OA
ENDROOT
BRANCH   2   8
ATOM      8  C   UNL     1      21.488  12.649  21.974  1.00  0.00     0.017 C 
BRANCH   8   9
ATOM      9  C   UNL     1      22.393  13.549  22.851  1.00  0.00     0.031 C 
BRANCH   9  10
ATOM     10  C   UNL     1      22.816  12.871  24.148  1.00  0.00    -0.077 C 
ATOM     11  C   UNL     1      24.077  12.046  24.160  1.00  0.00     0.039 C 
ATOM     12  C   UNL     1      22.098  12.948  25.295  1.00  0.00    -0.028 CG0
ATOM     13  G   UNL     1      20.848  13.769  25.482  1.00  0.00     0.000 G0
ENDBRANCH   9  10
ENDBRANCH   8   9
ENDBRANCH   2   8
BRANCH   1  14
ATOM     14  C   UNL     1      18.576  14.721  23.212  1.00  0.00     0.192 C 
ATOM     15  C   UNL     1      18.470  13.912  24.470  1.00  0.00     0.096 C 
ATOM     16  O   UNL     1      17.873  13.498  23.261  1.00  0.00    -0.362 OA
ATOM     17  C   UNL     1      17.418  14.332  25.496  1.00  0.00     0.045 C 
BRANCH  15  18
ATOM     18  C   UNL     1      19.630  13.004  24.943  1.00  0.00     0.042 C 
BRANCH  18  19
ATOM     19  C   UNL     1      20.838  13.768  25.513  1.00  0.00     0.030 CG0
ATOM     20  G   UNL     1      22.107  12.979  25.308  1.00  0.00     0.000 G0
ENDBRANCH  18  19
ENDBRANCH  15  18
ENDBRANCH   1  14
TORSDOF 0
ENDMDL
