MODEL 1
REMARK VINA RESULT:    -3.901      0.000      0.000
REMARK INTER + INTRA:          -4.900
REMARK INTER:                  -4.814
REMARK INTRA:                  -0.086
REMARK UNBOUND:                -0.086
REMARK SMILES CCCCCC(=O)[O-]
REMARK SMILES IDX 4 1 5 2 6 3 7 4 8 5 3 6 2 7 1 8
REMARK H PARENT
REMARK Flexibility Score: inf
ROOT
ATOM      1  C   UNL     1     -13.787   1.749  -9.340  1.00  0.00     0.006 C 
ENDROOT
BRANCH   1   2
ATOM      2  C   UNL     1     -14.810   0.845 -10.040  1.00  0.00     0.053 C 
BRANCH   2   3
ATOM      3  C   UNL     1     -14.251  -0.517 -10.314  1.00  0.00     0.041 C 
ATOM      4  O   UNL     1     -13.030  -0.660 -10.583  1.00  0.00    -0.550 OA
ATOM      5  O   UNL     1     -15.074  -1.635 -10.239  1.00  0.00    -0.550 OA
ENDBRANCH   2   3
ENDBRANCH   1   2
BRANCH   1   6
ATOM      6  C   UNL     1     -14.429   3.025  -8.776  1.00  0.00     0.000 C 
BRANCH   6   7
ATOM      7  C   UNL     1     -13.368   4.097  -8.500  1.00  0.00    -0.003 C 
ATOM      8  C   UNL     1     -11.960   3.540  -8.693  1.00  0.00     0.004 C 
ENDBRANCH   6   7
ENDBRANCH   1   6
TORSDOF 4
ENDMDL
MODEL 2
REMARK VINA RESULT:    -3.894      2.375      4.158
REMARK INTER + INTRA:          -4.891
REMARK INTER:                  -4.751
REMARK INTRA:                  -0.139
REMARK UNBOUND:                -0.086
REMARK SMILES CCCCCC(=O)[O-]
REMARK SMILES IDX 4 1 5 2 6 3 7 4 8 5 3 6 2 7 1 8
REMARK H PARENT
REMARK Flexibility Score: inf
ROOT
ATOM      1  C   UNL     1     -14.883   1.688 -10.038  1.00  0.00     0.006 C 
ENDROOT
BRANCH   1   2
ATOM      2  C   UNL     1     -14.503   2.632  -8.889  1.00  0.00     0.053 C 
BRANCH   2   3
ATOM      3  C   UNL     1     -13.087   3.106  -9.006  1.00  0.00     0.041 C 
ATOM      4  O   UNL     1     -12.166   2.293  -9.285  1.00  0.00    -0.550 OA
ATOM      5  O   UNL     1     -12.788   4.453  -8.840  1.00  0.00    -0.550 OA
ENDBRANCH   2   3
ENDBRANCH   1   2
BRANCH   1   6
ATOM      6  C   UNL     1     -15.125   0.251  -9.553  1.00  0.00     0.000 C 
BRANCH   6   7
ATOM      7  C   UNL     1     -14.531  -0.767 -10.535  1.00  0.00    -0.003 C 
ATOM      8  C   UNL     1     -13.007  -0.700 -10.541  1.00  0.00     0.004 C 
ENDBRANCH   6   7
ENDBRANCH   1   6
TORSDOF 4
ENDMDL
MODEL 3
REMARK VINA RESULT:    -3.572      7.403      8.484
REMARK INTER + INTRA:          -4.493
REMARK INTER:                  -4.384
REMARK INTRA:                  -0.109
REMARK UNBOUND:                -0.086
REMARK SMILES CCCCCC(=O)[O-]
REMARK SMILES IDX 4 1 5 2 6 3 7 4 8 5 3 6 2 7 1 8
REMARK H PARENT
REMARK Flexibility Score: inf
ROOT
ATOM      1  C   UNL     1     -11.168  -5.563  -7.378  1.00  0.00     0.006 C 
ENDROOT
BRANCH   1   2
ATOM      2  C   UNL     1      -9.821  -5.576  -8.113  1.00  0.00     0.053 C 
BRANCH   2   3
ATOM      3  C   UNL     1      -9.404  -4.200  -8.533  1.00  0.00     0.041 C 
ATOM      4  O   UNL     1      -8.873  -3.417  -7.703  1.00  0.00    -0.550 OA
ATOM      5  O   UNL     1      -9.572  -3.795  -9.852  1.00  0.00    -0.550 OA
ENDBRANCH   2   3
ENDBRANCH   1   2
BRANCH   1   6
ATOM      6  C   UNL     1     -10.997  -5.576  -5.852  1.00  0.00     0.000 C 
BRANCH   6   7
ATOM      7  C   UNL     1     -11.951  -6.586  -5.203  1.00  0.00    -0.003 C 
ATOM      8  C   UNL     1     -13.315  -6.573  -5.886  1.00  0.00     0.004 C 
ENDBRANCH   6   7
ENDBRANCH   1   6
TORSDOF 4
ENDMDL
MODEL 4
REMARK VINA RESULT:    -3.529     16.563     17.337
REMARK INTER + INTRA:          -4.441
REMARK INTER:                  -4.191
REMARK INTRA:                  -0.249
REMARK UNBOUND:                -0.086
REMARK SMILES CCCCCC(=O)[O-]
REMARK SMILES IDX 4 1 5 2 6 3 7 4 8 5 3 6 2 7 1 8
REMARK H PARENT
REMARK Flexibility Score: inf
ROOT
ATOM      1  C   UNL     1     -10.703   3.853   7.586  1.00  0.00     0.006 C 
ENDROOT
BRANCH   1   2
ATOM      2  C   UNL     1     -12.147   3.562   8.017  1.00  0.00     0.053 C 
BRANCH   2   3
ATOM      3  C   UNL     1     -13.134   4.365   7.228  1.00  0.00     0.041 C 
ATOM      4  O   UNL     1     -13.882   5.197   7.807  1.00  0.00    -0.550 OA
ATOM      5  O   UNL     1     -13.205   4.220   5.848  1.00  0.00    -0.550 OA
ENDBRANCH   2   3
ENDBRANCH   1   2
BRANCH   1   6
ATOM      6  C   UNL     1     -10.276   5.290   7.919  1.00  0.00     0.000 C 
BRANCH   6   7
ATOM      7  C   UNL     1      -9.408   5.877   6.799  1.00  0.00    -0.003 C 
ATOM      8  C   UNL     1      -9.908   5.436   5.427  1.00  0.00     0.004 C 
ENDBRANCH   6   7
ENDBRANCH   1   6
TORSDOF 4
ENDMDL
MODEL 5
REMARK VINA RESULT:    -3.425     16.258     17.049
REMARK INTER + INTRA:          -4.312
REMARK INTER:                  -4.070
REMARK INTRA:                  -0.242
REMARK UNBOUND:                -0.086
REMARK SMILES CCCCCC(=O)[O-]
REMARK SMILES IDX 4 1 5 2 6 3 7 4 8 5 3 6 2 7 1 8
REMARK H PARENT
REMARK Flexibility Score: inf
ROOT
ATOM      1  C   UNL     1     -12.724   4.242   7.426  1.00  0.00     0.006 C 
ENDROOT
BRANCH   1   2
ATOM      2  C   UNL     1     -12.863   4.359   5.902  1.00  0.00     0.053 C 
BRANCH   2   3
ATOM      3  C   UNL     1     -11.542   4.617   5.243  1.00  0.00     0.041 C 
ATOM      4  O   UNL     1     -11.146   3.876   4.304  1.00  0.00    -0.550 OA
ATOM      5  O   UNL     1     -10.764   5.696   5.643  1.00  0.00    -0.550 OA
ENDBRANCH   2   3
ENDBRANCH   1   2
BRANCH   1   6
ATOM      6  C   UNL     1     -11.752   3.126   7.836  1.00  0.00     0.000 C 
BRANCH   6   7
ATOM      7  C   UNL     1     -11.007   3.494   9.125  1.00  0.00    -0.003 C 
ATOM      8  C   UNL     1     -10.577   4.958   9.113  1.00  0.00     0.004 C 
ENDBRANCH   6   7
ENDBRANCH   1   6
TORSDOF 4
ENDMDL
MODEL 6
REMARK VINA RESULT:    -3.405     16.704     17.627
REMARK INTER + INTRA:          -4.287
REMARK INTER:                  -4.100
REMARK INTRA:                  -0.187
REMARK UNBOUND:                -0.086
REMARK SMILES CCCCCC(=O)[O-]
REMARK SMILES IDX 4 1 5 2 6 3 7 4 8 5 3 6 2 7 1 8
REMARK H PARENT
REMARK Flexibility Score: inf
ROOT
ATOM      1  C   UNL     1     -10.712   3.820   7.627  1.00  0.00     0.006 C 
ENDROOT
BRANCH   1   2
ATOM      2  C   UNL     1     -10.278   5.284   7.779  1.00  0.00     0.053 C 
BRANCH   2   3
ATOM      3  C   UNL     1      -9.701   5.826   6.508  1.00  0.00     0.041 C 
ATOM      4  O   UNL     1     -10.034   5.333   5.398  1.00  0.00    -0.550 OA
ATOM      5  O   UNL     1      -8.819   6.900   6.546  1.00  0.00    -0.550 OA
ENDBRANCH   2   3
ENDBRANCH   1   2
BRANCH   1   6
ATOM      6  C   UNL     1     -12.200   3.619   7.951  1.00  0.00     0.000 C 
BRANCH   6   7
ATOM      7  C   UNL     1     -13.086   4.234   6.861  1.00  0.00    -0.003 C 
ATOM      8  C   UNL     1     -13.966   5.344   7.429  1.00  0.00     0.004 C 
ENDBRANCH   6   7
ENDBRANCH   1   6
TORSDOF 4
ENDMDL
MODEL 7
REMARK VINA RESULT:    -3.371     16.769     17.717
REMARK INTER + INTRA:          -4.246
REMARK INTER:                  -3.986
REMARK INTRA:                  -0.260
REMARK UNBOUND:                -0.086
REMARK SMILES CCCCCC(=O)[O-]
REMARK SMILES IDX 4 1 5 2 6 3 7 4 8 5 3 6 2 7 1 8
REMARK H PARENT
REMARK Flexibility Score: inf
ROOT
ATOM      1  C   UNL     1      -9.936   5.244   7.070  1.00  0.00     0.006 C 
ENDROOT
BRANCH   1   2
ATOM      2  C   UNL     1     -10.467   6.581   6.538  1.00  0.00     0.053 C 
BRANCH   2   3
ATOM      3  C   UNL     1     -11.948   6.540   6.312  1.00  0.00     0.041 C 
ATOM      4  O   UNL     1     -12.430   5.821   5.397  1.00  0.00    -0.550 OA
ATOM      5  O   UNL     1     -12.797   7.270   7.134  1.00  0.00    -0.550 OA
ENDBRANCH   2   3
ENDBRANCH   1   2
BRANCH   1   6
ATOM      6  C   UNL     1     -10.388   4.972   8.513  1.00  0.00     0.000 C 
BRANCH   6   7
ATOM      7  C   UNL     1     -11.069   3.603   8.625  1.00  0.00    -0.003 C 
ATOM      8  C   UNL     1     -11.284   2.980   7.248  1.00  0.00     0.004 C 
ENDBRANCH   6   7
ENDBRANCH   1   6
TORSDOF 4
ENDMDL
MODEL 8
REMARK VINA RESULT:    -3.370      7.456      8.477
REMARK INTER + INTRA:          -4.245
REMARK INTER:                  -4.141
REMARK INTRA:                  -0.104
REMARK UNBOUND:                -0.086
REMARK SMILES CCCCCC(=O)[O-]
REMARK SMILES IDX 4 1 5 2 6 3 7 4 8 5 3 6 2 7 1 8
REMARK H PARENT
REMARK Flexibility Score: inf
ROOT
ATOM      1  C   UNL     1     -10.449  -5.430  -7.102  1.00  0.00     0.006 C 
ENDROOT
BRANCH   1   2
ATOM      2  C   UNL     1     -11.246  -5.723  -5.824  1.00  0.00     0.053 C 
BRANCH   2   3
ATOM      3  C   UNL     1     -11.325  -7.193  -5.544  1.00  0.00     0.041 C 
ATOM      4  O   UNL     1     -10.425  -7.968  -5.962  1.00  0.00    -0.550 OA
ATOM      5  O   UNL     1     -12.377  -7.702  -4.792  1.00  0.00    -0.550 OA
ENDBRANCH   2   3
ENDBRANCH   1   2
BRANCH   1   6
ATOM      6  C   UNL     1      -9.899  -3.996  -7.127  1.00  0.00     0.000 C 
BRANCH   6   7
ATOM      7  C   UNL     1     -10.005  -3.393  -8.533  1.00  0.00    -0.003 C 
ATOM      8  C   UNL     1     -10.885  -4.253  -9.435  1.00  0.00     0.004 C 
ENDBRANCH   6   7
ENDBRANCH   1   6
TORSDOF 4
ENDMDL
MODEL 9
REMARK VINA RESULT:    -3.350     16.050     16.840
REMARK INTER + INTRA:          -4.220
REMARK INTER:                  -4.076
REMARK INTRA:                  -0.144
REMARK UNBOUND:                -0.086
REMARK SMILES CCCCCC(=O)[O-]
REMARK SMILES IDX 4 1 5 2 6 3 7 4 8 5 3 6 2 7 1 8
REMARK H PARENT
REMARK Flexibility Score: inf
ROOT
ATOM      1  C   UNL     1     -10.786   4.274   6.537  1.00  0.00     0.006 C 
ENDROOT
BRANCH   1   2
ATOM      2  C   UNL     1     -11.366   4.331   5.118  1.00  0.00     0.053 C 
BRANCH   2   3
ATOM      3  C   UNL     1     -12.625   5.142   5.065  1.00  0.00     0.041 C 
ATOM      4  O   UNL     1     -13.556   4.817   4.282  1.00  0.00    -0.550 OA
ATOM      5  O   UNL     1     -12.783   6.237   5.906  1.00  0.00    -0.550 OA
ENDBRANCH   2   3
ENDBRANCH   1   2
BRANCH   1   6
ATOM      6  C   UNL     1     -11.395   3.135   7.369  1.00  0.00     0.000 C 
BRANCH   6   7
ATOM      7  C   UNL     1     -11.307   3.444   8.868  1.00  0.00    -0.003 C 
ATOM      8  C   UNL     1     -10.483   4.703   9.124  1.00  0.00     0.004 C 
ENDBRANCH   6   7
ENDBRANCH   1   6
TORSDOF 4
ENDMDL
