MODEL 1
REMARK VINA RESULT:    -5.871      0.000      0.000
REMARK INTER + INTRA:          -6.489
REMARK INTER:                  -6.386
REMARK INTRA:                  -0.103
REMARK UNBOUND:                -0.103
REMARK SMILES Cc1ccc(C(C)C)cc1O
REMARK SMILES IDX 1 1 2 2 10 3 9 4 5 5 4 6 3 7 11 8 6 10 7 11 8 12
REMARK H PARENT 11 9
REMARK Flexibility Score: inf
ROOT
ATOM      1  C   UNL     1       8.650  21.501  20.178  1.00  0.00     0.048 C 
ATOM      2  C   UNL     1       9.776  21.268  19.208  1.00  0.00    -0.009 A 
ATOM      3  C   UNL     1       9.559  20.602  17.982  1.00  0.00     0.118 A 
ATOM      4  C   UNL     1      10.628  20.400  17.102  1.00  0.00     0.050 A 
ATOM      5  C   UNL     1      11.922  20.850  17.420  1.00  0.00    -0.042 A 
ATOM      6  C   UNL     1      12.128  21.512  18.641  1.00  0.00     0.004 A 
ATOM      7  C   UNL     1      11.067  21.717  19.526  1.00  0.00     0.007 A 
ENDROOT
BRANCH   3   8
ATOM      8  O   UNL     1       8.298  20.130  17.610  1.00  0.00    -0.508 OA
ATOM      9  H   UNL     1       8.026  19.159  17.692  1.00  0.00     0.293 HD
ENDBRANCH   3   8
BRANCH   5  10
ATOM     10  C   UNL     1      13.085  20.634  16.469  1.00  0.00     0.013 C 
ATOM     11  C   UNL     1      13.758  19.280  16.721  1.00  0.00     0.012 C 
ATOM     12  C   UNL     1      12.636  20.765  15.009  1.00  0.00     0.012 C 
ENDBRANCH   5  10
TORSDOF 2
ENDMDL
MODEL 2
REMARK VINA RESULT:    -5.814      9.590     12.207
REMARK INTER + INTRA:          -6.426
REMARK INTER:                  -6.303
REMARK INTRA:                  -0.123
REMARK UNBOUND:                -0.103
REMARK SMILES Cc1ccc(C(C)C)cc1O
REMARK SMILES IDX 1 1 2 2 10 3 9 4 5 5 4 6 3 7 11 8 6 10 7 11 8 12
REMARK H PARENT 11 9
REMARK Flexibility Score: inf
ROOT
ATOM      1  C   UNL     1      23.669  20.218  11.637  1.00  0.00     0.048 C 
ATOM      2  C   UNL     1      22.273  19.661  11.578  1.00  0.00    -0.009 A 
ATOM      3  C   UNL     1      22.028  18.282  11.757  1.00  0.00     0.118 A 
ATOM      4  C   UNL     1      20.717  17.796  11.697  1.00  0.00     0.050 A 
ATOM      5  C   UNL     1      19.635  18.661  11.457  1.00  0.00    -0.042 A 
ATOM      6  C   UNL     1      19.888  20.031  11.281  1.00  0.00     0.004 A 
ATOM      7  C   UNL     1      21.193  20.525  11.339  1.00  0.00     0.007 A 
ENDROOT
BRANCH   3   8
ATOM      8  O   UNL     1      23.059  17.372  11.997  1.00  0.00    -0.508 OA
ATOM      9  H   UNL     1      24.037  17.635  12.003  1.00  0.00     0.293 HD
ENDBRANCH   3   8
BRANCH   5  10
ATOM     10  C   UNL     1      18.211  18.139  11.390  1.00  0.00     0.013 C 
ATOM     11  C   UNL     1      18.136  16.681  11.856  1.00  0.00     0.012 C 
ATOM     12  C   UNL     1      17.259  19.027  12.199  1.00  0.00     0.012 C 
ENDBRANCH   5  10
TORSDOF 2
ENDMDL
MODEL 3
REMARK VINA RESULT:    -5.752      9.261     10.651
REMARK INTER + INTRA:          -6.359
REMARK INTER:                  -6.231
REMARK INTRA:                  -0.127
REMARK UNBOUND:                -0.103
REMARK SMILES Cc1ccc(C(C)C)cc1O
REMARK SMILES IDX 1 1 2 2 10 3 9 4 5 5 4 6 3 7 11 8 6 10 7 11 8 12
REMARK H PARENT 11 9
REMARK Flexibility Score: inf
ROOT
ATOM      1  C   UNL     1      11.785  21.873   7.504  1.00  0.00     0.048 C 
ATOM      2  C   UNL     1      10.373  22.227   7.883  1.00  0.00    -0.009 A 
ATOM      3  C   UNL     1       9.551  21.311   8.575  1.00  0.00     0.118 A 
ATOM      4  C   UNL     1       8.241  21.671   8.913  1.00  0.00     0.050 A 
ATOM      5  C   UNL     1       7.728  22.935   8.573  1.00  0.00    -0.042 A 
ATOM      6  C   UNL     1       8.553  23.840   7.886  1.00  0.00     0.004 A 
ATOM      7  C   UNL     1       9.861  23.489   7.544  1.00  0.00     0.007 A 
ENDROOT
BRANCH   3   8
ATOM      8  O   UNL     1      10.002  20.041   8.940  1.00  0.00    -0.508 OA
ATOM      9  H   UNL     1      10.445  19.847   9.829  1.00  0.00     0.293 HD
ENDBRANCH   3   8
BRANCH   5  10
ATOM     10  C   UNL     1       6.308  23.331   8.937  1.00  0.00     0.013 C 
ATOM     11  C   UNL     1       6.003  23.001  10.403  1.00  0.00     0.012 C 
ATOM     12  C   UNL     1       6.055  24.813   8.640  1.00  0.00     0.012 C 
ENDBRANCH   5  10
TORSDOF 2
ENDMDL
MODEL 4
REMARK VINA RESULT:    -5.731      0.776      1.384
REMARK INTER + INTRA:          -6.336
REMARK INTER:                  -6.208
REMARK INTRA:                  -0.128
REMARK UNBOUND:                -0.103
REMARK SMILES Cc1ccc(C(C)C)cc1O
REMARK SMILES IDX 1 1 2 2 10 3 9 4 5 5 4 6 3 7 11 8 6 10 7 11 8 12
REMARK H PARENT 11 9
REMARK Flexibility Score: inf
ROOT
ATOM      1  C   UNL     1       9.564  21.846  19.876  1.00  0.00     0.048 C 
ATOM      2  C   UNL     1      10.395  21.265  18.765  1.00  0.00    -0.009 A 
ATOM      3  C   UNL     1       9.801  20.531  17.715  1.00  0.00     0.118 A 
ATOM      4  C   UNL     1      10.602  20.003  16.696  1.00  0.00     0.050 A 
ATOM      5  C   UNL     1      11.995  20.190  16.702  1.00  0.00    -0.042 A 
ATOM      6  C   UNL     1      12.577  20.921  17.749  1.00  0.00     0.004 A 
ATOM      7  C   UNL     1      11.786  21.452  18.770  1.00  0.00     0.007 A 
ENDROOT
BRANCH   3   8
ATOM      8  O   UNL     1       8.423  20.310  17.654  1.00  0.00    -0.508 OA
ATOM      9  H   UNL     1       7.752  21.050  17.494  1.00  0.00     0.293 HD
ENDBRANCH   3   8
BRANCH   5  10
ATOM     10  C   UNL     1      12.869  19.619  15.599  1.00  0.00     0.013 C 
ATOM     11  C   UNL     1      13.351  20.722  14.650  1.00  0.00     0.012 C 
ATOM     12  C   UNL     1      14.051  18.836  16.182  1.00  0.00     0.012 C 
ENDBRANCH   5  10
TORSDOF 2
ENDMDL
MODEL 5
REMARK VINA RESULT:    -5.711      8.521     10.559
REMARK INTER + INTRA:          -6.314
REMARK INTER:                  -6.187
REMARK INTRA:                  -0.127
REMARK UNBOUND:                -0.103
REMARK SMILES Cc1ccc(C(C)C)cc1O
REMARK SMILES IDX 1 1 2 2 10 3 9 4 5 5 4 6 3 7 11 8 6 10 7 11 8 12
REMARK H PARENT 11 9
REMARK Flexibility Score: inf
ROOT
ATOM      1  C   UNL     1      10.317  20.655   9.984  1.00  0.00     0.048 C 
ATOM      2  C   UNL     1       9.521  21.697   9.248  1.00  0.00    -0.009 A 
ATOM      3  C   UNL     1       8.118  21.784   9.394  1.00  0.00     0.118 A 
ATOM      4  C   UNL     1       7.406  22.765   8.695  1.00  0.00     0.050 A 
ATOM      5  C   UNL     1       8.066  23.670   7.844  1.00  0.00    -0.042 A 
ATOM      6  C   UNL     1       9.460  23.577   7.706  1.00  0.00     0.004 A 
ATOM      7  C   UNL     1      10.179  22.601   8.399  1.00  0.00     0.007 A 
ENDROOT
BRANCH   3   8
ATOM      8  O   UNL     1       7.406  20.914  10.222  1.00  0.00    -0.508 OA
ATOM      9  H   UNL     1       6.590  20.401   9.912  1.00  0.00     0.293 HD
ENDBRANCH   3   8
BRANCH   5  10
ATOM     10  C   UNL     1       7.298  24.736   7.084  1.00  0.00     0.013 C 
ATOM     11  C   UNL     1       6.872  25.878   8.014  1.00  0.00     0.012 C 
ATOM     12  C   UNL     1       8.114  25.264   5.899  1.00  0.00     0.012 C 
ENDBRANCH   5  10
TORSDOF 2
ENDMDL
MODEL 6
REMARK VINA RESULT:    -5.533      2.305      4.457
REMARK INTER + INTRA:          -6.121
REMARK INTER:                  -5.993
REMARK INTRA:                  -0.128
REMARK UNBOUND:                -0.103
REMARK SMILES Cc1ccc(C(C)C)cc1O
REMARK SMILES IDX 1 1 2 2 10 3 9 4 5 5 4 6 3 7 11 8 6 10 7 11 8 12
REMARK H PARENT 11 9
REMARK Flexibility Score: inf
ROOT
ATOM      1  C   UNL     1      15.301  18.666  17.976  1.00  0.00     0.048 C 
ATOM      2  C   UNL     1      13.897  19.201  17.907  1.00  0.00    -0.009 A 
ATOM      3  C   UNL     1      13.394  19.786  16.723  1.00  0.00     0.118 A 
ATOM      4  C   UNL     1      12.083  20.274  16.692  1.00  0.00     0.050 A 
ATOM      5  C   UNL     1      11.254  20.194  17.825  1.00  0.00    -0.042 A 
ATOM      6  C   UNL     1      11.761  19.612  18.997  1.00  0.00     0.004 A 
ATOM      7  C   UNL     1      13.069  19.122  19.037  1.00  0.00     0.007 A 
ENDROOT
BRANCH   3   8
ATOM      8  O   UNL     1      14.168  19.895  15.566  1.00  0.00    -0.508 OA
ATOM      9  H   UNL     1      14.338  20.775  15.097  1.00  0.00     0.293 HD
ENDBRANCH   3   8
BRANCH   5  10
ATOM     10  C   UNL     1       9.832  20.723  17.796  1.00  0.00     0.013 C 
ATOM     11  C   UNL     1       8.840  19.618  17.414  1.00  0.00     0.012 C 
ATOM     12  C   UNL     1       9.454  21.365  19.136  1.00  0.00     0.012 C 
ENDBRANCH   5  10
TORSDOF 2
ENDMDL
MODEL 7
REMARK VINA RESULT:    -5.528      2.238      4.776
REMARK INTER + INTRA:          -6.115
REMARK INTER:                  -5.988
REMARK INTRA:                  -0.127
REMARK UNBOUND:                -0.103
REMARK SMILES Cc1ccc(C(C)C)cc1O
REMARK SMILES IDX 1 1 2 2 10 3 9 4 5 5 4 6 3 7 11 8 6 10 7 11 8 12
REMARK H PARENT 11 9
REMARK Flexibility Score: inf
ROOT
ATOM      1  C   UNL     1      13.976  19.155  15.190  1.00  0.00     0.048 C 
ATOM      2  C   UNL     1      13.061  19.773  16.211  1.00  0.00    -0.009 A 
ATOM      3  C   UNL     1      13.544  20.184  17.473  1.00  0.00     0.118 A 
ATOM      4  C   UNL     1      12.665  20.755  18.401  1.00  0.00     0.050 A 
ATOM      5  C   UNL     1      11.303  20.927  18.097  1.00  0.00    -0.042 A 
ATOM      6  C   UNL     1      10.832  20.517  16.840  1.00  0.00     0.004 A 
ATOM      7  C   UNL     1      11.701  19.945  15.907  1.00  0.00     0.007 A 
ENDROOT
BRANCH   3   8
ATOM      8  O   UNL     1      14.884  20.039  17.835  1.00  0.00    -0.508 OA
ATOM      9  H   UNL     1      15.238  20.280  18.752  1.00  0.00     0.293 HD
ENDBRANCH   3   8
BRANCH   5  10
ATOM     10  C   UNL     1      10.346  21.546  19.099  1.00  0.00     0.013 C 
ATOM     11  C   UNL     1       8.897  21.154  18.793  1.00  0.00     0.012 C 
ATOM     12  C   UNL     1      10.730  21.167  20.534  1.00  0.00     0.012 C 
ENDBRANCH   5  10
TORSDOF 2
ENDMDL
MODEL 8
REMARK VINA RESULT:    -5.527      1.842      4.453
REMARK INTER + INTRA:          -6.114
REMARK INTER:                  -5.987
REMARK INTRA:                  -0.127
REMARK UNBOUND:                -0.103
REMARK SMILES Cc1ccc(C(C)C)cc1O
REMARK SMILES IDX 1 1 2 2 10 3 9 4 5 5 4 6 3 7 11 8 6 10 7 11 8 12
REMARK H PARENT 11 9
REMARK Flexibility Score: inf
ROOT
ATOM      1  C   UNL     1      14.426  18.473  15.341  1.00  0.00     0.048 C 
ATOM      2  C   UNL     1      13.464  19.260  16.188  1.00  0.00    -0.009 A 
ATOM      3  C   UNL     1      12.283  19.806  15.638  1.00  0.00     0.118 A 
ATOM      4  C   UNL     1      11.409  20.534  16.453  1.00  0.00     0.050 A 
ATOM      5  C   UNL     1      11.688  20.733  17.816  1.00  0.00    -0.042 A 
ATOM      6  C   UNL     1      12.864  20.187  18.355  1.00  0.00     0.004 A 
ATOM      7  C   UNL     1      13.743  19.460  17.549  1.00  0.00     0.007 A 
ENDROOT
BRANCH   3   8
ATOM      8  O   UNL     1      11.951  19.643  14.292  1.00  0.00    -0.508 OA
ATOM      9  H   UNL     1      12.505  20.026  13.536  1.00  0.00     0.293 HD
ENDBRANCH   3   8
BRANCH   5  10
ATOM     10  C   UNL     1      10.743  21.522  18.705  1.00  0.00     0.013 C 
ATOM     11  C   UNL     1       9.281  21.248  18.335  1.00  0.00     0.012 C 
ATOM     12  C   UNL     1      11.003  21.228  20.186  1.00  0.00     0.012 C 
ENDBRANCH   5  10
TORSDOF 2
ENDMDL
MODEL 9
REMARK VINA RESULT:    -5.467      1.735      2.544
REMARK INTER + INTRA:          -6.049
REMARK INTER:                  -5.923
REMARK INTRA:                  -0.126
REMARK UNBOUND:                -0.103
REMARK SMILES Cc1ccc(C(C)C)cc1O
REMARK SMILES IDX 1 1 2 2 10 3 9 4 5 5 4 6 3 7 11 8 6 10 7 11 8 12
REMARK H PARENT 11 9
REMARK Flexibility Score: inf
ROOT
ATOM      1  C   UNL     1       8.861  21.144  18.365  1.00  0.00     0.048 C 
ATOM      2  C   UNL     1      10.273  20.656  18.190  1.00  0.00    -0.009 A 
ATOM      3  C   UNL     1      11.132  20.491  19.299  1.00  0.00     0.118 A 
ATOM      4  C   UNL     1      12.440  20.035  19.103  1.00  0.00     0.050 A 
ATOM      5  C   UNL     1      12.917  19.738  17.814  1.00  0.00    -0.042 A 
ATOM      6  C   UNL     1      12.057  19.904  16.718  1.00  0.00     0.004 A 
ATOM      7  C   UNL     1      10.749  20.359  16.904  1.00  0.00     0.007 A 
ENDROOT
BRANCH   3   8
ATOM      8  O   UNL     1      10.718  20.770  20.603  1.00  0.00    -0.508 OA
ATOM      9  H   UNL     1       9.949  20.289  21.053  1.00  0.00     0.293 HD
ENDBRANCH   3   8
BRANCH   5  10
ATOM     10  C   UNL     1      14.336  19.243  17.596  1.00  0.00     0.013 C 
ATOM     11  C   UNL     1      14.850  18.485  18.825  1.00  0.00     0.012 C 
ATOM     12  C   UNL     1      14.430  18.378  16.334  1.00  0.00     0.012 C 
ENDBRANCH   5  10
TORSDOF 2
ENDMDL
