MODEL 1
REMARK VINA RESULT:    -3.479      0.000      0.000
REMARK INTER + INTRA:          -4.863
REMARK INTER:                  -4.699
REMARK INTRA:                  -0.164
REMARK UNBOUND:                -0.164
REMARK SMILES CCCCCCCC(=O)[O-]
REMARK SMILES IDX 5 1 6 2 7 3 8 4 9 5 10 6 4 7 3 8 2 9 1 10
REMARK H PARENT
REMARK Flexibility Score: inf
ROOT
ATOM      1  C   UNL     1      31.904   5.740  -7.202  1.00  0.00     0.000 C 
ENDROOT
BRANCH   1   2
ATOM      2  C   UNL     1      33.436   5.836  -7.275  1.00  0.00     0.006 C 
BRANCH   2   3
ATOM      3  C   UNL     1      34.135   4.710  -6.500  1.00  0.00     0.053 C 
BRANCH   3   4
ATOM      4  C   UNL     1      34.956   5.277  -5.386  1.00  0.00     0.041 C 
ATOM      5  O   UNL     1      34.565   5.173  -4.193  1.00  0.00    -0.550 OA
ATOM      6  O   UNL     1      36.131   5.963  -5.667  1.00  0.00    -0.550 OA
ENDBRANCH   3   4
ENDBRANCH   2   3
ENDBRANCH   1   2
BRANCH   1   7
ATOM      7  C   UNL     1      31.224   7.121  -7.216  1.00  0.00     0.000 C 
BRANCH   7   8
ATOM      8  C   UNL     1      29.718   7.039  -6.920  1.00  0.00    -0.000 C 
BRANCH   8   9
ATOM      9  C   UNL     1      28.887   7.955  -7.830  1.00  0.00    -0.003 C 
ATOM     10  C   UNL     1      28.771   7.373  -9.236  1.00  0.00     0.004 C 
ENDBRANCH   8   9
ENDBRANCH   7   8
ENDBRANCH   1   7
TORSDOF 6
ENDMDL
MODEL 2
REMARK VINA RESULT:    -3.301      0.962      1.381
REMARK INTER + INTRA:          -4.623
REMARK INTER:                  -4.426
REMARK INTRA:                  -0.197
REMARK UNBOUND:                -0.164
REMARK SMILES CCCCCCCC(=O)[O-]
REMARK SMILES IDX 5 1 6 2 7 3 8 4 9 5 10 6 4 7 3 8 2 9 1 10
REMARK H PARENT
REMARK Flexibility Score: inf
ROOT
ATOM      1  C   UNL     1      32.184   5.668  -6.970  1.00  0.00     0.000 C 
ENDROOT
BRANCH   1   2
ATOM      2  C   UNL     1      33.666   5.729  -7.374  1.00  0.00     0.006 C 
BRANCH   2   3
ATOM      3  C   UNL     1      34.529   4.724  -6.601  1.00  0.00     0.053 C 
BRANCH   3   4
ATOM      4  C   UNL     1      34.725   5.180  -5.190  1.00  0.00     0.041 C 
ATOM      5  O   UNL     1      34.213   4.535  -4.238  1.00  0.00    -0.550 OA
ATOM      6  O   UNL     1      35.432   6.347  -4.928  1.00  0.00    -0.550 OA
ENDBRANCH   3   4
ENDBRANCH   2   3
ENDBRANCH   1   2
BRANCH   1   7
ATOM      7  C   UNL     1      31.382   6.879  -7.481  1.00  0.00     0.000 C 
BRANCH   7   8
ATOM      8  C   UNL     1      29.878   6.756  -7.187  1.00  0.00    -0.000 C 
BRANCH   8   9
ATOM      9  C   UNL     1      29.211   8.117  -6.943  1.00  0.00    -0.003 C 
ATOM     10  C   UNL     1      29.191   8.460  -5.457  1.00  0.00     0.004 C 
ENDBRANCH   8   9
ENDBRANCH   7   8
ENDBRANCH   1   7
TORSDOF 6
ENDMDL
MODEL 3
REMARK VINA RESULT:    -3.211      3.328      4.955
REMARK INTER + INTRA:          -4.502
REMARK INTER:                  -4.177
REMARK INTRA:                  -0.324
REMARK UNBOUND:                -0.164
REMARK SMILES CCCCCCCC(=O)[O-]
REMARK SMILES IDX 5 1 6 2 7 3 8 4 9 5 10 6 4 7 3 8 2 9 1 10
REMARK H PARENT
REMARK Flexibility Score: inf
ROOT
ATOM      1  C   UNL     1      35.850   7.956  -5.901  1.00  0.00     0.000 C 
ENDROOT
BRANCH   1   2
ATOM      2  C   UNL     1      35.904   8.381  -4.425  1.00  0.00     0.006 C 
BRANCH   2   3
ATOM      3  C   UNL     1      34.559   8.199  -3.710  1.00  0.00     0.053 C 
BRANCH   3   4
ATOM      4  C   UNL     1      34.739   8.295  -2.228  1.00  0.00     0.041 C 
ATOM      5  O   UNL     1      33.804   7.962  -1.453  1.00  0.00    -0.550 OA
ATOM      6  O   UNL     1      35.921   8.800  -1.702  1.00  0.00    -0.550 OA
ENDBRANCH   3   4
ENDBRANCH   2   3
ENDBRANCH   1   2
BRANCH   1   7
ATOM      7  C   UNL     1      36.383   6.530  -6.126  1.00  0.00     0.000 C 
BRANCH   7   8
ATOM      8  C   UNL     1      35.271   5.470  -6.075  1.00  0.00    -0.000 C 
BRANCH   8   9
ATOM      9  C   UNL     1      34.302   5.574  -7.262  1.00  0.00    -0.003 C 
ATOM     10  C   UNL     1      32.853   5.456  -6.799  1.00  0.00     0.004 C 
ENDBRANCH   8   9
ENDBRANCH   7   8
ENDBRANCH   1   7
TORSDOF 6
ENDMDL
MODEL 4
REMARK VINA RESULT:    -3.105      1.461      2.551
REMARK INTER + INTRA:          -4.358
REMARK INTER:                  -3.938
REMARK INTRA:                  -0.420
REMARK UNBOUND:                -0.164
REMARK SMILES CCCCCCCC(=O)[O-]
REMARK SMILES IDX 5 1 6 2 7 3 8 4 9 5 10 6 4 7 3 8 2 9 1 10
REMARK H PARENT
REMARK Flexibility Score: inf
ROOT
ATOM      1  C   UNL     1      29.640   6.986  -7.098  1.00  0.00     0.000 C 
ENDROOT
BRANCH   1   2
ATOM      2  C   UNL     1      31.174   7.079  -7.116  1.00  0.00     0.006 C 
BRANCH   2   3
ATOM      3  C   UNL     1      31.846   5.706  -7.256  1.00  0.00     0.053 C 
BRANCH   3   4
ATOM      4  C   UNL     1      33.203   5.723  -6.627  1.00  0.00     0.041 C 
ATOM      5  O   UNL     1      33.764   4.644  -6.300  1.00  0.00    -0.550 OA
ATOM      6  O   UNL     1      33.829   6.933  -6.356  1.00  0.00    -0.550 OA
ENDBRANCH   3   4
ENDBRANCH   2   3
ENDBRANCH   1   2
BRANCH   1   7
ATOM      7  C   UNL     1      28.976   7.993  -8.055  1.00  0.00     0.000 C 
BRANCH   7   8
ATOM      8  C   UNL     1      28.589   7.359  -9.401  1.00  0.00    -0.000 C 
BRANCH   8   9
ATOM      9  C   UNL     1      29.533   7.770 -10.539  1.00  0.00    -0.003 C 
ATOM     10  C   UNL     1      30.616   6.718 -10.762  1.00  0.00     0.004 C 
ENDBRANCH   8   9
ENDBRANCH   7   8
ENDBRANCH   1   7
TORSDOF 6
ENDMDL
MODEL 5
REMARK VINA RESULT:    -3.042      9.984     11.136
REMARK INTER + INTRA:          -4.274
REMARK INTER:                  -4.035
REMARK INTRA:                  -0.238
REMARK UNBOUND:                -0.164
REMARK SMILES CCCCCCCC(=O)[O-]
REMARK SMILES IDX 5 1 6 2 7 3 8 4 9 5 10 6 4 7 3 8 2 9 1 10
REMARK H PARENT
REMARK Flexibility Score: inf
ROOT
ATOM      1  C   UNL     1      31.227  -0.398   2.831  1.00  0.00     0.000 C 
ENDROOT
BRANCH   1   2
ATOM      2  C   UNL     1      31.668   0.568   1.720  1.00  0.00     0.006 C 
BRANCH   2   3
ATOM      3  C   UNL     1      31.977   1.975   2.251  1.00  0.00     0.053 C 
BRANCH   3   4
ATOM      4  C   UNL     1      32.349   2.887   1.125  1.00  0.00     0.041 C 
ATOM      5  O   UNL     1      33.449   2.743   0.529  1.00  0.00    -0.550 OA
ATOM      6  O   UNL     1      31.502   3.927   0.764  1.00  0.00    -0.550 OA
ENDBRANCH   3   4
ENDBRANCH   2   3
ENDBRANCH   1   2
BRANCH   1   7
ATOM      7  C   UNL     1      29.941   0.063   3.540  1.00  0.00     0.000 C 
BRANCH   7   8
ATOM      8  C   UNL     1      28.884  -1.049   3.625  1.00  0.00    -0.000 C 
BRANCH   8   9
ATOM      9  C   UNL     1      27.866  -0.984   2.477  1.00  0.00    -0.003 C 
ATOM     10  C   UNL     1      27.696  -2.349   1.817  1.00  0.00     0.004 C 
ENDBRANCH   8   9
ENDBRANCH   7   8
ENDBRANCH   1   7
TORSDOF 6
ENDMDL
MODEL 6
REMARK VINA RESULT:    -3.020      4.879      6.775
REMARK INTER + INTRA:          -4.244
REMARK INTER:                  -3.942
REMARK INTRA:                  -0.302
REMARK UNBOUND:                -0.164
REMARK SMILES CCCCCCCC(=O)[O-]
REMARK SMILES IDX 5 1 6 2 7 3 8 4 9 5 10 6 4 7 3 8 2 9 1 10
REMARK H PARENT
REMARK Flexibility Score: inf
ROOT
ATOM      1  C   UNL     1      37.823   3.667  -7.879  1.00  0.00     0.000 C 
ENDROOT
BRANCH   1   2
ATOM      2  C   UNL     1      38.938   2.645  -7.603  1.00  0.00     0.006 C 
BRANCH   2   3
ATOM      3  C   UNL     1      39.919   3.121  -6.523  1.00  0.00     0.053 C 
BRANCH   3   4
ATOM      4  C   UNL     1      40.524   1.950  -5.816  1.00  0.00     0.041 C 
ATOM      5  O   UNL     1      39.806   0.972  -5.478  1.00  0.00    -0.550 OA
ATOM      6  O   UNL     1      41.874   1.959  -5.487  1.00  0.00    -0.550 OA
ENDBRANCH   3   4
ENDBRANCH   2   3
ENDBRANCH   1   2
BRANCH   1   7
ATOM      7  C   UNL     1      38.021   4.982  -7.102  1.00  0.00     0.000 C 
BRANCH   7   8
ATOM      8  C   UNL     1      36.692   5.593  -6.630  1.00  0.00    -0.000 C 
BRANCH   8   9
ATOM      9  C   UNL     1      35.471   4.795  -7.113  1.00  0.00    -0.003 C 
ATOM     10  C   UNL     1      34.406   4.709  -6.024  1.00  0.00     0.004 C 
ENDBRANCH   8   9
ENDBRANCH   7   8
ENDBRANCH   1   7
TORSDOF 6
ENDMDL
MODEL 7
REMARK VINA RESULT:    -2.952      8.809     11.124
REMARK INTER + INTRA:          -4.152
REMARK INTER:                  -3.590
REMARK INTRA:                  -0.562
REMARK UNBOUND:                -0.164
REMARK SMILES CCCCCCCC(=O)[O-]
REMARK SMILES IDX 5 1 6 2 7 3 8 4 9 5 10 6 4 7 3 8 2 9 1 10
REMARK H PARENT
REMARK Flexibility Score: inf
ROOT
ATOM      1  C   UNL     1      32.591  -0.239   2.040  1.00  0.00     0.000 C 
ENDROOT
BRANCH   1   2
ATOM      2  C   UNL     1      31.560   0.887   1.858  1.00  0.00     0.006 C 
BRANCH   2   3
ATOM      3  C   UNL     1      32.102   2.257   2.291  1.00  0.00     0.053 C 
BRANCH   3   4
ATOM      4  C   UNL     1      32.359   3.117   1.095  1.00  0.00     0.041 C 
ATOM      5  O   UNL     1      31.508   3.972   0.734  1.00  0.00    -0.550 OA
ATOM      6  O   UNL     1      33.517   2.942   0.348  1.00  0.00    -0.550 OA
ENDBRANCH   3   4
ENDBRANCH   2   3
ENDBRANCH   1   2
BRANCH   1   7
ATOM      7  C   UNL     1      33.557   0.026   3.209  1.00  0.00     0.000 C 
BRANCH   7   8
ATOM      8  C   UNL     1      35.030  -0.152   2.809  1.00  0.00    -0.000 C 
BRANCH   8   9
ATOM      9  C   UNL     1      35.716   1.180   2.474  1.00  0.00    -0.003 C 
ATOM     10  C   UNL     1      35.572   2.175   3.622  1.00  0.00     0.004 C 
ENDBRANCH   8   9
ENDBRANCH   7   8
ENDBRANCH   1   7
TORSDOF 6
ENDMDL
MODEL 8
REMARK VINA RESULT:    -2.914     11.812     13.853
REMARK INTER + INTRA:          -4.101
REMARK INTER:                  -3.661
REMARK INTRA:                  -0.440
REMARK UNBOUND:                -0.164
REMARK SMILES CCCCCCCC(=O)[O-]
REMARK SMILES IDX 5 1 6 2 7 3 8 4 9 5 10 6 4 7 3 8 2 9 1 10
REMARK H PARENT
REMARK Flexibility Score: inf
ROOT
ATOM      1  C   UNL     1      39.712   1.812   1.981  1.00  0.00     0.000 C 
ENDROOT
BRANCH   1   2
ATOM      2  C   UNL     1      40.678   0.804   1.338  1.00  0.00     0.006 C 
BRANCH   2   3
ATOM      3  C   UNL     1      40.013  -0.549   1.051  1.00  0.00     0.053 C 
BRANCH   3   4
ATOM      4  C   UNL     1      38.951  -0.397   0.009  1.00  0.00     0.041 C 
ATOM      5  O   UNL     1      39.262  -0.111  -1.177  1.00  0.00    -0.550 OA
ATOM      6  O   UNL     1      37.612  -0.522   0.357  1.00  0.00    -0.550 OA
ENDBRANCH   3   4
ENDBRANCH   2   3
ENDBRANCH   1   2
BRANCH   1   7
ATOM      7  C   UNL     1      40.419   2.766   2.961  1.00  0.00     0.000 C 
BRANCH   7   8
ATOM      8  C   UNL     1      41.909   2.431   3.138  1.00  0.00    -0.000 C 
BRANCH   8   9
ATOM      9  C   UNL     1      42.256   2.028   4.578  1.00  0.00    -0.003 C 
ATOM     10  C   UNL     1      42.264   0.510   4.737  1.00  0.00     0.004 C 
ENDBRANCH   8   9
ENDBRANCH   7   8
ENDBRANCH   1   7
TORSDOF 6
ENDMDL
MODEL 9
REMARK VINA RESULT:    -2.877      6.195      7.699
REMARK INTER + INTRA:          -4.051
REMARK INTER:                  -3.682
REMARK INTRA:                  -0.369
REMARK UNBOUND:                -0.164
REMARK SMILES CCCCCCCC(=O)[O-]
REMARK SMILES IDX 5 1 6 2 7 3 8 4 9 5 10 6 4 7 3 8 2 9 1 10
REMARK H PARENT
REMARK Flexibility Score: inf
ROOT
ATOM      1  C   UNL     1      39.455   4.356  -7.423  1.00  0.00     0.000 C 
ENDROOT
BRANCH   1   2
ATOM      2  C   UNL     1      39.918   3.349  -6.358  1.00  0.00     0.006 C 
BRANCH   2   3
ATOM      3  C   UNL     1      39.983   1.912  -6.895  1.00  0.00     0.053 C 
BRANCH   3   4
ATOM      4  C   UNL     1      40.913   1.087  -6.063  1.00  0.00     0.041 C 
ATOM      5  O   UNL     1      40.470   0.409  -5.099  1.00  0.00    -0.550 OA
ATOM      6  O   UNL     1      42.278   1.105  -6.322  1.00  0.00    -0.550 OA
ENDBRANCH   3   4
ENDBRANCH   2   3
ENDBRANCH   1   2
BRANCH   1   7
ATOM      7  C   UNL     1      37.991   4.791  -7.228  1.00  0.00     0.000 C 
BRANCH   7   8
ATOM      8  C   UNL     1      37.074   4.298  -8.359  1.00  0.00    -0.000 C 
BRANCH   8   9
ATOM      9  C   UNL     1      35.899   3.457  -7.840  1.00  0.00    -0.003 C 
ATOM     10  C   UNL     1      36.125   1.972  -8.110  1.00  0.00     0.004 C 
ENDBRANCH   8   9
ENDBRANCH   7   8
ENDBRANCH   1   7
TORSDOF 6
ENDMDL
