MODEL 1
REMARK VINA RESULT:    -3.420      0.000      0.000
REMARK INTER + INTRA:          -3.842
REMARK INTER:                  -3.820
REMARK INTRA:                  -0.022
REMARK UNBOUND:                -0.022
REMARK SMILES CCCC(=O)[O-]
REMARK SMILES IDX 3 1 4 2 5 3 6 4 2 5 1 6
REMARK H PARENT
REMARK Flexibility Score: inf
ROOT
ATOM      1  C   UNL     1     181.538 181.994 191.138  1.00  0.00     0.052 C 
ENDROOT
BRANCH   1   2
ATOM      2  C   UNL     1     182.896 182.522 191.485  1.00  0.00     0.041 C 
ATOM      3  O   UNL     1     183.796 182.584 190.606  1.00  0.00    -0.550 OA
ATOM      4  O   UNL     1     183.177 182.915 192.787  1.00  0.00    -0.550 OA
ENDBRANCH   1   2
BRANCH   1   5
ATOM      5  C   UNL     1     180.914 181.221 192.307  1.00  0.00     0.003 C 
ATOM      6  C   UNL     1     179.431 181.543 192.491  1.00  0.00     0.004 C 
ENDBRANCH   1   5
TORSDOF 2
ENDMDL
MODEL 2
REMARK VINA RESULT:    -3.413      2.031      3.253
REMARK INTER + INTRA:          -3.834
REMARK INTER:                  -3.811
REMARK INTRA:                  -0.023
REMARK UNBOUND:                -0.022
REMARK SMILES CCCC(=O)[O-]
REMARK SMILES IDX 3 1 4 2 5 3 6 4 2 5 1 6
REMARK H PARENT
REMARK Flexibility Score: inf
ROOT
ATOM      1  C   UNL     1     182.690 182.415 191.146  1.00  0.00     0.052 C 
ENDROOT
BRANCH   1   2
ATOM      2  C   UNL     1     181.368 181.838 191.550  1.00  0.00     0.041 C 
ATOM      3  O   UNL     1     180.442 181.718 190.704  1.00  0.00    -0.550 OA
ATOM      4  O   UNL     1     181.147 181.463 192.869  1.00  0.00    -0.550 OA
ENDBRANCH   1   2
BRANCH   1   5
ATOM      5  C   UNL     1     183.375 183.136 192.314  1.00  0.00     0.003 C 
ATOM      6  C   UNL     1     184.868 182.820 192.397  1.00  0.00     0.004 C 
ENDBRANCH   1   5
TORSDOF 2
ENDMDL
MODEL 3
REMARK VINA RESULT:    -2.949      2.621      3.649
REMARK INTER + INTRA:          -3.316
REMARK INTER:                  -3.301
REMARK INTRA:                  -0.015
REMARK UNBOUND:                -0.022
REMARK SMILES CCCC(=O)[O-]
REMARK SMILES IDX 3 1 4 2 5 3 6 4 2 5 1 6
REMARK H PARENT
REMARK Flexibility Score: inf
ROOT
ATOM      1  C   UNL     1     181.266 181.251 191.833  1.00  0.00     0.052 C 
ENDROOT
BRANCH   1   2
ATOM      2  C   UNL     1     179.827 181.667 191.816  1.00  0.00     0.041 C 
ATOM      3  O   UNL     1     179.094 181.457 192.819  1.00  0.00    -0.550 OA
ATOM      4  O   UNL     1     179.287 182.256 190.680  1.00  0.00    -0.550 OA
ENDBRANCH   1   2
BRANCH   1   5
ATOM      5  C   UNL     1     182.158 182.264 191.102  1.00  0.00     0.003 C 
ATOM      6  C   UNL     1     183.177 182.919 192.033  1.00  0.00     0.004 C 
ENDBRANCH   1   5
TORSDOF 2
ENDMDL
MODEL 4
REMARK VINA RESULT:    -2.882      9.162     10.054
REMARK INTER + INTRA:          -3.241
REMARK INTER:                  -3.172
REMARK INTRA:                  -0.069
REMARK UNBOUND:                -0.022
REMARK SMILES CCCC(=O)[O-]
REMARK SMILES IDX 3 1 4 2 5 3 6 4 2 5 1 6
REMARK H PARENT
REMARK Flexibility Score: inf
ROOT
ATOM      1  C   UNL     1     182.381 180.856 181.785  1.00  0.00     0.052 C 
ENDROOT
BRANCH   1   2
ATOM      2  C   UNL     1     183.373 180.614 182.881  1.00  0.00     0.041 C 
ATOM      3  O   UNL     1     183.010 180.665 184.087  1.00  0.00    -0.550 OA
ATOM      4  O   UNL     1     184.704 180.364 182.574  1.00  0.00    -0.550 OA
ENDBRANCH   1   2
BRANCH   1   5
ATOM      5  C   UNL     1     182.403 179.731 180.742  1.00  0.00     0.003 C 
ATOM      6  C   UNL     1     181.883 178.408 181.304  1.00  0.00     0.004 C 
ENDBRANCH   1   5
TORSDOF 2
ENDMDL
MODEL 5
REMARK VINA RESULT:    -2.867      9.326     10.285
REMARK INTER + INTRA:          -3.224
REMARK INTER:                  -3.160
REMARK INTRA:                  -0.065
REMARK UNBOUND:                -0.022
REMARK SMILES CCCC(=O)[O-]
REMARK SMILES IDX 3 1 4 2 5 3 6 4 2 5 1 6
REMARK H PARENT
REMARK Flexibility Score: inf
ROOT
ATOM      1  C   UNL     1     181.690 183.161 181.869  1.00  0.00     0.052 C 
ENDROOT
BRANCH   1   2
ATOM      2  C   UNL     1     180.609 183.398 182.878  1.00  0.00     0.041 C 
ATOM      3  O   UNL     1     180.881 183.408 184.109  1.00  0.00    -0.550 OA
ATOM      4  O   UNL     1     179.296 183.574 182.463  1.00  0.00    -0.550 OA
ENDBRANCH   1   2
BRANCH   1   5
ATOM      5  C   UNL     1     181.657 184.206 180.747  1.00  0.00     0.003 C 
ATOM      6  C   UNL     1     182.135 185.579 181.217  1.00  0.00     0.004 C 
ENDBRANCH   1   5
TORSDOF 2
ENDMDL
MODEL 6
REMARK VINA RESULT:    -2.822      9.500     10.543
REMARK INTER + INTRA:          -3.174
REMARK INTER:                  -3.106
REMARK INTRA:                  -0.069
REMARK UNBOUND:                -0.022
REMARK SMILES CCCC(=O)[O-]
REMARK SMILES IDX 3 1 4 2 5 3 6 4 2 5 1 6
REMARK H PARENT
REMARK Flexibility Score: inf
ROOT
ATOM      1  C   UNL     1     183.741 180.823 181.052  1.00  0.00     0.052 C 
ENDROOT
BRANCH   1   2
ATOM      2  C   UNL     1     183.217 181.356 182.350  1.00  0.00     0.041 C 
ATOM      3  O   UNL     1     182.858 182.560 182.444  1.00  0.00    -0.550 OA
ATOM      4  O   UNL     1     183.156 180.532 183.467  1.00  0.00    -0.550 OA
ENDBRANCH   1   2
BRANCH   1   5
ATOM      5  C   UNL     1     185.083 181.463 180.677  1.00  0.00     0.003 C 
ATOM      6  C   UNL     1     186.165 181.203 181.725  1.00  0.00     0.004 C 
ENDBRANCH   1   5
TORSDOF 2
ENDMDL
MODEL 7
REMARK VINA RESULT:    -2.782      9.131      9.898
REMARK INTER + INTRA:          -3.129
REMARK INTER:                  -3.061
REMARK INTRA:                  -0.068
REMARK UNBOUND:                -0.022
REMARK SMILES CCCC(=O)[O-]
REMARK SMILES IDX 3 1 4 2 5 3 6 4 2 5 1 6
REMARK H PARENT
REMARK Flexibility Score: inf
ROOT
ATOM      1  C   UNL     1     180.312 182.105 182.098  1.00  0.00     0.052 C 
ENDROOT
BRANCH   1   2
ATOM      2  C   UNL     1     180.798 183.355 182.764  1.00  0.00     0.041 C 
ATOM      3  O   UNL     1     180.785 183.451 184.020  1.00  0.00    -0.550 OA
ATOM      4  O   UNL     1     181.234 184.428 181.997  1.00  0.00    -0.550 OA
ENDBRANCH   1   2
BRANCH   1   5
ATOM      5  C   UNL     1     179.174 182.394 181.110  1.00  0.00     0.003 C 
ATOM      6  C   UNL     1     177.878 182.789 181.816  1.00  0.00     0.004 C 
ENDBRANCH   1   5
TORSDOF 2
ENDMDL
MODEL 8
REMARK VINA RESULT:    -2.755      9.903     10.560
REMARK INTER + INTRA:          -3.099
REMARK INTER:                  -3.092
REMARK INTRA:                  -0.007
REMARK UNBOUND:                -0.022
REMARK SMILES CCCC(=O)[O-]
REMARK SMILES IDX 3 1 4 2 5 3 6 4 2 5 1 6
REMARK H PARENT
REMARK Flexibility Score: inf
ROOT
ATOM      1  C   UNL     1     183.078 180.233 182.245  1.00  0.00     0.052 C 
ENDROOT
BRANCH   1   2
ATOM      2  C   UNL     1     184.084 181.268 181.846  1.00  0.00     0.041 C 
ATOM      3  O   UNL     1     183.891 182.482 182.125  1.00  0.00    -0.550 OA
ATOM      4  O   UNL     1     185.219 180.898 181.136  1.00  0.00    -0.550 OA
ENDBRANCH   1   2
BRANCH   1   5
ATOM      5  C   UNL     1     182.380 179.620 181.024  1.00  0.00     0.003 C 
ATOM      6  C   UNL     1     181.754 178.261 181.333  1.00  0.00     0.004 C 
ENDBRANCH   1   5
TORSDOF 2
ENDMDL
MODEL 9
REMARK VINA RESULT:    -2.730     10.424     10.972
REMARK INTER + INTRA:          -3.071
REMARK INTER:                  -3.033
REMARK INTRA:                  -0.038
REMARK UNBOUND:                -0.022
REMARK SMILES CCCC(=O)[O-]
REMARK SMILES IDX 3 1 4 2 5 3 6 4 2 5 1 6
REMARK H PARENT
REMARK Flexibility Score: inf
ROOT
ATOM      1  C   UNL     1     179.810 183.550 182.500  1.00  0.00     0.052 C 
ENDROOT
BRANCH   1   2
ATOM      2  C   UNL     1     178.879 182.863 181.549  1.00  0.00     0.041 C 
ATOM      3  O   UNL     1     179.337 182.195 180.583  1.00  0.00    -0.550 OA
ATOM      4  O   UNL     1     177.505 182.988 181.708  1.00  0.00    -0.550 OA
ENDBRANCH   1   2
BRANCH   1   5
ATOM      5  C   UNL     1     181.263 183.493 182.011  1.00  0.00     0.003 C 
ATOM      6  C   UNL     1     181.692 184.783 181.312  1.00  0.00     0.004 C 
ENDBRANCH   1   5
TORSDOF 2
ENDMDL
