MODEL 1
REMARK VINA RESULT:    -4.078      0.000      0.000
REMARK INTER + INTRA:          -5.133
REMARK INTER:                  -5.031
REMARK INTRA:                  -0.101
REMARK UNBOUND:                -0.101
REMARK SMILES CCCCCC(=O)[O-]
REMARK SMILES IDX 4 1 5 2 6 3 7 4 8 5 3 6 2 7 1 8
REMARK H PARENT
REMARK Flexibility Score: inf
ROOT
ATOM      1  C   UNL     1       9.054  54.833  21.592  1.00  0.00     0.006 C 
ENDROOT
BRANCH   1   2
ATOM      2  C   UNL     1       9.913  53.609  21.225  1.00  0.00     0.053 C 
BRANCH   2   3
ATOM      3  C   UNL     1      10.533  52.962  22.427  1.00  0.00     0.041 C 
ATOM      4  O   UNL     1      10.692  51.713  22.464  1.00  0.00    -0.550 OA
ATOM      5  O   UNL     1      10.973  53.741  23.490  1.00  0.00    -0.550 OA
ENDBRANCH   2   3
ENDBRANCH   1   2
BRANCH   1   6
ATOM      6  C   UNL     1       8.371  55.504  20.384  1.00  0.00     0.000 C 
BRANCH   6   7
ATOM      7  C   UNL     1       7.379  54.613  19.617  1.00  0.00    -0.003 C 
ATOM      8  C   UNL     1       7.712  54.488  18.131  1.00  0.00     0.004 C 
ENDBRANCH   6   7
ENDBRANCH   1   6
TORSDOF 4
ENDMDL
MODEL 2
REMARK VINA RESULT:    -4.060      1.305      1.579
REMARK INTER + INTRA:          -5.110
REMARK INTER:                  -5.022
REMARK INTRA:                  -0.089
REMARK UNBOUND:                -0.101
REMARK SMILES CCCCCC(=O)[O-]
REMARK SMILES IDX 4 1 5 2 6 3 7 4 8 5 3 6 2 7 1 8
REMARK H PARENT
REMARK Flexibility Score: inf
ROOT
ATOM      1  C   UNL     1       8.261  55.770  20.702  1.00  0.00     0.006 C 
ENDROOT
BRANCH   1   2
ATOM      2  C   UNL     1       8.835  54.348  20.849  1.00  0.00     0.053 C 
BRANCH   2   3
ATOM      3  C   UNL     1       9.949  54.279  21.849  1.00  0.00     0.041 C 
ATOM      4  O   UNL     1      11.000  53.638  21.585  1.00  0.00    -0.550 OA
ATOM      5  O   UNL     1       9.844  54.957  23.058  1.00  0.00    -0.550 OA
ENDBRANCH   2   3
ENDBRANCH   1   2
BRANCH   1   6
ATOM      6  C   UNL     1       7.610  56.045  19.332  1.00  0.00     0.000 C 
BRANCH   6   7
ATOM      7  C   UNL     1       7.585  54.846  18.369  1.00  0.00    -0.003 C 
ATOM      8  C   UNL     1       7.133  55.222  16.958  1.00  0.00     0.004 C 
ENDBRANCH   6   7
ENDBRANCH   1   6
TORSDOF 4
ENDMDL
MODEL 3
REMARK VINA RESULT:    -4.018      2.084      2.637
REMARK INTER + INTRA:          -5.058
REMARK INTER:                  -4.852
REMARK INTRA:                  -0.206
REMARK UNBOUND:                -0.101
REMARK SMILES CCCCCC(=O)[O-]
REMARK SMILES IDX 4 1 5 2 6 3 7 4 8 5 3 6 2 7 1 8
REMARK H PARENT
REMARK Flexibility Score: inf
ROOT
ATOM      1  C   UNL     1      10.617  53.930  21.702  1.00  0.00     0.006 C 
ENDROOT
BRANCH   1   2
ATOM      2  C   UNL     1      10.552  53.489  23.176  1.00  0.00     0.053 C 
BRANCH   2   3
ATOM      3  C   UNL     1      10.635  54.645  24.126  1.00  0.00     0.041 C 
ATOM      4  O   UNL     1       9.889  55.647  23.973  1.00  0.00    -0.550 OA
ATOM      5  O   UNL     1      11.508  54.598  25.206  1.00  0.00    -0.550 OA
ENDBRANCH   2   3
ENDBRANCH   1   2
BRANCH   1   6
ATOM      6  C   UNL     1       9.264  53.864  20.967  1.00  0.00     0.000 C 
BRANCH   6   7
ATOM      7  C   UNL     1       8.536  55.211  20.816  1.00  0.00    -0.003 C 
ATOM      8  C   UNL     1       7.239  55.284  21.624  1.00  0.00     0.004 C 
ENDBRANCH   6   7
ENDBRANCH   1   6
TORSDOF 4
ENDMDL
MODEL 4
REMARK VINA RESULT:    -4.004      2.943      4.589
REMARK INTER + INTRA:          -5.041
REMARK INTER:                  -4.868
REMARK INTRA:                  -0.174
REMARK UNBOUND:                -0.101
REMARK SMILES CCCCCC(=O)[O-]
REMARK SMILES IDX 4 1 5 2 6 3 7 4 8 5 3 6 2 7 1 8
REMARK H PARENT
REMARK Flexibility Score: inf
ROOT
ATOM      1  C   UNL     1       8.766  53.990  21.530  1.00  0.00     0.006 C 
ENDROOT
BRANCH   1   2
ATOM      2  C   UNL     1       8.395  54.684  20.206  1.00  0.00     0.053 C 
BRANCH   2   3
ATOM      3  C   UNL     1       8.031  56.125  20.396  1.00  0.00     0.041 C 
ATOM      4  O   UNL     1       7.970  56.618  21.553  1.00  0.00    -0.550 OA
ATOM      5  O   UNL     1       7.801  56.937  19.291  1.00  0.00    -0.550 OA
ENDBRANCH   2   3
ENDBRANCH   1   2
BRANCH   1   6
ATOM      6  C   UNL     1      10.276  53.729  21.698  1.00  0.00     0.000 C 
BRANCH   6   7
ATOM      7  C   UNL     1      10.811  53.887  23.132  1.00  0.00    -0.003 C 
ATOM      8  C   UNL     1      10.146  55.033  23.895  1.00  0.00     0.004 C 
ENDBRANCH   6   7
ENDBRANCH   1   6
TORSDOF 4
ENDMDL
MODEL 5
REMARK VINA RESULT:    -3.966      1.249      1.745
REMARK INTER + INTRA:          -4.995
REMARK INTER:                  -4.894
REMARK INTRA:                  -0.101
REMARK UNBOUND:                -0.101
REMARK SMILES CCCCCC(=O)[O-]
REMARK SMILES IDX 4 1 5 2 6 3 7 4 8 5 3 6 2 7 1 8
REMARK H PARENT
REMARK Flexibility Score: inf
ROOT
ATOM      1  C   UNL     1       8.759  55.018  22.067  1.00  0.00     0.006 C 
ENDROOT
BRANCH   1   2
ATOM      2  C   UNL     1       9.767  54.026  21.459  1.00  0.00     0.053 C 
BRANCH   2   3
ATOM      3  C   UNL     1      10.544  53.284  22.503  1.00  0.00     0.041 C 
ATOM      4  O   UNL     1      10.998  53.891  23.508  1.00  0.00    -0.550 OA
ATOM      5  O   UNL     1      10.732  51.911  22.389  1.00  0.00    -0.550 OA
ENDBRANCH   2   3
ENDBRANCH   1   2
BRANCH   1   6
ATOM      6  C   UNL     1       7.404  55.065  21.333  1.00  0.00     0.000 C 
BRANCH   6   7
ATOM      7  C   UNL     1       7.049  56.423  20.703  1.00  0.00    -0.003 C 
ATOM      8  C   UNL     1       7.811  56.699  19.407  1.00  0.00     0.004 C 
ENDBRANCH   6   7
ENDBRANCH   1   6
TORSDOF 4
ENDMDL
MODEL 6
REMARK VINA RESULT:    -3.946      3.335      4.555
REMARK INTER + INTRA:          -4.971
REMARK INTER:                  -4.802
REMARK INTRA:                  -0.169
REMARK UNBOUND:                -0.101
REMARK SMILES CCCCCC(=O)[O-]
REMARK SMILES IDX 4 1 5 2 6 3 7 4 8 5 3 6 2 7 1 8
REMARK H PARENT
REMARK Flexibility Score: inf
ROOT
ATOM      1  C   UNL     1       7.834  55.913  21.278  1.00  0.00     0.006 C 
ENDROOT
BRANCH   1   2
ATOM      2  C   UNL     1       8.346  56.059  19.833  1.00  0.00     0.053 C 
BRANCH   2   3
ATOM      3  C   UNL     1       7.447  55.393  18.836  1.00  0.00     0.041 C 
ATOM      4  O   UNL     1       7.282  55.898  17.694  1.00  0.00    -0.550 OA
ATOM      5  O   UNL     1       6.824  54.192  19.151  1.00  0.00    -0.550 OA
ENDBRANCH   2   3
ENDBRANCH   1   2
BRANCH   1   6
ATOM      6  C   UNL     1       8.773  55.107  22.197  1.00  0.00     0.000 C 
BRANCH   6   7
ATOM      7  C   UNL     1       9.367  53.834  21.570  1.00  0.00    -0.003 C 
ATOM      8  C   UNL     1      10.861  53.670  21.851  1.00  0.00     0.004 C 
ENDBRANCH   6   7
ENDBRANCH   1   6
TORSDOF 4
ENDMDL
MODEL 7
REMARK VINA RESULT:    -3.912      3.899      4.887
REMARK INTER + INTRA:          -4.928
REMARK INTER:                  -4.757
REMARK INTRA:                  -0.171
REMARK UNBOUND:                -0.101
REMARK SMILES CCCCCC(=O)[O-]
REMARK SMILES IDX 4 1 5 2 6 3 7 4 8 5 3 6 2 7 1 8
REMARK H PARENT
REMARK Flexibility Score: inf
ROOT
ATOM      1  C   UNL     1       8.354  55.875  20.026  1.00  0.00     0.006 C 
ENDROOT
BRANCH   1   2
ATOM      2  C   UNL     1       7.600  56.275  18.744  1.00  0.00     0.053 C 
BRANCH   2   3
ATOM      3  C   UNL     1       7.280  55.096  17.875  1.00  0.00     0.041 C 
ATOM      4  O   UNL     1       7.289  53.933  18.356  1.00  0.00    -0.550 OA
ATOM      5  O   UNL     1       6.929  55.286  16.544  1.00  0.00    -0.550 OA
ENDBRANCH   2   3
ENDBRANCH   1   2
BRANCH   1   6
ATOM      6  C   UNL     1       7.622  56.255  21.328  1.00  0.00     0.000 C 
BRANCH   6   7
ATOM      7  C   UNL     1       6.127  55.894  21.366  1.00  0.00    -0.003 C 
ATOM      8  C   UNL     1       5.216  57.120  21.414  1.00  0.00     0.004 C 
ENDBRANCH   6   7
ENDBRANCH   1   6
TORSDOF 4
ENDMDL
MODEL 8
REMARK VINA RESULT:    -3.912      3.393      4.723
REMARK INTER + INTRA:          -4.928
REMARK INTER:                  -4.821
REMARK INTRA:                  -0.106
REMARK UNBOUND:                -0.101
REMARK SMILES CCCCCC(=O)[O-]
REMARK SMILES IDX 4 1 5 2 6 3 7 4 8 5 3 6 2 7 1 8
REMARK H PARENT
REMARK Flexibility Score: inf
ROOT
ATOM      1  C   UNL     1       8.435  55.285  21.522  1.00  0.00     0.006 C 
ENDROOT
BRANCH   1   2
ATOM      2  C   UNL     1       8.331  54.873  20.042  1.00  0.00     0.053 C 
BRANCH   2   3
ATOM      3  C   UNL     1       7.601  55.886  19.214  1.00  0.00     0.041 C 
ATOM      4  O   UNL     1       7.238  56.979  19.723  1.00  0.00    -0.550 OA
ATOM      5  O   UNL     1       7.357  55.642  17.867  1.00  0.00    -0.550 OA
ENDBRANCH   2   3
ENDBRANCH   1   2
BRANCH   1   6
ATOM      6  C   UNL     1       9.521  54.524  22.309  1.00  0.00     0.000 C 
BRANCH   6   7
ATOM      7  C   UNL     1      10.316  53.491  21.493  1.00  0.00    -0.003 C 
ATOM      8  C   UNL     1      10.513  52.167  22.232  1.00  0.00     0.004 C 
ENDBRANCH   6   7
ENDBRANCH   1   6
TORSDOF 4
ENDMDL
MODEL 9
REMARK VINA RESULT:    -3.814      3.462      4.143
REMARK INTER + INTRA:          -4.808
REMARK INTER:                  -4.676
REMARK INTRA:                  -0.132
REMARK UNBOUND:                -0.101
REMARK SMILES CCCCCC(=O)[O-]
REMARK SMILES IDX 4 1 5 2 6 3 7 4 8 5 3 6 2 7 1 8
REMARK H PARENT
REMARK Flexibility Score: inf
ROOT
ATOM      1  C   UNL     1       8.000  54.398  20.317  1.00  0.00     0.006 C 
ENDROOT
BRANCH   1   2
ATOM      2  C   UNL     1       7.931  55.722  21.100  1.00  0.00     0.053 C 
BRANCH   2   3
ATOM      3  C   UNL     1       6.531  56.239  21.233  1.00  0.00     0.041 C 
ATOM      4  O   UNL     1       5.720  55.681  22.019  1.00  0.00    -0.550 OA
ATOM      5  O   UNL     1       6.132  57.363  20.520  1.00  0.00    -0.550 OA
ENDBRANCH   2   3
ENDBRANCH   1   2
BRANCH   1   6
ATOM      6  C   UNL     1       7.106  54.365  19.062  1.00  0.00     0.000 C 
BRANCH   6   7
ATOM      7  C   UNL     1       7.812  54.739  17.747  1.00  0.00    -0.003 C 
ATOM      8  C   UNL     1       6.839  55.152  16.643  1.00  0.00     0.004 C 
ENDBRANCH   6   7
ENDBRANCH   1   6
TORSDOF 4
ENDMDL
