MODEL 1
REMARK VINA RESULT:    -3.780      0.000      0.000
REMARK INTER + INTRA:          -4.310
REMARK INTER:                  -4.111
REMARK INTRA:                  -0.198
REMARK UNBOUND:                -0.198
REMARK SMILES O=C([O-])c1ccccc1O
REMARK SMILES IDX 4 1 9 2 5 3 8 4 6 5 7 6 2 7 1 8 3 9 10 10
REMARK H PARENT 10 11
REMARK Flexibility Score: inf
ROOT
ATOM      1  C   UNL     1      26.967  71.432  11.500  1.00  0.00     0.039 A 
ATOM      2  C   UNL     1      28.331  71.475  11.118  1.00  0.00     0.124 A 
ATOM      3  C   UNL     1      26.001  71.074  10.540  1.00  0.00     0.014 A 
ATOM      4  C   UNL     1      28.685  71.225   9.785  1.00  0.00     0.047 A 
ATOM      5  C   UNL     1      26.373  70.806   9.221  1.00  0.00     0.001 A 
ATOM      6  C   UNL     1      27.712  70.891   8.842  1.00  0.00     0.004 A 
ENDROOT
BRANCH   1   7
ATOM      7  C   UNL     1      26.513  71.785  12.864  1.00  0.00     0.075 C 
ATOM      8  O   UNL     1      25.286  71.954  13.099  1.00  0.00    -0.545 OA
ATOM      9  O   UNL     1      27.431  72.004  13.884  1.00  0.00    -0.545 OA
ENDBRANCH   1   7
BRANCH   2  10
ATOM     10  O   UNL     1      29.360  71.725  12.028  1.00  0.00    -0.507 OA
ATOM     11  H   UNL     1      29.344  72.489  12.689  1.00  0.00     0.293 HD
ENDBRANCH   2  10
TORSDOF 2
ENDMDL
MODEL 2
REMARK VINA RESULT:    -3.712      1.686      2.761
REMARK INTER + INTRA:          -4.236
REMARK INTER:                  -4.014
REMARK INTRA:                  -0.222
REMARK UNBOUND:                -0.198
REMARK SMILES O=C([O-])c1ccccc1O
REMARK SMILES IDX 4 1 9 2 5 3 8 4 6 5 7 6 2 7 1 8 3 9 10 10
REMARK H PARENT 10 11
REMARK Flexibility Score: inf
ROOT
ATOM      1  C   UNL     1      26.765  71.548  12.294  1.00  0.00     0.039 A 
ATOM      2  C   UNL     1      26.728  70.827  11.075  1.00  0.00     0.124 A 
ATOM      3  C   UNL     1      25.554  71.987  12.864  1.00  0.00     0.014 A 
ATOM      4  C   UNL     1      25.501  70.620  10.430  1.00  0.00     0.047 A 
ATOM      5  C   UNL     1      24.338  71.753  12.219  1.00  0.00     0.001 A 
ATOM      6  C   UNL     1      24.313  71.078  10.998  1.00  0.00     0.004 A 
ENDROOT
BRANCH   1   7
ATOM      7  C   UNL     1      28.033  71.892  12.975  1.00  0.00     0.075 C 
ATOM      8  O   UNL     1      29.121  71.864  12.339  1.00  0.00    -0.545 OA
ATOM      9  O   UNL     1      28.056  72.181  14.334  1.00  0.00    -0.545 OA
ENDBRANCH   1   7
BRANCH   2  10
ATOM     10  O   UNL     1      27.870  70.273  10.493  1.00  0.00    -0.507 OA
ATOM     11  H   UNL     1      28.031  69.278  10.421  1.00  0.00     0.293 HD
ENDBRANCH   2  10
TORSDOF 2
ENDMDL
MODEL 3
REMARK VINA RESULT:    -3.667      1.801      3.498
REMARK INTER + INTRA:          -4.187
REMARK INTER:                  -3.942
REMARK INTRA:                  -0.245
REMARK UNBOUND:                -0.198
REMARK SMILES O=C([O-])c1ccccc1O
REMARK SMILES IDX 4 1 9 2 5 3 8 4 6 5 7 6 2 7 1 8 3 9 10 10
REMARK H PARENT 10 11
REMARK Flexibility Score: inf
ROOT
ATOM      1  C   UNL     1      27.315  71.701  10.775  1.00  0.00     0.039 A 
ATOM      2  C   UNL     1      27.983  71.703  12.026  1.00  0.00     0.124 A 
ATOM      3  C   UNL     1      25.919  71.878  10.748  1.00  0.00     0.014 A 
ATOM      4  C   UNL     1      27.240  71.817  13.208  1.00  0.00     0.047 A 
ATOM      5  C   UNL     1      25.195  72.013  11.936  1.00  0.00     0.001 A 
ATOM      6  C   UNL     1      25.854  71.972  13.164  1.00  0.00     0.004 A 
ENDROOT
BRANCH   1   7
ATOM      7  C   UNL     1      28.026  71.481   9.496  1.00  0.00     0.075 C 
ATOM      8  O   UNL     1      28.833  70.521   9.377  1.00  0.00    -0.545 OA
ATOM      9  O   UNL     1      27.870  72.365   8.435  1.00  0.00    -0.545 OA
ENDBRANCH   1   7
BRANCH   2  10
ATOM     10  O   UNL     1      29.374  71.630  12.136  1.00  0.00    -0.507 OA
ATOM     11  H   UNL     1      29.948  72.405  12.437  1.00  0.00     0.293 HD
ENDBRANCH   2  10
TORSDOF 2
ENDMDL
MODEL 4
REMARK VINA RESULT:    -3.540      2.062      4.100
REMARK INTER + INTRA:          -4.049
REMARK INTER:                  -3.801
REMARK INTRA:                  -0.248
REMARK UNBOUND:                -0.198
REMARK SMILES O=C([O-])c1ccccc1O
REMARK SMILES IDX 4 1 9 2 5 3 8 4 6 5 7 6 2 7 1 8 3 9 10 10
REMARK H PARENT 10 11
REMARK Flexibility Score: inf
ROOT
ATOM      1  C   UNL     1      27.656  71.464  10.878  1.00  0.00     0.039 A 
ATOM      2  C   UNL     1      26.400  71.411  11.534  1.00  0.00     0.124 A 
ATOM      3  C   UNL     1      28.807  71.760  11.633  1.00  0.00     0.014 A 
ATOM      4  C   UNL     1      26.319  71.713  12.900  1.00  0.00     0.047 A 
ATOM      5  C   UNL     1      28.711  72.037  12.999  1.00  0.00     0.001 A 
ATOM      6  C   UNL     1      27.468  72.023  13.629  1.00  0.00     0.004 A 
ENDROOT
BRANCH   1   7
ATOM      7  C   UNL     1      27.799  71.258   9.420  1.00  0.00     0.075 C 
ATOM      8  O   UNL     1      28.765  70.587   8.967  1.00  0.00    -0.545 OA
ATOM      9  O   UNL     1      26.917  71.854   8.527  1.00  0.00    -0.545 OA
ENDBRANCH   1   7
BRANCH   2  10
ATOM     10  O   UNL     1      25.226  71.030  10.881  1.00  0.00    -0.507 OA
ATOM     11  H   UNL     1      25.198  70.333  10.150  1.00  0.00     0.293 HD
ENDBRANCH   2  10
TORSDOF 2
ENDMDL
MODEL 5
REMARK VINA RESULT:    -3.505      1.742      2.189
REMARK INTER + INTRA:          -4.011
REMARK INTER:                  -3.766
REMARK INTRA:                  -0.244
REMARK UNBOUND:                -0.198
REMARK SMILES O=C([O-])c1ccccc1O
REMARK SMILES IDX 4 1 9 2 5 3 8 4 6 5 7 6 2 7 1 8 3 9 10 10
REMARK H PARENT 10 11
REMARK Flexibility Score: inf
ROOT
ATOM      1  C   UNL     1      27.489  72.221  10.843  1.00  0.00     0.039 A 
ATOM      2  C   UNL     1      28.045  71.447   9.793  1.00  0.00     0.124 A 
ATOM      3  C   UNL     1      26.675  73.324  10.519  1.00  0.00     0.014 A 
ATOM      4  C   UNL     1      27.829  71.828   8.462  1.00  0.00     0.047 A 
ATOM      5  C   UNL     1      26.451  73.677   9.185  1.00  0.00     0.001 A 
ATOM      6  C   UNL     1      27.036  72.935   8.159  1.00  0.00     0.004 A 
ENDROOT
BRANCH   1   7
ATOM      7  C   UNL     1      27.761  71.937  12.269  1.00  0.00     0.075 C 
ATOM      8  O   UNL     1      28.944  71.759  12.664  1.00  0.00    -0.545 OA
ATOM      9  O   UNL     1      26.719  71.793  13.177  1.00  0.00    -0.545 OA
ENDBRANCH   1   7
BRANCH   2  10
ATOM     10  O   UNL     1      28.781  70.283  10.026  1.00  0.00    -0.507 OA
ATOM     11  H   UNL     1      28.378  69.436  10.400  1.00  0.00     0.293 HD
ENDBRANCH   2  10
TORSDOF 2
ENDMDL
MODEL 6
REMARK VINA RESULT:    -3.443      1.541      2.233
REMARK INTER + INTRA:          -3.943
REMARK INTER:                  -3.693
REMARK INTRA:                  -0.250
REMARK UNBOUND:                -0.198
REMARK SMILES O=C([O-])c1ccccc1O
REMARK SMILES IDX 4 1 9 2 5 3 8 4 6 5 7 6 2 7 1 8 3 9 10 10
REMARK H PARENT 10 11
REMARK Flexibility Score: inf
ROOT
ATOM      1  C   UNL     1      27.605  72.105  11.162  1.00  0.00     0.039 A 
ATOM      2  C   UNL     1      26.671  72.919  10.474  1.00  0.00     0.124 A 
ATOM      3  C   UNL     1      28.531  71.349  10.417  1.00  0.00     0.014 A 
ATOM      4  C   UNL     1      26.644  72.909   9.073  1.00  0.00     0.047 A 
ATOM      5  C   UNL     1      28.504  71.367   9.021  1.00  0.00     0.001 A 
ATOM      6  C   UNL     1      27.556  72.139   8.350  1.00  0.00     0.004 A 
ENDROOT
BRANCH   1   7
ATOM      7  C   UNL     1      27.621  71.989  12.638  1.00  0.00     0.075 C 
ATOM      8  O   UNL     1      26.540  71.884  13.276  1.00  0.00    -0.545 OA
ATOM      9  O   UNL     1      28.816  72.063  13.344  1.00  0.00    -0.545 OA
ENDBRANCH   1   7
BRANCH   2  10
ATOM     10  O   UNL     1      25.785  73.772  11.135  1.00  0.00    -0.507 OA
ATOM     11  H   UNL     1      26.083  74.491  11.780  1.00  0.00     0.293 HD
ENDBRANCH   2  10
TORSDOF 2
ENDMDL
MODEL 7
REMARK VINA RESULT:    -3.395      8.385      9.540
REMARK INTER + INTRA:          -3.891
REMARK INTER:                  -3.653
REMARK INTRA:                  -0.238
REMARK UNBOUND:                -0.198
REMARK SMILES O=C([O-])c1ccccc1O
REMARK SMILES IDX 4 1 9 2 5 3 8 4 6 5 7 6 2 7 1 8 3 9 10 10
REMARK H PARENT 10 11
REMARK Flexibility Score: inf
ROOT
ATOM      1  C   UNL     1      20.803  68.917  17.623  1.00  0.00     0.039 A 
ATOM      2  C   UNL     1      21.904  69.248  18.453  1.00  0.00     0.124 A 
ATOM      3  C   UNL     1      20.627  69.616  16.413  1.00  0.00     0.014 A 
ATOM      4  C   UNL     1      22.755  70.300  18.087  1.00  0.00     0.047 A 
ATOM      5  C   UNL     1      21.497  70.647  16.053  1.00  0.00     0.001 A 
ATOM      6  C   UNL     1      22.554  70.995  16.894  1.00  0.00     0.004 A 
ENDROOT
BRANCH   1   7
ATOM      7  C   UNL     1      19.807  67.889  17.999  1.00  0.00     0.075 C 
ATOM      8  O   UNL     1      19.573  67.649  19.213  1.00  0.00    -0.545 OA
ATOM      9  O   UNL     1      19.170  67.127  17.026  1.00  0.00    -0.545 OA
ENDBRANCH   1   7
BRANCH   2  10
ATOM     10  O   UNL     1      22.207  68.542  19.619  1.00  0.00    -0.507 OA
ATOM     11  H   UNL     1      21.619  68.547  20.440  1.00  0.00     0.293 HD
ENDBRANCH   2  10
TORSDOF 2
ENDMDL
MODEL 8
REMARK VINA RESULT:    -3.362      8.623     10.103
REMARK INTER + INTRA:          -3.855
REMARK INTER:                  -3.606
REMARK INTRA:                  -0.249
REMARK UNBOUND:                -0.198
REMARK SMILES O=C([O-])c1ccccc1O
REMARK SMILES IDX 4 1 9 2 5 3 8 4 6 5 7 6 2 7 1 8 3 9 10 10
REMARK H PARENT 10 11
REMARK Flexibility Score: inf
ROOT
ATOM      1  C   UNL     1      22.078  67.966  18.138  1.00  0.00     0.039 A 
ATOM      2  C   UNL     1      21.120  67.295  18.939  1.00  0.00     0.124 A 
ATOM      3  C   UNL     1      23.106  67.217  17.533  1.00  0.00     0.014 A 
ATOM      4  C   UNL     1      21.249  65.919  19.166  1.00  0.00     0.047 A 
ATOM      5  C   UNL     1      23.207  65.841  17.751  1.00  0.00     0.001 A 
ATOM      6  C   UNL     1      22.286  65.195  18.574  1.00  0.00     0.004 A 
ENDROOT
BRANCH   1   7
ATOM      7  C   UNL     1      22.061  69.433  17.942  1.00  0.00     0.075 C 
ATOM      8  O   UNL     1      23.094  70.115  18.179  1.00  0.00    -0.545 OA
ATOM      9  O   UNL     1      20.895  70.087  17.564  1.00  0.00    -0.545 OA
ENDBRANCH   1   7
BRANCH   2  10
ATOM     10  O   UNL     1      20.016  67.945  19.495  1.00  0.00    -0.507 OA
ATOM     11  H   UNL     1      19.296  68.388  18.941  1.00  0.00     0.293 HD
ENDBRANCH   2  10
TORSDOF 2
ENDMDL
MODEL 9
REMARK VINA RESULT:    -3.263      9.723     10.734
REMARK INTER + INTRA:          -3.748
REMARK INTER:                  -3.520
REMARK INTRA:                  -0.228
REMARK UNBOUND:                -0.198
REMARK SMILES O=C([O-])c1ccccc1O
REMARK SMILES IDX 4 1 9 2 5 3 8 4 6 5 7 6 2 7 1 8 3 9 10 10
REMARK H PARENT 10 11
REMARK Flexibility Score: inf
ROOT
ATOM      1  C   UNL     1      20.688  67.621  18.486  1.00  0.00     0.039 A 
ATOM      2  C   UNL     1      19.809  68.309  17.612  1.00  0.00     0.124 A 
ATOM      3  C   UNL     1      21.892  68.242  18.869  1.00  0.00     0.014 A 
ATOM      4  C   UNL     1      20.181  69.559  17.098  1.00  0.00     0.047 A 
ATOM      5  C   UNL     1      22.238  69.498  18.365  1.00  0.00     0.001 A 
ATOM      6  C   UNL     1      21.387  70.151  17.473  1.00  0.00     0.004 A 
ENDROOT
BRANCH   1   7
ATOM      7  C   UNL     1      20.405  66.256  18.982  1.00  0.00     0.075 C 
ATOM      8  O   UNL     1      19.215  65.861  19.104  1.00  0.00    -0.545 OA
ATOM      9  O   UNL     1      21.438  65.418  19.387  1.00  0.00    -0.545 OA
ENDBRANCH   1   7
BRANCH   2  10
ATOM     10  O   UNL     1      18.554  67.809  17.260  1.00  0.00    -0.507 OA
ATOM     11  H   UNL     1      18.409  67.152  16.506  1.00  0.00     0.293 HD
ENDBRANCH   2  10
TORSDOF 2
ENDMDL
