MODEL 1
REMARK VINA RESULT:    -4.464      0.000      0.000
REMARK INTER + INTRA:         -10.641
REMARK INTER:                  -8.117
REMARK INTRA:                  -2.524
REMARK UNBOUND:                -2.524
REMARK SMILES CCCCCCCCCCCCCC[C@H](C)C(=O)[O-]
REMARK SMILES IDX 9 1 10 2 11 3 12 4 13 5 14 6 15 7 16 8 17 9 18 10 19 11 8 12
REMARK SMILES IDX 7 13 6 14 5 15 4 16 3 17 2 18 1 19
REMARK H PARENT
REMARK Flexibility Score: inf
ROOT
ATOM      1  C   UNL     1      54.536  39.211  47.419  1.00  0.00     0.000 C 
ENDROOT
BRANCH   1   2
ATOM      2  C   UNL     1      55.255  39.874  48.603  1.00  0.00     0.000 C 
BRANCH   2   3
ATOM      3  C   UNL     1      55.738  38.819  49.610  1.00  0.00     0.000 C 
BRANCH   3   4
ATOM      4  C   UNL     1      54.585  38.184  50.409  1.00  0.00     0.000 C 
BRANCH   4   5
ATOM      5  C   UNL     1      53.587  39.187  51.022  1.00  0.00     0.001 C 
BRANCH   5   6
ATOM      6  C   UNL     1      54.159  40.088  52.136  1.00  0.00     0.009 C 
BRANCH   6   7
ATOM      7  C   UNL     1      54.412  41.557  51.723  1.00  0.00     0.032 C 
ATOM      8  C   UNL     1      55.894  41.941  51.813  1.00  0.00     0.014 C 
BRANCH   7   9
ATOM      9  C   UNL     1      53.597  42.470  52.597  1.00  0.00     0.044 C 
ATOM     10  O   UNL     1      52.343  42.358  52.635  1.00  0.00    -0.550 OA
ATOM     11  O   UNL     1      54.222  43.435  53.379  1.00  0.00    -0.550 OA
ENDBRANCH   7   9
ENDBRANCH   6   7
ENDBRANCH   5   6
ENDBRANCH   4   5
ENDBRANCH   3   4
ENDBRANCH   2   3
ENDBRANCH   1   2
BRANCH   1  12
ATOM     12  C   UNL     1      53.365  40.055  46.889  1.00  0.00     0.000 C 
BRANCH  12  13
ATOM     13  C   UNL     1      52.237  40.216  47.920  1.00  0.00    -0.000 C 
BRANCH  13  14
ATOM     14  C   UNL     1      52.152  41.668  48.416  1.00  0.00    -0.000 C 
BRANCH  14  15
ATOM     15  C   UNL     1      52.125  42.686  47.265  1.00  0.00    -0.000 C 
BRANCH  15  16
ATOM     16  C   UNL     1      52.783  44.022  47.640  1.00  0.00    -0.000 C 
BRANCH  16  17
ATOM     17  C   UNL     1      53.126  44.065  49.133  1.00  0.00    -0.000 C 
BRANCH  17  18
ATOM     18  C   UNL     1      54.587  44.473  49.351  1.00  0.00    -0.003 C 
ATOM     19  C   UNL     1      55.529  43.628  48.500  1.00  0.00     0.004 C 
ENDBRANCH  17  18
ENDBRANCH  16  17
ENDBRANCH  15  16
ENDBRANCH  14  15
ENDBRANCH  13  14
ENDBRANCH  12  13
ENDBRANCH   1  12
TORSDOF 14
ENDMDL
MODEL 2
REMARK VINA RESULT:    -4.405      2.235      4.284
REMARK INTER + INTRA:         -10.535
REMARK INTER:                  -8.152
REMARK INTRA:                  -2.383
REMARK UNBOUND:                -2.524
REMARK SMILES CCCCCCCCCCCCCC[C@H](C)C(=O)[O-]
REMARK SMILES IDX 9 1 10 2 11 3 12 4 13 5 14 6 15 7 16 8 17 9 18 10 19 11 8 12
REMARK SMILES IDX 7 13 6 14 5 15 4 16 3 17 2 18 1 19
REMARK H PARENT
REMARK Flexibility Score: inf
ROOT
ATOM      1  C   UNL     1      52.762  42.290  46.546  1.00  0.00     0.000 C 
ENDROOT
BRANCH   1   2
ATOM      2  C   UNL     1      51.903  41.719  47.684  1.00  0.00     0.000 C 
BRANCH   2   3
ATOM      3  C   UNL     1      52.291  40.263  47.984  1.00  0.00     0.000 C 
BRANCH   3   4
ATOM      4  C   UNL     1      53.191  39.648  46.898  1.00  0.00     0.000 C 
BRANCH   4   5
ATOM      5  C   UNL     1      54.623  39.302  47.356  1.00  0.00     0.001 C 
BRANCH   5   6
ATOM      6  C   UNL     1      54.962  39.695  48.809  1.00  0.00     0.009 C 
BRANCH   6   7
ATOM      7  C   UNL     1      54.971  38.523  49.817  1.00  0.00     0.032 C 
ATOM      8  C   UNL     1      53.813  38.607  50.819  1.00  0.00     0.014 C 
BRANCH   7   9
ATOM      9  C   UNL     1      56.281  38.509  50.556  1.00  0.00     0.044 C 
ATOM     10  O   UNL     1      57.367  38.499  49.919  1.00  0.00    -0.550 OA
ATOM     11  O   UNL     1      56.302  38.520  51.947  1.00  0.00    -0.550 OA
ENDBRANCH   7   9
ENDBRANCH   6   7
ENDBRANCH   5   6
ENDBRANCH   4   5
ENDBRANCH   3   4
ENDBRANCH   2   3
ENDBRANCH   1   2
BRANCH   1  12
ATOM     12  C   UNL     1      53.725  43.388  47.024  1.00  0.00     0.000 C 
BRANCH  12  13
ATOM     13  C   UNL     1      52.998  44.556  47.710  1.00  0.00    -0.000 C 
BRANCH  13  14
ATOM     14  C   UNL     1      53.364  44.628  49.201  1.00  0.00    -0.000 C 
BRANCH  14  15
ATOM     15  C   UNL     1      54.496  43.660  49.580  1.00  0.00    -0.000 C 
BRANCH  15  16
ATOM     16  C   UNL     1      54.050  42.596  50.594  1.00  0.00    -0.000 C 
BRANCH  16  17
ATOM     17  C   UNL     1      52.660  42.918  51.153  1.00  0.00    -0.000 C 
BRANCH  17  18
ATOM     18  C   UNL     1      52.099  41.735  51.951  1.00  0.00    -0.003 C 
ATOM     19  C   UNL     1      52.900  41.503  53.228  1.00  0.00     0.004 C 
ENDBRANCH  17  18
ENDBRANCH  16  17
ENDBRANCH  15  16
ENDBRANCH  14  15
ENDBRANCH  13  14
ENDBRANCH  12  13
ENDBRANCH   1  12
TORSDOF 14
ENDMDL
MODEL 3
REMARK VINA RESULT:    -4.396      2.098      4.697
REMARK INTER + INTRA:         -10.518
REMARK INTER:                  -7.651
REMARK INTRA:                  -2.867
REMARK UNBOUND:                -2.524
REMARK SMILES CCCCCCCCCCCCCC[C@H](C)C(=O)[O-]
REMARK SMILES IDX 9 1 10 2 11 3 12 4 13 5 14 6 15 7 16 8 17 9 18 10 19 11 8 12
REMARK SMILES IDX 7 13 6 14 5 15 4 16 3 17 2 18 1 19
REMARK H PARENT
REMARK Flexibility Score: inf
ROOT
ATOM      1  C   UNL     1      53.518  40.029  46.866  1.00  0.00     0.000 C 
ENDROOT
BRANCH   1   2
ATOM      2  C   UNL     1      52.260  40.096  47.746  1.00  0.00     0.000 C 
BRANCH   2   3
ATOM      3  C   UNL     1      51.888  41.554  48.058  1.00  0.00     0.000 C 
BRANCH   3   4
ATOM      4  C   UNL     1      52.534  42.557  47.086  1.00  0.00     0.000 C 
BRANCH   4   5
ATOM      5  C   UNL     1      52.772  43.966  47.666  1.00  0.00     0.001 C 
BRANCH   5   6
ATOM      6  C   UNL     1      53.248  44.002  49.133  1.00  0.00     0.009 C 
BRANCH   6   7
ATOM      7  C   UNL     1      54.693  43.500  49.363  1.00  0.00     0.032 C 
ATOM      8  C   UNL     1      55.099  43.548  50.842  1.00  0.00     0.014 C 
BRANCH   7   9
ATOM      9  C   UNL     1      55.646  44.331  48.548  1.00  0.00     0.044 C 
ATOM     10  O   UNL     1      55.977  45.481  48.938  1.00  0.00    -0.550 OA
ATOM     11  O   UNL     1      56.180  43.828  47.366  1.00  0.00    -0.550 OA
ENDBRANCH   7   9
ENDBRANCH   6   7
ENDBRANCH   5   6
ENDBRANCH   4   5
ENDBRANCH   3   4
ENDBRANCH   2   3
ENDBRANCH   1   2
BRANCH   1  12
ATOM     12  C   UNL     1      54.684  39.302  47.554  1.00  0.00     0.000 C 
BRANCH  12  13
ATOM     13  C   UNL     1      55.531  40.238  48.431  1.00  0.00    -0.000 C 
BRANCH  13  14
ATOM     14  C   UNL     1      55.494  39.793  49.901  1.00  0.00    -0.000 C 
BRANCH  14  15
ATOM     15  C   UNL     1      54.620  38.547  50.121  1.00  0.00    -0.000 C 
BRANCH  15  16
ATOM     16  C   UNL     1      53.403  38.827  51.016  1.00  0.00    -0.000 C 
BRANCH  16  17
ATOM     17  C   UNL     1      53.411  40.276  51.516  1.00  0.00    -0.000 C 
BRANCH  17  18
ATOM     18  C   UNL     1      51.988  40.839  51.594  1.00  0.00    -0.003 C 
ATOM     19  C   UNL     1      51.984  42.252  52.167  1.00  0.00     0.004 C 
ENDBRANCH  17  18
ENDBRANCH  16  17
ENDBRANCH  15  16
ENDBRANCH  14  15
ENDBRANCH  13  14
ENDBRANCH  12  13
ENDBRANCH   1  12
TORSDOF 14
ENDMDL
MODEL 4
REMARK VINA RESULT:    -4.395      1.820      3.918
REMARK INTER + INTRA:         -10.517
REMARK INTER:                  -7.955
REMARK INTRA:                  -2.562
REMARK UNBOUND:                -2.524
REMARK SMILES CCCCCCCCCCCCCC[C@H](C)C(=O)[O-]
REMARK SMILES IDX 9 1 10 2 11 3 12 4 13 5 14 6 15 7 16 8 17 9 18 10 19 11 8 12
REMARK SMILES IDX 7 13 6 14 5 15 4 16 3 17 2 18 1 19
REMARK H PARENT
REMARK Flexibility Score: inf
ROOT
ATOM      1  C   UNL     1      54.228  43.561  50.529  1.00  0.00     0.000 C 
ENDROOT
BRANCH   1   2
ATOM      2  C   UNL     1      52.812  42.966  50.564  1.00  0.00     0.000 C 
BRANCH   2   3
ATOM      3  C   UNL     1      52.411  42.593  52.000  1.00  0.00     0.000 C 
BRANCH   3   4
ATOM      4  C   UNL     1      51.939  41.133  52.128  1.00  0.00     0.000 C 
BRANCH   4   5
ATOM      5  C   UNL     1      52.174  40.260  50.878  1.00  0.00     0.001 C 
BRANCH   5   6
ATOM      6  C   UNL     1      53.195  39.117  51.055  1.00  0.00     0.009 C 
BRANCH   6   7
ATOM      7  C   UNL     1      54.651  39.479  50.678  1.00  0.00     0.032 C 
ATOM      8  C   UNL     1      55.295  38.429  49.765  1.00  0.00     0.014 C 
BRANCH   7   9
ATOM      9  C   UNL     1      55.469  39.632  51.931  1.00  0.00     0.044 C 
ATOM     10  O   UNL     1      56.306  38.748  52.253  1.00  0.00    -0.550 OA
ATOM     11  O   UNL     1      55.317  40.756  52.735  1.00  0.00    -0.550 OA
ENDBRANCH   7   9
ENDBRANCH   6   7
ENDBRANCH   5   6
ENDBRANCH   4   5
ENDBRANCH   3   4
ENDBRANCH   2   3
ENDBRANCH   1   2
BRANCH   1  12
ATOM     12  C   UNL     1      54.567  44.202  49.174  1.00  0.00     0.000 C 
BRANCH  12  13
ATOM     13  C   UNL     1      53.337  44.809  48.481  1.00  0.00    -0.000 C 
BRANCH  13  14
ATOM     14  C   UNL     1      53.476  44.733  46.953  1.00  0.00    -0.000 C 
BRANCH  14  15
ATOM     15  C   UNL     1      53.070  43.362  46.389  1.00  0.00    -0.000 C 
BRANCH  15  16
ATOM     16  C   UNL     1      51.808  42.796  47.057  1.00  0.00    -0.000 C 
BRANCH  16  17
ATOM     17  C   UNL     1      52.017  41.336  47.477  1.00  0.00    -0.000 C 
BRANCH  17  18
ATOM     18  C   UNL     1      53.502  40.959  47.434  1.00  0.00    -0.003 C 
ATOM     19  C   UNL     1      53.713  39.635  46.705  1.00  0.00     0.004 C 
ENDBRANCH  17  18
ENDBRANCH  16  17
ENDBRANCH  15  16
ENDBRANCH  14  15
ENDBRANCH  13  14
ENDBRANCH  12  13
ENDBRANCH   1  12
TORSDOF 14
ENDMDL
MODEL 5
REMARK VINA RESULT:    -4.391      1.669      4.461
REMARK INTER + INTRA:         -10.508
REMARK INTER:                  -7.805
REMARK INTRA:                  -2.703
REMARK UNBOUND:                -2.524
REMARK SMILES CCCCCCCCCCCCCC[C@H](C)C(=O)[O-]
REMARK SMILES IDX 9 1 10 2 11 3 12 4 13 5 14 6 15 7 16 8 17 9 18 10 19 11 8 12
REMARK SMILES IDX 7 13 6 14 5 15 4 16 3 17 2 18 1 19
REMARK H PARENT
REMARK Flexibility Score: inf
ROOT
ATOM      1  C   UNL     1      55.369  40.546  47.738  1.00  0.00     0.000 C 
ENDROOT
BRANCH   1   2
ATOM      2  C   UNL     1      54.563  39.604  46.830  1.00  0.00     0.000 C 
BRANCH   2   3
ATOM      3  C   UNL     1      53.202  40.220  46.474  1.00  0.00     0.000 C 
BRANCH   3   4
ATOM      4  C   UNL     1      53.112  41.716  46.824  1.00  0.00     0.000 C 
BRANCH   4   5
ATOM      5  C   UNL     1      52.078  42.070  47.912  1.00  0.00     0.001 C 
BRANCH   5   6
ATOM      6  C   UNL     1      52.669  42.427  49.292  1.00  0.00     0.009 C 
BRANCH   6   7
ATOM      7  C   UNL     1      52.678  41.269  50.317  1.00  0.00     0.032 C 
ATOM      8  C   UNL     1      51.795  40.094  49.879  1.00  0.00     0.014 C 
BRANCH   7   9
ATOM      9  C   UNL     1      52.214  41.781  51.654  1.00  0.00     0.044 C 
ATOM     10  O   UNL     1      52.112  40.995  52.632  1.00  0.00    -0.550 OA
ATOM     11  O   UNL     1      51.909  43.127  51.822  1.00  0.00    -0.550 OA
ENDBRANCH   7   9
ENDBRANCH   6   7
ENDBRANCH   5   6
ENDBRANCH   4   5
ENDBRANCH   3   4
ENDBRANCH   2   3
ENDBRANCH   1   2
BRANCH   1  12
ATOM     12  C   UNL     1      55.810  39.872  49.047  1.00  0.00     0.000 C 
BRANCH  12  13
ATOM     13  C   UNL     1      55.132  38.511  49.271  1.00  0.00    -0.000 C 
BRANCH  13  14
ATOM     14  C   UNL     1      55.140  38.134  50.760  1.00  0.00    -0.000 C 
BRANCH  14  15
ATOM     15  C   UNL     1      56.551  38.160  51.370  1.00  0.00    -0.000 C 
BRANCH  15  16
ATOM     16  C   UNL     1      56.627  39.001  52.653  1.00  0.00    -0.000 C 
BRANCH  16  17
ATOM     17  C   UNL     1      55.385  39.887  52.803  1.00  0.00    -0.000 C 
BRANCH  17  18
ATOM     18  C   UNL     1      55.777  41.334  53.124  1.00  0.00    -0.003 C 
ATOM     19  C   UNL     1      56.028  42.133  51.849  1.00  0.00     0.004 C 
ENDBRANCH  17  18
ENDBRANCH  16  17
ENDBRANCH  15  16
ENDBRANCH  14  15
ENDBRANCH  13  14
ENDBRANCH  12  13
ENDBRANCH   1  12
TORSDOF 14
ENDMDL
MODEL 6
REMARK VINA RESULT:    -4.335      1.601      2.530
REMARK INTER + INTRA:         -10.407
REMARK INTER:                  -7.859
REMARK INTRA:                  -2.547
REMARK UNBOUND:                -2.524
REMARK SMILES CCCCCCCCCCCCCC[C@H](C)C(=O)[O-]
REMARK SMILES IDX 9 1 10 2 11 3 12 4 13 5 14 6 15 7 16 8 17 9 18 10 19 11 8 12
REMARK SMILES IDX 7 13 6 14 5 15 4 16 3 17 2 18 1 19
REMARK H PARENT
REMARK Flexibility Score: inf
ROOT
ATOM      1  C   UNL     1      55.165  40.052  49.914  1.00  0.00     0.000 C 
ENDROOT
BRANCH   1   2
ATOM      2  C   UNL     1      54.517  38.704  50.265  1.00  0.00     0.000 C 
BRANCH   2   3
ATOM      3  C   UNL     1      53.232  38.911  51.082  1.00  0.00     0.000 C 
BRANCH   3   4
ATOM      4  C   UNL     1      52.276  39.934  50.443  1.00  0.00     0.000 C 
BRANCH   4   5
ATOM      5  C   UNL     1      51.813  41.068  51.381  1.00  0.00     0.001 C 
BRANCH   5   6
ATOM      6  C   UNL     1      52.414  41.035  52.802  1.00  0.00     0.009 C 
BRANCH   6   7
ATOM      7  C   UNL     1      53.487  42.113  53.082  1.00  0.00     0.032 C 
ATOM      8  C   UNL     1      53.674  43.070  51.898  1.00  0.00     0.014 C 
BRANCH   7   9
ATOM      9  C   UNL     1      54.795  41.445  53.406  1.00  0.00     0.044 C 
ATOM     10  O   UNL     1      54.810  40.286  53.898  1.00  0.00    -0.550 OA
ATOM     11  O   UNL     1      55.997  42.096  53.151  1.00  0.00    -0.550 OA
ENDBRANCH   7   9
ENDBRANCH   6   7
ENDBRANCH   5   6
ENDBRANCH   4   5
ENDBRANCH   3   4
ENDBRANCH   2   3
ENDBRANCH   1   2
BRANCH   1  12
ATOM     12  C   UNL     1      55.272  40.280  48.398  1.00  0.00     0.000 C 
BRANCH  12  13
ATOM     13  C   UNL     1      54.592  39.169  47.582  1.00  0.00    -0.000 C 
BRANCH  13  14
ATOM     14  C   UNL     1      53.337  39.700  46.872  1.00  0.00    -0.000 C 
BRANCH  14  15
ATOM     15  C   UNL     1      53.390  41.218  46.633  1.00  0.00    -0.000 C 
BRANCH  15  16
ATOM     16  C   UNL     1      52.180  41.954  47.227  1.00  0.00    -0.000 C 
BRANCH  16  17
ATOM     17  C   UNL     1      52.618  42.948  48.308  1.00  0.00    -0.000 C 
BRANCH  17  18
ATOM     18  C   UNL     1      53.178  44.231  47.682  1.00  0.00    -0.003 C 
ATOM     19  C   UNL     1      52.183  44.846  46.703  1.00  0.00     0.004 C 
ENDBRANCH  17  18
ENDBRANCH  16  17
ENDBRANCH  15  16
ENDBRANCH  14  15
ENDBRANCH  13  14
ENDBRANCH  12  13
ENDBRANCH   1  12
TORSDOF 14
ENDMDL
MODEL 7
REMARK VINA RESULT:    -4.320      2.279      3.546
REMARK INTER + INTRA:         -10.380
REMARK INTER:                  -7.964
REMARK INTRA:                  -2.416
REMARK UNBOUND:                -2.524
REMARK SMILES CCCCCCCCCCCCCC[C@H](C)C(=O)[O-]
REMARK SMILES IDX 9 1 10 2 11 3 12 4 13 5 14 6 15 7 16 8 17 9 18 10 19 11 8 12
REMARK SMILES IDX 7 13 6 14 5 15 4 16 3 17 2 18 1 19
REMARK H PARENT
REMARK Flexibility Score: inf
ROOT
ATOM      1  C   UNL     1      53.037  40.071  46.873  1.00  0.00     0.000 C 
ENDROOT
BRANCH   1   2
ATOM      2  C   UNL     1      54.434  39.456  47.043  1.00  0.00     0.000 C 
BRANCH   2   3
ATOM      3  C   UNL     1      55.365  40.415  47.801  1.00  0.00     0.000 C 
BRANCH   3   4
ATOM      4  C   UNL     1      55.954  39.791  49.079  1.00  0.00     0.000 C 
BRANCH   4   5
ATOM      5  C   UNL     1      55.266  38.493  49.547  1.00  0.00     0.001 C 
BRANCH   5   6
ATOM      6  C   UNL     1      55.435  38.160  51.044  1.00  0.00     0.009 C 
BRANCH   6   7
ATOM      7  C   UNL     1      56.799  38.563  51.652  1.00  0.00     0.032 C 
ATOM      8  C   UNL     1      57.859  37.467  51.483  1.00  0.00     0.014 C 
BRANCH   7   9
ATOM      9  C   UNL     1      56.622  38.878  53.112  1.00  0.00     0.044 C 
ATOM     10  O   UNL     1      55.786  39.746  53.476  1.00  0.00    -0.550 OA
ATOM     11  O   UNL     1      57.369  38.202  54.071  1.00  0.00    -0.550 OA
ENDBRANCH   7   9
ENDBRANCH   6   7
ENDBRANCH   5   6
ENDBRANCH   4   5
ENDBRANCH   3   4
ENDBRANCH   2   3
ENDBRANCH   1   2
BRANCH   1  12
ATOM     12  C   UNL     1      53.083  41.582  46.598  1.00  0.00     0.000 C 
BRANCH  12  13
ATOM     13  C   UNL     1      52.020  42.361  47.387  1.00  0.00    -0.000 C 
BRANCH  13  14
ATOM     14  C   UNL     1      52.613  43.648  47.981  1.00  0.00    -0.000 C 
BRANCH  14  15
ATOM     15  C   UNL     1      53.643  43.371  49.087  1.00  0.00    -0.000 C 
BRANCH  15  16
ATOM     16  C   UNL     1      52.989  43.046  50.438  1.00  0.00    -0.000 C 
BRANCH  16  17
ATOM     17  C   UNL     1      53.331  41.620  50.885  1.00  0.00    -0.000 C 
BRANCH  17  18
ATOM     18  C   UNL     1      52.059  40.814  51.171  1.00  0.00    -0.003 C 
ATOM     19  C   UNL     1      51.805  39.779  50.080  1.00  0.00     0.004 C 
ENDBRANCH  17  18
ENDBRANCH  16  17
ENDBRANCH  15  16
ENDBRANCH  14  15
ENDBRANCH  13  14
ENDBRANCH  12  13
ENDBRANCH   1  12
TORSDOF 14
ENDMDL
MODEL 8
REMARK VINA RESULT:    -4.314      2.465      4.279
REMARK INTER + INTRA:         -10.369
REMARK INTER:                  -7.624
REMARK INTRA:                  -2.746
REMARK UNBOUND:                -2.524
REMARK SMILES CCCCCCCCCCCCCC[C@H](C)C(=O)[O-]
REMARK SMILES IDX 9 1 10 2 11 3 12 4 13 5 14 6 15 7 16 8 17 9 18 10 19 11 8 12
REMARK SMILES IDX 7 13 6 14 5 15 4 16 3 17 2 18 1 19
REMARK H PARENT
REMARK Flexibility Score: inf
ROOT
ATOM      1  C   UNL     1      52.620  43.881  47.508  1.00  0.00     0.000 C 
ENDROOT
BRANCH   1   2
ATOM      2  C   UNL     1      53.040  43.939  48.984  1.00  0.00     0.000 C 
BRANCH   2   3
ATOM      3  C   UNL     1      54.570  43.935  49.119  1.00  0.00     0.000 C 
BRANCH   3   4
ATOM      4  C   UNL     1      55.068  43.026  50.257  1.00  0.00     0.000 C 
BRANCH   4   5
ATOM      5  C   UNL     1      55.615  41.657  49.805  1.00  0.00     0.001 C 
BRANCH   5   6
ATOM      6  C   UNL     1      56.414  40.882  50.874  1.00  0.00     0.009 C 
BRANCH   6   7
ATOM      7  C   UNL     1      55.642  39.730  51.558  1.00  0.00     0.032 C 
ATOM      8  C   UNL     1      56.087  39.511  53.009  1.00  0.00     0.014 C 
BRANCH   7   9
ATOM      9  C   UNL     1      55.834  38.462  50.772  1.00  0.00     0.044 C 
ATOM     10  O   UNL     1      54.843  37.745  50.473  1.00  0.00    -0.550 OA
ATOM     11  O   UNL     1      57.106  38.079  50.358  1.00  0.00    -0.550 OA
ENDBRANCH   7   9
ENDBRANCH   6   7
ENDBRANCH   5   6
ENDBRANCH   4   5
ENDBRANCH   3   4
ENDBRANCH   2   3
ENDBRANCH   1   2
BRANCH   1  12
ATOM     12  C   UNL     1      52.133  42.487  47.085  1.00  0.00     0.000 C 
BRANCH  12  13
ATOM     13  C   UNL     1      53.289  41.506  46.832  1.00  0.00    -0.000 C 
BRANCH  13  14
ATOM     14  C   UNL     1      53.079  40.200  47.612  1.00  0.00    -0.000 C 
BRANCH  14  15
ATOM     15  C   UNL     1      51.833  40.241  48.513  1.00  0.00    -0.000 C 
BRANCH  15  16
ATOM     16  C   UNL     1      52.151  39.913  49.980  1.00  0.00    -0.000 C 
BRANCH  16  17
ATOM     17  C   UNL     1      51.973  41.149  50.869  1.00  0.00    -0.000 C 
BRANCH  17  18
ATOM     18  C   UNL     1      52.321  40.831  52.328  1.00  0.00    -0.003 C 
ATOM     19  C   UNL     1      52.927  42.044  53.027  1.00  0.00     0.004 C 
ENDBRANCH  17  18
ENDBRANCH  16  17
ENDBRANCH  15  16
ENDBRANCH  14  15
ENDBRANCH  13  14
ENDBRANCH  12  13
ENDBRANCH   1  12
TORSDOF 14
ENDMDL
MODEL 9
REMARK VINA RESULT:    -4.307      1.560      4.572
REMARK INTER + INTRA:         -10.355
REMARK INTER:                  -8.163
REMARK INTRA:                  -2.193
REMARK UNBOUND:                -2.524
REMARK SMILES CCCCCCCCCCCCCC[C@H](C)C(=O)[O-]
REMARK SMILES IDX 9 1 10 2 11 3 12 4 13 5 14 6 15 7 16 8 17 9 18 10 19 11 8 12
REMARK SMILES IDX 7 13 6 14 5 15 4 16 3 17 2 18 1 19
REMARK H PARENT
REMARK Flexibility Score: inf
ROOT
ATOM      1  C   UNL     1      52.895  39.994  47.415  1.00  0.00     0.000 C 
ENDROOT
BRANCH   1   2
ATOM      2  C   UNL     1      52.042  41.097  48.061  1.00  0.00     0.000 C 
BRANCH   2   3
ATOM      3  C   UNL     1      52.233  42.435  47.332  1.00  0.00     0.000 C 
BRANCH   3   4
ATOM      4  C   UNL     1      52.584  43.591  48.286  1.00  0.00     0.000 C 
BRANCH   4   5
ATOM      5  C   UNL     1      53.449  43.194  49.500  1.00  0.00     0.001 C 
BRANCH   5   6
ATOM      6  C   UNL     1      52.674  42.956  50.812  1.00  0.00     0.009 C 
BRANCH   6   7
ATOM      7  C   UNL     1      53.128  41.721  51.624  1.00  0.00     0.032 C 
ATOM      8  C   UNL     1      52.032  40.654  51.726  1.00  0.00     0.014 C 
BRANCH   7   9
ATOM      9  C   UNL     1      53.544  42.155  53.003  1.00  0.00     0.044 C 
ATOM     10  O   UNL     1      54.064  43.288  53.181  1.00  0.00    -0.550 OA
ATOM     11  O   UNL     1      53.345  41.314  54.093  1.00  0.00    -0.550 OA
ENDBRANCH   7   9
ENDBRANCH   6   7
ENDBRANCH   5   6
ENDBRANCH   4   5
ENDBRANCH   3   4
ENDBRANCH   2   3
ENDBRANCH   1   2
BRANCH   1  12
ATOM     12  C   UNL     1      54.387  40.356  47.359  1.00  0.00     0.000 C 
BRANCH  12  13
ATOM     13  C   UNL     1      55.150  39.923  48.621  1.00  0.00    -0.000 C 
BRANCH  13  14
ATOM     14  C   UNL     1      54.699  38.528  49.081  1.00  0.00    -0.000 C 
BRANCH  14  15
ATOM     15  C   UNL     1      54.924  38.297  50.584  1.00  0.00    -0.000 C 
BRANCH  15  16
ATOM     16  C   UNL     1      55.909  39.304  51.197  1.00  0.00    -0.000 C 
BRANCH  16  17
ATOM     17  C   UNL     1      57.138  38.590  51.771  1.00  0.00    -0.000 C 
BRANCH  17  18
ATOM     18  C   UNL     1      57.910  37.855  50.670  1.00  0.00    -0.003 C 
ATOM     19  C   UNL     1      58.703  38.831  49.806  1.00  0.00     0.004 C 
ENDBRANCH  17  18
ENDBRANCH  16  17
ENDBRANCH  15  16
ENDBRANCH  14  15
ENDBRANCH  13  14
ENDBRANCH  12  13
ENDBRANCH   1  12
TORSDOF 14
ENDMDL
