MODEL 1
REMARK VINA RESULT:    -4.239      0.000      0.000
REMARK INTER + INTRA:          -5.243
REMARK INTER:                  -5.106
REMARK INTRA:                  -0.137
REMARK UNBOUND:                -0.137
REMARK SMILES O=c1c(O)c(-c2ccc(O)c(O)c2)oc2cc(O)cc(O)c12
REMARK SMILES IDX 5 1 3 2 2 3 1 4 22 5 20 6 19 7 17 8 16 9 15 10 14 11 6 12
REMARK SMILES IDX 7 13 8 14 9 15 13 16 11 17 10 18 12 20 4 22 21 24 18 26
REMARK H PARENT 10 19 12 21 4 23 21 25 18 27
REMARK Flexibility Score: inf
ROOT
ATOM      1  C   UNL     1      23.316  25.031   5.063  1.00  0.00     0.180 A 
ATOM      2  C   UNL     1      24.572  24.712   5.609  1.00  0.00     0.208 A 
ATOM      3  C   UNL     1      25.384  25.748   6.099  1.00  0.00     0.238 A 
ATOM      4  O   UNL     1      26.484  25.452   6.635  1.00  0.00    -0.285 OA
ATOM      5  C   UNL     1      24.938  27.089   6.023  1.00  0.00     0.111 A 
ATOM      6  C   UNL     1      25.695  28.221   6.452  1.00  0.00     0.134 A 
ATOM      7  C   UNL     1      25.101  29.490   6.451  1.00  0.00     0.093 A 
ATOM      8  C   UNL     1      23.802  29.677   5.974  1.00  0.00     0.123 A 
ATOM      9  C   UNL     1      23.077  28.586   5.498  1.00  0.00     0.094 A 
ATOM     10  C   UNL     1      23.628  27.304   5.520  1.00  0.00     0.146 A 
ATOM     11  O   UNL     1      22.899  26.292   5.066  1.00  0.00    -0.452 OA
ENDROOT
BRANCH   1  12
ATOM     12  C   UNL     1      22.415  23.998   4.503  1.00  0.00     0.025 A 
ATOM     13  C   UNL     1      22.841  23.231   3.407  1.00  0.00     0.016 A 
ATOM     14  C   UNL     1      22.015  22.238   2.875  1.00  0.00     0.051 A 
ATOM     15  C   UNL     1      20.759  21.986   3.442  1.00  0.00     0.157 A 
ATOM     16  C   UNL     1      21.162  23.727   5.082  1.00  0.00     0.062 A 
ATOM     17  C   UNL     1      20.334  22.730   4.550  1.00  0.00     0.158 A 
BRANCH  15  18
ATOM     18  O   UNL     1      19.932  20.996   2.913  1.00  0.00    -0.504 OA
ATOM     19  H   UNL     1      19.627  21.021   1.947  1.00  0.00     0.293 HD
ENDBRANCH  15  18
BRANCH  17  20
ATOM     20  O   UNL     1      19.089  22.467   5.120  1.00  0.00    -0.504 OA
ATOM     21  H   UNL     1      18.512  21.697   4.801  1.00  0.00     0.293 HD
ENDBRANCH  17  20
ENDBRANCH   1  12
BRANCH   2  22
ATOM     22  O   UNL     1      24.985  23.380   5.694  1.00  0.00    -0.502 OA
ATOM     23  H   UNL     1      24.333  22.605   5.655  1.00  0.00     0.293 HD
ENDBRANCH   2  22
BRANCH   6  24
ATOM     24  O   UNL     1      27.030  28.157   6.860  1.00  0.00    -0.507 OA
ATOM     25  H   UNL     1      27.807  28.549   6.348  1.00  0.00     0.293 HD
ENDBRANCH   6  24
BRANCH   8  26
ATOM     26  O   UNL     1      23.224  30.944   5.962  1.00  0.00    -0.508 OA
ATOM     27  H   UNL     1      23.334  31.584   6.740  1.00  0.00     0.293 HD
ENDBRANCH   8  26
TORSDOF 6
ENDMDL
MODEL 2
REMARK VINA RESULT:    -4.165      1.438      2.977
REMARK INTER + INTRA:          -5.154
REMARK INTER:                  -4.821
REMARK INTRA:                  -0.333
REMARK UNBOUND:                -0.137
REMARK SMILES O=c1c(O)c(-c2ccc(O)c(O)c2)oc2cc(O)cc(O)c12
REMARK SMILES IDX 5 1 3 2 2 3 1 4 22 5 20 6 19 7 17 8 16 9 15 10 14 11 6 12
REMARK SMILES IDX 7 13 8 14 9 15 13 16 11 17 10 18 12 20 4 22 21 24 18 26
REMARK H PARENT 10 19 12 21 4 23 21 25 18 27
REMARK Flexibility Score: inf
ROOT
ATOM      1  C   UNL     1      22.567  26.202   4.548  1.00  0.00     0.180 A 
ATOM      2  C   UNL     1      22.048  27.340   3.906  1.00  0.00     0.208 A 
ATOM      3  C   UNL     1      22.510  28.610   4.293  1.00  0.00     0.238 A 
ATOM      4  O   UNL     1      22.082  29.621   3.678  1.00  0.00    -0.285 OA
ATOM      5  C   UNL     1      23.471  28.726   5.325  1.00  0.00     0.111 A 
ATOM      6  C   UNL     1      23.979  29.963   5.824  1.00  0.00     0.134 A 
ATOM      7  C   UNL     1      25.024  29.955   6.757  1.00  0.00     0.093 A 
ATOM      8  C   UNL     1      25.533  28.754   7.258  1.00  0.00     0.123 A 
ATOM      9  C   UNL     1      25.002  27.542   6.820  1.00  0.00     0.094 A 
ATOM     10  C   UNL     1      23.985  27.517   5.865  1.00  0.00     0.146 A 
ATOM     11  O   UNL     1      23.515  26.341   5.468  1.00  0.00    -0.452 OA
ENDROOT
BRANCH   1  12
ATOM     12  C   UNL     1      22.111  24.833   4.215  1.00  0.00     0.025 A 
ATOM     13  C   UNL     1      22.844  24.067   3.296  1.00  0.00     0.016 A 
ATOM     14  C   UNL     1      22.443  22.765   2.981  1.00  0.00     0.051 A 
ATOM     15  C   UNL     1      21.314  22.207   3.595  1.00  0.00     0.157 A 
ATOM     16  C   UNL     1      20.990  24.261   4.844  1.00  0.00     0.062 A 
ATOM     17  C   UNL     1      20.589  22.955   4.531  1.00  0.00     0.158 A 
BRANCH  15  18
ATOM     18  O   UNL     1      20.911  20.910   3.282  1.00  0.00    -0.504 OA
ATOM     19  H   UNL     1      19.947  20.616   3.382  1.00  0.00     0.293 HD
ENDBRANCH  15  18
BRANCH  17  20
ATOM     20  O   UNL     1      19.475  22.391   5.149  1.00  0.00    -0.504 OA
ATOM     21  H   UNL     1      18.797  22.961   5.642  1.00  0.00     0.293 HD
ENDBRANCH  17  20
ENDBRANCH   1  12
BRANCH   2  22
ATOM     22  O   UNL     1      21.116  27.202   2.875  1.00  0.00    -0.502 OA
ATOM     23  H   UNL     1      20.499  27.955   2.594  1.00  0.00     0.293 HD
ENDBRANCH   2  22
BRANCH   6  24
ATOM     24  O   UNL     1      23.479  31.216   5.459  1.00  0.00    -0.507 OA
ATOM     25  H   UNL     1      23.377  31.539   4.508  1.00  0.00     0.293 HD
ENDBRANCH   6  24
BRANCH   8  26
ATOM     26  O   UNL     1      26.562  28.754   8.197  1.00  0.00    -0.508 OA
ATOM     27  H   UNL     1      26.848  29.605   8.669  1.00  0.00     0.293 HD
ENDBRANCH   8  26
TORSDOF 6
ENDMDL
MODEL 3
REMARK VINA RESULT:    -4.104      1.858      7.312
REMARK INTER + INTRA:          -5.080
REMARK INTER:                  -4.860
REMARK INTRA:                  -0.220
REMARK UNBOUND:                -0.137
REMARK SMILES O=c1c(O)c(-c2ccc(O)c(O)c2)oc2cc(O)cc(O)c12
REMARK SMILES IDX 5 1 3 2 2 3 1 4 22 5 20 6 19 7 17 8 16 9 15 10 14 11 6 12
REMARK SMILES IDX 7 13 8 14 9 15 13 16 11 17 10 18 12 20 4 22 21 24 18 26
REMARK H PARENT 10 19 12 21 4 23 21 25 18 27
REMARK Flexibility Score: inf
ROOT
ATOM      1  C   UNL     1      22.130  25.326   4.265  1.00  0.00     0.180 A 
ATOM      2  C   UNL     1      20.744  25.145   4.114  1.00  0.00     0.208 A 
ATOM      3  C   UNL     1      20.256  23.867   3.794  1.00  0.00     0.238 A 
ATOM      4  O   UNL     1      19.011  23.699   3.713  1.00  0.00    -0.285 OA
ATOM      5  C   UNL     1      21.159  22.792   3.615  1.00  0.00     0.111 A 
ATOM      6  C   UNL     1      20.778  21.466   3.250  1.00  0.00     0.134 A 
ATOM      7  C   UNL     1      21.743  20.450   3.229  1.00  0.00     0.093 A 
ATOM      8  C   UNL     1      23.086  20.729   3.494  1.00  0.00     0.123 A 
ATOM      9  C   UNL     1      23.477  22.032   3.793  1.00  0.00     0.094 A 
ATOM     10  C   UNL     1      22.532  23.058   3.857  1.00  0.00     0.146 A 
ATOM     11  O   UNL     1      22.945  24.284   4.155  1.00  0.00    -0.452 OA
ENDROOT
BRANCH   1  12
ATOM     12  C   UNL     1      22.722  26.647   4.576  1.00  0.00     0.025 A 
ATOM     13  C   UNL     1      22.698  27.660   3.605  1.00  0.00     0.016 A 
ATOM     14  C   UNL     1      23.233  28.921   3.883  1.00  0.00     0.051 A 
ATOM     15  C   UNL     1      23.786  29.191   5.142  1.00  0.00     0.157 A 
ATOM     16  C   UNL     1      23.259  26.929   5.846  1.00  0.00     0.062 A 
ATOM     17  C   UNL     1      23.795  28.194   6.126  1.00  0.00     0.158 A 
BRANCH  15  18
ATOM     18  O   UNL     1      24.322  30.446   5.422  1.00  0.00    -0.504 OA
ATOM     19  H   UNL     1      25.256  30.551   5.800  1.00  0.00     0.293 HD
ENDBRANCH  15  18
BRANCH  17  20
ATOM     20  O   UNL     1      24.332  28.470   7.381  1.00  0.00    -0.504 OA
ATOM     21  H   UNL     1      24.289  29.399   7.784  1.00  0.00     0.293 HD
ENDBRANCH  17  20
ENDBRANCH   1  12
BRANCH   2  22
ATOM     22  O   UNL     1      19.868  26.214   4.316  1.00  0.00    -0.502 OA
ATOM     23  H   UNL     1      19.399  26.374   5.199  1.00  0.00     0.293 HD
ENDBRANCH   2  22
BRANCH   6  24
ATOM     24  O   UNL     1      19.481  21.100   2.878  1.00  0.00    -0.507 OA
ATOM     25  H   UNL     1      19.181  20.934   1.929  1.00  0.00     0.293 HD
ENDBRANCH   6  24
BRANCH   8  26
ATOM     26  O   UNL     1      24.043  19.716   3.455  1.00  0.00    -0.508 OA
ATOM     27  H   UNL     1      24.781  19.712   2.761  1.00  0.00     0.293 HD
ENDBRANCH   8  26
TORSDOF 6
ENDMDL
MODEL 4
REMARK VINA RESULT:    -4.042      2.238      6.452
REMARK INTER + INTRA:          -5.006
REMARK INTER:                  -4.675
REMARK INTRA:                  -0.331
REMARK UNBOUND:                -0.137
REMARK SMILES O=c1c(O)c(-c2ccc(O)c(O)c2)oc2cc(O)cc(O)c12
REMARK SMILES IDX 5 1 3 2 2 3 1 4 22 5 20 6 19 7 17 8 16 9 15 10 14 11 6 12
REMARK SMILES IDX 7 13 8 14 9 15 13 16 11 17 10 18 12 20 4 22 21 24 18 26
REMARK H PARENT 10 19 12 21 4 23 21 25 18 27
REMARK Flexibility Score: inf
ROOT
ATOM      1  C   UNL     1      24.767  27.750   4.943  1.00  0.00     0.180 A 
ATOM      2  C   UNL     1      25.867  27.590   5.805  1.00  0.00     0.208 A 
ATOM      3  C   UNL     1      26.271  26.292   6.159  1.00  0.00     0.238 A 
ATOM      4  O   UNL     1      27.288  26.154   6.887  1.00  0.00    -0.285 OA
ATOM      5  C   UNL     1      25.562  25.173   5.661  1.00  0.00     0.111 A 
ATOM      6  C   UNL     1      25.858  23.815   5.986  1.00  0.00     0.134 A 
ATOM      7  C   UNL     1      25.174  22.782   5.332  1.00  0.00     0.093 A 
ATOM      8  C   UNL     1      24.159  23.060   4.414  1.00  0.00     0.123 A 
ATOM      9  C   UNL     1      23.822  24.382   4.135  1.00  0.00     0.094 A 
ATOM     10  C   UNL     1      24.510  25.433   4.743  1.00  0.00     0.146 A 
ATOM     11  O   UNL     1      24.164  26.678   4.441  1.00  0.00    -0.452 OA
ENDROOT
BRANCH   1  12
ATOM     12  C   UNL     1      24.266  29.085   4.546  1.00  0.00     0.025 A 
ATOM     13  C   UNL     1      24.679  29.642   3.325  1.00  0.00     0.016 A 
ATOM     14  C   UNL     1      24.203  30.892   2.921  1.00  0.00     0.051 A 
ATOM     15  C   UNL     1      23.294  31.595   3.723  1.00  0.00     0.157 A 
ATOM     16  C   UNL     1      23.338  29.785   5.339  1.00  0.00     0.062 A 
ATOM     17  C   UNL     1      22.859  31.038   4.932  1.00  0.00     0.158 A 
BRANCH  15  18
ATOM     18  O   UNL     1      22.819  32.843   3.324  1.00  0.00    -0.504 OA
ATOM     19  H   UNL     1      21.828  33.048   3.297  1.00  0.00     0.293 HD
ENDBRANCH  15  18
BRANCH  17  20
ATOM     20  O   UNL     1      21.944  31.734   5.721  1.00  0.00    -0.504 OA
ATOM     21  H   UNL     1      21.800  32.730   5.611  1.00  0.00     0.293 HD
ENDBRANCH  17  20
ENDBRANCH   1  12
BRANCH   2  22
ATOM     22  O   UNL     1      26.566  28.707   6.268  1.00  0.00    -0.502 OA
ATOM     23  H   UNL     1      26.099  29.520   6.653  1.00  0.00     0.293 HD
ENDBRANCH   2  22
BRANCH   6  24
ATOM     24  O   UNL     1      26.790  23.430   6.955  1.00  0.00    -0.507 OA
ATOM     25  H   UNL     1      26.650  22.686   7.623  1.00  0.00     0.293 HD
ENDBRANCH   6  24
BRANCH   8  26
ATOM     26  O   UNL     1      23.472  22.027   3.780  1.00  0.00    -0.508 OA
ATOM     27  H   UNL     1      23.193  22.095   2.808  1.00  0.00     0.293 HD
ENDBRANCH   8  26
TORSDOF 6
ENDMDL
MODEL 5
REMARK VINA RESULT:    -3.947      1.977      7.027
REMARK INTER + INTRA:          -4.892
REMARK INTER:                  -4.616
REMARK INTRA:                  -0.276
REMARK UNBOUND:                -0.137
REMARK SMILES O=c1c(O)c(-c2ccc(O)c(O)c2)oc2cc(O)cc(O)c12
REMARK SMILES IDX 5 1 3 2 2 3 1 4 22 5 20 6 19 7 17 8 16 9 15 10 14 11 6 12
REMARK SMILES IDX 7 13 8 14 9 15 13 16 11 17 10 18 12 20 4 22 21 24 18 26
REMARK H PARENT 10 19 12 21 4 23 21 25 18 27
REMARK Flexibility Score: inf
ROOT
ATOM      1  C   UNL     1      23.002  24.941   4.548  1.00  0.00     0.180 A 
ATOM      2  C   UNL     1      21.750  24.313   4.672  1.00  0.00     0.208 A 
ATOM      3  C   UNL     1      21.636  22.951   4.351  1.00  0.00     0.238 A 
ATOM      4  O   UNL     1      20.526  22.382   4.515  1.00  0.00    -0.285 OA
ATOM      5  C   UNL     1      22.771  22.237   3.896  1.00  0.00     0.111 A 
ATOM      6  C   UNL     1      22.762  20.865   3.504  1.00  0.00     0.134 A 
ATOM      7  C   UNL     1      23.970  20.226   3.195  1.00  0.00     0.093 A 
ATOM      8  C   UNL     1      25.177  20.929   3.199  1.00  0.00     0.123 A 
ATOM      9  C   UNL     1      25.188  22.284   3.522  1.00  0.00     0.094 A 
ATOM     10  C   UNL     1      24.005  22.939   3.870  1.00  0.00     0.146 A 
ATOM     11  O   UNL     1      24.061  24.228   4.181  1.00  0.00    -0.452 OA
ENDROOT
BRANCH   1  12
ATOM     12  C   UNL     1      23.195  26.379   4.843  1.00  0.00     0.025 A 
ATOM     13  C   UNL     1      22.743  27.339   3.924  1.00  0.00     0.016 A 
ATOM     14  C   UNL     1      22.898  28.702   4.190  1.00  0.00     0.051 A 
ATOM     15  C   UNL     1      23.491  29.124   5.387  1.00  0.00     0.157 A 
ATOM     16  C   UNL     1      23.772  26.808   6.053  1.00  0.00     0.062 A 
ATOM     17  C   UNL     1      23.925  28.175   6.321  1.00  0.00     0.158 A 
BRANCH  15  18
ATOM     18  O   UNL     1      23.648  30.483   5.655  1.00  0.00    -0.504 OA
ATOM     19  H   UNL     1      23.156  30.933   6.418  1.00  0.00     0.293 HD
ENDBRANCH  15  18
BRANCH  17  20
ATOM     20  O   UNL     1      24.502  28.599   7.517  1.00  0.00    -0.504 OA
ATOM     21  H   UNL     1      25.085  27.983   8.072  1.00  0.00     0.293 HD
ENDBRANCH  17  20
ENDBRANCH   1  12
BRANCH   2  22
ATOM     22  O   UNL     1      20.647  25.031   5.144  1.00  0.00    -0.502 OA
ATOM     23  H   UNL     1      20.003  24.651   5.826  1.00  0.00     0.293 HD
ENDBRANCH   2  22
BRANCH   6  24
ATOM     24  O   UNL     1      21.601  20.097   3.378  1.00  0.00    -0.507 OA
ATOM     25  H   UNL     1      21.447  19.400   2.664  1.00  0.00     0.293 HD
ENDBRANCH   6  24
BRANCH   8  26
ATOM     26  O   UNL     1      26.372  20.290   2.875  1.00  0.00    -0.508 OA
ATOM     27  H   UNL     1      26.558  19.337   3.164  1.00  0.00     0.293 HD
ENDBRANCH   8  26
TORSDOF 6
ENDMDL
MODEL 6
REMARK VINA RESULT:    -3.946      3.514      5.300
REMARK INTER + INTRA:          -4.890
REMARK INTER:                  -4.709
REMARK INTRA:                  -0.181
REMARK UNBOUND:                -0.137
REMARK SMILES O=c1c(O)c(-c2ccc(O)c(O)c2)oc2cc(O)cc(O)c12
REMARK SMILES IDX 5 1 3 2 2 3 1 4 22 5 20 6 19 7 17 8 16 9 15 10 14 11 6 12
REMARK SMILES IDX 7 13 8 14 9 15 13 16 11 17 10 18 12 20 4 22 21 24 18 26
REMARK H PARENT 10 19 12 21 4 23 21 25 18 27
REMARK Flexibility Score: inf
ROOT
ATOM      1  C   UNL     1      24.849  27.915   5.602  1.00  0.00     0.180 A 
ATOM      2  C   UNL     1      24.327  28.186   4.325  1.00  0.00     0.208 A 
ATOM      3  C   UNL     1      23.511  29.316   4.149  1.00  0.00     0.238 A 
ATOM      4  O   UNL     1      23.090  29.583   2.994  1.00  0.00    -0.285 OA
ATOM      5  C   UNL     1      23.215  30.150   5.254  1.00  0.00     0.111 A 
ATOM      6  C   UNL     1      22.367  31.297   5.199  1.00  0.00     0.134 A 
ATOM      7  C   UNL     1      22.250  32.125   6.324  1.00  0.00     0.093 A 
ATOM      8  C   UNL     1      22.897  31.808   7.520  1.00  0.00     0.123 A 
ATOM      9  C   UNL     1      23.679  30.658   7.601  1.00  0.00     0.094 A 
ATOM     10  C   UNL     1      23.844  29.834   6.486  1.00  0.00     0.146 A 
ATOM     11  O   UNL     1      24.606  28.753   6.603  1.00  0.00    -0.452 OA
ENDROOT
BRANCH   1  12
ATOM     12  C   UNL     1      25.695  26.730   5.872  1.00  0.00     0.025 A 
ATOM     13  C   UNL     1      27.010  26.910   6.330  1.00  0.00     0.016 A 
ATOM     14  C   UNL     1      27.819  25.806   6.609  1.00  0.00     0.051 A 
ATOM     15  C   UNL     1      27.320  24.507   6.451  1.00  0.00     0.157 A 
ATOM     16  C   UNL     1      25.191  25.423   5.733  1.00  0.00     0.062 A 
ATOM     17  C   UNL     1      26.002  24.316   6.016  1.00  0.00     0.158 A 
BRANCH  15  18
ATOM     18  O   UNL     1      28.125  23.403   6.727  1.00  0.00    -0.504 OA
ATOM     19  H   UNL     1      28.462  22.795   5.991  1.00  0.00     0.293 HD
ENDBRANCH  15  18
BRANCH  17  20
ATOM     20  O   UNL     1      25.504  23.022   5.872  1.00  0.00    -0.504 OA
ATOM     21  H   UNL     1      24.841  22.787   5.144  1.00  0.00     0.293 HD
ENDBRANCH  17  20
ENDBRANCH   1  12
BRANCH   2  22
ATOM     22  O   UNL     1      24.649  27.362   3.244  1.00  0.00    -0.502 OA
ATOM     23  H   UNL     1      24.004  26.675   2.873  1.00  0.00     0.293 HD
ENDBRANCH   2  22
BRANCH   6  24
ATOM     24  O   UNL     1      21.604  31.651   4.083  1.00  0.00    -0.507 OA
ATOM     25  H   UNL     1      21.016  32.470   4.024  1.00  0.00     0.293 HD
ENDBRANCH   6  24
BRANCH   8  26
ATOM     26  O   UNL     1      22.763  32.628   8.639  1.00  0.00    -0.508 OA
ATOM     27  H   UNL     1      22.948  33.623   8.592  1.00  0.00     0.293 HD
ENDBRANCH   8  26
TORSDOF 6
ENDMDL
MODEL 7
REMARK VINA RESULT:    -3.894      2.172      6.578
REMARK INTER + INTRA:          -4.827
REMARK INTER:                  -4.593
REMARK INTRA:                  -0.234
REMARK UNBOUND:                -0.137
REMARK SMILES O=c1c(O)c(-c2ccc(O)c(O)c2)oc2cc(O)cc(O)c12
REMARK SMILES IDX 5 1 3 2 2 3 1 4 22 5 20 6 19 7 17 8 16 9 15 10 14 11 6 12
REMARK SMILES IDX 7 13 8 14 9 15 13 16 11 17 10 18 12 20 4 22 21 24 18 26
REMARK H PARENT 10 19 12 21 4 23 21 25 18 27
REMARK Flexibility Score: inf
ROOT
ATOM      1  C   UNL     1      25.377  25.963   5.456  1.00  0.00     0.180 A 
ATOM      2  C   UNL     1      26.627  25.557   5.953  1.00  0.00     0.208 A 
ATOM      3  C   UNL     1      26.943  24.188   5.967  1.00  0.00     0.238 A 
ATOM      4  O   UNL     1      28.084  23.835   6.363  1.00  0.00    -0.285 OA
ATOM      5  C   UNL     1      26.000  23.243   5.497  1.00  0.00     0.111 A 
ATOM      6  C   UNL     1      26.197  21.829   5.502  1.00  0.00     0.134 A 
ATOM      7  C   UNL     1      25.250  20.996   4.893  1.00  0.00     0.093 A 
ATOM      8  C   UNL     1      24.080  21.522   4.339  1.00  0.00     0.123 A 
ATOM      9  C   UNL     1      23.850  22.895   4.383  1.00  0.00     0.094 A 
ATOM     10  C   UNL     1      24.793  23.754   4.951  1.00  0.00     0.146 A 
ATOM     11  O   UNL     1      24.539  25.057   4.963  1.00  0.00    -0.452 OA
ENDROOT
BRANCH   1  12
ATOM     12  C   UNL     1      24.961  27.384   5.433  1.00  0.00     0.025 A 
ATOM     13  C   UNL     1      24.778  28.030   4.201  1.00  0.00     0.016 A 
ATOM     14  C   UNL     1      24.368  29.365   4.156  1.00  0.00     0.051 A 
ATOM     15  C   UNL     1      24.118  30.067   5.342  1.00  0.00     0.157 A 
ATOM     16  C   UNL     1      24.689  28.087   6.622  1.00  0.00     0.062 A 
ATOM     17  C   UNL     1      24.275  29.425   6.577  1.00  0.00     0.158 A 
BRANCH  15  18
ATOM     18  O   UNL     1      23.709  31.399   5.301  1.00  0.00    -0.504 OA
ATOM     19  H   UNL     1      22.964  31.743   5.894  1.00  0.00     0.293 HD
ENDBRANCH  15  18
BRANCH  17  20
ATOM     20  O   UNL     1      24.012  30.122   7.755  1.00  0.00    -0.504 OA
ATOM     21  H   UNL     1      24.474  29.885   8.625  1.00  0.00     0.293 HD
ENDBRANCH  17  20
ENDBRANCH   1  12
BRANCH   2  22
ATOM     22  O   UNL     1      27.552  26.508   6.391  1.00  0.00    -0.502 OA
ATOM     23  H   UNL     1      27.286  27.307   6.954  1.00  0.00     0.293 HD
ENDBRANCH   2  22
BRANCH   6  24
ATOM     24  O   UNL     1      27.285  21.196   6.109  1.00  0.00    -0.507 OA
ATOM     25  H   UNL     1      28.204  21.112   5.699  1.00  0.00     0.293 HD
ENDBRANCH   6  24
BRANCH   8  26
ATOM     26  O   UNL     1      23.135  20.686   3.749  1.00  0.00    -0.508 OA
ATOM     27  H   UNL     1      22.147  20.914   3.757  1.00  0.00     0.293 HD
ENDBRANCH   8  26
TORSDOF 6
ENDMDL
MODEL 8
REMARK VINA RESULT:    -3.824      1.758      6.876
REMARK INTER + INTRA:          -4.743
REMARK INTER:                  -4.503
REMARK INTRA:                  -0.240
REMARK UNBOUND:                -0.137
REMARK SMILES O=c1c(O)c(-c2ccc(O)c(O)c2)oc2cc(O)cc(O)c12
REMARK SMILES IDX 5 1 3 2 2 3 1 4 22 5 20 6 19 7 17 8 16 9 15 10 14 11 6 12
REMARK SMILES IDX 7 13 8 14 9 15 13 16 11 17 10 18 12 20 4 22 21 24 18 26
REMARK H PARENT 10 19 12 21 4 23 21 25 18 27
REMARK Flexibility Score: inf
ROOT
ATOM      1  C   UNL     1      22.465  25.481   4.231  1.00  0.00     0.180 A 
ATOM      2  C   UNL     1      23.420  24.483   3.971  1.00  0.00     0.208 A 
ATOM      3  C   UNL     1      22.981  23.189   3.644  1.00  0.00     0.238 A 
ATOM      4  O   UNL     1      23.839  22.314   3.360  1.00  0.00    -0.285 OA
ATOM      5  C   UNL     1      21.595  22.906   3.597  1.00  0.00     0.111 A 
ATOM      6  C   UNL     1      21.038  21.622   3.317  1.00  0.00     0.134 A 
ATOM      7  C   UNL     1      19.652  21.487   3.168  1.00  0.00     0.093 A 
ATOM      8  C   UNL     1      18.798  22.576   3.355  1.00  0.00     0.123 A 
ATOM      9  C   UNL     1      19.328  23.821   3.687  1.00  0.00     0.094 A 
ATOM     10  C   UNL     1      20.708  23.995   3.807  1.00  0.00     0.146 A 
ATOM     11  O   UNL     1      21.171  25.200   4.116  1.00  0.00    -0.452 OA
ENDROOT
BRANCH   1  12
ATOM     12  C   UNL     1      22.849  26.861   4.607  1.00  0.00     0.025 A 
ATOM     13  C   UNL     1      22.570  27.919   3.728  1.00  0.00     0.016 A 
ATOM     14  C   UNL     1      22.906  29.231   4.072  1.00  0.00     0.051 A 
ATOM     15  C   UNL     1      23.511  29.505   5.305  1.00  0.00     0.157 A 
ATOM     16  C   UNL     1      23.438  27.143   5.854  1.00  0.00     0.062 A 
ATOM     17  C   UNL     1      23.773  28.459   6.199  1.00  0.00     0.158 A 
BRANCH  15  18
ATOM     18  O   UNL     1      23.849  30.813   5.650  1.00  0.00    -0.504 OA
ATOM     19  H   UNL     1      24.398  31.399   5.032  1.00  0.00     0.293 HD
ENDBRANCH  15  18
BRANCH  17  20
ATOM     20  O   UNL     1      24.362  28.737   7.431  1.00  0.00    -0.504 OA
ATOM     21  H   UNL     1      25.185  29.324   7.506  1.00  0.00     0.293 HD
ENDBRANCH  17  20
ENDBRANCH   1  12
BRANCH   2  22
ATOM     22  O   UNL     1      24.782  24.789   4.001  1.00  0.00    -0.502 OA
ATOM     23  H   UNL     1      25.230  25.350   3.287  1.00  0.00     0.293 HD
ENDBRANCH   2  22
BRANCH   6  24
ATOM     24  O   UNL     1      21.795  20.452   3.203  1.00  0.00    -0.507 OA
ATOM     25  H   UNL     1      21.674  19.631   3.778  1.00  0.00     0.293 HD
ENDBRANCH   6  24
BRANCH   8  26
ATOM     26  O   UNL     1      17.419  22.430   3.220  1.00  0.00    -0.508 OA
ATOM     27  H   UNL     1      16.829  22.212   4.015  1.00  0.00     0.293 HD
ENDBRANCH   8  26
TORSDOF 6
ENDMDL
