MODEL 1
REMARK VINA RESULT:    -5.247      0.000      0.000
REMARK INTER + INTRA:          -9.745
REMARK INTER:                  -7.087
REMARK INTRA:                  -2.658
REMARK UNBOUND:                -2.658
REMARK SMILES CC[C@H](CC[C@@H](C)[C@H]1CC[C@@H]2[C@H]3CC(=O)C4=CC(=O)CC[C@]4(C)[C@H]3CC[C@@]21C)C(C)C
REMARK SMILES IDX 4 1 3 2 2 3 1 4 29 5 30 6 31 7 5 8 6 9 7 10 8 11 9 12 27 13
REMARK SMILES IDX 10 14 11 15 26 16 28 17 12 18 25 19 24 20 13 21 22 22 14 23
REMARK SMILES IDX 16 24 21 25 23 26 15 27 17 28 20 29 18 30 19 31
REMARK H PARENT
REMARK Flexibility Score: inf
ROOT
ATOM      1  C   UNL     1       2.415   2.062   2.292  1.00  0.00     0.004 C 
ENDROOT
BRANCH   1   2
ATOM      2  C   UNL     1       3.411   3.227   2.021  1.00  0.00    -0.009 C 
BRANCH   2   3
ATOM      3  C   UNL     1       3.876   3.208   0.531  1.00  0.00     0.000 C 
ATOM      4  C   UNL     1       4.227   1.801   0.040  1.00  0.00     0.004 C 
ENDBRANCH   2   3
BRANCH   2   5
ATOM      5  C   UNL     1       2.870   4.630   2.462  1.00  0.00    -0.014 C 
ATOM      6  C   UNL     1       3.324   5.012   3.884  1.00  0.00     0.007 C 
ATOM      7  C   UNL     1       3.316   5.739   1.491  1.00  0.00     0.007 C 
ENDBRANCH   2   5
ENDBRANCH   1   2
BRANCH   1   8
ATOM      8  C   UNL     1       1.007   2.512   2.736  1.00  0.00     0.004 C 
BRANCH   8   9
ATOM      9  C   UNL     1      -0.102   1.949   1.780  1.00  0.00    -0.011 C 
ATOM     10  C   UNL     1      -1.131   1.168   2.637  1.00  0.00     0.008 C 
BRANCH   9  11
ATOM     11  C   UNL     1      -0.756   3.093   0.911  1.00  0.00    -0.002 C 
ATOM     12  C   UNL     1      -0.604   4.464   1.611  1.00  0.00     0.005 C 
ATOM     13  C   UNL     1      -0.252   3.338  -0.579  1.00  0.00    -0.026 C 
ATOM     14  C   UNL     1      -0.280   5.489   0.552  1.00  0.00     0.005 C 
ATOM     15  C   UNL     1       0.464   4.717  -0.525  1.00  0.00    -0.001 C 
ATOM     16  C   UNL     1      -1.499   3.417  -1.510  1.00  0.00     0.007 C 
ATOM     17  C   UNL     1       0.723   2.265  -1.120  1.00  0.00     0.012 C 
ATOM     18  C   UNL     1       0.569   5.548  -1.850  1.00  0.00     0.004 C 
ATOM     19  C   UNL     1      -1.202   4.018  -2.884  1.00  0.00     0.005 C 
ATOM     20  C   UNL     1      -0.684   5.472  -2.771  1.00  0.00     0.003 C 
ATOM     21  C   UNL     1       1.856   5.275  -2.646  1.00  0.00     0.085 C 
ATOM     22  C   UNL     1      -0.503   6.230  -4.177  1.00  0.00    -0.000 C 
ATOM     23  C   UNL     1       2.034   6.367  -3.652  1.00  0.00     0.159 C 
ATOM     24  C   UNL     1       0.832   6.991  -4.254  1.00  0.00     0.005 C 
ATOM     25  C   UNL     1      -1.688   7.237  -4.333  1.00  0.00     0.020 C 
ATOM     26  C   UNL     1      -0.506   5.253  -5.386  1.00  0.00     0.017 C 
ATOM     27  O   UNL     1       3.195   6.732  -3.980  1.00  0.00    -0.295 OA
ATOM     28  C   UNL     1       0.950   8.144  -4.942  1.00  0.00     0.055 C 
ATOM     29  C   UNL     1      -1.556   8.146  -5.559  1.00  0.00     0.081 C 
ATOM     30  C   UNL     1      -0.202   8.785  -5.594  1.00  0.00     0.156 C 
ATOM     31  O   UNL     1      -0.039   9.862  -6.224  1.00  0.00    -0.295 OA
ENDBRANCH   9  11
ENDBRANCH   8   9
ENDBRANCH   1   8
TORSDOF 6
ENDMDL
MODEL 2
REMARK VINA RESULT:    -5.193      0.570      1.592
REMARK INTER + INTRA:          -9.672
REMARK INTER:                  -7.158
REMARK INTRA:                  -2.514
REMARK UNBOUND:                -2.658
REMARK SMILES CC[C@H](CC[C@@H](C)[C@H]1CC[C@@H]2[C@H]3CC(=O)C4=CC(=O)CC[C@]4(C)[C@H]3CC[C@@]21C)C(C)C
REMARK SMILES IDX 4 1 3 2 2 3 1 4 29 5 30 6 31 7 5 8 6 9 7 10 8 11 9 12 27 13
REMARK SMILES IDX 10 14 11 15 26 16 28 17 12 18 25 19 24 20 13 21 22 22 14 23
REMARK SMILES IDX 16 24 21 25 23 26 15 27 17 28 20 29 18 30 19 31
REMARK H PARENT
REMARK Flexibility Score: inf
ROOT
ATOM      1  C   UNL     1       2.306   2.773   2.626  1.00  0.00     0.004 C 
ENDROOT
BRANCH   1   2
ATOM      2  C   UNL     1       2.727   4.267   2.726  1.00  0.00    -0.009 C 
BRANCH   2   3
ATOM      3  C   UNL     1       3.117   4.625   4.194  1.00  0.00     0.000 C 
ATOM      4  C   UNL     1       2.076   5.512   4.882  1.00  0.00     0.004 C 
ENDBRANCH   2   3
BRANCH   2   5
ATOM      5  C   UNL     1       3.835   4.678   1.695  1.00  0.00    -0.014 C 
ATOM      6  C   UNL     1       3.992   3.645   0.563  1.00  0.00     0.007 C 
ATOM      7  C   UNL     1       3.543   6.053   1.069  1.00  0.00     0.007 C 
ENDBRANCH   2   5
ENDBRANCH   1   2
BRANCH   1   8
ATOM      8  C   UNL     1       0.899   2.464   3.181  1.00  0.00     0.004 C 
BRANCH   8   9
ATOM      9  C   UNL     1      -0.023   1.833   2.080  1.00  0.00    -0.011 C 
ATOM     10  C   UNL     1      -1.040   0.894   2.779  1.00  0.00     0.008 C 
BRANCH   9  11
ATOM     11  C   UNL     1      -0.709   2.941   1.190  1.00  0.00    -0.002 C 
ATOM     12  C   UNL     1      -0.654   4.317   1.895  1.00  0.00     0.005 C 
ATOM     13  C   UNL     1      -0.170   3.216  -0.282  1.00  0.00    -0.026 C 
ATOM     14  C   UNL     1      -0.352   5.360   0.847  1.00  0.00     0.005 C 
ATOM     15  C   UNL     1       0.468   4.631  -0.204  1.00  0.00    -0.001 C 
ATOM     16  C   UNL     1      -1.388   3.229  -1.254  1.00  0.00     0.007 C 
ATOM     17  C   UNL     1       0.879   2.197  -0.791  1.00  0.00     0.012 C 
ATOM     18  C   UNL     1       0.572   5.469  -1.525  1.00  0.00     0.004 C 
ATOM     19  C   UNL     1      -1.079   3.847  -2.618  1.00  0.00     0.005 C 
ATOM     20  C   UNL     1      -0.644   5.327  -2.487  1.00  0.00     0.003 C 
ATOM     21  C   UNL     1       1.898   5.267  -2.278  1.00  0.00     0.085 C 
ATOM     22  C   UNL     1      -0.458   6.097  -3.886  1.00  0.00    -0.000 C 
ATOM     23  C   UNL     1       2.050   6.369  -3.278  1.00  0.00     0.159 C 
ATOM     24  C   UNL     1       0.836   6.929  -3.919  1.00  0.00     0.005 C 
ATOM     25  C   UNL     1      -1.689   7.038  -4.082  1.00  0.00     0.020 C 
ATOM     26  C   UNL     1      -0.368   5.123  -5.095  1.00  0.00     0.017 C 
ATOM     27  O   UNL     1       3.199   6.796  -3.567  1.00  0.00    -0.295 OA
ATOM     28  C   UNL     1       0.915   8.087  -4.603  1.00  0.00     0.055 C 
ATOM     29  C   UNL     1      -1.566   7.955  -5.303  1.00  0.00     0.081 C 
ATOM     30  C   UNL     1      -0.249   8.666  -5.292  1.00  0.00     0.156 C 
ATOM     31  O   UNL     1      -0.123   9.752  -5.917  1.00  0.00    -0.295 OA
ENDBRANCH   9  11
ENDBRANCH   8   9
ENDBRANCH   1   8
TORSDOF 6
ENDMDL
MODEL 3
REMARK VINA RESULT:    -5.070      0.442      1.454
REMARK INTER + INTRA:          -9.505
REMARK INTER:                  -6.971
REMARK INTRA:                  -2.534
REMARK UNBOUND:                -2.658
REMARK SMILES CC[C@H](CC[C@@H](C)[C@H]1CC[C@@H]2[C@H]3CC(=O)C4=CC(=O)CC[C@]4(C)[C@H]3CC[C@@]21C)C(C)C
REMARK SMILES IDX 4 1 3 2 2 3 1 4 29 5 30 6 31 7 5 8 6 9 7 10 8 11 9 12 27 13
REMARK SMILES IDX 10 14 11 15 26 16 28 17 12 18 25 19 24 20 13 21 22 22 14 23
REMARK SMILES IDX 16 24 21 25 23 26 15 27 17 28 20 29 18 30 19 31
REMARK H PARENT
REMARK Flexibility Score: inf
ROOT
ATOM      1  C   UNL     1       2.400   2.290   2.532  1.00  0.00     0.004 C 
ENDROOT
BRANCH   1   2
ATOM      2  C   UNL     1       3.024   3.385   1.620  1.00  0.00    -0.009 C 
BRANCH   2   3
ATOM      3  C   UNL     1       3.048   4.759   2.360  1.00  0.00     0.000 C 
ATOM      4  C   UNL     1       3.431   5.919   1.438  1.00  0.00     0.004 C 
ENDBRANCH   2   3
BRANCH   2   5
ATOM      5  C   UNL     1       4.426   2.994   1.038  1.00  0.00    -0.014 C 
ATOM      6  C   UNL     1       5.472   2.754   2.143  1.00  0.00     0.007 C 
ATOM      7  C   UNL     1       4.342   1.732   0.160  1.00  0.00     0.007 C 
ENDBRANCH   2   5
ENDBRANCH   1   2
BRANCH   1   8
ATOM      8  C   UNL     1       0.941   2.562   2.956  1.00  0.00     0.004 C 
BRANCH   8   9
ATOM      9  C   UNL     1      -0.075   1.965   1.922  1.00  0.00    -0.011 C 
ATOM     10  C   UNL     1      -1.110   1.109   2.697  1.00  0.00     0.008 C 
BRANCH   9  11
ATOM     11  C   UNL     1      -0.737   3.093   1.038  1.00  0.00    -0.002 C 
ATOM     12  C   UNL     1      -0.607   4.472   1.728  1.00  0.00     0.005 C 
ATOM     13  C   UNL     1      -0.225   3.332  -0.450  1.00  0.00    -0.026 C 
ATOM     14  C   UNL     1      -0.289   5.492   0.662  1.00  0.00     0.005 C 
ATOM     15  C   UNL     1       0.473   4.720  -0.402  1.00  0.00    -0.001 C 
ATOM     16  C   UNL     1      -1.467   3.388  -1.390  1.00  0.00     0.007 C 
ATOM     17  C   UNL     1       0.767   2.266  -0.975  1.00  0.00     0.012 C 
ATOM     18  C   UNL     1       0.577   5.541  -1.733  1.00  0.00     0.004 C 
ATOM     19  C   UNL     1      -1.167   3.981  -2.768  1.00  0.00     0.005 C 
ATOM     20  C   UNL     1      -0.668   5.442  -2.663  1.00  0.00     0.003 C 
ATOM     21  C   UNL     1       1.874   5.278  -2.518  1.00  0.00     0.085 C 
ATOM     22  C   UNL     1      -0.486   6.191  -4.073  1.00  0.00    -0.000 C 
ATOM     23  C   UNL     1       2.045   6.363  -3.531  1.00  0.00     0.159 C 
ATOM     24  C   UNL     1       0.840   6.968  -4.147  1.00  0.00     0.005 C 
ATOM     25  C   UNL     1      -1.682   7.181  -4.247  1.00  0.00     0.020 C 
ATOM     26  C   UNL     1      -0.468   5.204  -5.274  1.00  0.00     0.017 C 
ATOM     27  O   UNL     1       3.204   6.740  -3.854  1.00  0.00    -0.295 OA
ATOM     28  C   UNL     1       0.949   8.116  -4.844  1.00  0.00     0.055 C 
ATOM     29  C   UNL     1      -1.552   8.082  -5.480  1.00  0.00     0.081 C 
ATOM     30  C   UNL     1      -0.206   8.737  -5.510  1.00  0.00     0.156 C 
ATOM     31  O   UNL     1      -0.052   9.812  -6.148  1.00  0.00    -0.295 OA
ENDBRANCH   9  11
ENDBRANCH   8   9
ENDBRANCH   1   8
TORSDOF 6
ENDMDL
MODEL 4
REMARK VINA RESULT:    -4.997      1.374      2.292
REMARK INTER + INTRA:          -9.408
REMARK INTER:                  -7.751
REMARK INTRA:                  -1.657
REMARK UNBOUND:                -2.658
REMARK SMILES CC[C@H](CC[C@@H](C)[C@H]1CC[C@@H]2[C@H]3CC(=O)C4=CC(=O)CC[C@]4(C)[C@H]3CC[C@@]21C)C(C)C
REMARK SMILES IDX 4 1 3 2 2 3 1 4 29 5 30 6 31 7 5 8 6 9 7 10 8 11 9 12 27 13
REMARK SMILES IDX 10 14 11 15 26 16 28 17 12 18 25 19 24 20 13 21 22 22 14 23
REMARK SMILES IDX 16 24 21 25 23 26 15 27 17 28 20 29 18 30 19 31
REMARK H PARENT
REMARK Flexibility Score: inf
ROOT
ATOM      1  C   UNL     1       0.760   2.265   4.120  1.00  0.00     0.004 C 
ENDROOT
BRANCH   1   2
ATOM      2  C   UNL     1       0.893   3.556   4.978  1.00  0.00    -0.009 C 
BRANCH   2   3
ATOM      3  C   UNL     1       1.848   4.576   4.280  1.00  0.00     0.000 C 
ATOM      4  C   UNL     1       3.236   4.621   4.926  1.00  0.00     0.004 C 
ENDBRANCH   2   3
BRANCH   2   5
ATOM      5  C   UNL     1      -0.483   4.196   5.368  1.00  0.00    -0.014 C 
ATOM      6  C   UNL     1      -1.491   3.148   5.878  1.00  0.00     0.007 C 
ATOM      7  C   UNL     1      -0.317   5.282   6.446  1.00  0.00     0.007 C 
ENDBRANCH   2   5
ENDBRANCH   1   2
BRANCH   1   8
ATOM      8  C   UNL     1       1.028   2.466   2.613  1.00  0.00     0.004 C 
BRANCH   8   9
ATOM      9  C   UNL     1      -0.175   1.955   1.746  1.00  0.00    -0.011 C 
ATOM     10  C   UNL     1      -1.202   1.280   2.692  1.00  0.00     0.008 C 
BRANCH   9  11
ATOM     11  C   UNL     1      -0.798   3.114   0.875  1.00  0.00    -0.002 C 
ATOM     12  C   UNL     1      -0.621   4.481   1.579  1.00  0.00     0.005 C 
ATOM     13  C   UNL     1      -0.279   3.351  -0.611  1.00  0.00    -0.026 C 
ATOM     14  C   UNL     1      -0.268   5.500   0.524  1.00  0.00     0.005 C 
ATOM     15  C   UNL     1       0.466   4.714  -0.550  1.00  0.00    -0.001 C 
ATOM     16  C   UNL     1      -1.518   3.459  -1.550  1.00  0.00     0.007 C 
ATOM     17  C   UNL     1       0.675   2.257  -1.148  1.00  0.00     0.012 C 
ATOM     18  C   UNL     1       0.598   5.545  -1.872  1.00  0.00     0.004 C 
ATOM     19  C   UNL     1      -1.199   4.056  -2.921  1.00  0.00     0.005 C 
ATOM     20  C   UNL     1      -0.651   5.498  -2.802  1.00  0.00     0.003 C 
ATOM     21  C   UNL     1       1.884   5.245  -2.661  1.00  0.00     0.085 C 
ATOM     22  C   UNL     1      -0.444   6.255  -4.204  1.00  0.00    -0.000 C 
ATOM     23  C   UNL     1       2.092   6.335  -3.663  1.00  0.00     0.159 C 
ATOM     24  C   UNL     1       0.908   6.986  -4.272  1.00  0.00     0.005 C 
ATOM     25  C   UNL     1      -1.605   7.287  -4.367  1.00  0.00     0.020 C 
ATOM     26  C   UNL     1      -0.460   5.280  -5.416  1.00  0.00     0.017 C 
ATOM     27  O   UNL     1       3.263   6.674  -3.983  1.00  0.00    -0.295 OA
ATOM     28  C   UNL     1       1.056   8.138  -4.957  1.00  0.00     0.055 C 
ATOM     29  C   UNL     1      -1.445   8.195  -5.590  1.00  0.00     0.081 C 
ATOM     30  C   UNL     1      -0.078   8.805  -5.615  1.00  0.00     0.156 C 
ATOM     31  O   UNL     1       0.113   9.880  -6.242  1.00  0.00    -0.295 OA
ENDBRANCH   9  11
ENDBRANCH   8   9
ENDBRANCH   1   8
TORSDOF 6
ENDMDL
MODEL 5
REMARK VINA RESULT:    -4.871      1.739      3.471
REMARK INTER + INTRA:          -9.237
REMARK INTER:                  -7.461
REMARK INTRA:                  -1.776
REMARK UNBOUND:                -2.658
REMARK SMILES CC[C@H](CC[C@@H](C)[C@H]1CC[C@@H]2[C@H]3CC(=O)C4=CC(=O)CC[C@]4(C)[C@H]3CC[C@@]21C)C(C)C
REMARK SMILES IDX 4 1 3 2 2 3 1 4 29 5 30 6 31 7 5 8 6 9 7 10 8 11 9 12 27 13
REMARK SMILES IDX 10 14 11 15 26 16 28 17 12 18 25 19 24 20 13 21 22 22 14 23
REMARK SMILES IDX 16 24 21 25 23 26 15 27 17 28 20 29 18 30 19 31
REMARK H PARENT
REMARK Flexibility Score: inf
ROOT
ATOM      1  C   UNL     1      -0.494   1.538   4.803  1.00  0.00     0.004 C 
ENDROOT
BRANCH   1   2
ATOM      2  C   UNL     1      -1.567   2.349   5.584  1.00  0.00    -0.009 C 
BRANCH   2   3
ATOM      3  C   UNL     1      -1.244   3.875   5.524  1.00  0.00     0.000 C 
ATOM      4  C   UNL     1      -0.706   4.417   6.851  1.00  0.00     0.004 C 
ENDBRANCH   2   3
BRANCH   2   5
ATOM      5  C   UNL     1      -3.038   2.031   5.145  1.00  0.00    -0.014 C 
ATOM      6  C   UNL     1      -3.455   2.814   3.886  1.00  0.00     0.007 C 
ATOM      7  C   UNL     1      -3.236   0.528   4.876  1.00  0.00     0.007 C 
ENDBRANCH   2   5
ENDBRANCH   1   2
BRANCH   1   8
ATOM      8  C   UNL     1       0.344   2.372   3.811  1.00  0.00     0.004 C 
BRANCH   8   9
ATOM      9  C   UNL     1       0.163   1.860   2.339  1.00  0.00    -0.011 C 
ATOM     10  C   UNL     1      -0.561   0.490   2.388  1.00  0.00     0.008 C 
BRANCH   9  11
ATOM     11  C   UNL     1      -0.578   2.925   1.440  1.00  0.00    -0.002 C 
ATOM     12  C   UNL     1      -0.587   4.309   2.131  1.00  0.00     0.005 C 
ATOM     13  C   UNL     1      -0.058   3.210  -0.037  1.00  0.00    -0.026 C 
ATOM     14  C   UNL     1      -0.338   5.355   1.071  1.00  0.00     0.005 C 
ATOM     15  C   UNL     1       0.512   4.654   0.024  1.00  0.00    -0.001 C 
ATOM     16  C   UNL     1      -1.279   3.154  -1.004  1.00  0.00     0.007 C 
ATOM     17  C   UNL     1       1.037   2.237  -0.539  1.00  0.00     0.012 C 
ATOM     18  C   UNL     1       0.571   5.482  -1.306  1.00  0.00     0.004 C 
ATOM     19  C   UNL     1      -1.004   3.772  -2.375  1.00  0.00     0.005 C 
ATOM     20  C   UNL     1      -0.640   5.272  -2.262  1.00  0.00     0.003 C 
ATOM     21  C   UNL     1       1.903   5.336  -2.062  1.00  0.00     0.085 C 
ATOM     22  C   UNL     1      -0.496   6.035  -3.669  1.00  0.00    -0.000 C 
ATOM     23  C   UNL     1       1.998   6.433  -3.074  1.00  0.00     0.159 C 
ATOM     24  C   UNL     1       0.757   6.928  -3.716  1.00  0.00     0.005 C 
ATOM     25  C   UNL     1      -1.771   6.914  -3.870  1.00  0.00     0.020 C 
ATOM     26  C   UNL     1      -0.363   5.054  -4.868  1.00  0.00     0.017 C 
ATOM     27  O   UNL     1       3.125   6.912  -3.372  1.00  0.00    -0.295 OA
ATOM     28  C   UNL     1       0.777   8.082  -4.412  1.00  0.00     0.055 C 
ATOM     29  C   UNL     1      -1.696   7.824  -5.101  1.00  0.00     0.081 C 
ATOM     30  C   UNL     1      -0.415   8.597  -5.103  1.00  0.00     0.156 C 
ATOM     31  O   UNL     1      -0.343   9.681  -5.740  1.00  0.00    -0.295 OA
ENDBRANCH   9  11
ENDBRANCH   8   9
ENDBRANCH   1   8
TORSDOF 6
ENDMDL
MODEL 6
REMARK VINA RESULT:    -4.737      1.756      3.275
REMARK INTER + INTRA:          -9.056
REMARK INTER:                  -6.578
REMARK INTRA:                  -2.479
REMARK UNBOUND:                -2.658
REMARK SMILES CC[C@H](CC[C@@H](C)[C@H]1CC[C@@H]2[C@H]3CC(=O)C4=CC(=O)CC[C@]4(C)[C@H]3CC[C@@]21C)C(C)C
REMARK SMILES IDX 4 1 3 2 2 3 1 4 29 5 30 6 31 7 5 8 6 9 7 10 8 11 9 12 27 13
REMARK SMILES IDX 10 14 11 15 26 16 28 17 12 18 25 19 24 20 13 21 22 22 14 23
REMARK SMILES IDX 16 24 21 25 23 26 15 27 17 28 20 29 18 30 19 31
REMARK H PARENT
REMARK Flexibility Score: inf
ROOT
ATOM      1  C   UNL     1       2.092   2.528   0.519  1.00  0.00     0.004 C 
ENDROOT
BRANCH   1   2
ATOM      2  C   UNL     1       1.626   3.935   0.993  1.00  0.00    -0.009 C 
BRANCH   2   3
ATOM      3  C   UNL     1       2.288   5.048   0.122  1.00  0.00     0.000 C 
ATOM      4  C   UNL     1       3.326   5.864   0.897  1.00  0.00     0.004 C 
ENDBRANCH   2   3
BRANCH   2   5
ATOM      5  C   UNL     1       0.068   4.086   1.073  1.00  0.00    -0.014 C 
ATOM      6  C   UNL     1      -0.459   3.952   2.515  1.00  0.00     0.007 C 
ATOM      7  C   UNL     1      -0.400   5.437   0.503  1.00  0.00     0.007 C 
ENDBRANCH   2   5
ENDBRANCH   1   2
BRANCH   1   8
ATOM      8  C   UNL     1       1.065   1.769  -0.347  1.00  0.00     0.004 C 
BRANCH   8   9
ATOM      9  C   UNL     1       1.610   1.523  -1.796  1.00  0.00    -0.011 C 
ATOM     10  C   UNL     1       1.686  -0.007  -2.033  1.00  0.00     0.008 C 
BRANCH   9  11
ATOM     11  C   UNL     1       0.745   2.279  -2.880  1.00  0.00    -0.002 C 
ATOM     12  C   UNL     1      -0.603   2.740  -2.274  1.00  0.00     0.005 C 
ATOM     13  C   UNL     1       1.333   3.571  -3.599  1.00  0.00    -0.026 C 
ATOM     14  C   UNL     1      -0.901   4.119  -2.813  1.00  0.00     0.005 C 
ATOM     15  C   UNL     1       0.462   4.743  -3.065  1.00  0.00    -0.001 C 
ATOM     16  C   UNL     1       1.132   3.409  -5.135  1.00  0.00     0.007 C 
ATOM     17  C   UNL     1       2.826   3.854  -3.305  1.00  0.00     0.012 C 
ATOM     18  C   UNL     1       0.341   6.034  -3.946  1.00  0.00     0.004 C 
ATOM     19  C   UNL     1       1.298   4.713  -5.917  1.00  0.00     0.005 C 
ATOM     20  C   UNL     1       0.261   5.775  -5.479  1.00  0.00     0.003 C 
ATOM     21  C   UNL     1       1.399   7.101  -3.620  1.00  0.00     0.085 C 
ATOM     22  C   UNL     1       0.263   7.117  -6.364  1.00  0.00    -0.000 C 
ATOM     23  C   UNL     1       0.966   8.400  -4.221  1.00  0.00     0.159 C 
ATOM     24  C   UNL     1       0.203   8.384  -5.492  1.00  0.00     0.005 C 
ATOM     25  C   UNL     1      -0.984   7.071  -7.304  1.00  0.00     0.020 C 
ATOM     26  C   UNL     1       1.546   7.258  -7.231  1.00  0.00     0.017 C 
ATOM     27  O   UNL     1       1.262   9.483  -3.650  1.00  0.00    -0.295 OA
ATOM     28  C   UNL     1      -0.430   9.499  -5.907  1.00  0.00     0.055 C 
ATOM     29  C   UNL     1      -1.198   8.366  -8.095  1.00  0.00     0.081 C 
ATOM     30  C   UNL     1      -1.166   9.550  -7.179  1.00  0.00     0.156 C 
ATOM     31  O   UNL     1      -1.741  10.616  -7.521  1.00  0.00    -0.295 OA
ENDBRANCH   9  11
ENDBRANCH   8   9
ENDBRANCH   1   8
TORSDOF 6
ENDMDL
MODEL 7
REMARK VINA RESULT:    -4.616      3.476      7.955
REMARK INTER + INTRA:          -8.893
REMARK INTER:                  -6.235
REMARK INTRA:                  -2.657
REMARK UNBOUND:                -2.658
REMARK SMILES CC[C@H](CC[C@@H](C)[C@H]1CC[C@@H]2[C@H]3CC(=O)C4=CC(=O)CC[C@]4(C)[C@H]3CC[C@@]21C)C(C)C
REMARK SMILES IDX 4 1 3 2 2 3 1 4 29 5 30 6 31 7 5 8 6 9 7 10 8 11 9 12 27 13
REMARK SMILES IDX 10 14 11 15 26 16 28 17 12 18 25 19 24 20 13 21 22 22 14 23
REMARK SMILES IDX 16 24 21 25 23 26 15 27 17 28 20 29 18 30 19 31
REMARK H PARENT
REMARK Flexibility Score: inf
ROOT
ATOM      1  C   UNL     1       1.623   3.494  -4.468  1.00  0.00     0.004 C 
ENDROOT
BRANCH   1   2
ATOM      2  C   UNL     1       1.074   2.058  -4.707  1.00  0.00    -0.009 C 
BRANCH   2   3
ATOM      3  C   UNL     1       1.080   1.245  -3.374  1.00  0.00     0.000 C 
ATOM      4  C   UNL     1       2.350   1.472  -2.551  1.00  0.00     0.004 C 
ENDBRANCH   2   3
BRANCH   2   5
ATOM      5  C   UNL     1      -0.323   2.030  -5.419  1.00  0.00    -0.014 C 
ATOM      6  C   UNL     1      -0.240   1.460  -6.848  1.00  0.00     0.007 C 
ATOM      7  C   UNL     1      -1.348   1.204  -4.620  1.00  0.00     0.007 C 
ENDBRANCH   2   5
ENDBRANCH   1   2
BRANCH   1   8
ATOM      8  C   UNL     1       0.578   4.617  -4.639  1.00  0.00     0.004 C 
BRANCH   8   9
ATOM      9  C   UNL     1       0.706   5.693  -3.505  1.00  0.00    -0.011 C 
ATOM     10  C   UNL     1       0.504   7.093  -4.140  1.00  0.00     0.008 C 
BRANCH   9  11
ATOM     11  C   UNL     1      -0.286   5.402  -2.312  1.00  0.00    -0.002 C 
ATOM     12  C   UNL     1      -1.422   4.455  -2.767  1.00  0.00     0.005 C 
ATOM     13  C   UNL     1       0.267   4.757  -0.966  1.00  0.00    -0.026 C 
ATOM     14  C   UNL     1      -1.685   3.479  -1.646  1.00  0.00     0.005 C 
ATOM     15  C   UNL     1      -0.349   3.330  -0.937  1.00  0.00    -0.001 C 
ATOM     16  C   UNL     1      -0.267   5.597   0.233  1.00  0.00     0.007 C 
ATOM     17  C   UNL     1       1.809   4.662  -0.877  1.00  0.00     0.012 C 
ATOM     18  C   UNL     1      -0.520   2.628   0.454  1.00  0.00     0.004 C 
ATOM     19  C   UNL     1      -0.137   4.891   1.584  1.00  0.00     0.005 C 
ATOM     20  C   UNL     1      -0.945   3.572   1.617  1.00  0.00     0.003 C 
ATOM     21  C   UNL     1       0.686   1.763   0.858  1.00  0.00     0.085 C 
ATOM     22  C   UNL     1      -0.993   2.851   3.053  1.00  0.00    -0.000 C 
ATOM     23  C   UNL     1       0.271   0.859   1.974  1.00  0.00     0.159 C 
ATOM     24  C   UNL     1      -0.739   1.337   2.948  1.00  0.00     0.005 C 
ATOM     25  C   UNL     1      -2.407   3.102   3.667  1.00  0.00     0.020 C 
ATOM     26  C   UNL     1       0.087   3.397   4.029  1.00  0.00     0.017 C 
ATOM     27  O   UNL     1       0.789  -0.285   2.078  1.00  0.00    -0.295 OA
ATOM     28  C   UNL     1      -1.328   0.462   3.786  1.00  0.00     0.055 C 
ATOM     29  C   UNL     1      -2.649   2.335   4.971  1.00  0.00     0.081 C 
ATOM     30  C   UNL     1      -2.306   0.888   4.799  1.00  0.00     0.156 C 
ATOM     31  O   UNL     1      -2.829   0.030   5.558  1.00  0.00    -0.295 OA
ENDBRANCH   9  11
ENDBRANCH   8   9
ENDBRANCH   1   8
TORSDOF 6
ENDMDL
MODEL 8
REMARK VINA RESULT:    -4.419     10.534     13.675
REMARK INTER + INTRA:          -8.627
REMARK INTER:                  -7.078
REMARK INTRA:                  -1.549
REMARK UNBOUND:                -2.658
REMARK SMILES CC[C@H](CC[C@@H](C)[C@H]1CC[C@@H]2[C@H]3CC(=O)C4=CC(=O)CC[C@]4(C)[C@H]3CC[C@@]21C)C(C)C
REMARK SMILES IDX 4 1 3 2 2 3 1 4 29 5 30 6 31 7 5 8 6 9 7 10 8 11 9 12 27 13
REMARK SMILES IDX 10 14 11 15 26 16 28 17 12 18 25 19 24 20 13 21 22 22 14 23
REMARK SMILES IDX 16 24 21 25 23 26 15 27 17 28 20 29 18 30 19 31
REMARK H PARENT
REMARK Flexibility Score: inf
ROOT
ATOM      1  C   UNL     1      -0.791  15.766   0.251  1.00  0.00     0.004 C 
ENDROOT
BRANCH   1   2
ATOM      2  C   UNL     1      -1.897  14.750  -0.157  1.00  0.00    -0.009 C 
BRANCH   2   3
ATOM      3  C   UNL     1      -2.119  14.781  -1.701  1.00  0.00     0.000 C 
ATOM      4  C   UNL     1      -1.296  15.869  -2.395  1.00  0.00     0.004 C 
ENDBRANCH   2   3
BRANCH   2   5
ATOM      5  C   UNL     1      -1.648  13.300   0.384  1.00  0.00    -0.014 C 
ATOM      6  C   UNL     1      -2.551  12.960   1.584  1.00  0.00     0.007 C 
ATOM      7  C   UNL     1      -1.869  12.242  -0.713  1.00  0.00     0.007 C 
ENDBRANCH   2   5
ENDBRANCH   1   2
BRANCH   1   8
ATOM      8  C   UNL     1      -1.005  16.430   1.628  1.00  0.00     0.004 C 
BRANCH   8   9
ATOM      9  C   UNL     1       0.020  15.894   2.686  1.00  0.00    -0.011 C 
ATOM     10  C   UNL     1       1.307  16.755   2.594  1.00  0.00     0.008 C 
BRANCH   9  11
ATOM     11  C   UNL     1      -0.604  15.861   4.136  1.00  0.00    -0.002 C 
ATOM     12  C   UNL     1      -1.938  16.644   4.172  1.00  0.00     0.005 C 
ATOM     13  C   UNL     1      -0.933  14.462   4.821  1.00  0.00    -0.026 C 
ATOM     14  C   UNL     1      -2.903  15.869   5.037  1.00  0.00     0.005 C 
ATOM     15  C   UNL     1      -2.485  14.416   4.884  1.00  0.00    -0.001 C 
ATOM     16  C   UNL     1      -0.338  14.472   6.261  1.00  0.00     0.007 C 
ATOM     17  C   UNL     1      -0.404  13.224   4.057  1.00  0.00     0.012 C 
ATOM     18  C   UNL     1      -3.154  13.515   5.978  1.00  0.00     0.004 C 
ATOM     19  C   UNL     1      -0.891  13.367   7.162  1.00  0.00     0.005 C 
ATOM     20  C   UNL     1      -2.421  13.499   7.351  1.00  0.00     0.003 C 
ATOM     21  C   UNL     1      -3.455  12.085   5.496  1.00  0.00     0.085 C 
ATOM     22  C   UNL     1      -3.056  12.473   8.414  1.00  0.00    -0.000 C 
ATOM     23  C   UNL     1      -4.414  11.452   6.453  1.00  0.00     0.159 C 
ATOM     24  C   UNL     1      -4.346  11.822   7.887  1.00  0.00     0.005 C 
ATOM     25  C   UNL     1      -3.369  13.271   9.720  1.00  0.00     0.020 C 
ATOM     26  C   UNL     1      -2.095  11.299   8.755  1.00  0.00     0.017 C 
ATOM     27  O   UNL     1      -5.253  10.612   6.033  1.00  0.00    -0.295 OA
ATOM     28  C   UNL     1      -5.357  11.486   8.713  1.00  0.00     0.055 C 
ATOM     29  C   UNL     1      -4.128  12.449  10.767  1.00  0.00     0.081 C 
ATOM     30  C   UNL     1      -5.323  11.792  10.151  1.00  0.00     0.156 C 
ATOM     31  O   UNL     1      -6.294  11.458  10.880  1.00  0.00    -0.295 OA
ENDBRANCH   9  11
ENDBRANCH   8   9
ENDBRANCH   1   8
TORSDOF 6
ENDMDL
MODEL 9
REMARK VINA RESULT:    -4.305     10.601     13.233
REMARK INTER + INTRA:          -8.473
REMARK INTER:                  -6.001
REMARK INTRA:                  -2.472
REMARK UNBOUND:                -2.658
REMARK SMILES CC[C@H](CC[C@@H](C)[C@H]1CC[C@@H]2[C@H]3CC(=O)C4=CC(=O)CC[C@]4(C)[C@H]3CC[C@@]21C)C(C)C
REMARK SMILES IDX 4 1 3 2 2 3 1 4 29 5 30 6 31 7 5 8 6 9 7 10 8 11 9 12 27 13
REMARK SMILES IDX 10 14 11 15 26 16 28 17 12 18 25 19 24 20 13 21 22 22 14 23
REMARK SMILES IDX 16 24 21 25 23 26 15 27 17 28 20 29 18 30 19 31
REMARK H PARENT
REMARK Flexibility Score: inf
ROOT
ATOM      1  C   UNL     1       1.851  16.479   3.267  1.00  0.00     0.004 C 
ENDROOT
BRANCH   1   2
ATOM      2  C   UNL     1       1.969  15.372   4.354  1.00  0.00    -0.009 C 
BRANCH   2   3
ATOM      3  C   UNL     1       2.998  14.284   3.913  1.00  0.00     0.000 C 
ATOM      4  C   UNL     1       2.324  13.018   3.378  1.00  0.00     0.004 C 
ENDBRANCH   2   3
BRANCH   2   5
ATOM      5  C   UNL     1       2.266  15.930   5.789  1.00  0.00    -0.014 C 
ATOM      6  C   UNL     1       2.102  17.460   5.867  1.00  0.00     0.007 C 
ATOM      7  C   UNL     1       1.354  15.284   6.847  1.00  0.00     0.007 C 
ENDBRANCH   2   5
ENDBRANCH   1   2
BRANCH   1   8
ATOM      8  C   UNL     1       0.605  16.361   2.364  1.00  0.00     0.004 C 
BRANCH   8   9
ATOM      9  C   UNL     1      -0.699  16.769   3.134  1.00  0.00    -0.011 C 
ATOM     10  C   UNL     1      -1.344  17.970   2.395  1.00  0.00     0.008 C 
BRANCH   9  11
ATOM     11  C   UNL     1      -1.680  15.544   3.306  1.00  0.00    -0.002 C 
ATOM     12  C   UNL     1      -1.066  14.264   2.691  1.00  0.00     0.005 C 
ATOM     13  C   UNL     1      -2.153  15.111   4.763  1.00  0.00    -0.026 C 
ATOM     14  C   UNL     1      -1.385  13.112   3.614  1.00  0.00     0.005 C 
ATOM     15  C   UNL     1      -1.473  13.733   4.998  1.00  0.00    -0.001 C 
ATOM     16  C   UNL     1      -3.703  14.949   4.745  1.00  0.00     0.007 C 
ATOM     17  C   UNL     1      -1.754  16.090   5.894  1.00  0.00     0.012 C 
ATOM     18  C   UNL     1      -2.136  12.747   6.021  1.00  0.00     0.004 C 
ATOM     19  C   UNL     1      -4.253  14.181   5.948  1.00  0.00     0.005 C 
ATOM     20  C   UNL     1      -3.693  12.740   6.009  1.00  0.00     0.003 C 
ATOM     21  C   UNL     1      -1.595  12.893   7.453  1.00  0.00     0.085 C 
ATOM     22  C   UNL     1      -4.346  11.815   7.149  1.00  0.00    -0.000 C 
ATOM     23  C   UNL     1      -1.995  11.685   8.238  1.00  0.00     0.159 C 
ATOM     24  C   UNL     1      -3.282  11.020   7.927  1.00  0.00     0.005 C 
ATOM     25  C   UNL     1      -5.333  10.824   6.454  1.00  0.00     0.020 C 
ATOM     26  C   UNL     1      -5.123  12.640   8.214  1.00  0.00     0.017 C 
ATOM     27  O   UNL     1      -1.242  11.257   9.154  1.00  0.00    -0.295 OA
ATOM     28  C   UNL     1      -3.537   9.791   8.418  1.00  0.00     0.055 C 
ATOM     29  C   UNL     1      -5.911   9.771   7.406  1.00  0.00     0.081 C 
ATOM     30  C   UNL     1      -4.814   9.102   8.174  1.00  0.00     0.156 C 
ATOM     31  O   UNL     1      -5.002   7.954   8.654  1.00  0.00    -0.295 OA
ENDBRANCH   9  11
ENDBRANCH   8   9
ENDBRANCH   1   8
TORSDOF 6
ENDMDL
