MODEL 1
REMARK VINA RESULT:    -1.808      0.000      0.000
REMARK INTER + INTRA:          -3.852
REMARK INTER:                  -2.653
REMARK INTRA:                  -1.199
REMARK UNBOUND:                -1.199
REMARK SMILES O=c1c(O[C@@H]2O[C@H](CO)[C@H](O)[C@H](O)[C@@H]2O)c(-c2ccc(O)c(O)c2)oc2cc(O)cc(O)c12
REMARK SMILES IDX 4 1 3 2 16 3 25 4 2 5 26 6 1 7 33 8 27 9 31 10 28 11 30 12
REMARK SMILES IDX 17 13 18 14 19 15 20 16 24 17 22 18 21 19 23 21 32 23 29 25
REMARK SMILES IDX 5 27 14 28 6 29 12 30 7 31 10 32 15 33 13 35 8 37 9 38 11 40
REMARK H PARENT 21 20 23 22 32 24 29 26 15 34 13 36 9 39 11 41
REMARK Flexibility Score: inf
ROOT
ATOM      1  O   UNL     1      44.675  45.871 103.289  1.00  0.00    -0.454 OA
ENDROOT
BRANCH   1   2
ATOM      2  C   UNL     1      46.049  45.976 102.944  1.00  0.00     0.214 A 
ATOM      3  C   UNL     1      46.517  45.290 101.809  1.00  0.00     0.180 A 
ATOM      4  O   UNL     1      46.766  46.011 100.719  1.00  0.00    -0.452 OA
ATOM      5  C   UNL     1      46.777  47.174 103.159  1.00  0.00     0.239 A 
ATOM      6  C   UNL     1      46.744  47.336 100.776  1.00  0.00     0.146 A 
ATOM      7  O   UNL     1      47.610  47.282 104.125  1.00  0.00    -0.285 OA
ATOM      8  C   UNL     1      46.939  47.992 102.009  1.00  0.00     0.111 A 
ATOM      9  C   UNL     1      46.445  48.063  99.637  1.00  0.00     0.094 A 
ATOM     10  C   UNL     1      46.988  49.405 102.047  1.00  0.00     0.134 A 
ATOM     11  C   UNL     1      46.260  49.442  99.734  1.00  0.00     0.123 A 
ATOM     12  C   UNL     1      46.616  50.117 100.914  1.00  0.00     0.093 A 
BRANCH   3  13
ATOM     13  C   UNL     1      46.586  43.791 101.729  1.00  0.00     0.025 A 
ATOM     14  C   UNL     1      45.631  43.127 100.969  1.00  0.00     0.016 A 
ATOM     15  C   UNL     1      45.574  41.731 100.970  1.00  0.00     0.051 A 
ATOM     16  C   UNL     1      46.335  41.010 101.887  1.00  0.00     0.157 A 
ATOM     17  C   UNL     1      47.471  43.057 102.550  1.00  0.00     0.062 A 
ATOM     18  C   UNL     1      47.306  41.666 102.678  1.00  0.00     0.158 A 
BRANCH  16  19
ATOM     19  O   UNL     1      45.984  39.691 102.163  1.00  0.00    -0.504 OA
ATOM     20  H   UNL     1      45.124  39.280 101.788  1.00  0.00     0.293 HD
ENDBRANCH  16  19
BRANCH  18  21
ATOM     21  O   UNL     1      48.021  40.919 103.626  1.00  0.00    -0.504 OA
ATOM     22  H   UNL     1      48.810  41.322 104.137  1.00  0.00     0.293 HD
ENDBRANCH  18  21
ENDBRANCH   3  13
BRANCH  10  23
ATOM     23  O   UNL     1      47.355  50.082 103.206  1.00  0.00    -0.507 OA
ATOM     24  H   UNL     1      47.513  49.566 104.074  1.00  0.00     0.293 HD
ENDBRANCH  10  23
BRANCH  11  25
ATOM     25  O   UNL     1      45.579  50.125  98.718  1.00  0.00    -0.508 OA
ATOM     26  H   UNL     1      45.557  49.666  97.795  1.00  0.00     0.293 HD
ENDBRANCH  11  25
ENDBRANCH   1   2
BRANCH   1  27
ATOM     27  C   UNL     1      43.673  45.986 102.246  1.00  0.00     0.339 C 
ATOM     28  C   UNL     1      42.156  45.650 102.610  1.00  0.00     0.214 C 
ATOM     29  O   UNL     1      43.873  47.246 101.551  1.00  0.00    -0.332 OA
ATOM     30  C   UNL     1      41.246  46.475 101.669  1.00  0.00     0.180 C 
ATOM     31  C   UNL     1      43.033  48.286 102.036  1.00  0.00     0.179 C 
ATOM     32  C   UNL     1      41.526  47.998 101.791  1.00  0.00     0.177 C 
BRANCH  28  33
ATOM     33  O   UNL     1      41.827  45.985 103.924  1.00  0.00    -0.384 OA
ATOM     34  H   UNL     1      41.028  45.413 104.194  1.00  0.00     0.211 HD
ENDBRANCH  28  33
BRANCH  30  35
ATOM     35  O   UNL     1      39.879  46.175 101.896  1.00  0.00    -0.387 OA
ATOM     36  H   UNL     1      39.384  47.001 101.677  1.00  0.00     0.211 HD
ENDBRANCH  30  35
BRANCH  31  37
ATOM     37  C   UNL     1      43.459  48.739 103.454  1.00  0.00     0.191 C 
BRANCH  37  38
ATOM     38  O   UNL     1      44.177  49.940 103.394  1.00  0.00    -0.394 OA
ATOM     39  H   UNL     1      45.054  49.818 103.848  1.00  0.00     0.210 HD
ENDBRANCH  37  38
ENDBRANCH  31  37
BRANCH  32  40
ATOM     40  O   UNL     1      40.691  48.574 102.769  1.00  0.00    -0.387 OA
ATOM     41  H   UNL     1      40.873  48.123 103.647  1.00  0.00     0.211 HD
ENDBRANCH  32  40
ENDBRANCH   1  27
TORSDOF 12
ENDMDL
MODEL 2
REMARK VINA RESULT:    -0.389      7.910     13.143
REMARK INTER + INTRA:          -1.769
REMARK INTER:                  -2.579
REMARK INTRA:                   0.810
REMARK UNBOUND:                -1.199
REMARK SMILES O=c1c(O[C@@H]2O[C@H](CO)[C@H](O)[C@H](O)[C@@H]2O)c(-c2ccc(O)c(O)c2)oc2cc(O)cc(O)c12
REMARK SMILES IDX 4 1 3 2 16 3 25 4 2 5 26 6 1 7 33 8 27 9 31 10 28 11 30 12
REMARK SMILES IDX 17 13 18 14 19 15 20 16 24 17 22 18 21 19 23 21 32 23 29 25
REMARK SMILES IDX 5 27 14 28 6 29 12 30 7 31 10 32 15 33 13 35 8 37 9 38 11 40
REMARK H PARENT 21 20 23 22 32 24 29 26 15 34 13 36 9 39 11 41
REMARK Flexibility Score: inf
ROOT
ATOM      1  O   UNL     1      45.071  34.268 100.366  1.00  0.00    -0.454 OA
ENDROOT
BRANCH   1   2
ATOM      2  C   UNL     1      46.388  34.789 100.253  1.00  0.00     0.214 A 
ATOM      3  C   UNL     1      46.682  35.663  99.192  1.00  0.00     0.180 A 
ATOM      4  O   UNL     1      46.799  36.957  99.481  1.00  0.00    -0.452 OA
ATOM      5  C   UNL     1      47.167  35.089 101.400  1.00  0.00     0.239 A 
ATOM      6  C   UNL     1      46.815  37.359 100.745  1.00  0.00     0.146 A 
ATOM      7  O   UNL     1      48.124  34.327 101.773  1.00  0.00    -0.285 OA
ATOM      8  C   UNL     1      47.190  36.462 101.766  1.00  0.00     0.111 A 
ATOM      9  C   UNL     1      46.383  38.635 101.059  1.00  0.00     0.094 A 
ATOM     10  C   UNL     1      47.277  36.921 103.101  1.00  0.00     0.134 A 
ATOM     11  C   UNL     1      46.245  39.000 102.398  1.00  0.00     0.123 A 
ATOM     12  C   UNL     1      46.773  38.178 103.409  1.00  0.00     0.093 A 
BRANCH   3  13
ATOM     13  C   UNL     1      46.705  35.228  97.754  1.00  0.00     0.025 A 
ATOM     14  C   UNL     1      45.865  35.875  96.856  1.00  0.00     0.016 A 
ATOM     15  C   UNL     1      45.754  35.419  95.540  1.00  0.00     0.051 A 
ATOM     16  C   UNL     1      46.322  34.199  95.181  1.00  0.00     0.157 A 
ATOM     17  C   UNL     1      47.410  34.071  97.354  1.00  0.00     0.062 A 
ATOM     18  C   UNL     1      47.172  33.518  96.082  1.00  0.00     0.158 A 
BRANCH  16  19
ATOM     19  O   UNL     1      45.878  33.565  94.024  1.00  0.00    -0.504 OA
ATOM     20  H   UNL     1      45.399  32.660  94.064  1.00  0.00     0.293 HD
ENDBRANCH  16  19
BRANCH  18  21
ATOM     21  O   UNL     1      47.688  32.268  95.709  1.00  0.00    -0.504 OA
ATOM     22  H   UNL     1      48.326  32.171  94.915  1.00  0.00     0.293 HD
ENDBRANCH  18  21
ENDBRANCH   3  13
BRANCH  10  23
ATOM     23  O   UNL     1      47.813  36.121 104.104  1.00  0.00    -0.507 OA
ATOM     24  H   UNL     1      47.435  35.186 104.273  1.00  0.00     0.293 HD
ENDBRANCH  10  23
BRANCH  11  25
ATOM     25  O   UNL     1      45.449  40.101 102.741  1.00  0.00    -0.508 OA
ATOM     26  H   UNL     1      45.304  40.263 103.749  1.00  0.00     0.293 HD
ENDBRANCH  11  25
ENDBRANCH   1   2
BRANCH   1  27
ATOM     27  C   UNL     1      44.787  32.944  99.849  1.00  0.00     0.339 C 
ATOM     28  C   UNL     1      45.955  32.154  99.099  1.00  0.00     0.214 C 
ATOM     29  O   UNL     1      44.096  32.185 100.877  1.00  0.00    -0.332 OA
ATOM     30  C   UNL     1      45.698  30.639  99.279  1.00  0.00     0.180 C 
ATOM     31  C   UNL     1      44.969  31.358 101.637  1.00  0.00     0.179 C 
ATOM     32  C   UNL     1      45.630  30.243 100.779  1.00  0.00     0.177 C 
BRANCH  28  33
ATOM     33  O   UNL     1      47.220  32.438  99.616  1.00  0.00    -0.384 OA
ATOM     34  H   UNL     1      47.663  31.549  99.842  1.00  0.00     0.211 HD
ENDBRANCH  28  33
BRANCH  30  35
ATOM     35  O   UNL     1      46.667  29.875  98.581  1.00  0.00    -0.387 OA
ATOM     36  H   UNL     1      46.214  29.035  98.329  1.00  0.00     0.211 HD
ENDBRANCH  30  35
BRANCH  31  37
ATOM     37  C   UNL     1      45.886  32.201 102.556  1.00  0.00     0.191 C 
BRANCH  37  38
ATOM     38  O   UNL     1      46.195  31.498 103.726  1.00  0.00    -0.394 OA
ATOM     39  H   UNL     1      45.353  31.156 104.131  1.00  0.00     0.210 HD
ENDBRANCH  37  38
ENDBRANCH  31  37
BRANCH  32  40
ATOM     40  O   UNL     1      46.908  29.875 101.249  1.00  0.00    -0.387 OA
ATOM     41  H   UNL     1      47.516  29.764 100.459  1.00  0.00     0.211 HD
ENDBRANCH  32  40
ENDBRANCH   1  27
TORSDOF 12
ENDMDL
MODEL 3
REMARK VINA RESULT:    -0.104      1.621      6.228
REMARK INTER + INTRA:          -1.351
REMARK INTER:                  -1.554
REMARK INTRA:                   0.203
REMARK UNBOUND:                -1.199
REMARK SMILES O=c1c(O[C@@H]2O[C@H](CO)[C@H](O)[C@H](O)[C@@H]2O)c(-c2ccc(O)c(O)c2)oc2cc(O)cc(O)c12
REMARK SMILES IDX 4 1 3 2 16 3 25 4 2 5 26 6 1 7 33 8 27 9 31 10 28 11 30 12
REMARK SMILES IDX 17 13 18 14 19 15 20 16 24 17 22 18 21 19 23 21 32 23 29 25
REMARK SMILES IDX 5 27 14 28 6 29 12 30 7 31 10 32 15 33 13 35 8 37 9 38 11 40
REMARK H PARENT 21 20 23 22 32 24 29 26 15 34 13 36 9 39 11 41
REMARK Flexibility Score: inf
ROOT
ATOM      1  O   UNL     1      45.398  46.208 100.720  1.00  0.00    -0.454 OA
ENDROOT
BRANCH   1   2
ATOM      2  C   UNL     1      44.964  45.336 101.754  1.00  0.00     0.214 A 
ATOM      3  C   UNL     1      43.695  44.740 101.648  1.00  0.00     0.180 A 
ATOM      4  O   UNL     1      43.649  43.454 101.311  1.00  0.00    -0.452 OA
ATOM      5  C   UNL     1      45.873  44.493 102.442  1.00  0.00     0.239 A 
ATOM      6  C   UNL     1      44.764  42.737 101.261  1.00  0.00     0.146 A 
ATOM      7  O   UNL     1      46.263  44.764 103.631  1.00  0.00    -0.285 OA
ATOM      8  C   UNL     1      45.897  43.144 101.995  1.00  0.00     0.111 A 
ATOM      9  C   UNL     1      44.833  41.641 100.421  1.00  0.00     0.094 A 
ATOM     10  C   UNL     1      47.057  42.335 101.995  1.00  0.00     0.134 A 
ATOM     11  C   UNL     1      46.053  40.989 100.245  1.00  0.00     0.123 A 
ATOM     12  C   UNL     1      47.134  41.280 101.094  1.00  0.00     0.093 A 
BRANCH   3  13
ATOM     13  C   UNL     1      42.413  45.521 101.736  1.00  0.00     0.025 A 
ATOM     14  C   UNL     1      41.382  45.195 100.865  1.00  0.00     0.016 A 
ATOM     15  C   UNL     1      40.224  45.976 100.818  1.00  0.00     0.051 A 
ATOM     16  C   UNL     1      40.186  47.195 101.492  1.00  0.00     0.157 A 
ATOM     17  C   UNL     1      42.319  46.678 102.542  1.00  0.00     0.062 A 
ATOM     18  C   UNL     1      41.229  47.552 102.376  1.00  0.00     0.158 A 
BRANCH  16  19
ATOM     19  O   UNL     1      39.227  48.136 101.126  1.00  0.00    -0.504 OA
ATOM     20  H   UNL     1      38.235  47.886 101.059  1.00  0.00     0.293 HD
ENDBRANCH  16  19
BRANCH  18  21
ATOM     21  O   UNL     1      41.184  48.807 103.001  1.00  0.00    -0.504 OA
ATOM     22  H   UNL     1      40.297  49.293 103.156  1.00  0.00     0.293 HD
ENDBRANCH  18  21
ENDBRANCH   3  13
BRANCH  10  23
ATOM     23  O   UNL     1      48.125  42.606 102.843  1.00  0.00    -0.507 OA
ATOM     24  H   UNL     1      48.020  42.495 103.855  1.00  0.00     0.293 HD
ENDBRANCH  10  23
BRANCH  11  25
ATOM     25  O   UNL     1      46.245  40.162  99.130  1.00  0.00    -0.508 OA
ATOM     26  H   UNL     1      46.719  40.591  98.320  1.00  0.00     0.293 HD
ENDBRANCH  11  25
ENDBRANCH   1   2
BRANCH   1  27
ATOM     27  C   UNL     1      45.338  47.641 100.933  1.00  0.00     0.339 C 
ATOM     28  C   UNL     1      44.866  48.179 102.360  1.00  0.00     0.214 C 
ATOM     29  O   UNL     1      46.565  48.235 100.430  1.00  0.00    -0.332 OA
ATOM     30  C   UNL     1      45.527  49.558 102.592  1.00  0.00     0.180 C 
ATOM     31  C   UNL     1      47.538  48.442 101.446  1.00  0.00     0.179 C 
ATOM     32  C   UNL     1      47.075  49.473 102.512  1.00  0.00     0.177 C 
BRANCH  28  33
ATOM     33  O   UNL     1      45.247  47.340 103.408  1.00  0.00    -0.384 OA
ATOM     34  H   UNL     1      46.113  46.880 103.131  1.00  0.00     0.211 HD
ENDBRANCH  28  33
BRANCH  30  35
ATOM     35  O   UNL     1      45.098  50.125 103.819  1.00  0.00    -0.387 OA
ATOM     36  H   UNL     1      45.130  51.102 103.689  1.00  0.00     0.211 HD
ENDBRANCH  30  35
BRANCH  31  37
ATOM     37  C   UNL     1      48.124  47.099 101.947  1.00  0.00     0.191 C 
BRANCH  37  38
ATOM     38  O   UNL     1      47.883  46.935 103.316  1.00  0.00    -0.394 OA
ATOM     39  H   UNL     1      47.193  47.591 103.606  1.00  0.00     0.210 HD
ENDBRANCH  37  38
ENDBRANCH  31  37
BRANCH  32  40
ATOM     40  O   UNL     1      47.620  49.224 103.789  1.00  0.00    -0.387 OA
ATOM     41  H   UNL     1      47.803  48.241 103.869  1.00  0.00     0.211 HD
ENDBRANCH  32  40
ENDBRANCH   1  27
TORSDOF 12
ENDMDL
