MODEL 1
REMARK VINA RESULT:    -5.300      0.000      0.000
REMARK INTER + INTRA:          -5.951
REMARK INTER:                  -5.610
REMARK INTRA:                  -0.341
REMARK UNBOUND:                -0.341
REMARK SMILES CC1=C[C@H]2C(=C(C)CC[C@@H]2C(C)C)CC1
REMARK SMILES IDX 1 1 2 2 3 3 4 4 10 5 9 6 8 7 6 8 5 9 14 10 15 11 7 12 11 13
REMARK SMILES IDX 12 14 13 15
REMARK H PARENT
REMARK Flexibility Score: inf
ROOT
ATOM      1  C   UNL     1      -0.801  18.445  13.894  1.00  0.00     0.039 C 
ATOM      2  C   UNL     1       0.347  17.612  14.391  1.00  0.00    -0.076 C 
ATOM      3  C   UNL     1       0.717  16.503  13.723  1.00  0.00    -0.020 C 
ATOM      4  C   UNL     1       1.851  15.655  14.261  1.00  0.00     0.041 C 
ATOM      5  C   UNL     1       2.050  14.333  13.439  1.00  0.00     0.003 C 
ATOM      6  C   UNL     1       1.341  13.169  14.160  1.00  0.00     0.009 C 
ATOM      7  C   UNL     1       1.879  13.007  15.579  1.00  0.00     0.031 C 
ATOM      8  C   UNL     1       1.670  14.268  16.380  1.00  0.00    -0.073 C 
ATOM      9  C   UNL     1       1.636  15.486  15.772  1.00  0.00    -0.064 C 
ATOM     10  C   UNL     1       1.272  16.741  16.564  1.00  0.00     0.036 C 
ATOM     11  C   UNL     1       1.085  17.978  15.662  1.00  0.00     0.035 C 
ATOM     12  C   UNL     1       1.510  14.133  17.876  1.00  0.00     0.039 C 
ENDROOT
BRANCH   5  13
ATOM     13  C   UNL     1       3.566  14.070  13.122  1.00  0.00    -0.013 C 
ATOM     14  C   UNL     1       4.183  15.254  12.350  1.00  0.00     0.007 C 
ATOM     15  C   UNL     1       3.805  12.790  12.297  1.00  0.00     0.007 C 
ENDBRANCH   5  13
TORSDOF 1
ENDMDL
MODEL 2
REMARK VINA RESULT:    -5.163      1.478      3.989
REMARK INTER + INTRA:          -5.806
REMARK INTER:                  -5.383
REMARK INTRA:                  -0.423
REMARK UNBOUND:                -0.341
REMARK SMILES CC1=C[C@H]2C(=C(C)CC[C@@H]2C(C)C)CC1
REMARK SMILES IDX 1 1 2 2 3 3 4 4 10 5 9 6 8 7 6 8 5 9 14 10 15 11 7 12 11 13
REMARK SMILES IDX 12 14 13 15
REMARK H PARENT
REMARK Flexibility Score: inf
ROOT
ATOM      1  C   UNL     1       2.258  19.077  17.129  1.00  0.00     0.039 C 
ATOM      2  C   UNL     1       1.510  17.918  16.531  1.00  0.00    -0.076 C 
ATOM      3  C   UNL     1       1.708  16.671  16.999  1.00  0.00    -0.020 C 
ATOM      4  C   UNL     1       0.974  15.511  16.358  1.00  0.00     0.041 C 
ATOM      5  C   UNL     1       1.433  14.124  16.931  1.00  0.00     0.003 C 
ATOM      6  C   UNL     1       2.474  13.496  15.984  1.00  0.00     0.009 C 
ATOM      7  C   UNL     1       1.897  13.334  14.580  1.00  0.00     0.031 C 
ATOM      8  C   UNL     1       1.474  14.668  14.016  1.00  0.00    -0.073 C 
ATOM      9  C   UNL     1       1.069  15.678  14.835  1.00  0.00    -0.064 C 
ATOM     10  C   UNL     1       0.791  17.072  14.272  1.00  0.00     0.036 C 
ATOM     11  C   UNL     1       0.549  18.119  15.377  1.00  0.00     0.035 C 
ATOM     12  C   UNL     1       1.509  14.839  12.515  1.00  0.00     0.039 C 
ENDROOT
BRANCH   5  13
ATOM     13  C   UNL     1       0.206  13.195  17.252  1.00  0.00    -0.013 C 
ATOM     14  C   UNL     1      -1.103  14.008  17.307  1.00  0.00     0.007 C 
ATOM     15  C   UNL     1       0.349  12.434  18.584  1.00  0.00     0.007 C 
ENDBRANCH   5  13
TORSDOF 1
ENDMDL
MODEL 3
REMARK VINA RESULT:    -5.073      1.188      4.485
REMARK INTER + INTRA:          -5.711
REMARK INTER:                  -5.289
REMARK INTRA:                  -0.422
REMARK UNBOUND:                -0.341
REMARK SMILES CC1=C[C@H]2C(=C(C)CC[C@@H]2C(C)C)CC1
REMARK SMILES IDX 1 1 2 2 3 3 4 4 10 5 9 6 8 7 6 8 5 9 14 10 15 11 7 12 11 13
REMARK SMILES IDX 12 14 13 15
REMARK H PARENT
REMARK Flexibility Score: inf
ROOT
ATOM      1  C   UNL     1       4.213  13.499  12.998  1.00  0.00     0.039 C 
ATOM      2  C   UNL     1       2.903  13.652  13.720  1.00  0.00    -0.076 C 
ATOM      3  C   UNL     1       2.541  14.850  14.218  1.00  0.00    -0.020 C 
ATOM      4  C   UNL     1       1.236  14.976  14.976  1.00  0.00     0.041 C 
ATOM      5  C   UNL     1       1.045  16.401  15.605  1.00  0.00     0.003 C 
ATOM      6  C   UNL     1       1.466  16.369  17.087  1.00  0.00     0.009 C 
ATOM      7  C   UNL     1       0.654  15.329  17.855  1.00  0.00     0.031 C 
ATOM      8  C   UNL     1       0.851  13.953  17.267  1.00  0.00    -0.073 C 
ATOM      9  C   UNL     1       1.139  13.790  15.947  1.00  0.00    -0.064 C 
ATOM     10  C   UNL     1       1.489  12.410  15.391  1.00  0.00     0.036 C 
ATOM     11  C   UNL     1       1.984  12.467  13.932  1.00  0.00     0.035 C 
ATOM     12  C   UNL     1       0.708  12.767  18.193  1.00  0.00     0.039 C 
ENDROOT
BRANCH   5  13
ATOM     13  C   UNL     1      -0.404  16.956  15.355  1.00  0.00    -0.013 C 
ATOM     14  C   UNL     1      -1.125  16.144  14.261  1.00  0.00     0.007 C 
ATOM     15  C   UNL     1      -0.426  18.440  14.938  1.00  0.00     0.007 C 
ENDBRANCH   5  13
TORSDOF 1
ENDMDL
MODEL 4
REMARK VINA RESULT:    -5.028      1.081      4.474
REMARK INTER + INTRA:          -5.663
REMARK INTER:                  -5.448
REMARK INTRA:                  -0.215
REMARK UNBOUND:                -0.341
REMARK SMILES CC1=C[C@H]2C(=C(C)CC[C@@H]2C(C)C)CC1
REMARK SMILES IDX 1 1 2 2 3 3 4 4 10 5 9 6 8 7 6 8 5 9 14 10 15 11 7 12 11 13
REMARK SMILES IDX 12 14 13 15
REMARK H PARENT
REMARK Flexibility Score: inf
ROOT
ATOM      1  C   UNL     1       4.396  13.604  12.822  1.00  0.00     0.039 C 
ATOM      2  C   UNL     1       3.175  14.102  13.545  1.00  0.00    -0.076 C 
ATOM      3  C   UNL     1       2.621  15.281  13.204  1.00  0.00    -0.020 C 
ATOM      4  C   UNL     1       1.415  15.784  13.969  1.00  0.00     0.041 C 
ATOM      5  C   UNL     1       0.992  17.232  13.534  1.00  0.00     0.003 C 
ATOM      6  C   UNL     1       1.576  18.257  14.525  1.00  0.00     0.009 C 
ATOM      7  C   UNL     1       1.103  17.963  15.947  1.00  0.00     0.031 C 
ATOM      8  C   UNL     1       1.526  16.580  16.377  1.00  0.00    -0.073 C 
ATOM      9  C   UNL     1       1.690  15.582  15.466  1.00  0.00    -0.064 C 
ATOM     10  C   UNL     1       2.265  14.230  15.888  1.00  0.00     0.036 C 
ATOM     11  C   UNL     1       2.566  13.313  14.686  1.00  0.00     0.035 C 
ATOM     12  C   UNL     1       1.751  16.342  17.853  1.00  0.00     0.039 C 
ENDROOT
BRANCH   5  13
ATOM     13  C   UNL     1      -0.562  17.344  13.327  1.00  0.00    -0.013 C 
ATOM     14  C   UNL     1      -0.985  16.728  11.979  1.00  0.00     0.007 C 
ATOM     15  C   UNL     1      -1.079  18.796  13.369  1.00  0.00     0.007 C 
ENDBRANCH   5  13
TORSDOF 1
ENDMDL
MODEL 5
REMARK VINA RESULT:    -4.953      1.768      4.146
REMARK INTER + INTRA:          -5.584
REMARK INTER:                  -5.160
REMARK INTRA:                  -0.424
REMARK UNBOUND:                -0.341
REMARK SMILES CC1=C[C@H]2C(=C(C)CC[C@@H]2C(C)C)CC1
REMARK SMILES IDX 1 1 2 2 3 3 4 4 10 5 9 6 8 7 6 8 5 9 14 10 15 11 7 12 11 13
REMARK SMILES IDX 12 14 13 15
REMARK H PARENT
REMARK Flexibility Score: inf
ROOT
ATOM      1  C   UNL     1      -0.009  12.677  19.761  1.00  0.00     0.039 C 
ATOM      2  C   UNL     1      -0.142  13.205  18.360  1.00  0.00    -0.076 C 
ATOM      3  C   UNL     1       0.640  12.718  17.377  1.00  0.00    -0.020 C 
ATOM      4  C   UNL     1       0.518  13.290  15.979  1.00  0.00     0.041 C 
ATOM      5  C   UNL     1       1.599  12.709  15.001  1.00  0.00     0.003 C 
ATOM      6  C   UNL     1       2.778  13.696  14.893  1.00  0.00     0.009 C 
ATOM      7  C   UNL     1       2.295  15.062  14.413  1.00  0.00     0.031 C 
ATOM      8  C   UNL     1       1.272  15.634  15.363  1.00  0.00    -0.073 C 
ATOM      9  C   UNL     1       0.468  14.820  16.100  1.00  0.00    -0.064 C 
ATOM     10  C   UNL     1      -0.456  15.400  17.170  1.00  0.00     0.036 C 
ATOM     11  C   UNL     1      -1.125  14.309  18.031  1.00  0.00     0.035 C 
ATOM     12  C   UNL     1       1.167  17.139  15.459  1.00  0.00     0.039 C 
ENDROOT
BRANCH   5  13
ATOM     13  C   UNL     1       0.970  12.300  13.620  1.00  0.00    -0.013 C 
ATOM     14  C   UNL     1      -0.553  12.097  13.745  1.00  0.00     0.007 C 
ATOM     15  C   UNL     1       1.574  11.009  13.032  1.00  0.00     0.007 C 
ENDBRANCH   5  13
TORSDOF 1
ENDMDL
MODEL 6
REMARK VINA RESULT:    -4.736      1.387      3.625
REMARK INTER + INTRA:          -5.355
REMARK INTER:                  -5.062
REMARK INTRA:                  -0.293
REMARK UNBOUND:                -0.341
REMARK SMILES CC1=C[C@H]2C(=C(C)CC[C@@H]2C(C)C)CC1
REMARK SMILES IDX 1 1 2 2 3 3 4 4 10 5 9 6 8 7 6 8 5 9 14 10 15 11 7 12 11 13
REMARK SMILES IDX 12 14 13 15
REMARK H PARENT
REMARK Flexibility Score: inf
ROOT
ATOM      1  C   UNL     1       1.849  15.646  17.976  1.00  0.00     0.039 C 
ATOM      2  C   UNL     1       1.570  15.441  16.513  1.00  0.00    -0.076 C 
ATOM      3  C   UNL     1       2.220  14.482  15.828  1.00  0.00    -0.020 C 
ATOM      4  C   UNL     1       1.953  14.315  14.346  1.00  0.00     0.041 C 
ATOM      5  C   UNL     1       2.899  13.252  13.684  1.00  0.00     0.003 C 
ATOM      6  C   UNL     1       4.082  13.970  13.006  1.00  0.00     0.009 C 
ATOM      7  C   UNL     1       3.583  14.967  11.964  1.00  0.00     0.031 C 
ATOM      8  C   UNL     1       2.690  16.005  12.600  1.00  0.00    -0.073 C 
ATOM      9  C   UNL     1       1.956  15.712  13.708  1.00  0.00    -0.064 C 
ATOM     10  C   UNL     1       1.175  16.806  14.436  1.00  0.00     0.036 C 
ATOM     11  C   UNL     1       0.583  16.322  15.775  1.00  0.00     0.035 C 
ATOM     12  C   UNL     1       2.634  17.372  11.959  1.00  0.00     0.039 C 
ENDROOT
BRANCH   5  13
ATOM     13  C   UNL     1       2.106  12.278  12.740  1.00  0.00    -0.013 C 
ATOM     14  C   UNL     1       1.176  11.356  13.554  1.00  0.00     0.007 C 
ATOM     15  C   UNL     1       3.019  11.388  11.875  1.00  0.00     0.007 C 
ENDBRANCH   5  13
TORSDOF 1
ENDMDL
MODEL 7
REMARK VINA RESULT:    -4.664      1.577      4.901
REMARK INTER + INTRA:          -5.278
REMARK INTER:                  -4.922
REMARK INTRA:                  -0.356
REMARK UNBOUND:                -0.341
REMARK SMILES CC1=C[C@H]2C(=C(C)CC[C@@H]2C(C)C)CC1
REMARK SMILES IDX 1 1 2 2 3 3 4 4 10 5 9 6 8 7 6 8 5 9 14 10 15 11 7 12 11 13
REMARK SMILES IDX 12 14 13 15
REMARK H PARENT
REMARK Flexibility Score: inf
ROOT
ATOM      1  C   UNL     1       1.820  11.521  12.606  1.00  0.00     0.039 C 
ATOM      2  C   UNL     1       1.931  12.524  13.721  1.00  0.00    -0.076 C 
ATOM      3  C   UNL     1       1.004  12.555  14.697  1.00  0.00    -0.020 C 
ATOM      4  C   UNL     1       1.111  13.598  15.791  1.00  0.00     0.041 C 
ATOM      5  C   UNL     1      -0.126  13.580  16.756  1.00  0.00     0.003 C 
ATOM      6  C   UNL     1      -1.124  14.675  16.333  1.00  0.00     0.009 C 
ATOM      7  C   UNL     1      -0.455  16.047  16.340  1.00  0.00     0.031 C 
ATOM      8  C   UNL     1       0.722  16.075  15.397  1.00  0.00    -0.073 C 
ATOM      9  C   UNL     1       1.431  14.945  15.127  1.00  0.00    -0.064 C 
ATOM     10  C   UNL     1       2.521  14.947  14.055  1.00  0.00     0.036 C 
ATOM     11  C   UNL     1       3.059  13.534  13.754  1.00  0.00     0.035 C 
ATOM     12  C   UNL     1       1.089  17.401  14.772  1.00  0.00     0.039 C 
ENDROOT
BRANCH   5  13
ATOM     13  C   UNL     1       0.314  13.654  18.263  1.00  0.00    -0.013 C 
ATOM     14  C   UNL     1       1.836  13.868  18.384  1.00  0.00     0.007 C 
ATOM     15  C   UNL     1      -0.052  12.392  19.069  1.00  0.00     0.007 C 
ENDBRANCH   5  13
TORSDOF 1
ENDMDL
MODEL 8
REMARK VINA RESULT:    -4.625      1.367      4.246
REMARK INTER + INTRA:          -5.236
REMARK INTER:                  -4.851
REMARK INTRA:                  -0.385
REMARK UNBOUND:                -0.341
REMARK SMILES CC1=C[C@H]2C(=C(C)CC[C@@H]2C(C)C)CC1
REMARK SMILES IDX 1 1 2 2 3 3 4 4 10 5 9 6 8 7 6 8 5 9 14 10 15 11 7 12 11 13
REMARK SMILES IDX 12 14 13 15
REMARK H PARENT
REMARK Flexibility Score: inf
ROOT
ATOM      1  C   UNL     1      -0.720  12.794  17.271  1.00  0.00     0.039 C 
ATOM      2  C   UNL     1       0.219  13.754  16.594  1.00  0.00    -0.076 C 
ATOM      3  C   UNL     1      -0.194  14.465  15.528  1.00  0.00    -0.020 C 
ATOM      4  C   UNL     1       0.778  15.398  14.836  1.00  0.00     0.041 C 
ATOM      5  C   UNL     1       0.173  16.032  13.534  1.00  0.00     0.003 C 
ATOM      6  C   UNL     1       0.650  15.235  12.305  1.00  0.00     0.009 C 
ATOM      7  C   UNL     1       2.175  15.214  12.234  1.00  0.00     0.031 C 
ATOM      8  C   UNL     1       2.761  14.585  13.474  1.00  0.00    -0.073 C 
ATOM      9  C   UNL     1       2.109  14.651  14.668  1.00  0.00    -0.064 C 
ATOM     10  C   UNL     1       2.629  13.883  15.882  1.00  0.00     0.036 C 
ATOM     11  C   UNL     1       1.648  13.917  17.071  1.00  0.00     0.035 C 
ATOM     12  C   UNL     1       4.096  13.889  13.346  1.00  0.00     0.039 C 
ENDROOT
BRANCH   5  13
ATOM     13  C   UNL     1       0.458  17.576  13.454  1.00  0.00    -0.013 C 
ATOM     14  C   UNL     1       1.239  18.057  14.693  1.00  0.00     0.007 C 
ATOM     15  C   UNL     1      -0.821  18.428  13.338  1.00  0.00     0.007 C 
ENDBRANCH   5  13
TORSDOF 1
ENDMDL
MODEL 9
REMARK VINA RESULT:    -4.406      1.706      4.567
REMARK INTER + INTRA:          -5.005
REMARK INTER:                  -4.689
REMARK INTRA:                  -0.316
REMARK UNBOUND:                -0.341
REMARK SMILES CC1=C[C@H]2C(=C(C)CC[C@@H]2C(C)C)CC1
REMARK SMILES IDX 1 1 2 2 3 3 4 4 10 5 9 6 8 7 6 8 5 9 14 10 15 11 7 12 11 13
REMARK SMILES IDX 12 14 13 15
REMARK H PARENT
REMARK Flexibility Score: inf
ROOT
ATOM      1  C   UNL     1       1.888  11.624  12.556  1.00  0.00     0.039 C 
ATOM      2  C   UNL     1       1.101  12.429  13.553  1.00  0.00    -0.076 C 
ATOM      3  C   UNL     1       1.713  13.369  14.298  1.00  0.00    -0.020 C 
ATOM      4  C   UNL     1       0.912  14.143  15.324  1.00  0.00     0.041 C 
ATOM      5  C   UNL     1       1.811  15.088  16.196  1.00  0.00     0.003 C 
ATOM      6  C   UNL     1       2.140  14.395  17.532  1.00  0.00     0.009 C 
ATOM      7  C   UNL     1       0.861  14.030  18.280  1.00  0.00     0.031 C 
ATOM      8  C   UNL     1       0.003  13.104  17.454  1.00  0.00    -0.073 C 
ATOM      9  C   UNL     1       0.040  13.140  16.094  1.00  0.00    -0.064 C 
ATOM     10  C   UNL     1      -0.712  12.099  15.266  1.00  0.00     0.036 C 
ATOM     11  C   UNL     1      -0.379  12.182  13.763  1.00  0.00     0.035 C 
ATOM     12  C   UNL     1      -0.904  12.144  18.190  1.00  0.00     0.039 C 
ENDROOT
BRANCH   5  13
ATOM     13  C   UNL     1       1.174  16.517  16.347  1.00  0.00    -0.013 C 
ATOM     14  C   UNL     1       1.103  17.237  14.986  1.00  0.00     0.007 C 
ATOM     15  C   UNL     1       1.942  17.427  17.327  1.00  0.00     0.007 C 
ENDBRANCH   5  13
TORSDOF 1
ENDMDL
