MODEL 1
REMARK VINA RESULT:    18.103      0.000      0.000
REMARK INTER + INTRA:          46.725
REMARK INTER:                  45.619
REMARK INTRA:                   1.106
REMARK UNBOUND:                 1.106
REMARK SMILES CCCCCCCCCCCCCCCCCCCCCCCCCCCC(=O)[O-]
REMARK SMILES IDX 15 1 16 2 17 3 18 4 19 5 20 6 21 7 22 8 23 9 24 10 25 11
REMARK SMILES IDX 26 12 27 13 28 14 29 15 30 16 14 17 13 18 12 19 11 20 10 21
REMARK SMILES IDX 9 22 8 23 7 24 6 25 5 26 4 27 3 28 2 29 1 30
REMARK H PARENT
REMARK Flexibility Score: inf
ROOT
ATOM      1  C   UNL     1       1.941  -1.679  10.289  1.00  0.00     0.000 C 
ENDROOT
BRANCH   1   2
ATOM      2  C   UNL     1       1.816  -0.366   9.485  1.00  0.00     0.000 C 
BRANCH   2   3
ATOM      3  C   UNL     1       0.650   0.537   9.931  1.00  0.00     0.000 C 
BRANCH   3   4
ATOM      4  C   UNL     1       0.257   1.611   8.896  1.00  0.00     0.000 C 
BRANCH   4   5
ATOM      5  C   UNL     1       1.051   2.916   9.085  1.00  0.00     0.000 C 
BRANCH   5   6
ATOM      6  C   UNL     1       2.214   2.771  10.080  1.00  0.00     0.000 C 
BRANCH   6   7
ATOM      7  C   UNL     1       3.391   3.705   9.754  1.00  0.00     0.000 C 
BRANCH   7   8
ATOM      8  C   UNL     1       4.515   3.636  10.805  1.00  0.00     0.000 C 
BRANCH   8   9
ATOM      9  C   UNL     1       4.671   4.899  11.673  1.00  0.00     0.000 C 
BRANCH   9  10
ATOM     10  C   UNL     1       3.361   5.643  11.998  1.00  0.00     0.000 C 
BRANCH  10  11
ATOM     11  C   UNL     1       3.429   6.503  13.277  1.00  0.00     0.000 C 
BRANCH  11  12
ATOM     12  C   UNL     1       2.788   5.808  14.491  1.00  0.00     0.006 C 
BRANCH  12  13
ATOM     13  C   UNL     1       3.183   6.472  15.816  1.00  0.00     0.053 C 
BRANCH  13  14
ATOM     14  C   UNL     1       4.557   7.068  15.758  1.00  0.00     0.041 C 
ATOM     15  O   UNL     1       5.572   6.322  15.737  1.00  0.00    -0.550 OA
ATOM     16  O   UNL     1       4.717   8.448  15.738  1.00  0.00    -0.550 OA
ENDBRANCH  13  14
ENDBRANCH  12  13
ENDBRANCH  11  12
ENDBRANCH  10  11
ENDBRANCH   9  10
ENDBRANCH   8   9
ENDBRANCH   7   8
ENDBRANCH   6   7
ENDBRANCH   5   6
ENDBRANCH   4   5
ENDBRANCH   3   4
ENDBRANCH   2   3
ENDBRANCH   1   2
BRANCH   1  17
ATOM     17  C   UNL     1       2.633  -2.829   9.527  1.00  0.00     0.000 C 
BRANCH  17  18
ATOM     18  C   UNL     1       2.555  -4.214  10.205  1.00  0.00     0.000 C 
BRANCH  18  19
ATOM     19  C   UNL     1       1.642  -5.239   9.507  1.00  0.00     0.000 C 
BRANCH  19  20
ATOM     20  C   UNL     1       0.821  -6.078  10.502  1.00  0.00     0.000 C 
BRANCH  20  21
ATOM     21  C   UNL     1      -0.365  -6.791   9.832  1.00  0.00     0.000 C 
BRANCH  21  22
ATOM     22  C   UNL     1      -0.727  -8.108  10.541  1.00  0.00    -0.000 C 
BRANCH  22  23
ATOM     23  C   UNL     1       0.355  -8.560  11.534  1.00  0.00    -0.000 C 
BRANCH  23  24
ATOM     24  C   UNL     1       1.693  -7.824  11.332  1.00  0.00    -0.000 C 
BRANCH  24  25
ATOM     25  C   UNL     1       2.713  -8.661  10.545  1.00  0.00    -0.000 C 
BRANCH  25  26
ATOM     26  C   UNL     1       4.163  -8.208  10.792  1.00  0.00    -0.000 C 
BRANCH  26  27
ATOM     27  C   UNL     1       4.263  -7.158  11.920  1.00  0.00    -0.000 C 
BRANCH  27  28
ATOM     28  C   UNL     1       4.893  -7.703  13.216  1.00  0.00    -0.000 C 
BRANCH  28  29
ATOM     29  C   UNL     1       4.583  -9.180  13.510  1.00  0.00    -0.003 C 
ATOM     30  C   UNL     1       3.449  -9.358  14.519  1.00  0.00     0.004 C 
ENDBRANCH  28  29
ENDBRANCH  27  28
ENDBRANCH  26  27
ENDBRANCH  25  26
ENDBRANCH  24  25
ENDBRANCH  23  24
ENDBRANCH  22  23
ENDBRANCH  21  22
ENDBRANCH  20  21
ENDBRANCH  19  20
ENDBRANCH  18  19
ENDBRANCH  17  18
ENDBRANCH   1  17
TORSDOF 26
ENDMDL
MODEL 2
REMARK VINA RESULT:    18.579      1.183      1.826
REMARK INTER + INTRA:          47.926
REMARK INTER:                  49.016
REMARK INTRA:                  -1.090
REMARK UNBOUND:                 1.106
REMARK SMILES CCCCCCCCCCCCCCCCCCCCCCCCCCCC(=O)[O-]
REMARK SMILES IDX 15 1 16 2 17 3 18 4 19 5 20 6 21 7 22 8 23 9 24 10 25 11
REMARK SMILES IDX 26 12 27 13 28 14 29 15 30 16 14 17 13 18 12 19 11 20 10 21
REMARK SMILES IDX 9 22 8 23 7 24 6 25 5 26 4 27 3 28 2 29 1 30
REMARK H PARENT
REMARK Flexibility Score: inf
ROOT
ATOM      1  C   UNL     1       2.462  -1.283  10.181  1.00  0.00     0.000 C 
ENDROOT
BRANCH   1   2
ATOM      2  C   UNL     1       1.409  -0.545   9.325  1.00  0.00     0.000 C 
BRANCH   2   3
ATOM      3  C   UNL     1       0.599   0.514  10.098  1.00  0.00     0.000 C 
BRANCH   3   4
ATOM      4  C   UNL     1      -0.037   1.595   9.200  1.00  0.00     0.000 C 
BRANCH   4   5
ATOM      5  C   UNL     1       0.885   2.814   9.019  1.00  0.00     0.000 C 
BRANCH   5   6
ATOM      6  C   UNL     1       2.162   2.730   9.869  1.00  0.00     0.000 C 
BRANCH   6   7
ATOM      7  C   UNL     1       3.117   3.909   9.619  1.00  0.00     0.000 C 
BRANCH   7   8
ATOM      8  C   UNL     1       4.461   3.754  10.355  1.00  0.00     0.000 C 
BRANCH   8   9
ATOM      9  C   UNL     1       4.579   4.552  11.667  1.00  0.00     0.000 C 
BRANCH   9  10
ATOM     10  C   UNL     1       3.450   5.569  11.924  1.00  0.00     0.000 C 
BRANCH  10  11
ATOM     11  C   UNL     1       3.642   6.409  13.204  1.00  0.00     0.000 C 
BRANCH  11  12
ATOM     12  C   UNL     1       2.612   6.067  14.295  1.00  0.00     0.006 C 
BRANCH  12  13
ATOM     13  C   UNL     1       3.128   6.391  15.703  1.00  0.00     0.053 C 
BRANCH  13  14
ATOM     14  C   UNL     1       4.447   7.100  15.668  1.00  0.00     0.041 C 
ATOM     15  O   UNL     1       4.496   8.339  15.444  1.00  0.00    -0.550 OA
ATOM     16  O   UNL     1       5.625   6.390  15.875  1.00  0.00    -0.550 OA
ENDBRANCH  13  14
ENDBRANCH  12  13
ENDBRANCH  11  12
ENDBRANCH  10  11
ENDBRANCH   9  10
ENDBRANCH   8   9
ENDBRANCH   7   8
ENDBRANCH   6   7
ENDBRANCH   5   6
ENDBRANCH   4   5
ENDBRANCH   3   4
ENDBRANCH   2   3
ENDBRANCH   1   2
BRANCH   1  17
ATOM     17  C   UNL     1       2.804  -2.703   9.684  1.00  0.00     0.000 C 
BRANCH  17  18
ATOM     18  C   UNL     1       2.248  -3.858  10.546  1.00  0.00     0.000 C 
BRANCH  18  19
ATOM     19  C   UNL     1       2.469  -5.271   9.976  1.00  0.00     0.000 C 
BRANCH  19  20
ATOM     20  C   UNL     1       1.178  -6.109   9.945  1.00  0.00     0.000 C 
BRANCH  20  21
ATOM     21  C   UNL     1       0.810  -6.677  11.325  1.00  0.00     0.000 C 
BRANCH  21  22
ATOM     22  C   UNL     1       1.124  -8.179  11.438  1.00  0.00    -0.000 C 
BRANCH  22  23
ATOM     23  C   UNL     1       2.172  -8.641  10.414  1.00  0.00    -0.000 C 
BRANCH  23  24
ATOM     24  C   UNL     1       3.607  -8.607  10.974  1.00  0.00    -0.000 C 
BRANCH  24  25
ATOM     25  C   UNL     1       3.656  -8.160  12.443  1.00  0.00    -0.000 C 
BRANCH  25  26
ATOM     26  C   UNL     1       5.094  -7.968  12.953  1.00  0.00    -0.000 C 
BRANCH  26  27
ATOM     27  C   UNL     1       5.703  -6.625  12.495  1.00  0.00    -0.000 C 
BRANCH  27  28
ATOM     28  C   UNL     1       7.236  -6.658  12.352  1.00  0.00    -0.000 C 
BRANCH  28  29
ATOM     29  C   UNL     1       8.006  -6.705  13.683  1.00  0.00    -0.003 C 
ATOM     30  C   UNL     1       7.578  -5.606  14.653  1.00  0.00     0.004 C 
ENDBRANCH  28  29
ENDBRANCH  27  28
ENDBRANCH  26  27
ENDBRANCH  25  26
ENDBRANCH  24  25
ENDBRANCH  23  24
ENDBRANCH  22  23
ENDBRANCH  21  22
ENDBRANCH  20  21
ENDBRANCH  19  20
ENDBRANCH  18  19
ENDBRANCH  17  18
ENDBRANCH   1  17
TORSDOF 26
ENDMDL
MODEL 3
REMARK VINA RESULT:    18.585      1.491      2.243
REMARK INTER + INTRA:          47.940
REMARK INTER:                  49.944
REMARK INTRA:                  -2.004
REMARK UNBOUND:                 1.106
REMARK SMILES CCCCCCCCCCCCCCCCCCCCCCCCCCCC(=O)[O-]
REMARK SMILES IDX 15 1 16 2 17 3 18 4 19 5 20 6 21 7 22 8 23 9 24 10 25 11
REMARK SMILES IDX 26 12 27 13 28 14 29 15 30 16 14 17 13 18 12 19 11 20 10 21
REMARK SMILES IDX 9 22 8 23 7 24 6 25 5 26 4 27 3 28 2 29 1 30
REMARK H PARENT
REMARK Flexibility Score: inf
ROOT
ATOM      1  C   UNL     1       2.439  -1.849  10.391  1.00  0.00     0.000 C 
ENDROOT
BRANCH   1   2
ATOM      2  C   UNL     1       1.743  -0.827   9.464  1.00  0.00     0.000 C 
BRANCH   2   3
ATOM      3  C   UNL     1       1.411   0.515  10.143  1.00  0.00     0.000 C 
BRANCH   3   4
ATOM      4  C   UNL     1       0.177   1.229   9.553  1.00  0.00     0.000 C 
BRANCH   4   5
ATOM      5  C   UNL     1       0.535   2.594   8.939  1.00  0.00     0.000 C 
BRANCH   5   6
ATOM      6  C   UNL     1       2.051   2.824   8.835  1.00  0.00     0.000 C 
BRANCH   6   7
ATOM      7  C   UNL     1       2.512   4.080   9.593  1.00  0.00     0.000 C 
BRANCH   7   8
ATOM      8  C   UNL     1       3.665   3.796  10.574  1.00  0.00     0.000 C 
BRANCH   8   9
ATOM      9  C   UNL     1       4.253   5.041  11.264  1.00  0.00     0.000 C 
BRANCH   9  10
ATOM     10  C   UNL     1       3.218   6.068  11.765  1.00  0.00     0.000 C 
BRANCH  10  11
ATOM     11  C   UNL     1       2.702   5.793  13.194  1.00  0.00     0.000 C 
BRANCH  11  12
ATOM     12  C   UNL     1       3.845   5.655  14.216  1.00  0.00     0.006 C 
BRANCH  12  13
ATOM     13  C   UNL     1       3.570   6.443  15.503  1.00  0.00     0.053 C 
BRANCH  13  14
ATOM     14  C   UNL     1       4.687   7.387  15.833  1.00  0.00     0.041 C 
ATOM     15  O   UNL     1       5.520   7.095  16.730  1.00  0.00    -0.550 OA
ATOM     16  O   UNL     1       4.800   8.595  15.154  1.00  0.00    -0.550 OA
ENDBRANCH  13  14
ENDBRANCH  12  13
ENDBRANCH  11  12
ENDBRANCH  10  11
ENDBRANCH   9  10
ENDBRANCH   8   9
ENDBRANCH   7   8
ENDBRANCH   6   7
ENDBRANCH   5   6
ENDBRANCH   4   5
ENDBRANCH   3   4
ENDBRANCH   2   3
ENDBRANCH   1   2
BRANCH   1  17
ATOM     17  C   UNL     1       2.891  -3.144   9.684  1.00  0.00     0.000 C 
BRANCH  17  18
ATOM     18  C   UNL     1       1.921  -4.339   9.806  1.00  0.00     0.000 C 
BRANCH  18  19
ATOM     19  C   UNL     1       2.440  -5.527  10.636  1.00  0.00     0.000 C 
BRANCH  19  20
ATOM     20  C   UNL     1       1.305  -6.378  11.232  1.00  0.00     0.000 C 
BRANCH  20  21
ATOM     21  C   UNL     1       1.658  -7.872  11.293  1.00  0.00     0.000 C 
BRANCH  21  22
ATOM     22  C   UNL     1       2.803  -8.239  10.333  1.00  0.00    -0.000 C 
BRANCH  22  23
ATOM     23  C   UNL     1       4.056  -8.734  11.071  1.00  0.00    -0.000 C 
BRANCH  23  24
ATOM     24  C   UNL     1       3.968  -8.531  12.595  1.00  0.00    -0.000 C 
BRANCH  24  25
ATOM     25  C   UNL     1       5.110  -7.660  13.140  1.00  0.00    -0.000 C 
BRANCH  25  26
ATOM     26  C   UNL     1       5.693  -6.717  12.073  1.00  0.00    -0.000 C 
BRANCH  26  27
ATOM     27  C   UNL     1       7.203  -6.469  12.276  1.00  0.00    -0.000 C 
BRANCH  27  28
ATOM     28  C   UNL     1       7.724  -6.918  13.654  1.00  0.00    -0.000 C 
BRANCH  28  29
ATOM     29  C   UNL     1       8.171  -5.771  14.577  1.00  0.00    -0.003 C 
ATOM     30  C   UNL     1       6.997  -4.972  15.140  1.00  0.00     0.004 C 
ENDBRANCH  28  29
ENDBRANCH  27  28
ENDBRANCH  26  27
ENDBRANCH  25  26
ENDBRANCH  24  25
ENDBRANCH  23  24
ENDBRANCH  22  23
ENDBRANCH  21  22
ENDBRANCH  20  21
ENDBRANCH  19  20
ENDBRANCH  18  19
ENDBRANCH  17  18
ENDBRANCH   1  17
TORSDOF 26
ENDMDL
MODEL 4
REMARK VINA RESULT:    18.856      1.015      2.046
REMARK INTER + INTRA:          48.622
REMARK INTER:                  50.615
REMARK INTRA:                  -1.993
REMARK UNBOUND:                 1.106
REMARK SMILES CCCCCCCCCCCCCCCCCCCCCCCCCCCC(=O)[O-]
REMARK SMILES IDX 15 1 16 2 17 3 18 4 19 5 20 6 21 7 22 8 23 9 24 10 25 11
REMARK SMILES IDX 26 12 27 13 28 14 29 15 30 16 14 17 13 18 12 19 11 20 10 21
REMARK SMILES IDX 9 22 8 23 7 24 6 25 5 26 4 27 3 28 2 29 1 30
REMARK H PARENT
REMARK Flexibility Score: inf
ROOT
ATOM      1  C   UNL     1       0.641   0.089  10.202  1.00  0.00     0.000 C 
ENDROOT
BRANCH   1   2
ATOM      2  C   UNL     1      -0.097   1.267   9.528  1.00  0.00     0.000 C 
BRANCH   2   3
ATOM      3  C   UNL     1       0.760   2.051   8.516  1.00  0.00     0.000 C 
BRANCH   3   4
ATOM      4  C   UNL     1       0.812   3.570   8.781  1.00  0.00     0.000 C 
BRANCH   4   5
ATOM      5  C   UNL     1       2.250   4.071   9.002  1.00  0.00     0.000 C 
BRANCH   5   6
ATOM      6  C   UNL     1       2.901   3.485  10.265  1.00  0.00     0.000 C 
BRANCH   6   7
ATOM      7  C   UNL     1       4.431   3.392  10.152  1.00  0.00     0.000 C 
BRANCH   7   8
ATOM      8  C   UNL     1       5.158   4.388  11.076  1.00  0.00     0.000 C 
BRANCH   8   9
ATOM      9  C   UNL     1       4.344   4.854  12.297  1.00  0.00     0.000 C 
BRANCH   9  10
ATOM     10  C   UNL     1       3.477   6.109  12.073  1.00  0.00     0.000 C 
BRANCH  10  11
ATOM     11  C   UNL     1       2.679   6.551  13.318  1.00  0.00     0.000 C 
BRANCH  11  12
ATOM     12  C   UNL     1       2.991   5.689  14.554  1.00  0.00     0.006 C 
BRANCH  12  13
ATOM     13  C   UNL     1       3.285   6.541  15.796  1.00  0.00     0.053 C 
BRANCH  13  14
ATOM     14  C   UNL     1       4.638   7.183  15.729  1.00  0.00     0.041 C 
ATOM     15  O   UNL     1       5.678   6.487  15.874  1.00  0.00    -0.550 OA
ATOM     16  O   UNL     1       4.749   8.552  15.517  1.00  0.00    -0.550 OA
ENDBRANCH  13  14
ENDBRANCH  12  13
ENDBRANCH  11  12
ENDBRANCH  10  11
ENDBRANCH   9  10
ENDBRANCH   8   9
ENDBRANCH   7   8
ENDBRANCH   6   7
ENDBRANCH   5   6
ENDBRANCH   4   5
ENDBRANCH   3   4
ENDBRANCH   2   3
ENDBRANCH   1   2
BRANCH   1  17
ATOM     17  C   UNL     1       1.919  -0.365   9.467  1.00  0.00     0.000 C 
BRANCH  17  18
ATOM     18  C   UNL     1       2.625  -1.601  10.065  1.00  0.00     0.000 C 
BRANCH  18  19
ATOM     19  C   UNL     1       1.889  -2.939   9.871  1.00  0.00     0.000 C 
BRANCH  19  20
ATOM     20  C   UNL     1       2.729  -4.150  10.314  1.00  0.00     0.000 C 
BRANCH  20  21
ATOM     21  C   UNL     1       2.138  -5.485   9.832  1.00  0.00     0.000 C 
BRANCH  21  22
ATOM     22  C   UNL     1       1.146  -6.081  10.846  1.00  0.00    -0.000 C 
BRANCH  22  23
ATOM     23  C   UNL     1       1.697  -7.335  11.542  1.00  0.00    -0.000 C 
BRANCH  23  24
ATOM     24  C   UNL     1       2.485  -8.250  10.584  1.00  0.00    -0.000 C 
BRANCH  24  25
ATOM     25  C   UNL     1       3.945  -8.443  11.022  1.00  0.00    -0.000 C 
BRANCH  25  26
ATOM     26  C   UNL     1       4.088  -8.596  12.546  1.00  0.00    -0.000 C 
BRANCH  26  27
ATOM     27  C   UNL     1       4.868  -7.424  13.180  1.00  0.00    -0.000 C 
BRANCH  27  28
ATOM     28  C   UNL     1       5.668  -6.592  12.160  1.00  0.00    -0.000 C 
BRANCH  28  29
ATOM     29  C   UNL     1       7.190  -6.811  12.204  1.00  0.00    -0.003 C 
ATOM     30  C   UNL     1       7.785  -6.562  13.588  1.00  0.00     0.004 C 
ENDBRANCH  28  29
ENDBRANCH  27  28
ENDBRANCH  26  27
ENDBRANCH  25  26
ENDBRANCH  24  25
ENDBRANCH  23  24
ENDBRANCH  22  23
ENDBRANCH  21  22
ENDBRANCH  20  21
ENDBRANCH  19  20
ENDBRANCH  18  19
ENDBRANCH  17  18
ENDBRANCH   1  17
TORSDOF 26
ENDMDL
MODEL 5
REMARK VINA RESULT:    19.146      3.771     12.215
REMARK INTER + INTRA:          49.353
REMARK INTER:                  49.178
REMARK INTRA:                   0.176
REMARK UNBOUND:                 1.106
REMARK SMILES CCCCCCCCCCCCCCCCCCCCCCCCCCCC(=O)[O-]
REMARK SMILES IDX 15 1 16 2 17 3 18 4 19 5 20 6 21 7 22 8 23 9 24 10 25 11
REMARK SMILES IDX 26 12 27 13 28 14 29 15 30 16 14 17 13 18 12 19 11 20 10 21
REMARK SMILES IDX 9 22 8 23 7 24 6 25 5 26 4 27 3 28 2 29 1 30
REMARK H PARENT
REMARK Flexibility Score: inf
ROOT
ATOM      1  C   UNL     1       1.395   0.293   9.637  1.00  0.00     0.000 C 
ENDROOT
BRANCH   1   2
ATOM      2  C   UNL     1       1.628  -1.072  10.322  1.00  0.00     0.000 C 
BRANCH   2   3
ATOM      3  C   UNL     1       2.582  -2.007   9.554  1.00  0.00     0.000 C 
BRANCH   3   4
ATOM      4  C   UNL     1       2.705  -3.418  10.166  1.00  0.00     0.000 C 
BRANCH   4   5
ATOM      5  C   UNL     1       2.351  -4.522   9.153  1.00  0.00     0.000 C 
BRANCH   5   6
ATOM      6  C   UNL     1       1.437  -5.606   9.746  1.00  0.00     0.000 C 
BRANCH   6   7
ATOM      7  C   UNL     1       1.796  -5.952  11.200  1.00  0.00     0.000 C 
BRANCH   7   8
ATOM      8  C   UNL     1       0.953  -7.111  11.763  1.00  0.00     0.000 C 
BRANCH   8   9
ATOM      9  C   UNL     1       1.403  -8.516  11.319  1.00  0.00     0.000 C 
BRANCH   9  10
ATOM     10  C   UNL     1       2.614  -8.551  10.366  1.00  0.00     0.000 C 
BRANCH  10  11
ATOM     11  C   UNL     1       3.976  -8.632  11.086  1.00  0.00     0.000 C 
BRANCH  11  12
ATOM     12  C   UNL     1       3.848  -8.472  12.612  1.00  0.00     0.006 C 
BRANCH  12  13
ATOM     13  C   UNL     1       5.095  -7.834  13.236  1.00  0.00     0.053 C 
BRANCH  13  14
ATOM     14  C   UNL     1       5.777  -6.892  12.290  1.00  0.00     0.041 C 
ATOM     15  O   UNL     1       7.033  -6.883  12.199  1.00  0.00    -0.550 OA
ATOM     16  O   UNL     1       5.024  -6.018  11.515  1.00  0.00    -0.550 OA
ENDBRANCH  13  14
ENDBRANCH  12  13
ENDBRANCH  11  12
ENDBRANCH  10  11
ENDBRANCH   9  10
ENDBRANCH   8   9
ENDBRANCH   7   8
ENDBRANCH   6   7
ENDBRANCH   5   6
ENDBRANCH   4   5
ENDBRANCH   3   4
ENDBRANCH   2   3
ENDBRANCH   1   2
BRANCH   1  17
ATOM     17  C   UNL     1      -0.054   0.814   9.735  1.00  0.00     0.000 C 
BRANCH  17  18
ATOM     18  C   UNL     1      -0.262   2.280   9.294  1.00  0.00     0.000 C 
BRANCH  18  19
ATOM     19  C   UNL     1       0.986   2.982   8.729  1.00  0.00     0.000 C 
BRANCH  19  20
ATOM     20  C   UNL     1       2.245   2.730   9.576  1.00  0.00     0.000 C 
BRANCH  20  21
ATOM     21  C   UNL     1       3.015   4.024   9.886  1.00  0.00     0.000 C 
BRANCH  21  22
ATOM     22  C   UNL     1       4.215   3.778  10.816  1.00  0.00    -0.000 C 
BRANCH  22  23
ATOM     23  C   UNL     1       4.413   4.909  11.836  1.00  0.00    -0.000 C 
BRANCH  23  24
ATOM     24  C   UNL     1       3.416   6.068  11.641  1.00  0.00    -0.000 C 
BRANCH  24  25
ATOM     25  C   UNL     1       2.634   6.394  12.923  1.00  0.00    -0.000 C 
BRANCH  25  26
ATOM     26  C   UNL     1       3.041   5.499  14.106  1.00  0.00    -0.000 C 
BRANCH  26  27
ATOM     27  C   UNL     1       3.321   6.315  15.387  1.00  0.00    -0.000 C 
BRANCH  27  28
ATOM     28  C   UNL     1       4.812   6.633  15.603  1.00  0.00    -0.000 C 
BRANCH  28  29
ATOM     29  C   UNL     1       5.097   8.047  16.138  1.00  0.00    -0.003 C 
ATOM     30  C   UNL     1       4.370   9.135  15.350  1.00  0.00     0.004 C 
ENDBRANCH  28  29
ENDBRANCH  27  28
ENDBRANCH  26  27
ENDBRANCH  25  26
ENDBRANCH  24  25
ENDBRANCH  23  24
ENDBRANCH  22  23
ENDBRANCH  21  22
ENDBRANCH  20  21
ENDBRANCH  19  20
ENDBRANCH  18  19
ENDBRANCH  17  18
ENDBRANCH   1  17
TORSDOF 26
ENDMDL
MODEL 6
REMARK VINA RESULT:    19.311      3.579     12.036
REMARK INTER + INTRA:          49.768
REMARK INTER:                  51.130
REMARK INTRA:                  -1.361
REMARK UNBOUND:                 1.106
REMARK SMILES CCCCCCCCCCCCCCCCCCCCCCCCCCCC(=O)[O-]
REMARK SMILES IDX 15 1 16 2 17 3 18 4 19 5 20 6 21 7 22 8 23 9 24 10 25 11
REMARK SMILES IDX 26 12 27 13 28 14 29 15 30 16 14 17 13 18 12 19 11 20 10 21
REMARK SMILES IDX 9 22 8 23 7 24 6 25 5 26 4 27 3 28 2 29 1 30
REMARK H PARENT
REMARK Flexibility Score: inf
ROOT
ATOM      1  C   UNL     1       2.538  -1.154  10.232  1.00  0.00     0.000 C 
ENDROOT
BRANCH   1   2
ATOM      2  C   UNL     1       2.991  -2.553   9.756  1.00  0.00     0.000 C 
BRANCH   2   3
ATOM      3  C   UNL     1       1.931  -3.655   9.944  1.00  0.00     0.000 C 
BRANCH   3   4
ATOM      4  C   UNL     1       2.521  -5.072  10.100  1.00  0.00     0.000 C 
BRANCH   4   5
ATOM      5  C   UNL     1       1.772  -5.899  11.160  1.00  0.00     0.000 C 
BRANCH   5   6
ATOM      6  C   UNL     1       0.439  -6.464  10.645  1.00  0.00     0.000 C 
BRANCH   6   7
ATOM      7  C   UNL     1       0.354  -7.994  10.779  1.00  0.00     0.000 C 
BRANCH   7   8
ATOM      8  C   UNL     1       1.633  -8.612  11.373  1.00  0.00     0.000 C 
BRANCH   8   9
ATOM      9  C   UNL     1       2.836  -8.663  10.413  1.00  0.00     0.000 C 
BRANCH   9  10
ATOM     10  C   UNL     1       4.215  -8.458  11.071  1.00  0.00     0.000 C 
BRANCH  10  11
ATOM     11  C   UNL     1       4.147  -8.090  12.568  1.00  0.00     0.000 C 
BRANCH  11  12
ATOM     12  C   UNL     1       4.911  -6.795  12.893  1.00  0.00     0.006 C 
BRANCH  12  13
ATOM     13  C   UNL     1       6.306  -6.768  12.255  1.00  0.00     0.053 C 
BRANCH  13  14
ATOM     14  C   UNL     1       7.387  -6.585  13.277  1.00  0.00     0.041 C 
ATOM     15  O   UNL     1       7.262  -5.722  14.186  1.00  0.00    -0.550 OA
ATOM     16  O   UNL     1       8.538  -7.362  13.218  1.00  0.00    -0.550 OA
ENDBRANCH  13  14
ENDBRANCH  12  13
ENDBRANCH  11  12
ENDBRANCH  10  11
ENDBRANCH   9  10
ENDBRANCH   8   9
ENDBRANCH   7   8
ENDBRANCH   6   7
ENDBRANCH   5   6
ENDBRANCH   4   5
ENDBRANCH   3   4
ENDBRANCH   2   3
ENDBRANCH   1   2
BRANCH   1  17
ATOM     17  C   UNL     1       1.401  -0.534   9.394  1.00  0.00     0.000 C 
BRANCH  17  18
ATOM     18  C   UNL     1       0.550   0.532  10.118  1.00  0.00     0.000 C 
BRANCH  18  19
ATOM     19  C   UNL     1      -0.056   1.619   9.212  1.00  0.00     0.000 C 
BRANCH  19  20
ATOM     20  C   UNL     1       0.885   2.820   9.012  1.00  0.00     0.000 C 
BRANCH  20  21
ATOM     21  C   UNL     1       2.152   2.726   9.877  1.00  0.00     0.000 C 
BRANCH  21  22
ATOM     22  C   UNL     1       3.116   3.898   9.625  1.00  0.00    -0.000 C 
BRANCH  22  23
ATOM     23  C   UNL     1       3.619   4.539  10.928  1.00  0.00    -0.000 C 
BRANCH  23  24
ATOM     24  C   UNL     1       3.480   6.074  10.928  1.00  0.00    -0.000 C 
BRANCH  24  25
ATOM     25  C   UNL     1       3.057   6.626  12.298  1.00  0.00    -0.000 C 
BRANCH  25  26
ATOM     26  C   UNL     1       3.315   5.629  13.441  1.00  0.00    -0.000 C 
BRANCH  26  27
ATOM     27  C   UNL     1       2.546   6.003  14.727  1.00  0.00    -0.000 C 
BRANCH  27  28
ATOM     28  C   UNL     1       3.456   6.209  15.953  1.00  0.00    -0.000 C 
BRANCH  28  29
ATOM     29  C   UNL     1       4.818   6.853  15.642  1.00  0.00    -0.003 C 
ATOM     30  C   UNL     1       4.761   8.379  15.624  1.00  0.00     0.004 C 
ENDBRANCH  28  29
ENDBRANCH  27  28
ENDBRANCH  26  27
ENDBRANCH  25  26
ENDBRANCH  24  25
ENDBRANCH  23  24
ENDBRANCH  22  23
ENDBRANCH  21  22
ENDBRANCH  20  21
ENDBRANCH  19  20
ENDBRANCH  18  19
ENDBRANCH  17  18
ENDBRANCH   1  17
TORSDOF 26
ENDMDL
MODEL 7
REMARK VINA RESULT:    19.381      3.393     11.554
REMARK INTER + INTRA:          49.945
REMARK INTER:                  51.724
REMARK INTRA:                  -1.779
REMARK UNBOUND:                 1.106
REMARK SMILES CCCCCCCCCCCCCCCCCCCCCCCCCCCC(=O)[O-]
REMARK SMILES IDX 15 1 16 2 17 3 18 4 19 5 20 6 21 7 22 8 23 9 24 10 25 11
REMARK SMILES IDX 26 12 27 13 28 14 29 15 30 16 14 17 13 18 12 19 11 20 10 21
REMARK SMILES IDX 9 22 8 23 7 24 6 25 5 26 4 27 3 28 2 29 1 30
REMARK H PARENT
REMARK Flexibility Score: inf
ROOT
ATOM      1  C   UNL     1       2.625  -2.001  10.147  1.00  0.00     0.000 C 
ENDROOT
BRANCH   1   2
ATOM      2  C   UNL     1       2.331  -3.390   9.537  1.00  0.00     0.000 C 
BRANCH   2   3
ATOM      3  C   UNL     1       2.698  -4.571  10.456  1.00  0.00     0.000 C 
BRANCH   3   4
ATOM      4  C   UNL     1       1.649  -5.702  10.474  1.00  0.00     0.000 C 
BRANCH   4   5
ATOM      5  C   UNL     1       1.743  -6.560  11.749  1.00  0.00     0.000 C 
BRANCH   5   6
ATOM      6  C   UNL     1       1.477  -8.051  11.487  1.00  0.00     0.000 C 
BRANCH   6   7
ATOM      7  C   UNL     1       2.492  -8.669  10.511  1.00  0.00     0.000 C 
BRANCH   7   8
ATOM      8  C   UNL     1       3.951  -8.458  10.955  1.00  0.00     0.000 C 
BRANCH   8   9
ATOM      9  C   UNL     1       4.187  -8.547  12.475  1.00  0.00     0.000 C 
BRANCH   9  10
ATOM     10  C   UNL     1       4.994  -7.384  13.087  1.00  0.00     0.000 C 
BRANCH  10  11
ATOM     11  C   UNL     1       5.896  -6.647  12.075  1.00  0.00     0.000 C 
BRANCH  11  12
ATOM     12  C   UNL     1       7.373  -6.628  12.507  1.00  0.00     0.006 C 
BRANCH  12  13
ATOM     13  C   UNL     1       7.538  -6.819  14.020  1.00  0.00     0.053 C 
BRANCH  13  14
ATOM     14  C   UNL     1       7.853  -5.530  14.718  1.00  0.00     0.041 C 
ATOM     15  O   UNL     1       6.930  -4.848  15.236  1.00  0.00    -0.550 OA
ATOM     16  O   UNL     1       9.166  -5.079  14.787  1.00  0.00    -0.550 OA
ENDBRANCH  13  14
ENDBRANCH  12  13
ENDBRANCH  11  12
ENDBRANCH  10  11
ENDBRANCH   9  10
ENDBRANCH   8   9
ENDBRANCH   7   8
ENDBRANCH   6   7
ENDBRANCH   5   6
ENDBRANCH   4   5
ENDBRANCH   3   4
ENDBRANCH   2   3
ENDBRANCH   1   2
BRANCH   1  17
ATOM     17  C   UNL     1       2.033  -0.819   9.351  1.00  0.00     0.000 C 
BRANCH  17  18
ATOM     18  C   UNL     1       1.405   0.305  10.203  1.00  0.00     0.000 C 
BRANCH  18  19
ATOM     19  C   UNL     1      -0.000   0.757   9.766  1.00  0.00     0.000 C 
BRANCH  19  20
ATOM     20  C   UNL     1      -0.028   2.211   9.261  1.00  0.00     0.000 C 
BRANCH  20  21
ATOM     21  C   UNL     1       1.351   2.694   8.782  1.00  0.00     0.000 C 
BRANCH  21  22
ATOM     22  C   UNL     1       1.511   4.218   8.917  1.00  0.00    -0.000 C 
BRANCH  22  23
ATOM     23  C   UNL     1       2.897   4.621   9.442  1.00  0.00    -0.000 C 
BRANCH  23  24
ATOM     24  C   UNL     1       3.384   3.718  10.592  1.00  0.00    -0.000 C 
BRANCH  24  25
ATOM     25  C   UNL     1       4.398   4.423  11.506  1.00  0.00    -0.000 C 
BRANCH  25  26
ATOM     26  C   UNL     1       3.874   5.767  12.042  1.00  0.00    -0.000 C 
BRANCH  26  27
ATOM     27  C   UNL     1       2.953   5.589  13.268  1.00  0.00    -0.000 C 
BRANCH  27  28
ATOM     28  C   UNL     1       3.694   5.679  14.615  1.00  0.00    -0.000 C 
BRANCH  28  29
ATOM     29  C   UNL     1       4.413   7.016  14.866  1.00  0.00    -0.003 C 
ATOM     30  C   UNL     1       4.921   7.155  16.300  1.00  0.00     0.004 C 
ENDBRANCH  28  29
ENDBRANCH  27  28
ENDBRANCH  26  27
ENDBRANCH  25  26
ENDBRANCH  24  25
ENDBRANCH  23  24
ENDBRANCH  22  23
ENDBRANCH  21  22
ENDBRANCH  20  21
ENDBRANCH  19  20
ENDBRANCH  18  19
ENDBRANCH  17  18
ENDBRANCH   1  17
TORSDOF 26
ENDMDL
MODEL 8
REMARK VINA RESULT:    19.383      3.644     11.865
REMARK INTER + INTRA:          49.951
REMARK INTER:                  49.330
REMARK INTRA:                   0.621
REMARK UNBOUND:                 1.106
REMARK SMILES CCCCCCCCCCCCCCCCCCCCCCCCCCCC(=O)[O-]
REMARK SMILES IDX 15 1 16 2 17 3 18 4 19 5 20 6 21 7 22 8 23 9 24 10 25 11
REMARK SMILES IDX 26 12 27 13 28 14 29 15 30 16 14 17 13 18 12 19 11 20 10 21
REMARK SMILES IDX 9 22 8 23 7 24 6 25 5 26 4 27 3 28 2 29 1 30
REMARK H PARENT
REMARK Flexibility Score: inf
ROOT
ATOM      1  C   UNL     1       2.302  -1.331  10.207  1.00  0.00     0.000 C 
ENDROOT
BRANCH   1   2
ATOM      2  C   UNL     1       2.655  -2.618   9.428  1.00  0.00     0.000 C 
BRANCH   2   3
ATOM      3  C   UNL     1       2.343  -3.920  10.190  1.00  0.00     0.000 C 
BRANCH   3   4
ATOM      4  C   UNL     1       1.678  -5.010   9.324  1.00  0.00     0.000 C 
BRANCH   4   5
ATOM      5  C   UNL     1       0.907  -6.036  10.174  1.00  0.00     0.000 C 
BRANCH   5   6
ATOM      6  C   UNL     1      -0.410  -6.484   9.522  1.00  0.00     0.000 C 
BRANCH   6   7
ATOM      7  C   UNL     1      -0.898  -7.844  10.048  1.00  0.00     0.000 C 
BRANCH   7   8
ATOM      8  C   UNL     1       0.204  -8.626  10.788  1.00  0.00     0.000 C 
BRANCH   8   9
ATOM      9  C   UNL     1       0.712  -7.963  12.082  1.00  0.00     0.000 C 
BRANCH   9  10
ATOM     10  C   UNL     1       2.201  -7.563  12.077  1.00  0.00     0.000 C 
BRANCH  10  11
ATOM     11  C   UNL     1       3.044  -8.266  13.162  1.00  0.00     0.000 C 
BRANCH  11  12
ATOM     12  C   UNL     1       4.526  -8.392  12.768  1.00  0.00     0.006 C 
BRANCH  12  13
ATOM     13  C   UNL     1       4.984  -7.246  11.856  1.00  0.00     0.053 C 
BRANCH  13  14
ATOM     14  C   UNL     1       6.330  -6.718  12.251  1.00  0.00     0.041 C 
ATOM     15  O   UNL     1       6.753  -5.635  11.767  1.00  0.00    -0.550 OA
ATOM     16  O   UNL     1       7.122  -7.429  13.145  1.00  0.00    -0.550 OA
ENDBRANCH  13  14
ENDBRANCH  12  13
ENDBRANCH  11  12
ENDBRANCH  10  11
ENDBRANCH   9  10
ENDBRANCH   8   9
ENDBRANCH   7   8
ENDBRANCH   6   7
ENDBRANCH   5   6
ENDBRANCH   4   5
ENDBRANCH   3   4
ENDBRANCH   2   3
ENDBRANCH   1   2
BRANCH   1  17
ATOM     17  C   UNL     1       1.519  -0.285   9.386  1.00  0.00     0.000 C 
BRANCH  17  18
ATOM     18  C   UNL     1       0.482   0.539  10.180  1.00  0.00     0.000 C 
BRANCH  18  19
ATOM     19  C   UNL     1      -0.287   1.593   9.364  1.00  0.00     0.000 C 
BRANCH  19  20
ATOM     20  C   UNL     1       0.591   2.792   8.963  1.00  0.00     0.000 C 
BRANCH  20  21
ATOM     21  C   UNL     1       2.093   2.489   9.085  1.00  0.00     0.000 C 
BRANCH  21  22
ATOM     22  C   UNL     1       2.883   3.685   9.644  1.00  0.00    -0.000 C 
BRANCH  22  23
ATOM     23  C   UNL     1       3.958   3.261  10.656  1.00  0.00    -0.000 C 
BRANCH  23  24
ATOM     24  C   UNL     1       4.837   4.439  11.120  1.00  0.00    -0.000 C 
BRANCH  24  25
ATOM     25  C   UNL     1       4.364   5.038  12.452  1.00  0.00    -0.000 C 
BRANCH  25  26
ATOM     26  C   UNL     1       3.444   6.256  12.257  1.00  0.00    -0.000 C 
BRANCH  26  27
ATOM     27  C   UNL     1       2.705   6.644  13.557  1.00  0.00    -0.000 C 
BRANCH  27  28
ATOM     28  C   UNL     1       2.996   5.699  14.738  1.00  0.00    -0.000 C 
BRANCH  28  29
ATOM     29  C   UNL     1       3.696   6.364  15.936  1.00  0.00    -0.003 C 
ATOM     30  C   UNL     1       5.014   7.034  15.554  1.00  0.00     0.004 C 
ENDBRANCH  28  29
ENDBRANCH  27  28
ENDBRANCH  26  27
ENDBRANCH  25  26
ENDBRANCH  24  25
ENDBRANCH  23  24
ENDBRANCH  22  23
ENDBRANCH  21  22
ENDBRANCH  20  21
ENDBRANCH  19  20
ENDBRANCH  18  19
ENDBRANCH  17  18
ENDBRANCH   1  17
TORSDOF 26
ENDMDL
MODEL 9
REMARK VINA RESULT:    20.107      3.948     11.981
REMARK INTER + INTRA:          51.775
REMARK INTER:                  52.646
REMARK INTRA:                  -0.871
REMARK UNBOUND:                 1.106
REMARK SMILES CCCCCCCCCCCCCCCCCCCCCCCCCCCC(=O)[O-]
REMARK SMILES IDX 15 1 16 2 17 3 18 4 19 5 20 6 21 7 22 8 23 9 24 10 25 11
REMARK SMILES IDX 26 12 27 13 28 14 29 15 30 16 14 17 13 18 12 19 11 20 10 21
REMARK SMILES IDX 9 22 8 23 7 24 6 25 5 26 4 27 3 28 2 29 1 30
REMARK H PARENT
REMARK Flexibility Score: inf
ROOT
ATOM      1  C   UNL     1      -0.206   1.548   9.736  1.00  0.00     0.000 C 
ENDROOT
BRANCH   1   2
ATOM      2  C   UNL     1       0.331   0.101   9.805  1.00  0.00     0.000 C 
BRANCH   2   3
ATOM      3  C   UNL     1       1.753  -0.015  10.387  1.00  0.00     0.000 C 
BRANCH   3   4
ATOM      4  C   UNL     1       2.585  -1.166   9.784  1.00  0.00     0.000 C 
BRANCH   4   5
ATOM      5  C   UNL     1       1.871  -2.524   9.905  1.00  0.00     0.000 C 
BRANCH   5   6
ATOM      6  C   UNL     1       2.836  -3.685  10.194  1.00  0.00     0.000 C 
BRANCH   6   7
ATOM      7  C   UNL     1       2.140  -5.055  10.155  1.00  0.00     0.000 C 
BRANCH   7   8
ATOM      8  C   UNL     1       2.357  -5.871  11.443  1.00  0.00     0.000 C 
BRANCH   8   9
ATOM      9  C   UNL     1       1.601  -7.212  11.498  1.00  0.00     0.000 C 
BRANCH   9  10
ATOM     10  C   UNL     1       2.336  -8.411  10.868  1.00  0.00     0.000 C 
BRANCH  10  11
ATOM     11  C   UNL     1       3.865  -8.390  11.079  1.00  0.00     0.000 C 
BRANCH  11  12
ATOM     12  C   UNL     1       4.254  -8.352  12.568  1.00  0.00     0.006 C 
BRANCH  12  13
ATOM     13  C   UNL     1       4.902  -7.020  12.965  1.00  0.00     0.053 C 
BRANCH  13  14
ATOM     14  C   UNL     1       6.337  -6.943  12.539  1.00  0.00     0.041 C 
ATOM     15  O   UNL     1       6.642  -7.026  11.320  1.00  0.00    -0.550 OA
ATOM     16  O   UNL     1       7.338  -6.791  13.491  1.00  0.00    -0.550 OA
ENDBRANCH  13  14
ENDBRANCH  12  13
ENDBRANCH  11  12
ENDBRANCH  10  11
ENDBRANCH   9  10
ENDBRANCH   8   9
ENDBRANCH   7   8
ENDBRANCH   6   7
ENDBRANCH   5   6
ENDBRANCH   4   5
ENDBRANCH   3   4
ENDBRANCH   2   3
ENDBRANCH   1   2
BRANCH   1  17
ATOM     17  C   UNL     1       0.385   2.391   8.587  1.00  0.00     0.000 C 
BRANCH  17  18
ATOM     18  C   UNL     1       1.046   3.720   9.014  1.00  0.00     0.000 C 
BRANCH  18  19
ATOM     19  C   UNL     1       2.584   3.706   9.059  1.00  0.00     0.000 C 
BRANCH  19  20
ATOM     20  C   UNL     1       3.161   4.770  10.010  1.00  0.00     0.000 C 
BRANCH  20  21
ATOM     21  C   UNL     1       4.305   4.224  10.880  1.00  0.00     0.000 C 
BRANCH  21  22
ATOM     22  C   UNL     1       4.289   4.817  12.300  1.00  0.00    -0.000 C 
BRANCH  22  23
ATOM     23  C   UNL     1       3.321   6.003  12.433  1.00  0.00    -0.000 C 
BRANCH  23  24
ATOM     24  C   UNL     1       2.832   6.213  13.879  1.00  0.00    -0.000 C 
BRANCH  24  25
ATOM     25  C   UNL     1       3.892   6.880  14.769  1.00  0.00    -0.000 C 
BRANCH  25  26
ATOM     26  C   UNL     1       3.960   6.258  16.174  1.00  0.00    -0.000 C 
BRANCH  26  27
ATOM     27  C   UNL     1       2.621   5.612  16.592  1.00  0.00    -0.000 C 
BRANCH  27  28
ATOM     28  C   UNL     1       2.177   5.979  18.020  1.00  0.00    -0.000 C 
BRANCH  28  29
ATOM     29  C   UNL     1       1.475   4.845  18.787  1.00  0.00    -0.003 C 
ATOM     30  C   UNL     1       2.012   3.463  18.423  1.00  0.00     0.004 C 
ENDBRANCH  28  29
ENDBRANCH  27  28
ENDBRANCH  26  27
ENDBRANCH  25  26
ENDBRANCH  24  25
ENDBRANCH  23  24
ENDBRANCH  22  23
ENDBRANCH  21  22
ENDBRANCH  20  21
ENDBRANCH  19  20
ENDBRANCH  18  19
ENDBRANCH  17  18
ENDBRANCH   1  17
TORSDOF 26
ENDMDL
