MODEL 1
REMARK VINA RESULT:    -6.677      0.000      0.000
REMARK INTER + INTRA:          -8.310
REMARK INTER:                  -8.043
REMARK INTRA:                  -0.267
REMARK UNBOUND:                -0.267
REMARK SMILES Oc1cc(O)c2c(c1)O[C@@H](c1ccc(O)c(O)c1)[C@@H](O)C2
REMARK SMILES IDX 21 1 19 2 10 3 9 4 7 5 8 6 2 7 3 8 4 9 6 10 20 11 11 13
REMARK SMILES IDX 18 14 12 15 16 16 13 17 14 18 17 19 15 21 5 23 1 25
REMARK H PARENT 20 12 17 20 15 22 5 24 1 26
REMARK Flexibility Score: inf
ROOT
ATOM      1  C   UNL     1       7.508 -61.846 189.592  1.00  0.00     0.079 C 
ATOM      2  C   UNL     1       6.832 -61.045 190.721  1.00  0.00     0.164 C 
ATOM      3  C   UNL     1       5.609 -60.299 190.159  1.00  0.00     0.232 C 
ATOM      4  O   UNL     1       4.710 -61.228 189.548  1.00  0.00    -0.482 OA
ATOM      5  C   UNL     1       5.153 -62.348 188.837  1.00  0.00     0.131 A 
ATOM      6  C   UNL     1       4.218 -63.133 188.156  1.00  0.00     0.093 A 
ATOM      7  C   UNL     1       4.629 -64.270 187.452  1.00  0.00     0.122 A 
ATOM      8  C   UNL     1       5.984 -64.608 187.408  1.00  0.00     0.092 A 
ATOM      9  C   UNL     1       6.937 -63.825 188.072  1.00  0.00     0.126 A 
ATOM     10  C   UNL     1       6.520 -62.703 188.828  1.00  0.00     0.039 A 
ENDROOT
BRANCH   2  11
ATOM     11  O   UNL     1       6.428 -61.913 191.751  1.00  0.00    -0.389 OA
ATOM     12  H   UNL     1       7.252 -62.198 192.224  1.00  0.00     0.211 HD
ENDBRANCH   2  11
BRANCH   3  13
ATOM     13  C   UNL     1       4.915 -59.492 191.236  1.00  0.00    -0.001 A 
ATOM     14  C   UNL     1       5.642 -58.792 192.219  1.00  0.00     0.057 A 
ATOM     15  C   UNL     1       3.513 -59.402 191.232  1.00  0.00     0.012 A 
ATOM     16  C   UNL     1       4.974 -58.027 193.185  1.00  0.00     0.157 A 
ATOM     17  C   UNL     1       2.848 -58.638 192.193  1.00  0.00     0.050 A 
ATOM     18  C   UNL     1       3.577 -57.944 193.167  1.00  0.00     0.157 A 
BRANCH  16  19
ATOM     19  O   UNL     1       5.693 -57.347 194.166  1.00  0.00    -0.504 OA
ATOM     20  H   UNL     1       5.479 -57.450 195.151  1.00  0.00     0.293 HD
ENDBRANCH  16  19
BRANCH  18  21
ATOM     21  O   UNL     1       2.919 -57.170 194.119  1.00  0.00    -0.504 OA
ATOM     22  H   UNL     1       2.787 -56.171 193.991  1.00  0.00     0.293 HD
ENDBRANCH  18  21
ENDBRANCH   3  13
BRANCH   9  23
ATOM     23  O   UNL     1       8.283 -64.184 187.949  1.00  0.00    -0.507 OA
ATOM     24  H   UNL     1       8.719 -64.907 188.509  1.00  0.00     0.293 HD
ENDBRANCH   9  23
BRANCH   7  25
ATOM     25  O   UNL     1       3.700 -65.075 186.800  1.00  0.00    -0.508 OA
ATOM     26  H   UNL     1       3.985 -65.897 186.287  1.00  0.00     0.293 HD
ENDBRANCH   7  25
TORSDOF 6
ENDMDL
MODEL 2
REMARK VINA RESULT:    -6.524      1.830      3.063
REMARK INTER + INTRA:          -8.127
REMARK INTER:                  -7.950
REMARK INTRA:                  -0.176
REMARK UNBOUND:                -0.267
REMARK SMILES Oc1cc(O)c2c(c1)O[C@@H](c1ccc(O)c(O)c1)[C@@H](O)C2
REMARK SMILES IDX 21 1 19 2 10 3 9 4 7 5 8 6 2 7 3 8 4 9 6 10 20 11 11 13
REMARK SMILES IDX 18 14 12 15 16 16 13 17 14 18 17 19 15 21 5 23 1 25
REMARK H PARENT 20 12 17 20 15 22 5 24 1 26
REMARK Flexibility Score: inf
ROOT
ATOM      1  C   UNL     1       3.151 -61.490 189.175  1.00  0.00     0.079 C 
ATOM      2  C   UNL     1       3.364 -60.031 189.619  1.00  0.00     0.164 C 
ATOM      3  C   UNL     1       4.422 -59.984 190.735  1.00  0.00     0.232 C 
ATOM      4  O   UNL     1       5.635 -60.590 190.282  1.00  0.00    -0.482 OA
ATOM      5  C   UNL     1       5.650 -61.706 189.439  1.00  0.00     0.131 A 
ATOM      6  C   UNL     1       6.872 -62.322 189.150  1.00  0.00     0.093 A 
ATOM      7  C   UNL     1       6.920 -63.428 188.295  1.00  0.00     0.122 A 
ATOM      8  C   UNL     1       5.739 -63.935 187.748  1.00  0.00     0.092 A 
ATOM      9  C   UNL     1       4.505 -63.341 188.038  1.00  0.00     0.126 A 
ATOM     10  C   UNL     1       4.457 -62.190 188.861  1.00  0.00     0.039 A 
ENDROOT
BRANCH   2  11
ATOM     11  O   UNL     1       3.790 -59.254 188.527  1.00  0.00    -0.389 OA
ATOM     12  H   UNL     1       4.777 -59.180 188.597  1.00  0.00     0.211 HD
ENDBRANCH   2  11
BRANCH   3  13
ATOM     13  C   UNL     1       4.661 -58.565 191.206  1.00  0.00    -0.001 A 
ATOM     14  C   UNL     1       5.615 -57.731 190.589  1.00  0.00     0.057 A 
ATOM     15  C   UNL     1       3.884 -58.049 192.257  1.00  0.00     0.012 A 
ATOM     16  C   UNL     1       5.793 -56.412 191.025  1.00  0.00     0.157 A 
ATOM     17  C   UNL     1       4.059 -56.733 192.690  1.00  0.00     0.050 A 
ATOM     18  C   UNL     1       5.009 -55.910 192.071  1.00  0.00     0.157 A 
BRANCH  16  19
ATOM     19  O   UNL     1       6.747 -55.593 190.424  1.00  0.00    -0.504 OA
ATOM     20  H   UNL     1       6.872 -55.571 189.419  1.00  0.00     0.293 HD
ENDBRANCH  16  19
BRANCH  18  21
ATOM     21  O   UNL     1       5.179 -54.593 192.490  1.00  0.00    -0.504 OA
ATOM     22  H   UNL     1       6.032 -54.079 192.294  1.00  0.00     0.293 HD
ENDBRANCH  18  21
ENDBRANCH   3  13
BRANCH   9  23
ATOM     23  O   UNL     1       3.352 -63.925 187.501  1.00  0.00    -0.507 OA
ATOM     24  H   UNL     1       3.340 -64.845 187.080  1.00  0.00     0.293 HD
ENDBRANCH   9  23
BRANCH   7  25
ATOM     25  O   UNL     1       8.137 -64.025 187.976  1.00  0.00    -0.508 OA
ATOM     26  H   UNL     1       8.313 -64.999 188.178  1.00  0.00     0.293 HD
ENDBRANCH   7  25
TORSDOF 6
ENDMDL
MODEL 3
REMARK VINA RESULT:    -6.499      1.922      3.379
REMARK INTER + INTRA:          -8.096
REMARK INTER:                  -7.713
REMARK INTRA:                  -0.383
REMARK UNBOUND:                -0.267
REMARK SMILES Oc1cc(O)c2c(c1)O[C@@H](c1ccc(O)c(O)c1)[C@@H](O)C2
REMARK SMILES IDX 21 1 19 2 10 3 9 4 7 5 8 6 2 7 3 8 4 9 6 10 20 11 11 13
REMARK SMILES IDX 18 14 12 15 16 16 13 17 14 18 17 19 15 21 5 23 1 25
REMARK H PARENT 20 12 17 20 15 22 5 24 1 26
REMARK Flexibility Score: inf
ROOT
ATOM      1  C   UNL     1       4.240 -60.384 189.544  1.00  0.00     0.079 C 
ATOM      2  C   UNL     1       4.383 -58.993 190.189  1.00  0.00     0.164 C 
ATOM      3  C   UNL     1       4.947 -59.144 191.613  1.00  0.00     0.232 C 
ATOM      4  O   UNL     1       6.191 -59.847 191.572  1.00  0.00    -0.482 OA
ATOM      5  C   UNL     1       6.435 -60.894 190.678  1.00  0.00     0.131 A 
ATOM      6  C   UNL     1       7.625 -61.620 190.790  1.00  0.00     0.093 A 
ATOM      7  C   UNL     1       7.906 -62.660 189.897  1.00  0.00     0.122 A 
ATOM      8  C   UNL     1       6.980 -62.992 188.906  1.00  0.00     0.092 A 
ATOM      9  C   UNL     1       5.776 -62.287 188.787  1.00  0.00     0.126 A 
ATOM     10  C   UNL     1       5.511 -61.201 189.655  1.00  0.00     0.039 A 
ENDROOT
BRANCH   2  11
ATOM     11  O   UNL     1       5.244 -58.192 189.419  1.00  0.00    -0.389 OA
ATOM     12  H   UNL     1       6.112 -58.671 189.371  1.00  0.00     0.211 HD
ENDBRANCH   2  11
BRANCH   3  13
ATOM     13  C   UNL     1       5.100 -57.798 192.289  1.00  0.00    -0.001 A 
ATOM     14  C   UNL     1       6.365 -57.281 192.630  1.00  0.00     0.057 A 
ATOM     15  C   UNL     1       3.956 -57.023 192.545  1.00  0.00     0.012 A 
ATOM     16  C   UNL     1       6.479 -56.018 193.226  1.00  0.00     0.157 A 
ATOM     17  C   UNL     1       4.069 -55.764 193.137  1.00  0.00     0.050 A 
ATOM     18  C   UNL     1       5.331 -55.256 193.472  1.00  0.00     0.157 A 
BRANCH  16  19
ATOM     19  O   UNL     1       7.730 -55.514 193.576  1.00  0.00    -0.504 OA
ATOM     20  H   UNL     1       8.580 -56.045 193.423  1.00  0.00     0.293 HD
ENDBRANCH  16  19
BRANCH  18  21
ATOM     21  O   UNL     1       5.451 -53.995 194.050  1.00  0.00    -0.504 OA
ATOM     22  H   UNL     1       4.937 -53.745 194.890  1.00  0.00     0.293 HD
ENDBRANCH  18  21
ENDBRANCH   3  13
BRANCH   9  23
ATOM     23  O   UNL     1       4.866 -62.700 187.807  1.00  0.00    -0.507 OA
ATOM     24  H   UNL     1       3.863 -62.701 187.945  1.00  0.00     0.293 HD
ENDBRANCH   9  23
BRANCH   7  25
ATOM     25  O   UNL     1       9.104 -63.363 189.982  1.00  0.00    -0.508 OA
ATOM     26  H   UNL     1       9.970 -62.899 190.216  1.00  0.00     0.293 HD
ENDBRANCH   7  25
TORSDOF 6
ENDMDL
MODEL 4
REMARK VINA RESULT:    -6.137      1.934      3.428
REMARK INTER + INTRA:          -7.660
REMARK INTER:                  -7.475
REMARK INTRA:                  -0.185
REMARK UNBOUND:                -0.267
REMARK SMILES Oc1cc(O)c2c(c1)O[C@@H](c1ccc(O)c(O)c1)[C@@H](O)C2
REMARK SMILES IDX 21 1 19 2 10 3 9 4 7 5 8 6 2 7 3 8 4 9 6 10 20 11 11 13
REMARK SMILES IDX 18 14 12 15 16 16 13 17 14 18 17 19 15 21 5 23 1 25
REMARK H PARENT 20 12 17 20 15 22 5 24 1 26
REMARK Flexibility Score: inf
ROOT
ATOM      1  C   UNL     1       3.982 -60.155 189.902  1.00  0.00     0.079 C 
ATOM      2  C   UNL     1       4.494 -58.910 190.651  1.00  0.00     0.164 C 
ATOM      3  C   UNL     1       5.318 -59.351 191.873  1.00  0.00     0.232 C 
ATOM      4  O   UNL     1       6.387 -60.205 191.458  1.00  0.00    -0.482 OA
ATOM      5  C   UNL     1       6.251 -61.129 190.417  1.00  0.00     0.131 A 
ATOM      6  C   UNL     1       7.297 -62.021 190.160  1.00  0.00     0.093 A 
ATOM      7  C   UNL     1       7.198 -62.943 189.113  1.00  0.00     0.122 A 
ATOM      8  C   UNL     1       6.038 -62.991 188.338  1.00  0.00     0.092 A 
ATOM      9  C   UNL     1       4.973 -62.117 188.589  1.00  0.00     0.126 A 
ATOM     10  C   UNL     1       5.090 -61.147 189.614  1.00  0.00     0.039 A 
ENDROOT
BRANCH   2  11
ATOM     11  O   UNL     1       5.292 -58.130 189.795  1.00  0.00    -0.389 OA
ATOM     12  H   UNL     1       5.754 -57.462 190.366  1.00  0.00     0.211 HD
ENDBRANCH   2  11
BRANCH   3  13
ATOM     13  C   UNL     1       5.839 -58.156 192.643  1.00  0.00    -0.001 A 
ATOM     14  C   UNL     1       7.101 -58.173 193.271  1.00  0.00     0.057 A 
ATOM     15  C   UNL     1       5.066 -56.984 192.700  1.00  0.00     0.012 A 
ATOM     16  C   UNL     1       7.571 -57.041 193.950  1.00  0.00     0.157 A 
ATOM     17  C   UNL     1       5.535 -55.856 193.376  1.00  0.00     0.050 A 
ATOM     18  C   UNL     1       6.792 -55.879 193.996  1.00  0.00     0.157 A 
BRANCH  16  19
ATOM     19  O   UNL     1       8.813 -57.065 194.582  1.00  0.00    -0.504 OA
ATOM     20  H   UNL     1       9.412 -56.248 194.611  1.00  0.00     0.293 HD
ENDBRANCH  16  19
BRANCH  18  21
ATOM     21  O   UNL     1       7.270 -54.753 194.659  1.00  0.00    -0.504 OA
ATOM     22  H   UNL     1       6.784 -54.363 195.461  1.00  0.00     0.293 HD
ENDBRANCH  18  21
ENDBRANCH   3  13
BRANCH   9  23
ATOM     23  O   UNL     1       3.818 -62.247 187.812  1.00  0.00    -0.507 OA
ATOM     24  H   UNL     1       3.798 -62.080 186.813  1.00  0.00     0.293 HD
ENDBRANCH   9  23
BRANCH   7  25
ATOM     25  O   UNL     1       8.249 -63.811 188.831  1.00  0.00    -0.508 OA
ATOM     26  H   UNL     1       9.088 -63.821 189.394  1.00  0.00     0.293 HD
ENDBRANCH   7  25
TORSDOF 6
ENDMDL
MODEL 5
REMARK VINA RESULT:    -5.538      1.225      7.275
REMARK INTER + INTRA:          -6.938
REMARK INTER:                  -7.117
REMARK INTRA:                   0.178
REMARK UNBOUND:                -0.267
REMARK SMILES Oc1cc(O)c2c(c1)O[C@@H](c1ccc(O)c(O)c1)[C@@H](O)C2
REMARK SMILES IDX 21 1 19 2 10 3 9 4 7 5 8 6 2 7 3 8 4 9 6 10 20 11 11 13
REMARK SMILES IDX 18 14 12 15 16 16 13 17 14 18 17 19 15 21 5 23 1 25
REMARK H PARENT 20 12 17 20 15 22 5 24 1 26
REMARK Flexibility Score: inf
ROOT
ATOM      1  C   UNL     1       3.525 -58.735 190.194  1.00  0.00     0.079 C 
ATOM      2  C   UNL     1       3.869 -60.115 189.602  1.00  0.00     0.164 C 
ATOM      3  C   UNL     1       5.394 -60.313 189.614  1.00  0.00     0.232 C 
ATOM      4  O   UNL     1       5.895 -60.160 190.944  1.00  0.00    -0.482 OA
ATOM      5  C   UNL     1       5.369 -59.228 191.844  1.00  0.00     0.131 A 
ATOM      6  C   UNL     1       5.999 -59.046 193.079  1.00  0.00     0.093 A 
ATOM      7  C   UNL     1       5.484 -58.135 194.008  1.00  0.00     0.122 A 
ATOM      8  C   UNL     1       4.349 -57.386 193.689  1.00  0.00     0.092 A 
ATOM      9  C   UNL     1       3.713 -57.543 192.452  1.00  0.00     0.126 A 
ATOM     10  C   UNL     1       4.200 -58.501 191.530  1.00  0.00     0.039 A 
ENDROOT
BRANCH   2  11
ATOM     11  O   UNL     1       3.252 -61.128 190.357  1.00  0.00    -0.389 OA
ATOM     12  H   UNL     1       2.742 -60.677 191.078  1.00  0.00     0.211 HD
ENDBRANCH   2  11
BRANCH   3  13
ATOM     13  C   UNL     1       5.778 -61.658 189.034  1.00  0.00    -0.001 A 
ATOM     14  C   UNL     1       4.820 -62.517 188.460  1.00  0.00     0.057 A 
ATOM     15  C   UNL     1       7.129 -62.045 189.030  1.00  0.00     0.012 A 
ATOM     16  C   UNL     1       5.208 -63.742 187.902  1.00  0.00     0.157 A 
ATOM     17  C   UNL     1       7.516 -63.265 188.473  1.00  0.00     0.050 A 
ATOM     18  C   UNL     1       6.558 -64.113 187.902  1.00  0.00     0.157 A 
BRANCH  16  19
ATOM     19  O   UNL     1       4.258 -64.597 187.348  1.00  0.00    -0.504 OA
ATOM     20  H   UNL     1       4.115 -65.535 187.702  1.00  0.00     0.293 HD
ENDBRANCH  16  19
BRANCH  18  21
ATOM     21  O   UNL     1       6.941 -65.325 187.333  1.00  0.00    -0.504 OA
ATOM     22  H   UNL     1       7.834 -65.430 186.860  1.00  0.00     0.293 HD
ENDBRANCH  18  21
ENDBRANCH   3  13
BRANCH   9  23
ATOM     23  O   UNL     1       2.611 -56.728 192.171  1.00  0.00    -0.507 OA
ATOM     24  H   UNL     1       2.273 -56.556 191.232  1.00  0.00     0.293 HD
ENDBRANCH   9  23
BRANCH   7  25
ATOM     25  O   UNL     1       6.087 -57.974 195.252  1.00  0.00    -0.508 OA
ATOM     26  H   UNL     1       5.766 -58.485 196.062  1.00  0.00     0.293 HD
ENDBRANCH   7  25
TORSDOF 6
ENDMDL
MODEL 6
REMARK VINA RESULT:    -5.512      1.762      6.868
REMARK INTER + INTRA:          -6.907
REMARK INTER:                  -6.556
REMARK INTRA:                  -0.351
REMARK UNBOUND:                -0.267
REMARK SMILES Oc1cc(O)c2c(c1)O[C@@H](c1ccc(O)c(O)c1)[C@@H](O)C2
REMARK SMILES IDX 21 1 19 2 10 3 9 4 7 5 8 6 2 7 3 8 4 9 6 10 20 11 11 13
REMARK SMILES IDX 18 14 12 15 16 16 13 17 14 18 17 19 15 21 5 23 1 25
REMARK H PARENT 20 12 17 20 15 22 5 24 1 26
REMARK Flexibility Score: inf
ROOT
ATOM      1  C   UNL     1       6.308 -60.240 191.391  1.00  0.00     0.079 C 
ATOM      2  C   UNL     1       6.004 -61.070 190.130  1.00  0.00     0.164 C 
ATOM      3  C   UNL     1       4.492 -61.337 190.044  1.00  0.00     0.232 C 
ATOM      4  O   UNL     1       3.776 -60.099 190.057  1.00  0.00    -0.482 OA
ATOM      5  C   UNL     1       4.185 -59.001 190.821  1.00  0.00     0.131 A 
ATOM      6  C   UNL     1       3.360 -57.874 190.886  1.00  0.00     0.093 A 
ATOM      7  C   UNL     1       3.752 -56.754 191.626  1.00  0.00     0.122 A 
ATOM      8  C   UNL     1       4.960 -56.772 192.327  1.00  0.00     0.092 A 
ATOM      9  C   UNL     1       5.792 -57.898 192.287  1.00  0.00     0.126 A 
ATOM     10  C   UNL     1       5.425 -59.014 191.497  1.00  0.00     0.039 A 
ENDROOT
BRANCH   2  11
ATOM     11  O   UNL     1       6.430 -60.375 188.984  1.00  0.00    -0.389 OA
ATOM     12  H   UNL     1       6.960 -59.599 189.302  1.00  0.00     0.211 HD
ENDBRANCH   2  11
BRANCH   3  13
ATOM     13  C   UNL     1       4.147 -62.156 188.818  1.00  0.00    -0.001 A 
ATOM     14  C   UNL     1       4.828 -63.351 188.511  1.00  0.00     0.057 A 
ATOM     15  C   UNL     1       3.094 -61.740 187.986  1.00  0.00     0.012 A 
ATOM     16  C   UNL     1       4.467 -64.106 187.387  1.00  0.00     0.157 A 
ATOM     17  C   UNL     1       2.733 -62.492 186.867  1.00  0.00     0.050 A 
ATOM     18  C   UNL     1       3.414 -63.680 186.569  1.00  0.00     0.157 A 
BRANCH  16  19
ATOM     19  O   UNL     1       5.151 -65.279 187.077  1.00  0.00    -0.504 OA
ATOM     20  H   UNL     1       6.033 -65.514 187.518  1.00  0.00     0.293 HD
ENDBRANCH  16  19
BRANCH  18  21
ATOM     21  O   UNL     1       3.049 -64.442 185.462  1.00  0.00    -0.504 OA
ATOM     22  H   UNL     1       2.425 -64.076 184.749  1.00  0.00     0.293 HD
ENDBRANCH  18  21
ENDBRANCH   3  13
BRANCH   9  23
ATOM     23  O   UNL     1       6.965 -57.876 193.049  1.00  0.00    -0.507 OA
ATOM     24  H   UNL     1       6.970 -57.809 194.060  1.00  0.00     0.293 HD
ENDBRANCH   9  23
BRANCH   7  25
ATOM     25  O   UNL     1       2.952 -55.615 191.667  1.00  0.00    -0.508 OA
ATOM     26  H   UNL     1       2.413 -55.381 192.489  1.00  0.00     0.293 HD
ENDBRANCH   7  25
TORSDOF 6
ENDMDL
MODEL 7
REMARK VINA RESULT:    -5.444      8.624     10.545
REMARK INTER + INTRA:          -6.826
REMARK INTER:                  -6.483
REMARK INTRA:                  -0.342
REMARK UNBOUND:                -0.267
REMARK SMILES Oc1cc(O)c2c(c1)O[C@@H](c1ccc(O)c(O)c1)[C@@H](O)C2
REMARK SMILES IDX 21 1 19 2 10 3 9 4 7 5 8 6 2 7 3 8 4 9 6 10 20 11 11 13
REMARK SMILES IDX 18 14 12 15 16 16 13 17 14 18 17 19 15 21 5 23 1 25
REMARK H PARENT 20 12 17 20 15 22 5 24 1 26
REMARK Flexibility Score: inf
ROOT
ATOM      1  C   UNL     1       4.303 -59.955 198.585  1.00  0.00     0.079 C 
ATOM      2  C   UNL     1       5.392 -58.937 198.974  1.00  0.00     0.164 C 
ATOM      3  C   UNL     1       5.751 -59.113 200.459  1.00  0.00     0.232 C 
ATOM      4  O   UNL     1       6.164 -60.460 200.704  1.00  0.00    -0.482 OA
ATOM      5  C   UNL     1       5.582 -61.555 200.058  1.00  0.00     0.131 A 
ATOM      6  C   UNL     1       5.947 -62.847 200.450  1.00  0.00     0.093 A 
ATOM      7  C   UNL     1       5.396 -63.961 199.808  1.00  0.00     0.122 A 
ATOM      8  C   UNL     1       4.458 -63.783 198.789  1.00  0.00     0.092 A 
ATOM      9  C   UNL     1       4.069 -62.497 198.392  1.00  0.00     0.126 A 
ATOM     10  C   UNL     1       4.663 -61.366 199.003  1.00  0.00     0.039 A 
ENDROOT
BRANCH   2  11
ATOM     11  O   UNL     1       6.536 -59.132 198.181  1.00  0.00    -0.389 OA
ATOM     12  H   UNL     1       6.875 -60.041 198.387  1.00  0.00     0.211 HD
ENDBRANCH   2  11
BRANCH   3  13
ATOM     13  C   UNL     1       6.818 -58.126 200.886  1.00  0.00    -0.001 A 
ATOM     14  C   UNL     1       8.153 -58.525 201.096  1.00  0.00     0.057 A 
ATOM     15  C   UNL     1       6.480 -56.771 201.037  1.00  0.00     0.012 A 
ATOM     16  C   UNL     1       9.126 -57.585 201.460  1.00  0.00     0.157 A 
ATOM     17  C   UNL     1       7.450 -55.834 201.398  1.00  0.00     0.050 A 
ATOM     18  C   UNL     1       8.776 -56.237 201.603  1.00  0.00     0.157 A 
BRANCH  16  19
ATOM     19  O   UNL     1      10.443 -57.983 201.681  1.00  0.00    -0.504 OA
ATOM     20  H   UNL     1      10.954 -57.696 202.507  1.00  0.00     0.293 HD
ENDBRANCH  16  19
BRANCH  18  21
ATOM     21  O   UNL     1       9.749 -55.304 201.950  1.00  0.00    -0.504 OA
ATOM     22  H   UNL     1      10.548 -55.559 202.524  1.00  0.00     0.293 HD
ENDBRANCH  18  21
ENDBRANCH   3  13
BRANCH   9  23
ATOM     23  O   UNL     1       3.089 -62.383 197.401  1.00  0.00    -0.507 OA
ATOM     24  H   UNL     1       2.516 -61.557 197.279  1.00  0.00     0.293 HD
ENDBRANCH   9  23
BRANCH   7  25
ATOM     25  O   UNL     1       5.780 -65.250 200.170  1.00  0.00    -0.508 OA
ATOM     26  H   UNL     1       5.228 -65.802 200.811  1.00  0.00     0.293 HD
ENDBRANCH   7  25
TORSDOF 6
ENDMDL
MODEL 8
REMARK VINA RESULT:    -5.381      9.600     11.992
REMARK INTER + INTRA:          -6.749
REMARK INTER:                  -6.489
REMARK INTRA:                  -0.260
REMARK UNBOUND:                -0.267
REMARK SMILES Oc1cc(O)c2c(c1)O[C@@H](c1ccc(O)c(O)c1)[C@@H](O)C2
REMARK SMILES IDX 21 1 19 2 10 3 9 4 7 5 8 6 2 7 3 8 4 9 6 10 20 11 11 13
REMARK SMILES IDX 18 14 12 15 16 16 13 17 14 18 17 19 15 21 5 23 1 25
REMARK H PARENT 20 12 17 20 15 22 5 24 1 26
REMARK Flexibility Score: inf
ROOT
ATOM      1  C   UNL     1       9.003 -55.879 197.090  1.00  0.00     0.079 C 
ATOM      2  C   UNL     1      10.129 -55.770 196.045  1.00  0.00     0.164 C 
ATOM      3  C   UNL     1      11.412 -55.265 196.726  1.00  0.00     0.232 C 
ATOM      4  O   UNL     1      11.765 -56.131 197.807  1.00  0.00    -0.482 OA
ATOM      5  C   UNL     1      10.809 -56.740 198.627  1.00  0.00     0.131 A 
ATOM      6  C   UNL     1      11.235 -57.465 199.744  1.00  0.00     0.093 A 
ATOM      7  C   UNL     1      10.303 -58.101 200.571  1.00  0.00     0.122 A 
ATOM      8  C   UNL     1       8.939 -57.989 200.294  1.00  0.00     0.092 A 
ATOM      9  C   UNL     1       8.492 -57.255 199.188  1.00  0.00     0.126 A 
ATOM     10  C   UNL     1       9.434 -56.653 198.319  1.00  0.00     0.039 A 
ENDROOT
BRANCH   2  11
ATOM     11  O   UNL     1      10.364 -57.027 195.461  1.00  0.00    -0.389 OA
ATOM     12  H   UNL     1      10.424 -56.880 194.481  1.00  0.00     0.211 HD
ENDBRANCH   2  11
BRANCH   3  13
ATOM     13  C   UNL     1      12.548 -55.138 195.732  1.00  0.00    -0.001 A 
ATOM     14  C   UNL     1      12.334 -54.670 194.421  1.00  0.00     0.057 A 
ATOM     15  C   UNL     1      13.856 -55.454 196.138  1.00  0.00     0.012 A 
ATOM     16  C   UNL     1      13.409 -54.532 193.532  1.00  0.00     0.157 A 
ATOM     17  C   UNL     1      14.927 -55.315 195.254  1.00  0.00     0.050 A 
ATOM     18  C   UNL     1      14.707 -54.847 193.951  1.00  0.00     0.157 A 
BRANCH  16  19
ATOM     19  O   UNL     1      13.194 -54.083 192.231  1.00  0.00    -0.504 OA
ATOM     20  H   UNL     1      12.260 -53.982 191.849  1.00  0.00     0.293 HD
ENDBRANCH  16  19
BRANCH  18  21
ATOM     21  O   UNL     1      15.773 -54.694 193.069  1.00  0.00    -0.504 OA
ATOM     22  H   UNL     1      16.174 -53.781 192.875  1.00  0.00     0.293 HD
ENDBRANCH  18  21
ENDBRANCH   3  13
BRANCH   9  23
ATOM     23  O   UNL     1       7.112 -57.136 198.992  1.00  0.00    -0.507 OA
ATOM     24  H   UNL     1       6.639 -57.464 198.158  1.00  0.00     0.293 HD
ENDBRANCH   9  23
BRANCH   7  25
ATOM     25  O   UNL     1      10.722 -58.853 201.665  1.00  0.00    -0.508 OA
ATOM     26  H   UNL     1      10.792 -59.859 201.615  1.00  0.00     0.293 HD
ENDBRANCH   7  25
TORSDOF 6
ENDMDL
MODEL 9
REMARK VINA RESULT:    -5.091     10.157     11.294
REMARK INTER + INTRA:          -6.399
REMARK INTER:                  -6.251
REMARK INTRA:                  -0.148
REMARK UNBOUND:                -0.267
REMARK SMILES Oc1cc(O)c2c(c1)O[C@@H](c1ccc(O)c(O)c1)[C@@H](O)C2
REMARK SMILES IDX 21 1 19 2 10 3 9 4 7 5 8 6 2 7 3 8 4 9 6 10 20 11 11 13
REMARK SMILES IDX 18 14 12 15 16 16 13 17 14 18 17 19 15 21 5 23 1 25
REMARK H PARENT 20 12 17 20 15 22 5 24 1 26
REMARK Flexibility Score: inf
ROOT
ATOM      1  C   UNL     1       9.341 -54.720 195.826  1.00  0.00     0.079 C 
ATOM      2  C   UNL     1       9.269 -55.224 197.279  1.00  0.00     0.164 C 
ATOM      3  C   UNL     1       9.899 -56.625 197.368  1.00  0.00     0.232 C 
ATOM      4  O   UNL     1      11.242 -56.587 196.880  1.00  0.00    -0.482 OA
ATOM      5  C   UNL     1      11.629 -55.784 195.802  1.00  0.00     0.131 A 
ATOM      6  C   UNL     1      12.928 -55.903 195.297  1.00  0.00     0.093 A 
ATOM      7  C   UNL     1      13.348 -55.100 194.233  1.00  0.00     0.122 A 
ATOM      8  C   UNL     1      12.459 -54.192 193.653  1.00  0.00     0.092 A 
ATOM      9  C   UNL     1      11.149 -54.069 194.134  1.00  0.00     0.126 A 
ATOM     10  C   UNL     1      10.735 -54.843 195.245  1.00  0.00     0.039 A 
ENDROOT
BRANCH   2  11
ATOM     11  O   UNL     1       9.956 -54.339 198.129  1.00  0.00    -0.389 OA
ATOM     12  H   UNL     1      10.387 -53.661 197.546  1.00  0.00     0.211 HD
ENDBRANCH   2  11
BRANCH   3  13
ATOM     13  C   UNL     1       9.846 -57.162 198.783  1.00  0.00    -0.001 A 
ATOM     14  C   UNL     1      10.851 -58.008 199.291  1.00  0.00     0.057 A 
ATOM     15  C   UNL     1       8.791 -56.775 199.627  1.00  0.00     0.012 A 
ATOM     16  C   UNL     1      10.793 -58.465 200.615  1.00  0.00     0.157 A 
ATOM     17  C   UNL     1       8.734 -57.228 200.946  1.00  0.00     0.050 A 
ATOM     18  C   UNL     1       9.738 -58.068 201.445  1.00  0.00     0.157 A 
BRANCH  16  19
ATOM     19  O   UNL     1      11.780 -59.314 201.112  1.00  0.00    -0.504 OA
ATOM     20  H   UNL     1      12.718 -58.984 201.305  1.00  0.00     0.293 HD
ENDBRANCH  16  19
BRANCH  18  21
ATOM     21  O   UNL     1       9.692 -58.512 202.764  1.00  0.00    -0.504 OA
ATOM     22  H   UNL     1      10.399 -59.139 203.137  1.00  0.00     0.293 HD
ENDBRANCH  18  21
ENDBRANCH   3  13
BRANCH   9  23
ATOM     23  O   UNL     1      10.290 -53.180 193.481  1.00  0.00    -0.507 OA
ATOM     24  H   UNL     1       9.882 -52.369 193.930  1.00  0.00     0.293 HD
ENDBRANCH   9  23
BRANCH   7  25
ATOM     25  O   UNL     1      14.651 -55.189 193.748  1.00  0.00    -0.508 OA
ATOM     26  H   UNL     1      15.344 -54.489 193.972  1.00  0.00     0.293 HD
ENDBRANCH   7  25
TORSDOF 6
ENDMDL
