MODEL 1
REMARK VINA RESULT:    -4.024      0.000      0.000
REMARK INTER + INTRA:          -6.129
REMARK INTER:                  -5.671
REMARK INTRA:                  -0.459
REMARK UNBOUND:                -0.459
REMARK SMILES CCCCCCCCC(=O)[O-]
REMARK SMILES IDX 6 1 7 2 8 3 9 4 10 5 11 6 5 7 4 8 3 9 2 10 1 11
REMARK H PARENT
REMARK Flexibility Score: inf
ROOT
ATOM      1  C   UNL     1     124.636 122.427 130.581  1.00  0.00     0.000 C 
ENDROOT
BRANCH   1   2
ATOM      2  C   UNL     1     124.527 120.943 130.183  1.00  0.00     0.006 C 
BRANCH   2   3
ATOM      3  C   UNL     1     125.882 120.227 130.247  1.00  0.00     0.053 C 
BRANCH   3   4
ATOM      4  C   UNL     1     125.736 118.797 130.666  1.00  0.00     0.041 C 
ATOM      5  O   UNL     1     126.752 118.113 130.957  1.00  0.00    -0.550 OA
ATOM      6  O   UNL     1     124.473 118.227 130.764  1.00  0.00    -0.550 OA
ENDBRANCH   3   4
ENDBRANCH   2   3
ENDBRANCH   1   2
BRANCH   1   7
ATOM      7  C   UNL     1     124.416 123.371 129.389  1.00  0.00     0.000 C 
BRANCH   7   8
ATOM      8  C   UNL     1     125.364 123.073 128.214  1.00  0.00    -0.000 C 
BRANCH   8   9
ATOM      9  C   UNL     1     126.317 124.251 127.921  1.00  0.00    -0.000 C 
BRANCH   9  10
ATOM     10  C   UNL     1     127.804 123.859 127.940  1.00  0.00    -0.003 C 
ATOM     11  C   UNL     1     128.027 122.357 128.104  1.00  0.00     0.004 C 
ENDBRANCH   9  10
ENDBRANCH   8   9
ENDBRANCH   7   8
ENDBRANCH   1   7
TORSDOF 7
ENDMDL
MODEL 2
REMARK VINA RESULT:    -3.949     11.725     13.507
REMARK INTER + INTRA:          -6.023
REMARK INTER:                  -5.661
REMARK INTRA:                  -0.362
REMARK UNBOUND:                -0.459
REMARK SMILES CCCCCCCCC(=O)[O-]
REMARK SMILES IDX 6 1 7 2 8 3 9 4 10 5 11 6 5 7 4 8 3 9 2 10 1 11
REMARK H PARENT
REMARK Flexibility Score: inf
ROOT
ATOM      1  C   UNL     1     131.338 132.595 129.700  1.00  0.00     0.000 C 
ENDROOT
BRANCH   1   2
ATOM      2  C   UNL     1     130.825 132.976 128.300  1.00  0.00     0.006 C 
BRANCH   2   3
ATOM      3  C   UNL     1     129.323 132.707 128.142  1.00  0.00     0.053 C 
BRANCH   3   4
ATOM      4  C   UNL     1     129.056 131.320 127.644  1.00  0.00     0.041 C 
ATOM      5  O   UNL     1     128.893 131.108 126.414  1.00  0.00    -0.550 OA
ATOM      6  O   UNL     1     129.015 130.257 128.538  1.00  0.00    -0.550 OA
ENDBRANCH   3   4
ENDBRANCH   2   3
ENDBRANCH   1   2
BRANCH   1   7
ATOM      7  C   UNL     1     131.241 133.759 130.699  1.00  0.00     0.000 C 
BRANCH   7   8
ATOM      8  C   UNL     1     131.288 135.134 130.011  1.00  0.00    -0.000 C 
BRANCH   8   9
ATOM      9  C   UNL     1     130.152 136.064 130.487  1.00  0.00    -0.000 C 
BRANCH   9  10
ATOM     10  C   UNL     1     130.643 137.438 130.972  1.00  0.00    -0.003 C 
ATOM     11  C   UNL     1     131.945 137.364 131.767  1.00  0.00     0.004 C 
ENDBRANCH   9  10
ENDBRANCH   8   9
ENDBRANCH   7   8
ENDBRANCH   1   7
TORSDOF 7
ENDMDL
MODEL 3
REMARK VINA RESULT:    -3.800     12.326     14.106
REMARK INTER + INTRA:          -5.813
REMARK INTER:                  -5.331
REMARK INTRA:                  -0.483
REMARK UNBOUND:                -0.459
REMARK SMILES CCCCCCCCC(=O)[O-]
REMARK SMILES IDX 6 1 7 2 8 3 9 4 10 5 11 6 5 7 4 8 3 9 2 10 1 11
REMARK H PARENT
REMARK Flexibility Score: inf
ROOT
ATOM      1  C   UNL     1     131.307 132.828 130.355  1.00  0.00     0.000 C 
ENDROOT
BRANCH   1   2
ATOM      2  C   UNL     1     131.088 133.497 128.986  1.00  0.00     0.006 C 
BRANCH   2   3
ATOM      3  C   UNL     1     130.353 132.578 128.003  1.00  0.00     0.053 C 
BRANCH   3   4
ATOM      4  C   UNL     1     128.872 132.802 128.033  1.00  0.00     0.041 C 
ATOM      5  O   UNL     1     128.401 133.876 128.490  1.00  0.00    -0.550 OA
ATOM      6  O   UNL     1     128.013 131.834 127.528  1.00  0.00    -0.550 OA
ENDBRANCH   3   4
ENDBRANCH   2   3
ENDBRANCH   1   2
BRANCH   1   7
ATOM      7  C   UNL     1     132.328 133.582 131.221  1.00  0.00     0.000 C 
BRANCH   7   8
ATOM      8  C   UNL     1     131.703 134.768 131.975  1.00  0.00    -0.000 C 
BRANCH   8   9
ATOM      9  C   UNL     1     132.413 136.101 131.655  1.00  0.00    -0.000 C 
BRANCH   9  10
ATOM     10  C   UNL     1     131.445 137.251 131.330  1.00  0.00    -0.003 C 
ATOM     11  C   UNL     1     130.392 136.873 130.290  1.00  0.00     0.004 C 
ENDBRANCH   9  10
ENDBRANCH   8   9
ENDBRANCH   7   8
ENDBRANCH   1   7
TORSDOF 7
ENDMDL
MODEL 4
REMARK VINA RESULT:    -3.796      2.902      5.048
REMARK INTER + INTRA:          -5.809
REMARK INTER:                  -5.446
REMARK INTRA:                  -0.362
REMARK UNBOUND:                -0.459
REMARK SMILES CCCCCCCCC(=O)[O-]
REMARK SMILES IDX 6 1 7 2 8 3 9 4 10 5 11 6 5 7 4 8 3 9 2 10 1 11
REMARK H PARENT
REMARK Flexibility Score: inf
ROOT
ATOM      1  C   UNL     1     124.329 123.053 130.323  1.00  0.00     0.000 C 
ENDROOT
BRANCH   1   2
ATOM      2  C   UNL     1     125.151 122.553 129.121  1.00  0.00     0.006 C 
BRANCH   2   3
ATOM      3  C   UNL     1     125.755 123.709 128.313  1.00  0.00     0.053 C 
BRANCH   3   4
ATOM      4  C   UNL     1     127.057 123.324 127.680  1.00  0.00     0.041 C 
ATOM      5  O   UNL     1     127.559 124.040 126.775  1.00  0.00    -0.550 OA
ATOM      6  O   UNL     1     127.731 122.188 128.112  1.00  0.00    -0.550 OA
ENDBRANCH   3   4
ENDBRANCH   2   3
ENDBRANCH   1   2
BRANCH   1   7
ATOM      7  C   UNL     1     124.199 121.992 131.427  1.00  0.00     0.000 C 
BRANCH   7   8
ATOM      8  C   UNL     1     123.519 120.703 130.933  1.00  0.00    -0.000 C 
BRANCH   8   9
ATOM      9  C   UNL     1     123.733 119.523 131.905  1.00  0.00    -0.000 C 
BRANCH   9  10
ATOM     10  C   UNL     1     124.598 118.394 131.321  1.00  0.00    -0.003 C 
ATOM     11  C   UNL     1     125.474 118.850 130.156  1.00  0.00     0.004 C 
ENDBRANCH   9  10
ENDBRANCH   8   9
ENDBRANCH   7   8
ENDBRANCH   1   7
TORSDOF 7
ENDMDL
MODEL 5
REMARK VINA RESULT:    -3.658      2.429      3.073
REMARK INTER + INTRA:          -5.614
REMARK INTER:                  -5.020
REMARK INTRA:                  -0.595
REMARK UNBOUND:                -0.459
REMARK SMILES CCCCCCCCC(=O)[O-]
REMARK SMILES IDX 6 1 7 2 8 3 9 4 10 5 11 6 5 7 4 8 3 9 2 10 1 11
REMARK H PARENT
REMARK Flexibility Score: inf
ROOT
ATOM      1  C   UNL     1     125.532 124.057 128.917  1.00  0.00     0.000 C 
ENDROOT
BRANCH   1   2
ATOM      2  C   UNL     1     124.350 123.124 129.237  1.00  0.00     0.006 C 
BRANCH   2   3
ATOM      3  C   UNL     1     124.708 122.082 130.304  1.00  0.00     0.053 C 
BRANCH   3   4
ATOM      4  C   UNL     1     123.947 122.304 131.575  1.00  0.00     0.041 C 
ATOM      5  O   UNL     1     124.519 122.176 132.689  1.00  0.00    -0.550 OA
ATOM      6  O   UNL     1     122.610 122.680 131.527  1.00  0.00    -0.550 OA
ENDBRANCH   3   4
ENDBRANCH   2   3
ENDBRANCH   1   2
BRANCH   1   7
ATOM      7  C   UNL     1     125.803 124.165 127.408  1.00  0.00     0.000 C 
BRANCH   7   8
ATOM      8  C   UNL     1     127.298 124.335 127.087  1.00  0.00    -0.000 C 
BRANCH   8   9
ATOM      9  C   UNL     1     128.201 123.631 128.122  1.00  0.00    -0.000 C 
BRANCH   9  10
ATOM     10  C   UNL     1     128.518 122.169 127.768  1.00  0.00    -0.003 C 
ATOM     11  C   UNL     1     128.116 121.185 128.865  1.00  0.00     0.004 C 
ENDBRANCH   9  10
ENDBRANCH   8   9
ENDBRANCH   7   8
ENDBRANCH   1   7
TORSDOF 7
ENDMDL
MODEL 6
REMARK VINA RESULT:    -3.613     12.829     14.669
REMARK INTER + INTRA:          -5.550
REMARK INTER:                  -5.177
REMARK INTRA:                  -0.373
REMARK UNBOUND:                -0.459
REMARK SMILES CCCCCCCCC(=O)[O-]
REMARK SMILES IDX 6 1 7 2 8 3 9 4 10 5 11 6 5 7 4 8 3 9 2 10 1 11
REMARK H PARENT
REMARK Flexibility Score: inf
ROOT
ATOM      1  C   UNL     1     131.375 133.343 130.749  1.00  0.00     0.000 C 
ENDROOT
BRANCH   1   2
ATOM      2  C   UNL     1     131.502 134.362 131.896  1.00  0.00     0.006 C 
BRANCH   2   3
ATOM      3  C   UNL     1     132.614 135.386 131.640  1.00  0.00     0.053 C 
BRANCH   3   4
ATOM      4  C   UNL     1     132.091 136.789 131.645  1.00  0.00     0.041 C 
ATOM      5  O   UNL     1     130.939 137.039 131.205  1.00  0.00    -0.550 OA
ATOM      6  O   UNL     1     132.867 137.818 132.164  1.00  0.00    -0.550 OA
ENDBRANCH   3   4
ENDBRANCH   2   3
ENDBRANCH   1   2
BRANCH   1   7
ATOM      7  C   UNL     1     131.005 134.006 129.413  1.00  0.00     0.000 C 
BRANCH   7   8
ATOM      8  C   UNL     1     130.763 132.982 128.291  1.00  0.00    -0.000 C 
BRANCH   8   9
ATOM      9  C   UNL     1     130.273 131.624 128.837  1.00  0.00    -0.000 C 
BRANCH   9  10
ATOM     10  C   UNL     1     129.338 130.874 127.874  1.00  0.00    -0.003 C 
ATOM     11  C   UNL     1     128.386 131.800 127.120  1.00  0.00     0.004 C 
ENDBRANCH   9  10
ENDBRANCH   8   9
ENDBRANCH   7   8
ENDBRANCH   1   7
TORSDOF 7
ENDMDL
MODEL 7
REMARK VINA RESULT:    -3.561      3.716      5.668
REMARK INTER + INTRA:          -5.477
REMARK INTER:                  -5.035
REMARK INTRA:                  -0.442
REMARK UNBOUND:                -0.459
REMARK SMILES CCCCCCCCC(=O)[O-]
REMARK SMILES IDX 6 1 7 2 8 3 9 4 10 5 11 6 5 7 4 8 3 9 2 10 1 11
REMARK H PARENT
REMARK Flexibility Score: inf
ROOT
ATOM      1  C   UNL     1     124.605 121.959 129.410  1.00  0.00     0.000 C 
ENDROOT
BRANCH   1   2
ATOM      2  C   UNL     1     125.315 123.290 129.100  1.00  0.00     0.006 C 
BRANCH   2   3
ATOM      3  C   UNL     1     126.325 123.153 127.953  1.00  0.00     0.053 C 
BRANCH   3   4
ATOM      4  C   UNL     1     126.786 124.488 127.456  1.00  0.00     0.041 C 
ATOM      5  O   UNL     1     127.200 124.617 126.275  1.00  0.00    -0.550 OA
ATOM      6  O   UNL     1     126.731 125.597 128.291  1.00  0.00    -0.550 OA
ENDBRANCH   3   4
ENDBRANCH   2   3
ENDBRANCH   1   2
BRANCH   1   7
ATOM      7  C   UNL     1     125.556 120.913 130.013  1.00  0.00     0.000 C 
BRANCH   7   8
ATOM      8  C   UNL     1     124.821 119.875 130.878  1.00  0.00    -0.000 C 
BRANCH   8   9
ATOM      9  C   UNL     1     123.451 120.389 131.367  1.00  0.00    -0.000 C 
BRANCH   9  10
ATOM     10  C   UNL     1     123.449 120.834 132.839  1.00  0.00    -0.003 C 
ATOM     11  C   UNL     1     123.538 122.349 133.007  1.00  0.00     0.004 C 
ENDBRANCH   9  10
ENDBRANCH   8   9
ENDBRANCH   7   8
ENDBRANCH   1   7
TORSDOF 7
ENDMDL
MODEL 8
REMARK VINA RESULT:    -3.560      2.367      2.760
REMARK INTER + INTRA:          -5.476
REMARK INTER:                  -5.206
REMARK INTRA:                  -0.270
REMARK UNBOUND:                -0.459
REMARK SMILES CCCCCCCCC(=O)[O-]
REMARK SMILES IDX 6 1 7 2 8 3 9 4 10 5 11 6 5 7 4 8 3 9 2 10 1 11
REMARK H PARENT
REMARK Flexibility Score: inf
ROOT
ATOM      1  C   UNL     1     124.735 121.758 129.402  1.00  0.00     0.000 C 
ENDROOT
BRANCH   1   2
ATOM      2  C   UNL     1     124.187 122.370 130.704  1.00  0.00     0.006 C 
BRANCH   2   3
ATOM      3  C   UNL     1     124.125 121.344 131.843  1.00  0.00     0.053 C 
BRANCH   3   4
ATOM      4  C   UNL     1     122.722 121.133 132.325  1.00  0.00     0.041 C 
ATOM      5  O   UNL     1     122.327 121.679 133.388  1.00  0.00    -0.550 OA
ATOM      6  O   UNL     1     121.843 120.354 131.583  1.00  0.00    -0.550 OA
ENDBRANCH   3   4
ENDBRANCH   2   3
ENDBRANCH   1   2
BRANCH   1   7
ATOM      7  C   UNL     1     124.968 122.814 128.310  1.00  0.00     0.000 C 
BRANCH   7   8
ATOM      8  C   UNL     1     125.400 124.174 128.884  1.00  0.00    -0.000 C 
BRANCH   8   9
ATOM      9  C   UNL     1     126.562 124.801 128.086  1.00  0.00    -0.000 C 
BRANCH   9  10
ATOM     10  C   UNL     1     127.335 123.788 127.225  1.00  0.00    -0.003 C 
ATOM     11  C   UNL     1     128.346 122.969 128.025  1.00  0.00     0.004 C 
ENDBRANCH   9  10
ENDBRANCH   8   9
ENDBRANCH   7   8
ENDBRANCH   1   7
TORSDOF 7
ENDMDL
MODEL 9
REMARK VINA RESULT:    -3.551     11.810     13.583
REMARK INTER + INTRA:          -5.464
REMARK INTER:                  -5.062
REMARK INTRA:                  -0.401
REMARK UNBOUND:                -0.459
REMARK SMILES CCCCCCCCC(=O)[O-]
REMARK SMILES IDX 6 1 7 2 8 3 9 4 10 5 11 6 5 7 4 8 3 9 2 10 1 11
REMARK H PARENT
REMARK Flexibility Score: inf
ROOT
ATOM      1  C   UNL     1     131.376 133.189 130.339  1.00  0.00     0.000 C 
ENDROOT
BRANCH   1   2
ATOM      2  C   UNL     1     131.135 132.307 129.101  1.00  0.00     0.006 C 
BRANCH   2   3
ATOM      3  C   UNL     1     129.988 132.834 128.230  1.00  0.00     0.053 C 
BRANCH   3   4
ATOM      4  C   UNL     1     129.035 131.745 127.845  1.00  0.00     0.041 C 
ATOM      5  O   UNL     1     128.065 131.990 127.082  1.00  0.00    -0.550 OA
ATOM      6  O   UNL     1     129.235 130.450 128.309  1.00  0.00    -0.550 OA
ENDBRANCH   3   4
ENDBRANCH   2   3
ENDBRANCH   1   2
BRANCH   1   7
ATOM      7  C   UNL     1     131.059 134.669 130.076  1.00  0.00     0.000 C 
BRANCH   7   8
ATOM      8  C   UNL     1     131.369 135.566 131.287  1.00  0.00    -0.000 C 
BRANCH   8   9
ATOM      9  C   UNL     1     132.872 135.574 131.636  1.00  0.00    -0.000 C 
BRANCH   9  10
ATOM     10  C   UNL     1     133.159 135.357 133.132  1.00  0.00    -0.003 C 
ATOM     11  C   UNL     1     132.205 134.360 133.786  1.00  0.00     0.004 C 
ENDBRANCH   9  10
ENDBRANCH   8   9
ENDBRANCH   7   8
ENDBRANCH   1   7
TORSDOF 7
ENDMDL
