MODEL 1
REMARK VINA RESULT:    -5.879      0.000      0.000
REMARK INTER + INTRA:         -19.592
REMARK INTER:                 -15.501
REMARK INTRA:                  -4.091
REMARK UNBOUND:                -4.091
REMARK SMILES CCCCCCCCCCCCCCCCCCCCCCCCCCCCCC(=O)[O-]
REMARK SMILES IDX 16 1 17 2 18 3 19 4 20 5 21 6 22 7 23 8 24 9 25 10 26 11
REMARK SMILES IDX 27 12 28 13 29 14 30 15 31 16 32 17 15 18 14 19 13 20 12 21
REMARK SMILES IDX 11 22 10 23 9 24 8 25 7 26 6 27 5 28 4 29 3 30 2 31 1 32
REMARK H PARENT
REMARK Flexibility Score: inf
ROOT
ATOM      1  C   UNL     1      87.818 316.999 199.374  1.00  0.00     0.000 C 
ENDROOT
BRANCH   1   2
ATOM      2  C   UNL     1      86.616 316.744 198.444  1.00  0.00     0.000 C 
BRANCH   2   3
ATOM      3  C   UNL     1      86.879 316.998 196.944  1.00  0.00     0.000 C 
BRANCH   3   4
ATOM      4  C   UNL     1      87.650 318.291 196.620  1.00  0.00     0.000 C 
BRANCH   4   5
ATOM      5  C   UNL     1      86.893 319.599 196.927  1.00  0.00     0.000 C 
BRANCH   5   6
ATOM      6  C   UNL     1      87.278 320.777 196.006  1.00  0.00     0.000 C 
BRANCH   6   7
ATOM      7  C   UNL     1      86.666 320.665 194.597  1.00  0.00     0.000 C 
BRANCH   7   8
ATOM      8  C   UNL     1      85.153 320.389 194.623  1.00  0.00     0.000 C 
BRANCH   8   9
ATOM      9  C   UNL     1      84.708 319.401 193.531  1.00  0.00     0.000 C 
BRANCH   9  10
ATOM     10  C   UNL     1      85.155 317.960 193.831  1.00  0.00     0.000 C 
BRANCH  10  11
ATOM     11  C   UNL     1      86.254 317.474 192.870  1.00  0.00     0.000 C 
BRANCH  11  12
ATOM     12  C   UNL     1      86.271 318.257 191.548  1.00  0.00     0.000 C 
BRANCH  12  13
ATOM     13  C   UNL     1      86.055 317.355 190.317  1.00  0.00     0.006 C 
BRANCH  13  14
ATOM     14  C   UNL     1      86.989 317.724 189.157  1.00  0.00     0.053 C 
BRANCH  14  15
ATOM     15  C   UNL     1      88.234 316.891 189.156  1.00  0.00     0.041 C 
ATOM     16  O   UNL     1      89.227 317.236 188.462  1.00  0.00    -0.550 OA
ATOM     17  O   UNL     1      88.300 315.736 189.925  1.00  0.00    -0.550 OA
ENDBRANCH  14  15
ENDBRANCH  13  14
ENDBRANCH  12  13
ENDBRANCH  11  12
ENDBRANCH  10  11
ENDBRANCH   9  10
ENDBRANCH   8   9
ENDBRANCH   7   8
ENDBRANCH   6   7
ENDBRANCH   5   6
ENDBRANCH   4   5
ENDBRANCH   3   4
ENDBRANCH   2   3
ENDBRANCH   1   2
BRANCH   1  18
ATOM     18  C   UNL     1      87.608 318.202 200.311  1.00  0.00     0.000 C 
BRANCH  18  19
ATOM     19  C   UNL     1      88.722 319.253 200.186  1.00  0.00     0.000 C 
BRANCH  19  20
ATOM     20  C   UNL     1      88.323 320.621 200.768  1.00  0.00     0.000 C 
BRANCH  20  21
ATOM     21  C   UNL     1      87.180 320.519 201.796  1.00  0.00     0.000 C 
BRANCH  21  22
ATOM     22  C   UNL     1      87.572 320.864 203.246  1.00  0.00     0.000 C 
BRANCH  22  23
ATOM     23  C   UNL     1      88.387 319.782 203.980  1.00  0.00     0.000 C 
BRANCH  23  24
ATOM     24  C   UNL     1      88.172 319.770 205.509  1.00  0.00    -0.000 C 
BRANCH  24  25
ATOM     25  C   UNL     1      86.990 320.647 205.951  1.00  0.00    -0.000 C 
BRANCH  25  26
ATOM     26  C   UNL     1      86.085 319.890 206.933  1.00  0.00    -0.000 C 
BRANCH  26  27
ATOM     27  C   UNL     1      85.831 318.452 206.455  1.00  0.00    -0.000 C 
BRANCH  27  28
ATOM     28  C   UNL     1      84.805 318.380 205.314  1.00  0.00    -0.000 C 
BRANCH  28  29
ATOM     29  C   UNL     1      85.271 317.480 204.156  1.00  0.00    -0.000 C 
BRANCH  29  30
ATOM     30  C   UNL     1      84.819 317.994 202.775  1.00  0.00    -0.000 C 
BRANCH  30  31
ATOM     31  C   UNL     1      84.497 316.890 201.750  1.00  0.00    -0.003 C 
ATOM     32  C   UNL     1      85.402 315.667 201.886  1.00  0.00     0.004 C 
ENDBRANCH  30  31
ENDBRANCH  29  30
ENDBRANCH  28  29
ENDBRANCH  27  28
ENDBRANCH  26  27
ENDBRANCH  25  26
ENDBRANCH  24  25
ENDBRANCH  23  24
ENDBRANCH  22  23
ENDBRANCH  21  22
ENDBRANCH  20  21
ENDBRANCH  19  20
ENDBRANCH  18  19
ENDBRANCH   1  18
TORSDOF 28
ENDMDL
MODEL 2
REMARK VINA RESULT:    -5.825      3.125      9.709
REMARK INTER + INTRA:         -19.450
REMARK INTER:                 -15.009
REMARK INTRA:                  -4.441
REMARK UNBOUND:                -4.091
REMARK SMILES CCCCCCCCCCCCCCCCCCCCCCCCCCCCCC(=O)[O-]
REMARK SMILES IDX 16 1 17 2 18 3 19 4 20 5 21 6 22 7 23 8 24 9 25 10 26 11
REMARK SMILES IDX 27 12 28 13 29 14 30 15 31 16 32 17 15 18 14 19 13 20 12 21
REMARK SMILES IDX 11 22 10 23 9 24 8 25 7 26 6 27 5 28 4 29 3 30 2 31 1 32
REMARK H PARENT
REMARK Flexibility Score: inf
ROOT
ATOM      1  C   UNL     1      88.464 319.621 200.365  1.00  0.00     0.000 C 
ENDROOT
BRANCH   1   2
ATOM      2  C   UNL     1      88.468 320.858 201.284  1.00  0.00     0.000 C 
BRANCH   2   3
ATOM      3  C   UNL     1      87.458 320.814 202.451  1.00  0.00     0.000 C 
BRANCH   3   4
ATOM      4  C   UNL     1      88.062 320.504 203.833  1.00  0.00     0.000 C 
BRANCH   4   5
ATOM      5  C   UNL     1      87.517 321.362 204.993  1.00  0.00     0.000 C 
BRANCH   5   6
ATOM      6  C   UNL     1      87.638 320.692 206.379  1.00  0.00     0.000 C 
BRANCH   6   7
ATOM      7  C   UNL     1      86.279 320.253 206.956  1.00  0.00     0.000 C 
BRANCH   7   8
ATOM      8  C   UNL     1      85.972 318.768 206.696  1.00  0.00     0.000 C 
BRANCH   8   9
ATOM      9  C   UNL     1      84.966 318.560 205.550  1.00  0.00     0.000 C 
BRANCH   9  10
ATOM     10  C   UNL     1      85.333 317.357 204.663  1.00  0.00     0.000 C 
BRANCH  10  11
ATOM     11  C   UNL     1      85.717 317.778 203.234  1.00  0.00     0.000 C 
BRANCH  11  12
ATOM     12  C   UNL     1      84.588 317.526 202.221  1.00  0.00     0.000 C 
BRANCH  12  13
ATOM     13  C   UNL     1      85.045 316.680 201.017  1.00  0.00     0.006 C 
BRANCH  13  14
ATOM     14  C   UNL     1      86.555 316.409 201.039  1.00  0.00     0.053 C 
BRANCH  14  15
ATOM     15  C   UNL     1      86.860 314.942 201.032  1.00  0.00     0.041 C 
ATOM     16  O   UNL     1      87.117 314.343 202.110  1.00  0.00    -0.550 OA
ATOM     17  O   UNL     1      86.853 314.234 199.837  1.00  0.00    -0.550 OA
ENDBRANCH  14  15
ENDBRANCH  13  14
ENDBRANCH  12  13
ENDBRANCH  11  12
ENDBRANCH  10  11
ENDBRANCH   9  10
ENDBRANCH   8   9
ENDBRANCH   7   8
ENDBRANCH   6   7
ENDBRANCH   5   6
ENDBRANCH   4   5
ENDBRANCH   3   4
ENDBRANCH   2   3
ENDBRANCH   1   2
BRANCH   1  18
ATOM     18  C   UNL     1      87.271 319.600 199.392  1.00  0.00     0.000 C 
BRANCH  18  19
ATOM     19  C   UNL     1      87.270 320.797 198.429  1.00  0.00     0.000 C 
BRANCH  19  20
ATOM     20  C   UNL     1      86.481 320.525 197.135  1.00  0.00     0.000 C 
BRANCH  20  21
ATOM     21  C   UNL     1      87.371 320.565 195.877  1.00  0.00     0.000 C 
BRANCH  21  22
ATOM     22  C   UNL     1      86.641 320.939 194.573  1.00  0.00     0.000 C 
BRANCH  22  23
ATOM     23  C   UNL     1      85.147 320.566 194.527  1.00  0.00     0.000 C 
BRANCH  23  24
ATOM     24  C   UNL     1      84.814 319.447 193.517  1.00  0.00    -0.000 C 
BRANCH  24  25
ATOM     25  C   UNL     1      86.048 318.960 192.740  1.00  0.00    -0.000 C 
BRANCH  25  26
ATOM     26  C   UNL     1      86.300 317.468 192.995  1.00  0.00    -0.000 C 
BRANCH  26  27
ATOM     27  C   UNL     1      87.003 317.248 194.343  1.00  0.00    -0.000 C 
BRANCH  27  28
ATOM     28  C   UNL     1      86.098 316.561 195.377  1.00  0.00    -0.000 C 
BRANCH  28  29
ATOM     29  C   UNL     1      86.629 316.705 196.815  1.00  0.00    -0.000 C 
BRANCH  29  30
ATOM     30  C   UNL     1      88.068 317.251 196.873  1.00  0.00    -0.000 C 
BRANCH  30  31
ATOM     31  C   UNL     1      88.944 316.646 197.986  1.00  0.00    -0.003 C 
ATOM     32  C   UNL     1      90.356 317.229 198.018  1.00  0.00     0.004 C 
ENDBRANCH  30  31
ENDBRANCH  29  30
ENDBRANCH  28  29
ENDBRANCH  27  28
ENDBRANCH  26  27
ENDBRANCH  25  26
ENDBRANCH  24  25
ENDBRANCH  23  24
ENDBRANCH  22  23
ENDBRANCH  21  22
ENDBRANCH  20  21
ENDBRANCH  19  20
ENDBRANCH  18  19
ENDBRANCH   1  18
TORSDOF 28
ENDMDL
MODEL 3
REMARK VINA RESULT:    -5.769      2.394      3.981
REMARK INTER + INTRA:         -19.303
REMARK INTER:                 -15.140
REMARK INTRA:                  -4.163
REMARK UNBOUND:                -4.091
REMARK SMILES CCCCCCCCCCCCCCCCCCCCCCCCCCCCCC(=O)[O-]
REMARK SMILES IDX 16 1 17 2 18 3 19 4 20 5 21 6 22 7 23 8 24 9 25 10 26 11
REMARK SMILES IDX 27 12 28 13 29 14 30 15 31 16 32 17 15 18 14 19 13 20 12 21
REMARK SMILES IDX 11 22 10 23 9 24 8 25 7 26 6 27 5 28 4 29 3 30 2 31 1 32
REMARK H PARENT
REMARK Flexibility Score: inf
ROOT
ATOM      1  C   UNL     1      88.060 320.306 200.684  1.00  0.00     0.000 C 
ENDROOT
BRANCH   1   2
ATOM      2  C   UNL     1      87.390 320.894 199.428  1.00  0.00     0.000 C 
BRANCH   2   3
ATOM      3  C   UNL     1      87.231 319.912 198.247  1.00  0.00     0.000 C 
BRANCH   3   4
ATOM      4  C   UNL     1      86.481 320.470 197.023  1.00  0.00     0.000 C 
BRANCH   4   5
ATOM      5  C   UNL     1      87.290 320.485 195.711  1.00  0.00     0.000 C 
BRANCH   5   6
ATOM      6  C   UNL     1      86.479 320.945 194.480  1.00  0.00     0.000 C 
BRANCH   6   7
ATOM      7  C   UNL     1      85.048 320.377 194.455  1.00  0.00     0.000 C 
BRANCH   7   8
ATOM      8  C   UNL     1      84.816 319.389 193.300  1.00  0.00     0.000 C 
BRANCH   8   9
ATOM      9  C   UNL     1      86.123 318.960 192.611  1.00  0.00     0.000 C 
BRANCH   9  10
ATOM     10  C   UNL     1      86.181 317.444 192.361  1.00  0.00     0.000 C 
BRANCH  10  11
ATOM     11  C   UNL     1      85.946 316.628 193.643  1.00  0.00     0.000 C 
BRANCH  11  12
ATOM     12  C   UNL     1      87.091 316.780 194.658  1.00  0.00     0.000 C 
BRANCH  12  13
ATOM     13  C   UNL     1      86.589 316.911 196.109  1.00  0.00     0.006 C 
BRANCH  13  14
ATOM     14  C   UNL     1      87.319 315.955 197.062  1.00  0.00     0.053 C 
BRANCH  14  15
ATOM     15  C   UNL     1      88.791 316.230 197.110  1.00  0.00     0.041 C 
ATOM     16  O   UNL     1      89.212 317.381 197.401  1.00  0.00    -0.550 OA
ATOM     17  O   UNL     1      89.699 315.214 196.840  1.00  0.00    -0.550 OA
ENDBRANCH  14  15
ENDBRANCH  13  14
ENDBRANCH  12  13
ENDBRANCH  11  12
ENDBRANCH  10  11
ENDBRANCH   9  10
ENDBRANCH   8   9
ENDBRANCH   7   8
ENDBRANCH   6   7
ENDBRANCH   5   6
ENDBRANCH   4   5
ENDBRANCH   3   4
ENDBRANCH   2   3
ENDBRANCH   1   2
BRANCH   1  18
ATOM     18  C   UNL     1      87.236 320.532 201.965  1.00  0.00     0.000 C 
BRANCH  18  19
ATOM     19  C   UNL     1      88.093 320.477 203.240  1.00  0.00     0.000 C 
BRANCH  19  20
ATOM     20  C   UNL     1      87.713 321.559 204.266  1.00  0.00     0.000 C 
BRANCH  20  21
ATOM     21  C   UNL     1      88.409 321.359 205.626  1.00  0.00     0.000 C 
BRANCH  21  22
ATOM     22  C   UNL     1      87.515 320.776 206.738  1.00  0.00     0.000 C 
BRANCH  22  23
ATOM     23  C   UNL     1      87.782 319.300 207.088  1.00  0.00     0.000 C 
BRANCH  23  24
ATOM     24  C   UNL     1      86.622 318.351 206.719  1.00  0.00    -0.000 C 
BRANCH  24  25
ATOM     25  C   UNL     1      85.353 319.103 206.287  1.00  0.00    -0.000 C 
BRANCH  25  26
ATOM     26  C   UNL     1      84.567 318.294 205.247  1.00  0.00    -0.000 C 
BRANCH  26  27
ATOM     27  C   UNL     1      85.453 317.927 204.047  1.00  0.00    -0.000 C 
BRANCH  27  28
ATOM     28  C   UNL     1      84.752 318.161 202.700  1.00  0.00    -0.000 C 
BRANCH  28  29
ATOM     29  C   UNL     1      84.616 316.870 201.872  1.00  0.00    -0.000 C 
BRANCH  29  30
ATOM     30  C   UNL     1      85.608 316.803 200.695  1.00  0.00    -0.000 C 
BRANCH  30  31
ATOM     31  C   UNL     1      86.874 315.969 200.966  1.00  0.00    -0.003 C 
ATOM     32  C   UNL     1      88.165 316.766 200.775  1.00  0.00     0.004 C 
ENDBRANCH  30  31
ENDBRANCH  29  30
ENDBRANCH  28  29
ENDBRANCH  27  28
ENDBRANCH  26  27
ENDBRANCH  25  26
ENDBRANCH  24  25
ENDBRANCH  23  24
ENDBRANCH  22  23
ENDBRANCH  21  22
ENDBRANCH  20  21
ENDBRANCH  19  20
ENDBRANCH  18  19
ENDBRANCH   1  18
TORSDOF 28
ENDMDL
MODEL 4
REMARK VINA RESULT:    -5.727      2.266      9.462
REMARK INTER + INTRA:         -19.192
REMARK INTER:                 -15.504
REMARK INTRA:                  -3.688
REMARK UNBOUND:                -4.091
REMARK SMILES CCCCCCCCCCCCCCCCCCCCCCCCCCCCCC(=O)[O-]
REMARK SMILES IDX 16 1 17 2 18 3 19 4 20 5 21 6 22 7 23 8 24 9 25 10 26 11
REMARK SMILES IDX 27 12 28 13 29 14 30 15 31 16 32 17 15 18 14 19 13 20 12 21
REMARK SMILES IDX 11 22 10 23 9 24 8 25 7 26 6 27 5 28 4 29 3 30 2 31 1 32
REMARK H PARENT
REMARK Flexibility Score: inf
ROOT
ATOM      1  C   UNL     1      87.640 320.926 203.558  1.00  0.00     0.000 C 
ENDROOT
BRANCH   1   2
ATOM      2  C   UNL     1      87.605 321.729 204.872  1.00  0.00     0.000 C 
BRANCH   2   3
ATOM      3  C   UNL     1      88.540 321.209 205.986  1.00  0.00     0.000 C 
BRANCH   3   4
ATOM      4  C   UNL     1      87.843 320.442 207.125  1.00  0.00     0.000 C 
BRANCH   4   5
ATOM      5  C   UNL     1      86.303 320.474 207.089  1.00  0.00     0.000 C 
BRANCH   5   6
ATOM      6  C   UNL     1      85.657 319.133 206.678  1.00  0.00     0.000 C 
BRANCH   6   7
ATOM      7  C   UNL     1      86.687 318.085 206.217  1.00  0.00     0.000 C 
BRANCH   7   8
ATOM      8  C   UNL     1      86.376 317.514 204.823  1.00  0.00     0.000 C 
BRANCH   8   9
ATOM      9  C   UNL     1      85.135 318.158 204.179  1.00  0.00     0.000 C 
BRANCH   9  10
ATOM     10  C   UNL     1      85.258 318.258 202.649  1.00  0.00     0.000 C 
BRANCH  10  11
ATOM     11  C   UNL     1      86.083 317.106 202.050  1.00  0.00     0.000 C 
BRANCH  11  12
ATOM     12  C   UNL     1      85.402 316.464 200.831  1.00  0.00     0.000 C 
BRANCH  12  13
ATOM     13  C   UNL     1      86.394 316.129 199.701  1.00  0.00     0.006 C 
BRANCH  13  14
ATOM     14  C   UNL     1      85.694 315.531 198.473  1.00  0.00     0.053 C 
BRANCH  14  15
ATOM     15  C   UNL     1      86.674 315.120 197.416  1.00  0.00     0.041 C 
ATOM     16  O   UNL     1      86.269 314.592 196.347  1.00  0.00    -0.550 OA
ATOM     17  O   UNL     1      88.034 315.325 197.610  1.00  0.00    -0.550 OA
ENDBRANCH  14  15
ENDBRANCH  13  14
ENDBRANCH  12  13
ENDBRANCH  11  12
ENDBRANCH  10  11
ENDBRANCH   9  10
ENDBRANCH   8   9
ENDBRANCH   7   8
ENDBRANCH   6   7
ENDBRANCH   5   6
ENDBRANCH   4   5
ENDBRANCH   3   4
ENDBRANCH   2   3
ENDBRANCH   1   2
BRANCH   1  18
ATOM     18  C   UNL     1      89.045 320.401 203.212  1.00  0.00     0.000 C 
BRANCH  18  19
ATOM     19  C   UNL     1      89.384 320.552 201.720  1.00  0.00     0.000 C 
BRANCH  19  20
ATOM     20  C   UNL     1      88.142 320.793 200.844  1.00  0.00     0.000 C 
BRANCH  20  21
ATOM     21  C   UNL     1      87.720 319.540 200.053  1.00  0.00     0.000 C 
BRANCH  21  22
ATOM     22  C   UNL     1      87.158 319.815 198.644  1.00  0.00     0.000 C 
BRANCH  22  23
ATOM     23  C   UNL     1      87.696 318.894 197.532  1.00  0.00     0.000 C 
BRANCH  23  24
ATOM     24  C   UNL     1      87.062 319.152 196.148  1.00  0.00    -0.000 C 
BRANCH  24  25
ATOM     25  C   UNL     1      87.242 320.602 195.671  1.00  0.00    -0.000 C 
BRANCH  25  26
ATOM     26  C   UNL     1      86.467 320.849 194.370  1.00  0.00    -0.000 C 
BRANCH  26  27
ATOM     27  C   UNL     1      85.049 320.264 194.451  1.00  0.00    -0.000 C 
BRANCH  27  28
ATOM     28  C   UNL     1      84.708 319.370 193.249  1.00  0.00    -0.000 C 
BRANCH  28  29
ATOM     29  C   UNL     1      85.962 318.842 192.530  1.00  0.00    -0.000 C 
BRANCH  29  30
ATOM     30  C   UNL     1      85.639 317.795 191.448  1.00  0.00    -0.000 C 
BRANCH  30  31
ATOM     31  C   UNL     1      86.711 317.648 190.351  1.00  0.00    -0.003 C 
ATOM     32  C   UNL     1      86.160 317.056 189.054  1.00  0.00     0.004 C 
ENDBRANCH  30  31
ENDBRANCH  29  30
ENDBRANCH  28  29
ENDBRANCH  27  28
ENDBRANCH  26  27
ENDBRANCH  25  26
ENDBRANCH  24  25
ENDBRANCH  23  24
ENDBRANCH  22  23
ENDBRANCH  21  22
ENDBRANCH  20  21
ENDBRANCH  19  20
ENDBRANCH  18  19
ENDBRANCH   1  18
TORSDOF 28
ENDMDL
MODEL 5
REMARK VINA RESULT:    -5.727      2.788     10.462
REMARK INTER + INTRA:         -19.192
REMARK INTER:                 -16.246
REMARK INTRA:                  -2.945
REMARK UNBOUND:                -4.091
REMARK SMILES CCCCCCCCCCCCCCCCCCCCCCCCCCCCCC(=O)[O-]
REMARK SMILES IDX 16 1 17 2 18 3 19 4 20 5 21 6 22 7 23 8 24 9 25 10 26 11
REMARK SMILES IDX 27 12 28 13 29 14 30 15 31 16 32 17 15 18 14 19 13 20 12 21
REMARK SMILES IDX 11 22 10 23 9 24 8 25 7 26 6 27 5 28 4 29 3 30 2 31 1 32
REMARK H PARENT
REMARK Flexibility Score: inf
ROOT
ATOM      1  C   UNL     1      88.782 320.182 200.771  1.00  0.00     0.000 C 
ENDROOT
BRANCH   1   2
ATOM      2  C   UNL     1      89.121 320.864 202.110  1.00  0.00     0.000 C 
BRANCH   2   3
ATOM      3  C   UNL     1      87.976 320.885 203.146  1.00  0.00     0.000 C 
BRANCH   3   4
ATOM      4  C   UNL     1      88.403 320.638 204.605  1.00  0.00     0.000 C 
BRANCH   4   5
ATOM      5  C   UNL     1      87.633 321.456 205.660  1.00  0.00     0.000 C 
BRANCH   5   6
ATOM      6  C   UNL     1      87.413 320.712 206.994  1.00  0.00     0.000 C 
BRANCH   6   7
ATOM      7  C   UNL     1      85.999 320.115 207.125  1.00  0.00     0.000 C 
BRANCH   7   8
ATOM      8  C   UNL     1      85.910 318.671 206.605  1.00  0.00     0.000 C 
BRANCH   8   9
ATOM      9  C   UNL     1      84.837 318.495 205.516  1.00  0.00     0.000 C 
BRANCH   9  10
ATOM     10  C   UNL     1      85.246 317.458 204.456  1.00  0.00     0.000 C 
BRANCH  10  11
ATOM     11  C   UNL     1      85.605 318.106 203.108  1.00  0.00     0.000 C 
BRANCH  11  12
ATOM     12  C   UNL     1      85.079 317.305 201.907  1.00  0.00     0.000 C 
BRANCH  12  13
ATOM     13  C   UNL     1      86.117 317.174 200.776  1.00  0.00     0.006 C 
BRANCH  13  14
ATOM     14  C   UNL     1      85.727 316.098 199.754  1.00  0.00     0.053 C 
BRANCH  14  15
ATOM     15  C   UNL     1      86.601 314.885 199.858  1.00  0.00     0.041 C 
ATOM     16  O   UNL     1      87.688 314.830 199.224  1.00  0.00    -0.550 OA
ATOM     17  O   UNL     1      86.218 313.818 200.661  1.00  0.00    -0.550 OA
ENDBRANCH  14  15
ENDBRANCH  13  14
ENDBRANCH  12  13
ENDBRANCH  11  12
ENDBRANCH  10  11
ENDBRANCH   9  10
ENDBRANCH   8   9
ENDBRANCH   7   8
ENDBRANCH   6   7
ENDBRANCH   5   6
ENDBRANCH   4   5
ENDBRANCH   3   4
ENDBRANCH   2   3
ENDBRANCH   1   2
BRANCH   1  18
ATOM     18  C   UNL     1      87.361 320.505 200.276  1.00  0.00     0.000 C 
BRANCH  18  19
ATOM     19  C   UNL     1      87.273 320.597 198.744  1.00  0.00     0.000 C 
BRANCH  19  20
ATOM     20  C   UNL     1      87.258 319.218 198.061  1.00  0.00     0.000 C 
BRANCH  20  21
ATOM     21  C   UNL     1      87.231 319.317 196.523  1.00  0.00     0.000 C 
BRANCH  21  22
ATOM     22  C   UNL     1      87.323 320.749 195.959  1.00  0.00     0.000 C 
BRANCH  22  23
ATOM     23  C   UNL     1      86.644 320.960 194.592  1.00  0.00     0.000 C 
BRANCH  23  24
ATOM     24  C   UNL     1      85.146 320.585 194.574  1.00  0.00    -0.000 C 
BRANCH  24  25
ATOM     25  C   UNL     1      84.825 319.466 193.571  1.00  0.00    -0.000 C 
BRANCH  25  26
ATOM     26  C   UNL     1      86.086 319.036 192.810  1.00  0.00    -0.000 C 
BRANCH  26  27
ATOM     27  C   UNL     1      86.346 317.531 192.976  1.00  0.00    -0.000 C 
BRANCH  27  28
ATOM     28  C   UNL     1      85.401 316.670 192.123  1.00  0.00    -0.000 C 
BRANCH  28  29
ATOM     29  C   UNL     1      85.317 317.152 190.664  1.00  0.00    -0.000 C 
BRANCH  29  30
ATOM     30  C   UNL     1      86.438 316.580 189.776  1.00  0.00    -0.000 C 
BRANCH  30  31
ATOM     31  C   UNL     1      87.334 317.638 189.104  1.00  0.00    -0.003 C 
ATOM     32  C   UNL     1      88.737 317.120 188.791  1.00  0.00     0.004 C 
ENDBRANCH  30  31
ENDBRANCH  29  30
ENDBRANCH  28  29
ENDBRANCH  27  28
ENDBRANCH  26  27
ENDBRANCH  25  26
ENDBRANCH  24  25
ENDBRANCH  23  24
ENDBRANCH  22  23
ENDBRANCH  21  22
ENDBRANCH  20  21
ENDBRANCH  19  20
ENDBRANCH  18  19
ENDBRANCH   1  18
TORSDOF 28
ENDMDL
MODEL 6
REMARK VINA RESULT:    -5.688      4.234     10.118
REMARK INTER + INTRA:         -19.089
REMARK INTER:                 -14.055
REMARK INTRA:                  -5.034
REMARK UNBOUND:                -4.091
REMARK SMILES CCCCCCCCCCCCCCCCCCCCCCCCCCCCCC(=O)[O-]
REMARK SMILES IDX 16 1 17 2 18 3 19 4 20 5 21 6 22 7 23 8 24 9 25 10 26 11
REMARK SMILES IDX 27 12 28 13 29 14 30 15 31 16 32 17 15 18 14 19 13 20 12 21
REMARK SMILES IDX 11 22 10 23 9 24 8 25 7 26 6 27 5 28 4 29 3 30 2 31 1 32
REMARK H PARENT
REMARK Flexibility Score: inf
ROOT
ATOM      1  C   UNL     1      87.601 320.404 196.350  1.00  0.00     0.000 C 
ENDROOT
BRANCH   1   2
ATOM      2  C   UNL     1      86.715 320.366 197.610  1.00  0.00     0.000 C 
BRANCH   2   3
ATOM      3  C   UNL     1      87.265 321.145 198.825  1.00  0.00     0.000 C 
BRANCH   3   4
ATOM      4  C   UNL     1      87.661 320.282 200.037  1.00  0.00     0.000 C 
BRANCH   4   5
ATOM      5  C   UNL     1      87.164 320.802 201.400  1.00  0.00     0.000 C 
BRANCH   5   6
ATOM      6  C   UNL     1      86.888 319.688 202.433  1.00  0.00     0.000 C 
BRANCH   6   7
ATOM      7  C   UNL     1      88.051 318.686 202.563  1.00  0.00     0.000 C 
BRANCH   7   8
ATOM      8  C   UNL     1      87.822 317.645 203.671  1.00  0.00     0.000 C 
BRANCH   8   9
ATOM      9  C   UNL     1      86.419 317.740 204.297  1.00  0.00     0.000 C 
BRANCH   9  10
ATOM     10  C   UNL     1      86.474 317.965 205.818  1.00  0.00     0.000 C 
BRANCH  10  11
ATOM     11  C   UNL     1      85.374 318.922 206.309  1.00  0.00     0.000 C 
BRANCH  11  12
ATOM     12  C   UNL     1      85.943 320.220 206.905  1.00  0.00     0.000 C 
BRANCH  12  13
ATOM     13  C   UNL     1      87.479 320.293 206.817  1.00  0.00     0.006 C 
BRANCH  13  14
ATOM     14  C   UNL     1      87.955 321.466 205.950  1.00  0.00     0.053 C 
BRANCH  14  15
ATOM     15  C   UNL     1      89.104 321.079 205.068  1.00  0.00     0.041 C 
ATOM     16  O   UNL     1      89.330 321.715 204.005  1.00  0.00    -0.550 OA
ATOM     17  O   UNL     1      89.928 320.019 205.424  1.00  0.00    -0.550 OA
ENDBRANCH  14  15
ENDBRANCH  13  14
ENDBRANCH  12  13
ENDBRANCH  11  12
ENDBRANCH  10  11
ENDBRANCH   9  10
ENDBRANCH   8   9
ENDBRANCH   7   8
ENDBRANCH   6   7
ENDBRANCH   5   6
ENDBRANCH   4   5
ENDBRANCH   3   4
ENDBRANCH   2   3
ENDBRANCH   1   2
BRANCH   1  18
ATOM     18  C   UNL     1      86.836 320.852 195.092  1.00  0.00     0.000 C 
BRANCH  18  19
ATOM     19  C   UNL     1      85.326 320.577 195.185  1.00  0.00     0.000 C 
BRANCH  19  20
ATOM     20  C   UNL     1      84.783 319.800 193.973  1.00  0.00     0.000 C 
BRANCH  20  21
ATOM     21  C   UNL     1      85.893 319.378 192.991  1.00  0.00     0.000 C 
BRANCH  21  22
ATOM     22  C   UNL     1      86.092 317.856 192.845  1.00  0.00     0.000 C 
BRANCH  22  23
ATOM     23  C   UNL     1      85.940 317.047 194.147  1.00  0.00     0.000 C 
BRANCH  23  24
ATOM     24  C   UNL     1      87.247 316.925 194.961  1.00  0.00    -0.000 C 
BRANCH  24  25
ATOM     25  C   UNL     1      86.996 316.770 196.470  1.00  0.00    -0.000 C 
BRANCH  25  26
ATOM     26  C   UNL     1      88.321 316.735 197.243  1.00  0.00    -0.000 C 
BRANCH  26  27
ATOM     27  C   UNL     1      88.090 316.950 198.746  1.00  0.00    -0.000 C 
BRANCH  27  28
ATOM     28  C   UNL     1      86.599 317.005 199.115  1.00  0.00    -0.000 C 
BRANCH  28  29
ATOM     29  C   UNL     1      86.288 316.272 200.432  1.00  0.00    -0.000 C 
BRANCH  29  30
ATOM     30  C   UNL     1      84.979 316.748 201.090  1.00  0.00    -0.000 C 
BRANCH  30  31
ATOM     31  C   UNL     1      84.307 315.713 202.012  1.00  0.00    -0.003 C 
ATOM     32  C   UNL     1      85.300 314.725 202.624  1.00  0.00     0.004 C 
ENDBRANCH  30  31
ENDBRANCH  29  30
ENDBRANCH  28  29
ENDBRANCH  27  28
ENDBRANCH  26  27
ENDBRANCH  25  26
ENDBRANCH  24  25
ENDBRANCH  23  24
ENDBRANCH  22  23
ENDBRANCH  21  22
ENDBRANCH  20  21
ENDBRANCH  19  20
ENDBRANCH  18  19
ENDBRANCH   1  18
TORSDOF 28
ENDMDL
MODEL 7
REMARK VINA RESULT:    -5.668      3.371     11.396
REMARK INTER + INTRA:         -19.038
REMARK INTER:                 -16.461
REMARK INTRA:                  -2.577
REMARK UNBOUND:                -4.091
REMARK SMILES CCCCCCCCCCCCCCCCCCCCCCCCCCCCCC(=O)[O-]
REMARK SMILES IDX 16 1 17 2 18 3 19 4 20 5 21 6 22 7 23 8 24 9 25 10 26 11
REMARK SMILES IDX 27 12 28 13 29 14 30 15 31 16 32 17 15 18 14 19 13 20 12 21
REMARK SMILES IDX 11 22 10 23 9 24 8 25 7 26 6 27 5 28 4 29 3 30 2 31 1 32
REMARK H PARENT
REMARK Flexibility Score: inf
ROOT
ATOM      1  C   UNL     1      87.340 318.135 199.160  1.00  0.00     0.000 C 
ENDROOT
BRANCH   1   2
ATOM      2  C   UNL     1      88.262 318.880 200.144  1.00  0.00     0.000 C 
BRANCH   2   3
ATOM      3  C   UNL     1      87.856 320.337 200.452  1.00  0.00     0.000 C 
BRANCH   3   4
ATOM      4  C   UNL     1      87.936 320.745 201.935  1.00  0.00     0.000 C 
BRANCH   4   5
ATOM      5  C   UNL     1      89.314 321.255 202.400  1.00  0.00     0.000 C 
BRANCH   5   6
ATOM      6  C   UNL     1      89.403 321.528 203.917  1.00  0.00     0.000 C 
BRANCH   6   7
ATOM      7  C   UNL     1      88.058 321.334 204.643  1.00  0.00     0.000 C 
BRANCH   7   8
ATOM      8  C   UNL     1      88.226 320.832 206.087  1.00  0.00     0.000 C 
BRANCH   8   9
ATOM      9  C   UNL     1      86.901 320.810 206.868  1.00  0.00     0.000 C 
BRANCH   9  10
ATOM     10  C   UNL     1      86.336 319.387 207.019  1.00  0.00     0.000 C 
BRANCH  10  11
ATOM     11  C   UNL     1      85.126 319.136 206.103  1.00  0.00     0.000 C 
BRANCH  11  12
ATOM     12  C   UNL     1      85.221 317.798 205.353  1.00  0.00     0.000 C 
BRANCH  12  13
ATOM     13  C   UNL     1      85.919 317.929 203.986  1.00  0.00     0.006 C 
BRANCH  13  14
ATOM     14  C   UNL     1      84.915 318.086 202.836  1.00  0.00     0.053 C 
BRANCH  14  15
ATOM     15  C   UNL     1      84.848 316.857 201.980  1.00  0.00     0.041 C 
ATOM     16  O   UNL     1      83.938 316.732 201.119  1.00  0.00    -0.550 OA
ATOM     17  O   UNL     1      85.796 315.852 202.130  1.00  0.00    -0.550 OA
ENDBRANCH  14  15
ENDBRANCH  13  14
ENDBRANCH  12  13
ENDBRANCH  11  12
ENDBRANCH  10  11
ENDBRANCH   9  10
ENDBRANCH   8   9
ENDBRANCH   7   8
ENDBRANCH   6   7
ENDBRANCH   5   6
ENDBRANCH   4   5
ENDBRANCH   3   4
ENDBRANCH   2   3
ENDBRANCH   1   2
BRANCH   1  18
ATOM     18  C   UNL     1      87.977 317.941 197.772  1.00  0.00     0.000 C 
BRANCH  18  19
ATOM     19  C   UNL     1      87.074 318.436 196.630  1.00  0.00     0.000 C 
BRANCH  19  20
ATOM     20  C   UNL     1      86.817 319.952 196.685  1.00  0.00     0.000 C 
BRANCH  20  21
ATOM     21  C   UNL     1      87.485 320.710 195.521  1.00  0.00     0.000 C 
BRANCH  21  22
ATOM     22  C   UNL     1      86.517 321.242 194.446  1.00  0.00     0.000 C 
BRANCH  22  23
ATOM     23  C   UNL     1      85.034 320.881 194.663  1.00  0.00     0.000 C 
BRANCH  23  24
ATOM     24  C   UNL     1      84.510 319.793 193.701  1.00  0.00    -0.000 C 
BRANCH  24  25
ATOM     25  C   UNL     1      85.639 319.049 192.972  1.00  0.00    -0.000 C 
BRANCH  25  26
ATOM     26  C   UNL     1      85.080 317.886 192.141  1.00  0.00    -0.000 C 
BRANCH  26  27
ATOM     27  C   UNL     1      86.201 317.155 191.386  1.00  0.00    -0.000 C 
BRANCH  27  28
ATOM     28  C   UNL     1      85.694 316.430 190.131  1.00  0.00    -0.000 C 
BRANCH  28  29
ATOM     29  C   UNL     1      86.230 317.055 188.830  1.00  0.00    -0.000 C 
BRANCH  29  30
ATOM     30  C   UNL     1      87.620 317.695 188.999  1.00  0.00    -0.000 C 
BRANCH  30  31
ATOM     31  C   UNL     1      88.804 316.727 188.809  1.00  0.00    -0.003 C 
ATOM     32  C   UNL     1      88.548 315.677 187.729  1.00  0.00     0.004 C 
ENDBRANCH  30  31
ENDBRANCH  29  30
ENDBRANCH  28  29
ENDBRANCH  27  28
ENDBRANCH  26  27
ENDBRANCH  25  26
ENDBRANCH  24  25
ENDBRANCH  23  24
ENDBRANCH  22  23
ENDBRANCH  21  22
ENDBRANCH  20  21
ENDBRANCH  19  20
ENDBRANCH  18  19
ENDBRANCH   1  18
TORSDOF 28
ENDMDL
MODEL 8
REMARK VINA RESULT:    -5.655      2.333      3.790
REMARK INTER + INTRA:         -19.001
REMARK INTER:                 -15.305
REMARK INTRA:                  -3.697
REMARK UNBOUND:                -4.091
REMARK SMILES CCCCCCCCCCCCCCCCCCCCCCCCCCCCCC(=O)[O-]
REMARK SMILES IDX 16 1 17 2 18 3 19 4 20 5 21 6 22 7 23 8 24 9 25 10 26 11
REMARK SMILES IDX 27 12 28 13 29 14 30 15 31 16 32 17 15 18 14 19 13 20 12 21
REMARK SMILES IDX 11 22 10 23 9 24 8 25 7 26 6 27 5 28 4 29 3 30 2 31 1 32
REMARK H PARENT
REMARK Flexibility Score: inf
ROOT
ATOM      1  C   UNL     1      86.993 320.457 201.488  1.00  0.00     0.000 C 
ENDROOT
BRANCH   1   2
ATOM      2  C   UNL     1      87.965 320.850 200.358  1.00  0.00     0.000 C 
BRANCH   2   3
ATOM      3  C   UNL     1      87.321 321.016 198.965  1.00  0.00     0.000 C 
BRANCH   3   4
ATOM      4  C   UNL     1      87.239 319.732 198.120  1.00  0.00     0.000 C 
BRANCH   4   5
ATOM      5  C   UNL     1      86.556 319.894 196.748  1.00  0.00     0.000 C 
BRANCH   5   6
ATOM      6  C   UNL     1      87.397 320.675 195.716  1.00  0.00     0.000 C 
BRANCH   6   7
ATOM      7  C   UNL     1      86.617 321.007 194.430  1.00  0.00     0.000 C 
BRANCH   7   8
ATOM      8  C   UNL     1      85.145 320.567 194.494  1.00  0.00     0.000 C 
BRANCH   8   9
ATOM      9  C   UNL     1      84.812 319.452 193.487  1.00  0.00     0.000 C 
BRANCH   9  10
ATOM     10  C   UNL     1      86.066 318.906 192.784  1.00  0.00     0.000 C 
BRANCH  10  11
ATOM     11  C   UNL     1      86.476 317.519 193.307  1.00  0.00     0.000 C 
BRANCH  11  12
ATOM     12  C   UNL     1      85.465 316.945 194.312  1.00  0.00     0.000 C 
BRANCH  12  13
ATOM     13  C   UNL     1      86.096 316.634 195.683  1.00  0.00     0.006 C 
BRANCH  13  14
ATOM     14  C   UNL     1      86.369 315.136 195.870  1.00  0.00     0.053 C 
BRANCH  14  15
ATOM     15  C   UNL     1      85.228 314.295 195.383  1.00  0.00     0.041 C 
ATOM     16  O   UNL     1      85.349 313.607 194.335  1.00  0.00    -0.550 OA
ATOM     17  O   UNL     1      84.033 314.267 196.090  1.00  0.00    -0.550 OA
ENDBRANCH  14  15
ENDBRANCH  13  14
ENDBRANCH  12  13
ENDBRANCH  11  12
ENDBRANCH  10  11
ENDBRANCH   9  10
ENDBRANCH   8   9
ENDBRANCH   7   8
ENDBRANCH   6   7
ENDBRANCH   5   6
ENDBRANCH   4   5
ENDBRANCH   3   4
ENDBRANCH   2   3
ENDBRANCH   1   2
BRANCH   1  18
ATOM     18  C   UNL     1      87.715 320.050 202.785  1.00  0.00     0.000 C 
BRANCH  18  19
ATOM     19  C   UNL     1      87.748 321.181 203.825  1.00  0.00     0.000 C 
BRANCH  19  20
ATOM     20  C   UNL     1      89.156 321.430 204.396  1.00  0.00     0.000 C 
BRANCH  20  21
ATOM     21  C   UNL     1      89.168 321.510 205.935  1.00  0.00     0.000 C 
BRANCH  21  22
ATOM     22  C   UNL     1      87.978 320.824 206.634  1.00  0.00     0.000 C 
BRANCH  22  23
ATOM     23  C   UNL     1      88.230 319.373 207.086  1.00  0.00     0.000 C 
BRANCH  23  24
ATOM     24  C   UNL     1      86.964 318.488 207.077  1.00  0.00    -0.000 C 
BRANCH  24  25
ATOM     25  C   UNL     1      85.695 319.269 206.702  1.00  0.00    -0.000 C 
BRANCH  25  26
ATOM     26  C   UNL     1      84.968 318.599 205.529  1.00  0.00    -0.000 C 
BRANCH  26  27
ATOM     27  C   UNL     1      85.889 317.607 204.801  1.00  0.00    -0.000 C 
BRANCH  27  28
ATOM     28  C   UNL     1      85.141 316.761 203.759  1.00  0.00    -0.000 C 
BRANCH  28  29
ATOM     29  C   UNL     1      84.847 317.541 202.465  1.00  0.00    -0.000 C 
BRANCH  29  30
ATOM     30  C   UNL     1      84.318 316.644 201.330  1.00  0.00    -0.000 C 
BRANCH  30  31
ATOM     31  C   UNL     1      85.369 316.247 200.277  1.00  0.00    -0.003 C 
ATOM     32  C   UNL     1      86.698 316.980 200.456  1.00  0.00     0.004 C 
ENDBRANCH  30  31
ENDBRANCH  29  30
ENDBRANCH  28  29
ENDBRANCH  27  28
ENDBRANCH  26  27
ENDBRANCH  25  26
ENDBRANCH  24  25
ENDBRANCH  23  24
ENDBRANCH  22  23
ENDBRANCH  21  22
ENDBRANCH  20  21
ENDBRANCH  19  20
ENDBRANCH  18  19
ENDBRANCH   1  18
TORSDOF 28
ENDMDL
MODEL 9
REMARK VINA RESULT:    -5.608      3.536      9.881
REMARK INTER + INTRA:         -18.878
REMARK INTER:                 -14.453
REMARK INTRA:                  -4.424
REMARK UNBOUND:                -4.091
REMARK SMILES CCCCCCCCCCCCCCCCCCCCCCCCCCCCCC(=O)[O-]
REMARK SMILES IDX 16 1 17 2 18 3 19 4 20 5 21 6 22 7 23 8 24 9 25 10 26 11
REMARK SMILES IDX 27 12 28 13 29 14 30 15 31 16 32 17 15 18 14 19 13 20 12 21
REMARK SMILES IDX 11 22 10 23 9 24 8 25 7 26 6 27 5 28 4 29 3 30 2 31 1 32
REMARK H PARENT
REMARK Flexibility Score: inf
ROOT
ATOM      1  C   UNL     1      86.496 320.529 197.117  1.00  0.00     0.000 C 
ENDROOT
BRANCH   1   2
ATOM      2  C   UNL     1      87.247 321.120 198.325  1.00  0.00     0.000 C 
BRANCH   2   3
ATOM      3  C   UNL     1      87.250 320.240 199.593  1.00  0.00     0.000 C 
BRANCH   3   4
ATOM      4  C   UNL     1      87.931 320.862 200.826  1.00  0.00     0.000 C 
BRANCH   4   5
ATOM      5  C   UNL     1      87.404 320.364 202.186  1.00  0.00     0.000 C 
BRANCH   5   6
ATOM      6  C   UNL     1      87.998 321.110 203.400  1.00  0.00     0.000 C 
BRANCH   6   7
ATOM      7  C   UNL     1      88.898 320.216 204.274  1.00  0.00     0.000 C 
BRANCH   7   8
ATOM      8  C   UNL     1      88.356 320.036 205.701  1.00  0.00     0.000 C 
BRANCH   8   9
ATOM      9  C   UNL     1      87.078 320.852 205.961  1.00  0.00     0.000 C 
BRANCH   9  10
ATOM     10  C   UNL     1      86.080 320.104 206.861  1.00  0.00     0.000 C 
BRANCH  10  11
ATOM     11  C   UNL     1      86.055 318.592 206.578  1.00  0.00     0.000 C 
BRANCH  11  12
ATOM     12  C   UNL     1      85.096 318.220 205.436  1.00  0.00     0.000 C 
BRANCH  12  13
ATOM     13  C   UNL     1      85.773 317.377 204.339  1.00  0.00     0.006 C 
BRANCH  13  14
ATOM     14  C   UNL     1      85.304 317.773 202.932  1.00  0.00     0.053 C 
BRANCH  14  15
ATOM     15  C   UNL     1      84.626 316.636 202.230  1.00  0.00     0.041 C 
ATOM     16  O   UNL     1      83.875 316.858 201.243  1.00  0.00    -0.550 OA
ATOM     17  O   UNL     1      84.827 315.331 202.661  1.00  0.00    -0.550 OA
ENDBRANCH  14  15
ENDBRANCH  13  14
ENDBRANCH  12  13
ENDBRANCH  11  12
ENDBRANCH  10  11
ENDBRANCH   9  10
ENDBRANCH   8   9
ENDBRANCH   7   8
ENDBRANCH   6   7
ENDBRANCH   5   6
ENDBRANCH   4   5
ENDBRANCH   3   4
ENDBRANCH   2   3
ENDBRANCH   1   2
BRANCH   1  18
ATOM     18  C   UNL     1      87.334 320.537 195.826  1.00  0.00     0.000 C 
BRANCH  18  19
ATOM     19  C   UNL     1      86.518 320.949 194.590  1.00  0.00     0.000 C 
BRANCH  19  20
ATOM     20  C   UNL     1      85.072 320.424 194.624  1.00  0.00     0.000 C 
BRANCH  20  21
ATOM     21  C   UNL     1      84.804 319.354 193.548  1.00  0.00     0.000 C 
BRANCH  21  22
ATOM     22  C   UNL     1      86.035 318.936 192.720  1.00  0.00     0.000 C 
BRANCH  22  23
ATOM     23  C   UNL     1      86.486 317.475 192.908  1.00  0.00     0.000 C 
BRANCH  23  24
ATOM     24  C   UNL     1      86.014 316.841 194.235  1.00  0.00    -0.000 C 
BRANCH  24  25
ATOM     25  C   UNL     1      87.108 316.839 195.315  1.00  0.00    -0.000 C 
BRANCH  25  26
ATOM     26  C   UNL     1      86.508 317.114 196.700  1.00  0.00    -0.000 C 
BRANCH  26  27
ATOM     27  C   UNL     1      87.334 316.438 197.805  1.00  0.00    -0.000 C 
BRANCH  27  28
ATOM     28  C   UNL     1      86.809 316.755 199.214  1.00  0.00    -0.000 C 
BRANCH  28  29
ATOM     29  C   UNL     1      87.887 316.582 200.299  1.00  0.00    -0.000 C 
BRANCH  29  30
ATOM     30  C   UNL     1      89.320 316.623 199.735  1.00  0.00    -0.000 C 
BRANCH  30  31
ATOM     31  C   UNL     1      89.992 318.009 199.780  1.00  0.00    -0.003 C 
ATOM     32  C   UNL     1      90.674 318.298 201.117  1.00  0.00     0.004 C 
ENDBRANCH  30  31
ENDBRANCH  29  30
ENDBRANCH  28  29
ENDBRANCH  27  28
ENDBRANCH  26  27
ENDBRANCH  25  26
ENDBRANCH  24  25
ENDBRANCH  23  24
ENDBRANCH  22  23
ENDBRANCH  21  22
ENDBRANCH  20  21
ENDBRANCH  19  20
ENDBRANCH  18  19
ENDBRANCH   1  18
TORSDOF 28
ENDMDL
