MODEL 1
REMARK VINA RESULT:    -4.187      0.000      0.000
REMARK INTER + INTRA:          -6.618
REMARK INTER:                  -6.145
REMARK INTRA:                  -0.473
REMARK UNBOUND:                -0.473
REMARK SMILES O=C([O-])CCCCCCCC(=O)[O-]
REMARK SMILES IDX 7 1 6 2 5 3 4 4 2 5 1 6 3 7 8 8 9 9 10 10 11 11 12 12 13 13
REMARK H PARENT
REMARK Flexibility Score: inf
ROOT
ATOM      1  C   UNL     1      -3.480  -4.664  -0.994  1.00  0.00     0.000 C 
ENDROOT
BRANCH   1   2
ATOM      2  C   UNL     1      -2.773  -3.372  -1.441  1.00  0.00     0.000 C 
BRANCH   2   3
ATOM      3  C   UNL     1      -3.447  -2.635  -2.618  1.00  0.00     0.006 C 
BRANCH   3   4
ATOM      4  C   UNL     1      -2.568  -1.568  -3.289  1.00  0.00     0.053 C 
BRANCH   4   5
ATOM      5  C   UNL     1      -2.235  -0.446  -2.355  1.00  0.00     0.041 C 
ATOM      6  O   UNL     1      -3.146   0.127  -1.701  1.00  0.00    -0.550 OA
ATOM      7  O   UNL     1      -0.914  -0.054  -2.181  1.00  0.00    -0.550 OA
ENDBRANCH   4   5
ENDBRANCH   3   4
ENDBRANCH   2   3
ENDBRANCH   1   2
BRANCH   1   8
ATOM      8  C   UNL     1      -4.957  -4.440  -0.627  1.00  0.00     0.000 C 
BRANCH   8   9
ATOM      9  C   UNL     1      -5.127  -3.652   0.681  1.00  0.00     0.006 C 
BRANCH   9  10
ATOM     10  C   UNL     1      -6.544  -3.087   0.849  1.00  0.00     0.053 C 
BRANCH  10  11
ATOM     11  C   UNL     1      -6.547  -1.609   0.616  1.00  0.00     0.041 C 
ATOM     12  O   UNL     1      -7.043  -0.833   1.475  1.00  0.00    -0.550 OA
ATOM     13  O   UNL     1      -6.048  -1.093  -0.573  1.00  0.00    -0.550 OA
ENDBRANCH  10  11
ENDBRANCH   9  10
ENDBRANCH   8   9
ENDBRANCH   1   8
TORSDOF 8
ENDMDL
MODEL 2
REMARK VINA RESULT:    -4.180      0.527      4.723
REMARK INTER + INTRA:          -6.608
REMARK INTER:                  -6.242
REMARK INTRA:                  -0.366
REMARK UNBOUND:                -0.473
REMARK SMILES O=C([O-])CCCCCCCC(=O)[O-]
REMARK SMILES IDX 7 1 6 2 5 3 4 4 2 5 1 6 3 7 8 8 9 9 10 10 11 11 12 12 13 13
REMARK H PARENT
REMARK Flexibility Score: inf
ROOT
ATOM      1  C   UNL     1      -3.504  -4.564  -1.096  1.00  0.00     0.000 C 
ENDROOT
BRANCH   1   2
ATOM      2  C   UNL     1      -4.612  -4.469  -0.031  1.00  0.00     0.000 C 
BRANCH   2   3
ATOM      3  C   UNL     1      -4.832  -3.057   0.553  1.00  0.00     0.006 C 
BRANCH   3   4
ATOM      4  C   UNL     1      -6.235  -2.819   1.135  1.00  0.00     0.053 C 
BRANCH   4   5
ATOM      5  C   UNL     1      -6.839  -1.542   0.638  1.00  0.00     0.041 C 
ATOM      6  O   UNL     1      -7.845  -1.050   1.213  1.00  0.00    -0.550 OA
ATOM      7  O   UNL     1      -6.271  -0.877  -0.441  1.00  0.00    -0.550 OA
ENDBRANCH   4   5
ENDBRANCH   3   4
ENDBRANCH   2   3
ENDBRANCH   1   2
BRANCH   1   8
ATOM      8  C   UNL     1      -2.781  -3.227  -1.327  1.00  0.00     0.000 C 
BRANCH   8   9
ATOM      9  C   UNL     1      -2.404  -3.006  -2.800  1.00  0.00     0.006 C 
BRANCH   9  10
ATOM     10  C   UNL     1      -2.764  -1.600  -3.297  1.00  0.00     0.053 C 
BRANCH  10  11
ATOM     11  C   UNL     1      -2.354  -0.571  -2.292  1.00  0.00     0.041 C 
ATOM     12  O   UNL     1      -3.226   0.053  -1.631  1.00  0.00    -0.550 OA
ATOM     13  O   UNL     1      -1.010  -0.264  -2.120  1.00  0.00    -0.550 OA
ENDBRANCH  10  11
ENDBRANCH   9  10
ENDBRANCH   8   9
ENDBRANCH   1   8
TORSDOF 8
ENDMDL
MODEL 3
REMARK VINA RESULT:    -4.069      1.438      2.362
REMARK INTER + INTRA:          -6.445
REMARK INTER:                  -5.939
REMARK INTRA:                  -0.506
REMARK UNBOUND:                -0.473
REMARK SMILES O=C([O-])CCCCCCCC(=O)[O-]
REMARK SMILES IDX 7 1 6 2 5 3 4 4 2 5 1 6 3 7 8 8 9 9 10 10 11 11 12 12 13 13
REMARK H PARENT
REMARK Flexibility Score: inf
ROOT
ATOM      1  C   UNL     1      -2.625  -3.928  -3.596  1.00  0.00     0.000 C 
ENDROOT
BRANCH   1   2
ATOM      2  C   UNL     1      -1.198  -3.414  -3.857  1.00  0.00     0.000 C 
BRANCH   2   3
ATOM      3  C   UNL     1      -1.099  -1.912  -4.195  1.00  0.00     0.006 C 
BRANCH   3   4
ATOM      4  C   UNL     1      -2.307  -1.075  -3.743  1.00  0.00     0.053 C 
BRANCH   4   5
ATOM      5  C   UNL     1      -2.013  -0.291  -2.502  1.00  0.00     0.041 C 
ATOM      6  O   UNL     1      -0.824  -0.018  -2.191  1.00  0.00    -0.550 OA
ATOM      7  O   UNL     1      -3.054   0.166  -1.704  1.00  0.00    -0.550 OA
ENDBRANCH   4   5
ENDBRANCH   3   4
ENDBRANCH   2   3
ENDBRANCH   1   2
BRANCH   1   8
ATOM      8  C   UNL     1      -2.779  -4.586  -2.215  1.00  0.00     0.000 C 
BRANCH   8   9
ATOM      9  C   UNL     1      -3.203  -3.586  -1.128  1.00  0.00     0.006 C 
BRANCH   9  10
ATOM     10  C   UNL     1      -4.429  -4.060  -0.336  1.00  0.00     0.053 C 
BRANCH  10  11
ATOM     11  C   UNL     1      -4.913  -2.976   0.575  1.00  0.00     0.041 C 
ATOM     12  O   UNL     1      -5.306  -3.255   1.738  1.00  0.00    -0.550 OA
ATOM     13  O   UNL     1      -4.975  -1.665   0.123  1.00  0.00    -0.550 OA
ENDBRANCH  10  11
ENDBRANCH   9  10
ENDBRANCH   8   9
ENDBRANCH   1   8
TORSDOF 8
ENDMDL
MODEL 4
REMARK VINA RESULT:    -4.048      1.488      4.856
REMARK INTER + INTRA:          -6.414
REMARK INTER:                  -5.809
REMARK INTRA:                  -0.605
REMARK UNBOUND:                -0.473
REMARK SMILES O=C([O-])CCCCCCCC(=O)[O-]
REMARK SMILES IDX 7 1 6 2 5 3 4 4 2 5 1 6 3 7 8 8 9 9 10 10 11 11 12 12 13 13
REMARK H PARENT
REMARK Flexibility Score: inf
ROOT
ATOM      1  C   UNL     1      -2.952  -3.719  -3.456  1.00  0.00     0.000 C 
ENDROOT
BRANCH   1   2
ATOM      2  C   UNL     1      -3.265  -4.592  -2.228  1.00  0.00     0.000 C 
BRANCH   2   3
ATOM      3  C   UNL     1      -3.274  -3.838  -0.881  1.00  0.00     0.006 C 
BRANCH   3   4
ATOM      4  C   UNL     1      -4.227  -2.633  -0.831  1.00  0.00     0.053 C 
BRANCH   4   5
ATOM      5  C   UNL     1      -5.101  -2.659   0.386  1.00  0.00     0.041 C 
ATOM      6  O   UNL     1      -5.068  -3.644   1.169  1.00  0.00    -0.550 OA
ATOM      7  O   UNL     1      -5.929  -1.581   0.672  1.00  0.00    -0.550 OA
ENDBRANCH   4   5
ENDBRANCH   3   4
ENDBRANCH   2   3
ENDBRANCH   1   2
BRANCH   1   8
ATOM      8  C   UNL     1      -1.462  -3.355  -3.567  1.00  0.00     0.000 C 
BRANCH   8   9
ATOM      9  C   UNL     1      -1.240  -1.931  -4.099  1.00  0.00     0.006 C 
BRANCH   9  10
ATOM     10  C   UNL     1      -2.380  -0.976  -3.720  1.00  0.00     0.053 C 
BRANCH  10  11
ATOM     11  C   UNL     1      -2.008  -0.172  -2.515  1.00  0.00     0.041 C 
ATOM     12  O   UNL     1      -2.905   0.322  -1.782  1.00  0.00    -0.550 OA
ATOM     13  O   UNL     1      -0.671   0.074  -2.229  1.00  0.00    -0.550 OA
ENDBRANCH  10  11
ENDBRANCH   9  10
ENDBRANCH   8   9
ENDBRANCH   1   8
TORSDOF 8
ENDMDL
MODEL 5
REMARK VINA RESULT:    -4.009      1.054      1.643
REMARK INTER + INTRA:          -6.356
REMARK INTER:                  -5.946
REMARK INTRA:                  -0.410
REMARK UNBOUND:                -0.473
REMARK SMILES O=C([O-])CCCCCCCC(=O)[O-]
REMARK SMILES IDX 7 1 6 2 5 3 4 4 2 5 1 6 3 7 8 8 9 9 10 10 11 11 12 12 13 13
REMARK H PARENT
REMARK Flexibility Score: inf
ROOT
ATOM      1  C   UNL     1      -4.924  -4.572  -0.243  1.00  0.00     0.000 C 
ENDROOT
BRANCH   1   2
ATOM      2  C   UNL     1      -4.323  -3.189  -0.552  1.00  0.00     0.000 C 
BRANCH   2   3
ATOM      3  C   UNL     1      -3.026  -3.216  -1.388  1.00  0.00     0.006 C 
BRANCH   3   4
ATOM      4  C   UNL     1      -3.027  -2.269  -2.599  1.00  0.00     0.053 C 
BRANCH   4   5
ATOM      5  C   UNL     1      -2.464  -0.924  -2.259  1.00  0.00     0.041 C 
ATOM      6  O   UNL     1      -1.262  -0.655  -2.521  1.00  0.00    -0.550 OA
ATOM      7  O   UNL     1      -3.275   0.045  -1.682  1.00  0.00    -0.550 OA
ENDBRANCH   4   5
ENDBRANCH   3   4
ENDBRANCH   2   3
ENDBRANCH   1   2
BRANCH   1   8
ATOM      8  C   UNL     1      -5.566  -4.645   1.153  1.00  0.00     0.000 C 
BRANCH   8   9
ATOM      9  C   UNL     1      -5.562  -3.290   1.876  1.00  0.00     0.006 C 
BRANCH   9  10
ATOM     10  C   UNL     1      -6.956  -2.881   2.370  1.00  0.00     0.053 C 
BRANCH  10  11
ATOM     11  C   UNL     1      -7.429  -1.660   1.647  1.00  0.00     0.041 C 
ATOM     12  O   UNL     1      -8.647  -1.341   1.670  1.00  0.00    -0.550 OA
ATOM     13  O   UNL     1      -6.533  -0.901   0.905  1.00  0.00    -0.550 OA
ENDBRANCH  10  11
ENDBRANCH   9  10
ENDBRANCH   8   9
ENDBRANCH   1   8
TORSDOF 8
ENDMDL
MODEL 6
REMARK VINA RESULT:    -3.998      3.913      6.189
REMARK INTER + INTRA:          -6.340
REMARK INTER:                  -5.634
REMARK INTRA:                  -0.706
REMARK UNBOUND:                -0.473
REMARK SMILES O=C([O-])CCCCCCCC(=O)[O-]
REMARK SMILES IDX 7 1 6 2 5 3 4 4 2 5 1 6 3 7 8 8 9 9 10 10 11 11 12 12 13 13
REMARK H PARENT
REMARK Flexibility Score: inf
ROOT
ATOM      1  C   UNL     1      -3.630   2.924  -4.671  1.00  0.00     0.000 C 
ENDROOT
BRANCH   1   2
ATOM      2  C   UNL     1      -2.240   3.262  -5.238  1.00  0.00     0.000 C 
BRANCH   2   3
ATOM      3  C   UNL     1      -1.316   4.036  -4.274  1.00  0.00     0.006 C 
BRANCH   3   4
ATOM      4  C   UNL     1      -1.126   3.371  -2.901  1.00  0.00     0.053 C 
BRANCH   4   5
ATOM      5  C   UNL     1       0.278   2.888  -2.701  1.00  0.00     0.041 C 
ATOM      6  O   UNL     1       0.807   2.932  -1.559  1.00  0.00    -0.550 OA
ATOM      7  O   UNL     1       0.991   2.360  -3.769  1.00  0.00    -0.550 OA
ENDBRANCH   4   5
ENDBRANCH   3   4
ENDBRANCH   2   3
ENDBRANCH   1   2
BRANCH   1   8
ATOM      8  C   UNL     1      -3.960   1.423  -4.752  1.00  0.00     0.000 C 
BRANCH   8   9
ATOM      9  C   UNL     1      -2.700   0.547  -4.828  1.00  0.00     0.006 C 
BRANCH   9  10
ATOM     10  C   UNL     1      -2.755  -0.649  -3.868  1.00  0.00     0.053 C 
BRANCH  10  11
ATOM     11  C   UNL     1      -2.341  -0.234  -2.492  1.00  0.00     0.041 C 
ATOM     12  O   UNL     1      -1.121  -0.193  -2.183  1.00  0.00    -0.550 OA
ATOM     13  O   UNL     1      -3.304   0.061  -1.536  1.00  0.00    -0.550 OA
ENDBRANCH  10  11
ENDBRANCH   9  10
ENDBRANCH   8   9
ENDBRANCH   1   8
TORSDOF 8
ENDMDL
MODEL 7
REMARK VINA RESULT:    -3.985      4.029      7.397
REMARK INTER + INTRA:          -6.321
REMARK INTER:                  -5.659
REMARK INTRA:                  -0.662
REMARK UNBOUND:                -0.473
REMARK SMILES O=C([O-])CCCCCCCC(=O)[O-]
REMARK SMILES IDX 7 1 6 2 5 3 4 4 2 5 1 6 3 7 8 8 9 9 10 10 11 11 12 12 13 13
REMARK H PARENT
REMARK Flexibility Score: inf
ROOT
ATOM      1  C   UNL     1      -2.022   2.887  -4.976  1.00  0.00     0.000 C 
ENDROOT
BRANCH   1   2
ATOM      2  C   UNL     1      -3.521   2.719  -4.672  1.00  0.00     0.000 C 
BRANCH   2   3
ATOM      3  C   UNL     1      -3.910   1.362  -4.046  1.00  0.00     0.006 C 
BRANCH   3   4
ATOM      4  C   UNL     1      -2.750   0.361  -3.924  1.00  0.00     0.053 C 
BRANCH   4   5
ATOM      5  C   UNL     1      -2.444   0.027  -2.496  1.00  0.00     0.041 C 
ATOM      6  O   UNL     1      -3.358   0.048  -1.631  1.00  0.00    -0.550 OA
ATOM      7  O   UNL     1      -1.156  -0.337  -2.127  1.00  0.00    -0.550 OA
ENDBRANCH   4   5
ENDBRANCH   3   4
ENDBRANCH   2   3
ENDBRANCH   1   2
BRANCH   1   8
ATOM      8  C   UNL     1      -1.359   3.984  -4.126  1.00  0.00     0.000 C 
BRANCH   8   9
ATOM      9  C   UNL     1      -0.950   3.483  -2.732  1.00  0.00     0.006 C 
BRANCH   9  10
ATOM     10  C   UNL     1       0.341   2.655  -2.758  1.00  0.00     0.053 C 
BRANCH  10  11
ATOM     11  C   UNL     1       1.438   3.374  -2.039  1.00  0.00     0.041 C 
ATOM     12  O   UNL     1       1.269   4.560  -1.650  1.00  0.00    -0.550 OA
ATOM     13  O   UNL     1       2.663   2.752  -1.840  1.00  0.00    -0.550 OA
ENDBRANCH  10  11
ENDBRANCH   9  10
ENDBRANCH   8   9
ENDBRANCH   1   8
TORSDOF 8
ENDMDL
MODEL 8
REMARK VINA RESULT:    -3.818     10.507     11.494
REMARK INTER + INTRA:          -6.076
REMARK INTER:                  -5.768
REMARK INTRA:                  -0.308
REMARK UNBOUND:                -0.473
REMARK SMILES O=C([O-])CCCCCCCC(=O)[O-]
REMARK SMILES IDX 7 1 6 2 5 3 4 4 2 5 1 6 3 7 8 8 9 9 10 10 11 11 12 12 13 13
REMARK H PARENT
REMARK Flexibility Score: inf
ROOT
ATOM      1  C   UNL     1       0.332   2.027   7.748  1.00  0.00     0.000 C 
ENDROOT
BRANCH   1   2
ATOM      2  C   UNL     1      -0.282   3.431   7.603  1.00  0.00     0.000 C 
BRANCH   2   3
ATOM      3  C   UNL     1      -1.807   3.452   7.372  1.00  0.00     0.006 C 
BRANCH   3   4
ATOM      4  C   UNL     1      -2.514   4.713   7.897  1.00  0.00     0.053 C 
BRANCH   4   5
ATOM      5  C   UNL     1      -2.501   5.823   6.892  1.00  0.00     0.041 C 
ATOM      6  O   UNL     1      -1.563   6.662   6.887  1.00  0.00    -0.550 OA
ATOM      7  O   UNL     1      -3.508   5.912   5.940  1.00  0.00    -0.550 OA
ENDBRANCH   4   5
ENDBRANCH   3   4
ENDBRANCH   2   3
ENDBRANCH   1   2
BRANCH   1   8
ATOM      8  C   UNL     1       1.069   1.832   9.084  1.00  0.00     0.000 C 
BRANCH   8   9
ATOM      9  C   UNL     1       2.024   0.628   9.061  1.00  0.00     0.006 C 
BRANCH   9  10
ATOM     10  C   UNL     1       2.010  -0.110   7.716  1.00  0.00     0.053 C 
BRANCH  10  11
ATOM     11  C   UNL     1       1.436  -1.482   7.879  1.00  0.00     0.041 C 
ATOM     12  O   UNL     1       0.498  -1.684   8.694  1.00  0.00    -0.550 OA
ATOM     13  O   UNL     1       1.971  -2.548   7.167  1.00  0.00    -0.550 OA
ENDBRANCH  10  11
ENDBRANCH   9  10
ENDBRANCH   8   9
ENDBRANCH   1   8
TORSDOF 8
ENDMDL
MODEL 9
REMARK VINA RESULT:    -3.803      3.769      6.787
REMARK INTER + INTRA:          -6.054
REMARK INTER:                  -5.225
REMARK INTRA:                  -0.830
REMARK UNBOUND:                -0.473
REMARK SMILES O=C([O-])CCCCCCCC(=O)[O-]
REMARK SMILES IDX 7 1 6 2 5 3 4 4 2 5 1 6 3 7 8 8 9 9 10 10 11 11 12 12 13 13
REMARK H PARENT
REMARK Flexibility Score: inf
ROOT
ATOM      1  C   UNL     1      -3.575   2.197  -6.027  1.00  0.00     0.000 C 
ENDROOT
BRANCH   1   2
ATOM      2  C   UNL     1      -4.509   1.073  -5.546  1.00  0.00     0.000 C 
BRANCH   2   3
ATOM      3  C   UNL     1      -4.219   0.551  -4.123  1.00  0.00     0.006 C 
BRANCH   3   4
ATOM      4  C   UNL     1      -3.045  -0.436  -4.031  1.00  0.00     0.053 C 
BRANCH   4   5
ATOM      5  C   UNL     1      -2.663  -0.723  -2.612  1.00  0.00     0.041 C 
ATOM      6  O   UNL     1      -2.060  -1.789  -2.321  1.00  0.00    -0.550 OA
ATOM      7  O   UNL     1      -2.944   0.202  -1.614  1.00  0.00    -0.550 OA
ENDBRANCH   4   5
ENDBRANCH   3   4
ENDBRANCH   2   3
ENDBRANCH   1   2
BRANCH   1   8
ATOM      8  C   UNL     1      -3.518   3.385  -5.052  1.00  0.00     0.000 C 
BRANCH   8   9
ATOM      9  C   UNL     1      -2.079   3.822  -4.737  1.00  0.00     0.006 C 
BRANCH   9  10
ATOM     10  C   UNL     1      -1.081   2.659  -4.809  1.00  0.00     0.053 C 
BRANCH  10  11
ATOM     11  C   UNL     1      -0.628   2.273  -3.437  1.00  0.00     0.041 C 
ATOM     12  O   UNL     1       0.200   1.338  -3.282  1.00  0.00    -0.550 OA
ATOM     13  O   UNL     1      -1.159   2.915  -2.325  1.00  0.00    -0.550 OA
ENDBRANCH  10  11
ENDBRANCH   9  10
ENDBRANCH   8   9
ENDBRANCH   1   8
TORSDOF 8
ENDMDL
