MODEL 1
REMARK VINA RESULT:    -3.485      0.000      0.000
REMARK INTER + INTRA:          -3.926
REMARK INTER:                  -3.892
REMARK INTRA:                  -0.033
REMARK UNBOUND:                -0.033
REMARK SMILES CCCC(=O)[O-]
REMARK SMILES IDX 3 1 4 2 5 3 6 4 2 5 1 6
REMARK H PARENT
REMARK Flexibility Score: inf
ROOT
ATOM      1  C   UNL     1      52.715  20.618  49.613  1.00  0.00     0.052 C 
ENDROOT
BRANCH   1   2
ATOM      2  C   UNL     1      52.352  21.009  51.013  1.00  0.00     0.041 C 
ATOM      3  O   UNL     1      53.160  21.669  51.718  1.00  0.00    -0.550 OA
ATOM      4  O   UNL     1      51.133  20.614  51.551  1.00  0.00    -0.550 OA
ENDBRANCH   1   2
BRANCH   1   5
ATOM      5  C   UNL     1      54.208  20.291  49.483  1.00  0.00     0.003 C 
ATOM      6  C   UNL     1      54.882  21.088  48.367  1.00  0.00     0.004 C 
ENDBRANCH   1   5
TORSDOF 2
ENDMDL
MODEL 2
REMARK VINA RESULT:    -3.485      0.291      1.348
REMARK INTER + INTRA:          -3.925
REMARK INTER:                  -3.887
REMARK INTRA:                  -0.038
REMARK UNBOUND:                -0.033
REMARK SMILES CCCC(=O)[O-]
REMARK SMILES IDX 3 1 4 2 5 3 6 4 2 5 1 6
REMARK H PARENT
REMARK Flexibility Score: inf
ROOT
ATOM      1  C   UNL     1      52.821  20.480  49.557  1.00  0.00     0.052 C 
ENDROOT
BRANCH   1   2
ATOM      2  C   UNL     1      52.466  21.111  50.869  1.00  0.00     0.041 C 
ATOM      3  O   UNL     1      51.401  20.789  51.459  1.00  0.00    -0.550 OA
ATOM      4  O   UNL     1      53.294  22.079  51.422  1.00  0.00    -0.550 OA
ENDBRANCH   1   2
BRANCH   1   5
ATOM      5  C   UNL     1      54.338  20.320  49.397  1.00  0.00     0.003 C 
ATOM      6  C   UNL     1      54.902  21.205  48.286  1.00  0.00     0.004 C 
ENDBRANCH   1   5
TORSDOF 2
ENDMDL
MODEL 3
REMARK VINA RESULT:    -3.348      1.249      1.557
REMARK INTER + INTRA:          -3.773
REMARK INTER:                  -3.765
REMARK INTRA:                  -0.008
REMARK UNBOUND:                -0.033
REMARK SMILES CCCC(=O)[O-]
REMARK SMILES IDX 3 1 4 2 5 3 6 4 2 5 1 6
REMARK H PARENT
REMARK Flexibility Score: inf
ROOT
ATOM      1  C   UNL     1      52.052  20.715  49.650  1.00  0.00     0.052 C 
ENDROOT
BRANCH   1   2
ATOM      2  C   UNL     1      51.083  20.271  50.702  1.00  0.00     0.041 C 
ATOM      3  O   UNL     1      51.134  20.763  51.860  1.00  0.00    -0.550 OA
ATOM      4  O   UNL     1      50.145  19.287  50.412  1.00  0.00    -0.550 OA
ENDBRANCH   1   2
BRANCH   1   5
ATOM      5  C   UNL     1      53.490  20.758  50.183  1.00  0.00     0.003 C 
ATOM      6  C   UNL     1      54.497  20.187  49.186  1.00  0.00     0.004 C 
ENDBRANCH   1   5
TORSDOF 2
ENDMDL
MODEL 4
REMARK VINA RESULT:    -3.269      2.876      3.644
REMARK INTER + INTRA:          -3.685
REMARK INTER:                  -3.679
REMARK INTRA:                  -0.005
REMARK UNBOUND:                -0.033
REMARK SMILES CCCC(=O)[O-]
REMARK SMILES IDX 3 1 4 2 5 3 6 4 2 5 1 6
REMARK H PARENT
REMARK Flexibility Score: inf
ROOT
ATOM      1  C   UNL     1      53.517  20.291  49.283  1.00  0.00     0.052 C 
ENDROOT
BRANCH   1   2
ATOM      2  C   UNL     1      54.906  20.466  48.750  1.00  0.00     0.041 C 
ATOM      3  O   UNL     1      55.185  21.451  48.017  1.00  0.00    -0.550 OA
ATOM      4  O   UNL     1      55.884  19.521  49.035  1.00  0.00    -0.550 OA
ENDBRANCH   1   2
BRANCH   1   5
ATOM      5  C   UNL     1      53.310  21.059  50.594  1.00  0.00     0.003 C 
ATOM      6  C   UNL     1      51.846  21.078  51.031  1.00  0.00     0.004 C 
ENDBRANCH   1   5
TORSDOF 2
ENDMDL
MODEL 5
REMARK VINA RESULT:    -2.720      1.933      3.154
REMARK INTER + INTRA:          -3.072
REMARK INTER:                  -3.054
REMARK INTRA:                  -0.017
REMARK UNBOUND:                -0.033
REMARK SMILES CCCC(=O)[O-]
REMARK SMILES IDX 3 1 4 2 5 3 6 4 2 5 1 6
REMARK H PARENT
REMARK Flexibility Score: inf
ROOT
ATOM      1  C   UNL     1      51.508  21.004  49.989  1.00  0.00     0.052 C 
ENDROOT
BRANCH   1   2
ATOM      2  C   UNL     1      52.883  20.907  50.575  1.00  0.00     0.041 C 
ATOM      3  O   UNL     1      53.827  20.416  49.901  1.00  0.00    -0.550 OA
ATOM      4  O   UNL     1      53.114  21.328  51.879  1.00  0.00    -0.550 OA
ENDBRANCH   1   2
BRANCH   1   5
ATOM      5  C   UNL     1      50.477  20.240  50.829  1.00  0.00     0.003 C 
ATOM      6  C   UNL     1      49.921  19.019  50.098  1.00  0.00     0.004 C 
ENDBRANCH   1   5
TORSDOF 2
ENDMDL
MODEL 6
REMARK VINA RESULT:    -2.695     10.074     10.351
REMARK INTER + INTRA:          -3.043
REMARK INTER:                  -3.031
REMARK INTRA:                  -0.012
REMARK UNBOUND:                -0.033
REMARK SMILES CCCC(=O)[O-]
REMARK SMILES IDX 3 1 4 2 5 3 6 4 2 5 1 6
REMARK H PARENT
REMARK Flexibility Score: inf
ROOT
ATOM      1  C   UNL     1      44.508  17.906  52.864  1.00  0.00     0.052 C 
ENDROOT
BRANCH   1   2
ATOM      2  C   UNL     1      43.417  18.294  53.814  1.00  0.00     0.041 C 
ATOM      3  O   UNL     1      42.590  19.190  53.498  1.00  0.00    -0.550 OA
ATOM      4  O   UNL     1      43.333  17.689  55.062  1.00  0.00    -0.550 OA
ENDBRANCH   1   2
BRANCH   1   5
ATOM      5  C   UNL     1      43.963  17.607  51.462  1.00  0.00     0.003 C 
ATOM      6  C   UNL     1      44.270  16.180  51.012  1.00  0.00     0.004 C 
ENDBRANCH   1   5
TORSDOF 2
ENDMDL
MODEL 7
REMARK VINA RESULT:    -2.624      9.418     10.309
REMARK INTER + INTRA:          -2.964
REMARK INTER:                  -2.906
REMARK INTRA:                  -0.058
REMARK UNBOUND:                -0.033
REMARK SMILES CCCC(=O)[O-]
REMARK SMILES IDX 3 1 4 2 5 3 6 4 2 5 1 6
REMARK H PARENT
REMARK Flexibility Score: inf
ROOT
ATOM      1  C   UNL     1      44.802  18.149  52.757  1.00  0.00     0.052 C 
ENDROOT
BRANCH   1   2
ATOM      2  C   UNL     1      44.160  17.800  51.450  1.00  0.00     0.041 C 
ATOM      3  O   UNL     1      43.920  18.698  50.600  1.00  0.00    -0.550 OA
ATOM      4  O   UNL     1      43.794  16.486  51.184  1.00  0.00    -0.550 OA
ENDBRANCH   1   2
BRANCH   1   5
ATOM      5  C   UNL     1      43.824  17.997  53.929  1.00  0.00     0.003 C 
ATOM      6  C   UNL     1      42.751  19.085  53.935  1.00  0.00     0.004 C 
ENDBRANCH   1   5
TORSDOF 2
ENDMDL
MODEL 8
REMARK VINA RESULT:    -2.610     12.382     12.904
REMARK INTER + INTRA:          -2.949
REMARK INTER:                  -2.926
REMARK INTRA:                  -0.023
REMARK UNBOUND:                -0.033
REMARK SMILES CCCC(=O)[O-]
REMARK SMILES IDX 3 1 4 2 5 3 6 4 2 5 1 6
REMARK H PARENT
REMARK Flexibility Score: inf
ROOT
ATOM      1  C   UNL     1      41.825  21.923  55.008  1.00  0.00     0.052 C 
ENDROOT
BRANCH   1   2
ATOM      2  C   UNL     1      40.989  21.241  53.969  1.00  0.00     0.041 C 
ATOM      3  O   UNL     1      39.876  21.724  53.632  1.00  0.00    -0.550 OA
ATOM      4  O   UNL     1      41.425  20.051  53.397  1.00  0.00    -0.550 OA
ENDBRANCH   1   2
BRANCH   1   5
ATOM      5  C   UNL     1      41.215  23.263  55.438  1.00  0.00     0.003 C 
ATOM      6  C   UNL     1      42.239  24.397  55.426  1.00  0.00     0.004 C 
ENDBRANCH   1   5
TORSDOF 2
ENDMDL
MODEL 9
REMARK VINA RESULT:    -2.569     10.863     11.639
REMARK INTER + INTRA:          -2.903
REMARK INTER:                  -2.858
REMARK INTRA:                  -0.045
REMARK UNBOUND:                -0.033
REMARK SMILES CCCC(=O)[O-]
REMARK SMILES IDX 3 1 4 2 5 3 6 4 2 5 1 6
REMARK H PARENT
REMARK Flexibility Score: inf
ROOT
ATOM      1  C   UNL     1      43.509  19.869  55.074  1.00  0.00     0.052 C 
ENDROOT
BRANCH   1   2
ATOM      2  C   UNL     1      43.358  18.388  54.909  1.00  0.00     0.041 C 
ATOM      3  O   UNL     1      43.762  17.822  53.859  1.00  0.00    -0.550 OA
ATOM      4  O   UNL     1      42.741  17.637  55.902  1.00  0.00    -0.550 OA
ENDBRANCH   1   2
BRANCH   1   5
ATOM      5  C   UNL     1      42.153  20.585  55.040  1.00  0.00     0.003 C 
ATOM      6  C   UNL     1      41.366  20.278  53.767  1.00  0.00     0.004 C 
ENDBRANCH   1   5
TORSDOF 2
ENDMDL
