MODEL 1
REMARK VINA RESULT:    15.500      0.000      0.000
REMARK INTER + INTRA:          18.348
REMARK INTER:                  18.219
REMARK INTRA:                   0.130
REMARK UNBOUND:                 0.130
REMARK SMILES O=c1c(O)c(-c2ccc(O)cc2)oc2cc(O)cc(O)c12
REMARK SMILES IDX 5 1 3 2 2 3 1 4 21 5 19 6 18 7 16 8 15 9 14 10 13 11 6 12
REMARK SMILES IDX 7 13 8 14 9 15 12 16 11 17 10 18 4 20 20 22 17 24
REMARK H PARENT 10 19 4 21 20 23 17 25
REMARK Flexibility Score: inf
ROOT
ATOM      1  C   UNL     1      24.682  31.459   1.265  1.00  0.00     0.180 A 
ATOM      2  C   UNL     1      25.839  31.956   0.640  1.00  0.00     0.208 A 
ATOM      3  C   UNL     1      27.041  31.241   0.765  1.00  0.00     0.238 A 
ATOM      4  O   UNL     1      28.061  31.662   0.159  1.00  0.00    -0.285 OA
ATOM      5  C   UNL     1      27.075  30.048   1.525  1.00  0.00     0.111 A 
ATOM      6  C   UNL     1      28.246  29.264   1.752  1.00  0.00     0.134 A 
ATOM      7  C   UNL     1      28.137  28.033   2.411  1.00  0.00     0.093 A 
ATOM      8  C   UNL     1      26.909  27.588   2.907  1.00  0.00     0.123 A 
ATOM      9  C   UNL     1      25.770  28.374   2.743  1.00  0.00     0.094 A 
ATOM     10  C   UNL     1      25.842  29.590   2.059  1.00  0.00     0.146 A 
ATOM     11  O   UNL     1      24.731  30.303   1.915  1.00  0.00    -0.452 OA
ENDROOT
BRANCH   1  12
ATOM     12  C   UNL     1      23.384  32.169   1.199  1.00  0.00     0.021 A 
ATOM     13  C   UNL     1      22.919  32.650  -0.037  1.00  0.00     0.016 A 
ATOM     14  C   UNL     1      21.686  33.303  -0.124  1.00  0.00     0.047 A 
ATOM     15  C   UNL     1      20.896  33.471   1.016  1.00  0.00     0.115 A 
ATOM     16  C   UNL     1      22.575  32.324   2.340  1.00  0.00     0.016 A 
ATOM     17  C   UNL     1      21.342  32.976   2.249  1.00  0.00     0.047 A 
BRANCH  15  18
ATOM     18  O   UNL     1      19.670  34.124   0.914  1.00  0.00    -0.508 OA
ATOM     19  H   UNL     1      19.466  34.955   1.456  1.00  0.00     0.293 HD
ENDBRANCH  15  18
ENDBRANCH   1  12
BRANCH   2  20
ATOM     20  O   UNL     1      25.779  33.125  -0.125  1.00  0.00    -0.502 OA
ATOM     21  H   UNL     1      25.808  33.114  -1.137  1.00  0.00     0.293 HD
ENDBRANCH   2  20
BRANCH   6  22
ATOM     22  O   UNL     1      29.534  29.659   1.379  1.00  0.00    -0.507 OA
ATOM     23  H   UNL     1      29.926  30.574   1.546  1.00  0.00     0.293 HD
ENDBRANCH   6  22
BRANCH   8  24
ATOM     24  O   UNL     1      26.812  26.370   3.575  1.00  0.00    -0.508 OA
ATOM     25  H   UNL     1      27.436  26.130   4.336  1.00  0.00     0.293 HD
ENDBRANCH   8  24
TORSDOF 5
ENDMDL
MODEL 2
REMARK VINA RESULT:    15.949      0.457      1.127
REMARK INTER + INTRA:          18.876
REMARK INTER:                  18.533
REMARK INTRA:                   0.343
REMARK UNBOUND:                 0.130
REMARK SMILES O=c1c(O)c(-c2ccc(O)cc2)oc2cc(O)cc(O)c12
REMARK SMILES IDX 5 1 3 2 2 3 1 4 21 5 19 6 18 7 16 8 15 9 14 10 13 11 6 12
REMARK SMILES IDX 7 13 8 14 9 15 12 16 11 17 10 18 4 20 20 22 17 24
REMARK H PARENT 10 19 4 21 20 23 17 25
REMARK Flexibility Score: inf
ROOT
ATOM      1  C   UNL     1      24.947  31.173   1.200  1.00  0.00     0.180 A 
ATOM      2  C   UNL     1      26.151  31.627   0.635  1.00  0.00     0.208 A 
ATOM      3  C   UNL     1      27.317  30.865   0.813  1.00  0.00     0.238 A 
ATOM      4  O   UNL     1      28.381  31.248   0.259  1.00  0.00    -0.285 OA
ATOM      5  C   UNL     1      27.268  29.668   1.567  1.00  0.00     0.111 A 
ATOM      6  C   UNL     1      28.395  28.838   1.846  1.00  0.00     0.134 A 
ATOM      7  C   UNL     1      28.207  27.609   2.490  1.00  0.00     0.093 A 
ATOM      8  C   UNL     1      26.939  27.211   2.924  1.00  0.00     0.123 A 
ATOM      9  C   UNL     1      25.841  28.041   2.711  1.00  0.00     0.094 A 
ATOM     10  C   UNL     1      25.993  29.256   2.038  1.00  0.00     0.146 A 
ATOM     11  O   UNL     1      24.919  30.012   1.845  1.00  0.00    -0.452 OA
ENDROOT
BRANCH   1  12
ATOM     12  C   UNL     1      23.682  31.933   1.076  1.00  0.00     0.021 A 
ATOM     13  C   UNL     1      22.721  31.851   2.098  1.00  0.00     0.016 A 
ATOM     14  C   UNL     1      21.531  32.578   2.011  1.00  0.00     0.047 A 
ATOM     15  C   UNL     1      21.290  33.407   0.911  1.00  0.00     0.115 A 
ATOM     16  C   UNL     1      23.443  32.784  -0.019  1.00  0.00     0.016 A 
ATOM     17  C   UNL     1      22.251  33.511  -0.103  1.00  0.00     0.047 A 
BRANCH  15  18
ATOM     18  O   UNL     1      20.099  34.125   0.838  1.00  0.00    -0.508 OA
ATOM     19  H   UNL     1      19.409  33.934   0.121  1.00  0.00     0.293 HD
ENDBRANCH  15  18
ENDBRANCH   1  12
BRANCH   2  20
ATOM     20  O   UNL     1      26.173  32.800  -0.125  1.00  0.00    -0.502 OA
ATOM     21  H   UNL     1      26.168  33.721   0.296  1.00  0.00     0.293 HD
ENDBRANCH   2  20
BRANCH   6  22
ATOM     22  O   UNL     1      29.713  29.184   1.537  1.00  0.00    -0.507 OA
ATOM     23  H   UNL     1      30.002  29.650   0.690  1.00  0.00     0.293 HD
ENDBRANCH   6  22
BRANCH   8  24
ATOM     24  O   UNL     1      26.763  25.994   3.579  1.00  0.00    -0.508 OA
ATOM     25  H   UNL     1      26.031  25.863   4.267  1.00  0.00     0.293 HD
ENDBRANCH   8  24
TORSDOF 5
ENDMDL
