MODEL 1
REMARK VINA RESULT:    -5.253      0.000      0.000
REMARK INTER + INTRA:         -14.414
REMARK INTER:                 -11.396
REMARK INTRA:                  -3.019
REMARK UNBOUND:                -3.019
REMARK SMILES CCCCCCCCCCCCCCCCCCCCCC(=O)[O-]
REMARK SMILES IDX 12 1 11 2 10 3 9 4 8 5 7 6 6 7 5 8 4 9 3 10 2 11 1 12 13 13
REMARK SMILES IDX 14 14 15 15 16 16 17 17 18 18 19 19 20 20 21 21 22 22 23 23
REMARK SMILES IDX 24 24
REMARK H PARENT
REMARK Flexibility Score: inf
ROOT
ATOM      1  C   UNL     1      21.381  23.137   9.177  1.00  0.00     0.000 C 
ENDROOT
BRANCH   1   2
ATOM      2  C   UNL     1      20.744  23.224  10.576  1.00  0.00     0.000 C 
BRANCH   2   3
ATOM      3  C   UNL     1      19.323  22.638  10.624  1.00  0.00     0.000 C 
BRANCH   3   4
ATOM      4  C   UNL     1      19.144  21.422   9.694  1.00  0.00    -0.000 C 
BRANCH   4   5
ATOM      5  C   UNL     1      17.838  21.401   8.879  1.00  0.00    -0.000 C 
BRANCH   5   6
ATOM      6  C   UNL     1      18.037  20.906   7.436  1.00  0.00    -0.000 C 
BRANCH   6   7
ATOM      7  C   UNL     1      17.632  21.963   6.395  1.00  0.00    -0.000 C 
BRANCH   7   8
ATOM      8  C   UNL     1      18.167  23.364   6.741  1.00  0.00    -0.000 C 
BRANCH   8   9
ATOM      9  C   UNL     1      17.060  24.311   7.232  1.00  0.00    -0.000 C 
BRANCH   9  10
ATOM     10  C   UNL     1      17.462  25.075   8.506  1.00  0.00    -0.000 C 
BRANCH  10  11
ATOM     11  C   UNL     1      18.903  25.604   8.443  1.00  0.00    -0.003 C 
ATOM     12  C   UNL     1      19.075  26.930   9.185  1.00  0.00     0.004 C 
ENDBRANCH  10  11
ENDBRANCH   9  10
ENDBRANCH   8   9
ENDBRANCH   7   8
ENDBRANCH   6   7
ENDBRANCH   5   6
ENDBRANCH   4   5
ENDBRANCH   3   4
ENDBRANCH   2   3
ENDBRANCH   1   2
BRANCH   1  13
ATOM     13  C   UNL     1      22.461  22.051   9.015  1.00  0.00     0.000 C 
BRANCH  13  14
ATOM     14  C   UNL     1      22.328  21.263   7.705  1.00  0.00     0.000 C 
BRANCH  14  15
ATOM     15  C   UNL     1      21.462  22.023   6.689  1.00  0.00     0.000 C 
BRANCH  15  16
ATOM     16  C   UNL     1      21.431  21.346   5.306  1.00  0.00     0.000 C 
BRANCH  16  17
ATOM     17  C   UNL     1      20.957  19.879   5.310  1.00  0.00     0.000 C 
BRANCH  17  18
ATOM     18  C   UNL     1      21.917  18.880   4.633  1.00  0.00     0.000 C 
BRANCH  18  19
ATOM     19  C   UNL     1      23.372  19.361   4.506  1.00  0.00     0.000 C 
BRANCH  19  20
ATOM     20  C   UNL     1      24.361  18.484   5.293  1.00  0.00     0.006 C 
BRANCH  20  21
ATOM     21  C   UNL     1      25.575  18.075   4.447  1.00  0.00     0.053 C 
BRANCH  21  22
ATOM     22  C   UNL     1      26.083  16.716   4.819  1.00  0.00     0.041 C 
ATOM     23  O   UNL     1      25.479  15.684   4.425  1.00  0.00    -0.550 OA
ATOM     24  O   UNL     1      27.208  16.591   5.624  1.00  0.00    -0.550 OA
ENDBRANCH  21  22
ENDBRANCH  20  21
ENDBRANCH  19  20
ENDBRANCH  18  19
ENDBRANCH  17  18
ENDBRANCH  16  17
ENDBRANCH  15  16
ENDBRANCH  14  15
ENDBRANCH  13  14
ENDBRANCH   1  13
TORSDOF 20
ENDMDL
MODEL 2
REMARK VINA RESULT:    -5.134      2.184      3.752
REMARK INTER + INTRA:         -14.156
REMARK INTER:                 -11.273
REMARK INTRA:                  -2.883
REMARK UNBOUND:                -3.019
REMARK SMILES CCCCCCCCCCCCCCCCCCCCCC(=O)[O-]
REMARK SMILES IDX 12 1 11 2 10 3 9 4 8 5 7 6 6 7 5 8 4 9 3 10 2 11 1 12 13 13
REMARK SMILES IDX 14 14 15 15 16 16 17 17 18 18 19 19 20 20 21 21 22 22 23 23
REMARK SMILES IDX 24 24
REMARK H PARENT
REMARK Flexibility Score: inf
ROOT
ATOM      1  C   UNL     1      20.280  23.100  10.619  1.00  0.00     0.000 C 
ENDROOT
BRANCH   1   2
ATOM      2  C   UNL     1      19.096  22.135  10.421  1.00  0.00     0.000 C 
BRANCH   2   3
ATOM      3  C   UNL     1      17.824  22.591  11.153  1.00  0.00     0.000 C 
BRANCH   3   4
ATOM      4  C   UNL     1      16.875  23.409  10.256  1.00  0.00    -0.000 C 
BRANCH   4   5
ATOM      5  C   UNL     1      17.327  24.851   9.960  1.00  0.00    -0.000 C 
BRANCH   5   6
ATOM      6  C   UNL     1      17.804  25.046   8.510  1.00  0.00    -0.000 C 
BRANCH   6   7
ATOM      7  C   UNL     1      16.975  24.227   7.507  1.00  0.00    -0.000 C 
BRANCH   7   8
ATOM      8  C   UNL     1      17.855  23.457   6.507  1.00  0.00    -0.000 C 
BRANCH   8   9
ATOM      9  C   UNL     1      17.428  21.988   6.358  1.00  0.00    -0.000 C 
BRANCH   9  10
ATOM     10  C   UNL     1      18.624  21.048   6.130  1.00  0.00    -0.000 C 
BRANCH  10  11
ATOM     11  C   UNL     1      18.832  20.711   4.645  1.00  0.00    -0.003 C 
ATOM     12  C   UNL     1      20.139  21.278   4.091  1.00  0.00     0.004 C 
ENDBRANCH  10  11
ENDBRANCH   9  10
ENDBRANCH   8   9
ENDBRANCH   7   8
ENDBRANCH   6   7
ENDBRANCH   5   6
ENDBRANCH   4   5
ENDBRANCH   3   4
ENDBRANCH   2   3
ENDBRANCH   1   2
BRANCH   1  13
ATOM     13  C   UNL     1      21.435  22.935   9.613  1.00  0.00     0.000 C 
BRANCH  13  14
ATOM     14  C   UNL     1      20.989  23.106   8.154  1.00  0.00     0.000 C 
BRANCH  14  15
ATOM     15  C   UNL     1      21.914  22.335   7.201  1.00  0.00     0.000 C 
BRANCH  15  16
ATOM     16  C   UNL     1      22.257  20.923   7.712  1.00  0.00     0.000 C 
BRANCH  16  17
ATOM     17  C   UNL     1      22.367  19.844   6.615  1.00  0.00     0.000 C 
BRANCH  17  18
ATOM     18  C   UNL     1      23.711  19.092   6.570  1.00  0.00     0.000 C 
BRANCH  18  19
ATOM     19  C   UNL     1      23.945  18.254   5.301  1.00  0.00     0.000 C 
BRANCH  19  20
ATOM     20  C   UNL     1      22.684  17.502   4.843  1.00  0.00     0.006 C 
BRANCH  20  21
ATOM     21  C   UNL     1      22.439  16.227   5.661  1.00  0.00     0.053 C 
BRANCH  21  22
ATOM     22  C   UNL     1      21.139  16.281   6.403  1.00  0.00     0.041 C 
ATOM     23  O   UNL     1      20.913  15.474   7.344  1.00  0.00    -0.550 OA
ATOM     24  O   UNL     1      20.166  17.202   6.037  1.00  0.00    -0.550 OA
ENDBRANCH  21  22
ENDBRANCH  20  21
ENDBRANCH  19  20
ENDBRANCH  18  19
ENDBRANCH  17  18
ENDBRANCH  16  17
ENDBRANCH  15  16
ENDBRANCH  14  15
ENDBRANCH  13  14
ENDBRANCH   1  13
TORSDOF 20
ENDMDL
MODEL 3
REMARK VINA RESULT:    -5.129      2.593      4.427
REMARK INTER + INTRA:         -14.145
REMARK INTER:                 -11.162
REMARK INTRA:                  -2.984
REMARK UNBOUND:                -3.019
REMARK SMILES CCCCCCCCCCCCCCCCCCCCCC(=O)[O-]
REMARK SMILES IDX 12 1 11 2 10 3 9 4 8 5 7 6 6 7 5 8 4 9 3 10 2 11 1 12 13 13
REMARK SMILES IDX 14 14 15 15 16 16 17 17 18 18 19 19 20 20 21 21 22 22 23 23
REMARK SMILES IDX 24 24
REMARK H PARENT
REMARK Flexibility Score: inf
ROOT
ATOM      1  C   UNL     1      20.993  22.368   6.833  1.00  0.00     0.000 C 
ENDROOT
BRANCH   1   2
ATOM      2  C   UNL     1      20.151  21.917   5.626  1.00  0.00     0.000 C 
BRANCH   2   3
ATOM      3  C   UNL     1      18.642  22.113   5.841  1.00  0.00     0.000 C 
BRANCH   3   4
ATOM      4  C   UNL     1      18.301  23.456   6.515  1.00  0.00    -0.000 C 
BRANCH   4   5
ATOM      5  C   UNL     1      16.991  23.476   7.323  1.00  0.00    -0.000 C 
BRANCH   5   6
ATOM      6  C   UNL     1      16.978  24.552   8.423  1.00  0.00    -0.000 C 
BRANCH   6   7
ATOM      7  C   UNL     1      18.296  25.342   8.482  1.00  0.00    -0.000 C 
BRANCH   7   8
ATOM      8  C   UNL     1      19.047  25.135   9.810  1.00  0.00    -0.000 C 
BRANCH   8   9
ATOM      9  C   UNL     1      20.278  24.228   9.653  1.00  0.00    -0.000 C 
BRANCH   9  10
ATOM     10  C   UNL     1      20.191  22.962  10.522  1.00  0.00    -0.000 C 
BRANCH  10  11
ATOM     11  C   UNL     1      19.173  21.945   9.980  1.00  0.00    -0.003 C 
ATOM     12  C   UNL     1      17.972  21.763  10.908  1.00  0.00     0.004 C 
ENDBRANCH  10  11
ENDBRANCH   9  10
ENDBRANCH   8   9
ENDBRANCH   7   8
ENDBRANCH   6   7
ENDBRANCH   5   6
ENDBRANCH   4   5
ENDBRANCH   3   4
ENDBRANCH   2   3
ENDBRANCH   1   2
BRANCH   1  13
ATOM     13  C   UNL     1      21.971  21.312   7.382  1.00  0.00     0.000 C 
BRANCH  13  14
ATOM     14  C   UNL     1      22.301  20.213   6.362  1.00  0.00     0.000 C 
BRANCH  14  15
ATOM     15  C   UNL     1      23.445  19.320   6.865  1.00  0.00     0.000 C 
BRANCH  15  16
ATOM     16  C   UNL     1      24.249  18.676   5.719  1.00  0.00     0.000 C 
BRANCH  16  17
ATOM     17  C   UNL     1      23.422  17.801   4.756  1.00  0.00     0.000 C 
BRANCH  17  18
ATOM     18  C   UNL     1      23.632  16.282   4.909  1.00  0.00     0.000 C 
BRANCH  18  19
ATOM     19  C   UNL     1      22.370  15.486   5.283  1.00  0.00     0.000 C 
BRANCH  19  20
ATOM     20  C   UNL     1      21.681  16.023   6.549  1.00  0.00     0.006 C 
BRANCH  20  21
ATOM     21  C   UNL     1      20.162  16.155   6.372  1.00  0.00     0.053 C 
BRANCH  21  22
ATOM     22  C   UNL     1      19.762  17.547   5.990  1.00  0.00     0.041 C 
ATOM     23  O   UNL     1      19.845  17.923   4.791  1.00  0.00    -0.550 OA
ATOM     24  O   UNL     1      19.325  18.437   6.963  1.00  0.00    -0.550 OA
ENDBRANCH  21  22
ENDBRANCH  20  21
ENDBRANCH  19  20
ENDBRANCH  18  19
ENDBRANCH  17  18
ENDBRANCH  16  17
ENDBRANCH  15  16
ENDBRANCH  14  15
ENDBRANCH  13  14
ENDBRANCH   1  13
TORSDOF 20
ENDMDL
MODEL 4
REMARK VINA RESULT:    -5.100      4.329      7.206
REMARK INTER + INTRA:         -14.081
REMARK INTER:                 -10.912
REMARK INTRA:                  -3.170
REMARK UNBOUND:                -3.019
REMARK SMILES CCCCCCCCCCCCCCCCCCCCCC(=O)[O-]
REMARK SMILES IDX 12 1 11 2 10 3 9 4 8 5 7 6 6 7 5 8 4 9 3 10 2 11 1 12 13 13
REMARK SMILES IDX 14 14 15 15 16 16 17 17 18 18 19 19 20 20 21 21 22 22 23 23
REMARK SMILES IDX 24 24
REMARK H PARENT
REMARK Flexibility Score: inf
ROOT
ATOM      1  C   UNL     1      20.524  22.927  10.275  1.00  0.00     0.000 C 
ENDROOT
BRANCH   1   2
ATOM      2  C   UNL     1      19.383  21.994   9.834  1.00  0.00     0.000 C 
BRANCH   2   3
ATOM      3  C   UNL     1      18.248  21.906  10.868  1.00  0.00     0.000 C 
BRANCH   3   4
ATOM      4  C   UNL     1      16.951  21.312  10.286  1.00  0.00    -0.000 C 
BRANCH   4   5
ATOM      5  C   UNL     1      17.067  19.875   9.745  1.00  0.00    -0.000 C 
BRANCH   5   6
ATOM      6  C   UNL     1      17.021  19.806   8.208  1.00  0.00    -0.000 C 
BRANCH   6   7
ATOM      7  C   UNL     1      18.249  19.094   7.618  1.00  0.00    -0.000 C 
BRANCH   7   8
ATOM      8  C   UNL     1      17.886  18.170   6.443  1.00  0.00    -0.000 C 
BRANCH   8   9
ATOM      9  C   UNL     1      19.074  17.926   5.498  1.00  0.00    -0.000 C 
BRANCH   9  10
ATOM     10  C   UNL     1      20.403  17.765   6.254  1.00  0.00    -0.000 C 
BRANCH  10  11
ATOM     11  C   UNL     1      20.747  16.294   6.533  1.00  0.00    -0.003 C 
ATOM     12  C   UNL     1      22.047  15.855   5.859  1.00  0.00     0.004 C 
ENDBRANCH  10  11
ENDBRANCH   9  10
ENDBRANCH   8   9
ENDBRANCH   7   8
ENDBRANCH   6   7
ENDBRANCH   5   6
ENDBRANCH   4   5
ENDBRANCH   3   4
ENDBRANCH   2   3
ENDBRANCH   1   2
BRANCH   1  13
ATOM     13  C   UNL     1      21.825  22.803   9.459  1.00  0.00     0.000 C 
BRANCH  13  14
ATOM     14  C   UNL     1      21.614  23.027   7.955  1.00  0.00     0.000 C 
BRANCH  14  15
ATOM     15  C   UNL     1      21.673  21.700   7.186  1.00  0.00     0.000 C 
BRANCH  15  16
ATOM     16  C   UNL     1      20.966  21.769   5.819  1.00  0.00     0.000 C 
BRANCH  16  17
ATOM     17  C   UNL     1      19.426  21.726   5.880  1.00  0.00     0.000 C 
BRANCH  17  18
ATOM     18  C   UNL     1      18.742  23.086   6.122  1.00  0.00     0.000 C 
BRANCH  18  19
ATOM     19  C   UNL     1      17.252  23.007   6.494  1.00  0.00     0.000 C 
BRANCH  19  20
ATOM     20  C   UNL     1      16.875  23.952   7.648  1.00  0.00     0.006 C 
BRANCH  20  21
ATOM     21  C   UNL     1      17.983  24.970   7.950  1.00  0.00     0.053 C 
BRANCH  21  22
ATOM     22  C   UNL     1      17.965  25.407   9.382  1.00  0.00     0.041 C 
ATOM     23  O   UNL     1      16.980  25.132  10.117  1.00  0.00    -0.550 OA
ATOM     24  O   UNL     1      19.024  26.144   9.898  1.00  0.00    -0.550 OA
ENDBRANCH  21  22
ENDBRANCH  20  21
ENDBRANCH  19  20
ENDBRANCH  18  19
ENDBRANCH  17  18
ENDBRANCH  16  17
ENDBRANCH  15  16
ENDBRANCH  14  15
ENDBRANCH  13  14
ENDBRANCH   1  13
TORSDOF 20
ENDMDL
MODEL 5
REMARK VINA RESULT:    -5.092      2.319      3.795
REMARK INTER + INTRA:         -14.063
REMARK INTER:                 -10.233
REMARK INTRA:                  -3.830
REMARK UNBOUND:                -3.019
REMARK SMILES CCCCCCCCCCCCCCCCCCCCCC(=O)[O-]
REMARK SMILES IDX 12 1 11 2 10 3 9 4 8 5 7 6 6 7 5 8 4 9 3 10 2 11 1 12 13 13
REMARK SMILES IDX 14 14 15 15 16 16 17 17 18 18 19 19 20 20 21 21 22 22 23 23
REMARK SMILES IDX 24 24
REMARK H PARENT
REMARK Flexibility Score: inf
ROOT
ATOM      1  C   UNL     1      20.996  22.365   6.952  1.00  0.00     0.000 C 
ENDROOT
BRANCH   1   2
ATOM      2  C   UNL     1      19.868  22.336   5.905  1.00  0.00     0.000 C 
BRANCH   2   3
ATOM      3  C   UNL     1      18.622  23.122   6.345  1.00  0.00     0.000 C 
BRANCH   3   4
ATOM      4  C   UNL     1      17.365  22.239   6.461  1.00  0.00    -0.000 C 
BRANCH   4   5
ATOM      5  C   UNL     1      17.433  21.131   7.527  1.00  0.00    -0.000 C 
BRANCH   5   6
ATOM      6  C   UNL     1      17.329  21.671   8.964  1.00  0.00    -0.000 C 
BRANCH   6   7
ATOM      7  C   UNL     1      18.477  21.175   9.859  1.00  0.00    -0.000 C 
BRANCH   7   8
ATOM      8  C   UNL     1      19.160  22.319  10.629  1.00  0.00    -0.000 C 
BRANCH   8   9
ATOM      9  C   UNL     1      18.632  23.703  10.215  1.00  0.00    -0.000 C 
BRANCH   9  10
ATOM     10  C   UNL     1      19.715  24.570   9.551  1.00  0.00    -0.000 C 
BRANCH  10  11
ATOM     11  C   UNL     1      19.169  25.920   9.062  1.00  0.00    -0.003 C 
ATOM     12  C   UNL     1      17.679  25.866   8.725  1.00  0.00     0.004 C 
ENDBRANCH  10  11
ENDBRANCH   9  10
ENDBRANCH   8   9
ENDBRANCH   7   8
ENDBRANCH   6   7
ENDBRANCH   5   6
ENDBRANCH   4   5
ENDBRANCH   3   4
ENDBRANCH   2   3
ENDBRANCH   1   2
BRANCH   1  13
ATOM     13  C   UNL     1      21.322  21.007   7.601  1.00  0.00     0.000 C 
BRANCH  13  14
ATOM     14  C   UNL     1      22.826  20.695   7.615  1.00  0.00     0.000 C 
BRANCH  14  15
ATOM     15  C   UNL     1      23.127  19.402   6.843  1.00  0.00     0.000 C 
BRANCH  15  16
ATOM     16  C   UNL     1      22.976  19.567   5.319  1.00  0.00     0.000 C 
BRANCH  16  17
ATOM     17  C   UNL     1      22.009  18.569   4.650  1.00  0.00     0.000 C 
BRANCH  17  18
ATOM     18  C   UNL     1      20.613  19.131   4.318  1.00  0.00     0.000 C 
BRANCH  18  19
ATOM     19  C   UNL     1      19.440  18.400   4.994  1.00  0.00     0.000 C 
BRANCH  19  20
ATOM     20  C   UNL     1      19.770  17.939   6.424  1.00  0.00     0.006 C 
BRANCH  20  21
ATOM     21  C   UNL     1      19.273  16.515   6.704  1.00  0.00     0.053 C 
BRANCH  21  22
ATOM     22  C   UNL     1      20.380  15.616   7.162  1.00  0.00     0.041 C 
ATOM     23  O   UNL     1      20.130  14.630   7.905  1.00  0.00    -0.550 OA
ATOM     24  O   UNL     1      21.692  15.883   6.792  1.00  0.00    -0.550 OA
ENDBRANCH  21  22
ENDBRANCH  20  21
ENDBRANCH  19  20
ENDBRANCH  18  19
ENDBRANCH  17  18
ENDBRANCH  16  17
ENDBRANCH  15  16
ENDBRANCH  14  15
ENDBRANCH  13  14
ENDBRANCH   1  13
TORSDOF 20
ENDMDL
MODEL 6
REMARK VINA RESULT:    -5.072      2.303      4.870
REMARK INTER + INTRA:         -14.022
REMARK INTER:                 -10.191
REMARK INTRA:                  -3.831
REMARK UNBOUND:                -3.019
REMARK SMILES CCCCCCCCCCCCCCCCCCCCCC(=O)[O-]
REMARK SMILES IDX 12 1 11 2 10 3 9 4 8 5 7 6 6 7 5 8 4 9 3 10 2 11 1 12 13 13
REMARK SMILES IDX 14 14 15 15 16 16 17 17 18 18 19 19 20 20 21 21 22 22 23 23
REMARK SMILES IDX 24 24
REMARK H PARENT
REMARK Flexibility Score: inf
ROOT
ATOM      1  C   UNL     1      19.948  24.403   9.086  1.00  0.00     0.000 C 
ENDROOT
BRANCH   1   2
ATOM      2  C   UNL     1      20.027  22.953   9.596  1.00  0.00     0.000 C 
BRANCH   2   3
ATOM      3  C   UNL     1      19.907  22.849  11.125  1.00  0.00     0.000 C 
BRANCH   3   4
ATOM      4  C   UNL     1      18.787  21.891  11.576  1.00  0.00    -0.000 C 
BRANCH   4   5
ATOM      5  C   UNL     1      17.584  21.787  10.622  1.00  0.00    -0.000 C 
BRANCH   5   6
ATOM      6  C   UNL     1      17.306  20.347  10.157  1.00  0.00    -0.000 C 
BRANCH   6   7
ATOM      7  C   UNL     1      17.213  20.234   8.627  1.00  0.00    -0.000 C 
BRANCH   7   8
ATOM      8  C   UNL     1      18.556  19.848   7.982  1.00  0.00    -0.000 C 
BRANCH   8   9
ATOM      9  C   UNL     1      18.418  18.682   6.990  1.00  0.00    -0.000 C 
BRANCH   9  10
ATOM     10  C   UNL     1      17.127  18.767   6.158  1.00  0.00    -0.000 C 
BRANCH  10  11
ATOM     11  C   UNL     1      17.350  19.433   4.791  1.00  0.00    -0.003 C 
ATOM     12  C   UNL     1      18.540  18.841   4.036  1.00  0.00     0.004 C 
ENDBRANCH  10  11
ENDBRANCH   9  10
ENDBRANCH   8   9
ENDBRANCH   7   8
ENDBRANCH   6   7
ENDBRANCH   5   6
ENDBRANCH   4   5
ENDBRANCH   3   4
ENDBRANCH   2   3
ENDBRANCH   1   2
BRANCH   1  13
ATOM     13  C   UNL     1      18.943  25.305   9.827  1.00  0.00     0.000 C 
BRANCH  13  14
ATOM     14  C   UNL     1      17.501  25.134   9.328  1.00  0.00     0.000 C 
BRANCH  14  15
ATOM     15  C   UNL     1      17.464  24.933   7.807  1.00  0.00     0.000 C 
BRANCH  15  16
ATOM     16  C   UNL     1      16.875  23.570   7.397  1.00  0.00     0.000 C 
BRANCH  16  17
ATOM     17  C   UNL     1      17.553  22.907   6.181  1.00  0.00     0.000 C 
BRANCH  17  18
ATOM     18  C   UNL     1      19.081  23.098   6.099  1.00  0.00     0.000 C 
BRANCH  18  19
ATOM     19  C   UNL     1      19.843  21.952   5.411  1.00  0.00     0.000 C 
BRANCH  19  20
ATOM     20  C   UNL     1      21.210  21.672   6.059  1.00  0.00     0.006 C 
BRANCH  20  21
ATOM     21  C   UNL     1      22.058  20.701   5.228  1.00  0.00     0.053 C 
BRANCH  21  22
ATOM     22  C   UNL     1      22.378  19.449   5.986  1.00  0.00     0.041 C 
ATOM     23  O   UNL     1      21.623  18.445   5.900  1.00  0.00    -0.550 OA
ATOM     24  O   UNL     1      23.497  19.401   6.809  1.00  0.00    -0.550 OA
ENDBRANCH  21  22
ENDBRANCH  20  21
ENDBRANCH  19  20
ENDBRANCH  18  19
ENDBRANCH  17  18
ENDBRANCH  16  17
ENDBRANCH  15  16
ENDBRANCH  14  15
ENDBRANCH  13  14
ENDBRANCH   1  13
TORSDOF 20
ENDMDL
MODEL 7
REMARK VINA RESULT:    -5.050      3.164      3.693
REMARK INTER + INTRA:         -13.973
REMARK INTER:                 -10.332
REMARK INTRA:                  -3.641
REMARK UNBOUND:                -3.019
REMARK SMILES CCCCCCCCCCCCCCCCCCCCCC(=O)[O-]
REMARK SMILES IDX 12 1 11 2 10 3 9 4 8 5 7 6 6 7 5 8 4 9 3 10 2 11 1 12 13 13
REMARK SMILES IDX 14 14 15 15 16 16 17 17 18 18 19 19 20 20 21 21 22 22 23 23
REMARK SMILES IDX 24 24
REMARK H PARENT
REMARK Flexibility Score: inf
ROOT
ATOM      1  C   UNL     1      21.458  23.007   8.792  1.00  0.00     0.000 C 
ENDROOT
BRANCH   1   2
ATOM      2  C   UNL     1      21.066  23.471  10.207  1.00  0.00     0.000 C 
BRANCH   2   3
ATOM      3  C   UNL     1      19.546  23.461  10.440  1.00  0.00     0.000 C 
BRANCH   3   4
ATOM      4  C   UNL     1      19.042  22.139  11.053  1.00  0.00    -0.000 C 
BRANCH   4   5
ATOM      5  C   UNL     1      17.640  21.694  10.599  1.00  0.00    -0.000 C 
BRANCH   5   6
ATOM      6  C   UNL     1      17.622  20.273  10.010  1.00  0.00    -0.000 C 
BRANCH   6   7
ATOM      7  C   UNL     1      17.361  20.272   8.494  1.00  0.00    -0.000 C 
BRANCH   7   8
ATOM      8  C   UNL     1      18.236  21.294   7.746  1.00  0.00    -0.000 C 
BRANCH   8   9
ATOM      9  C   UNL     1      17.408  22.236   6.857  1.00  0.00    -0.000 C 
BRANCH   9  10
ATOM     10  C   UNL     1      17.966  23.670   6.839  1.00  0.00    -0.000 C 
BRANCH  10  11
ATOM     11  C   UNL     1      17.206  24.608   7.789  1.00  0.00    -0.003 C 
ATOM     12  C   UNL     1      18.074  25.758   8.299  1.00  0.00     0.004 C 
ENDBRANCH  10  11
ENDBRANCH   9  10
ENDBRANCH   8   9
ENDBRANCH   7   8
ENDBRANCH   6   7
ENDBRANCH   5   6
ENDBRANCH   4   5
ENDBRANCH   3   4
ENDBRANCH   2   3
ENDBRANCH   1   2
BRANCH   1  13
ATOM     13  C   UNL     1      22.149  21.632   8.722  1.00  0.00     0.000 C 
BRANCH  13  14
ATOM     14  C   UNL     1      22.012  20.961   7.348  1.00  0.00     0.000 C 
BRANCH  14  15
ATOM     15  C   UNL     1      21.406  21.926   6.320  1.00  0.00     0.000 C 
BRANCH  15  16
ATOM     16  C   UNL     1      21.293  21.309   4.913  1.00  0.00     0.000 C 
BRANCH  16  17
ATOM     17  C   UNL     1      19.875  21.321   4.309  1.00  0.00     0.000 C 
BRANCH  17  18
ATOM     18  C   UNL     1      19.114  19.983   4.400  1.00  0.00     0.000 C 
BRANCH  18  19
ATOM     19  C   UNL     1      19.969  18.777   4.824  1.00  0.00     0.000 C 
BRANCH  19  20
ATOM     20  C   UNL     1      19.664  18.305   6.256  1.00  0.00     0.006 C 
BRANCH  20  21
ATOM     21  C   UNL     1      20.072  16.844   6.485  1.00  0.00     0.053 C 
BRANCH  21  22
ATOM     22  C   UNL     1      18.881  15.948   6.633  1.00  0.00     0.041 C 
ATOM     23  O   UNL     1      18.837  15.100   7.564  1.00  0.00    -0.550 OA
ATOM     24  O   UNL     1      17.831  16.030   5.727  1.00  0.00    -0.550 OA
ENDBRANCH  21  22
ENDBRANCH  20  21
ENDBRANCH  19  20
ENDBRANCH  18  19
ENDBRANCH  17  18
ENDBRANCH  16  17
ENDBRANCH  15  16
ENDBRANCH  14  15
ENDBRANCH  13  14
ENDBRANCH   1  13
TORSDOF 20
ENDMDL
MODEL 8
REMARK VINA RESULT:    -5.000      4.268      7.788
REMARK INTER + INTRA:         -13.864
REMARK INTER:                  -9.970
REMARK INTRA:                  -3.894
REMARK UNBOUND:                -3.019
REMARK SMILES CCCCCCCCCCCCCCCCCCCCCC(=O)[O-]
REMARK SMILES IDX 12 1 11 2 10 3 9 4 8 5 7 6 6 7 5 8 4 9 3 10 2 11 1 12 13 13
REMARK SMILES IDX 14 14 15 15 16 16 17 17 18 18 19 19 20 20 21 21 22 22 23 23
REMARK SMILES IDX 24 24
REMARK H PARENT
REMARK Flexibility Score: inf
ROOT
ATOM      1  C   UNL     1      22.335  20.061   6.085  1.00  0.00     0.000 C 
ENDROOT
BRANCH   1   2
ATOM      2  C   UNL     1      22.110  21.209   5.085  1.00  0.00     0.000 C 
BRANCH   2   3
ATOM      3  C   UNL     1      21.171  20.823   3.930  1.00  0.00     0.000 C 
BRANCH   3   4
ATOM      4  C   UNL     1      19.707  21.233   4.184  1.00  0.00    -0.000 C 
BRANCH   4   5
ATOM      5  C   UNL     1      19.499  22.287   5.286  1.00  0.00    -0.000 C 
BRANCH   5   6
ATOM      6  C   UNL     1      18.259  22.012   6.155  1.00  0.00    -0.000 C 
BRANCH   6   7
ATOM      7  C   UNL     1      17.734  20.577   5.986  1.00  0.00    -0.000 C 
BRANCH   7   8
ATOM      8  C   UNL     1      18.047  19.689   7.204  1.00  0.00    -0.000 C 
BRANCH   8   9
ATOM      9  C   UNL     1      19.160  18.668   6.916  1.00  0.00    -0.000 C 
BRANCH   9  10
ATOM     10  C   UNL     1      18.956  17.937   5.578  1.00  0.00    -0.000 C 
BRANCH  10  11
ATOM     11  C   UNL     1      20.122  16.996   5.238  1.00  0.00    -0.003 C 
ATOM     12  C   UNL     1      20.536  16.121   6.420  1.00  0.00     0.004 C 
ENDBRANCH  10  11
ENDBRANCH   9  10
ENDBRANCH   8   9
ENDBRANCH   7   8
ENDBRANCH   6   7
ENDBRANCH   5   6
ENDBRANCH   4   5
ENDBRANCH   3   4
ENDBRANCH   2   3
ENDBRANCH   1   2
BRANCH   1  13
ATOM     13  C   UNL     1      22.599  20.500   7.538  1.00  0.00     0.000 C 
BRANCH  13  14
ATOM     14  C   UNL     1      21.414  21.252   8.162  1.00  0.00     0.000 C 
BRANCH  14  15
ATOM     15  C   UNL     1      21.699  22.759   8.244  1.00  0.00     0.000 C 
BRANCH  15  16
ATOM     16  C   UNL     1      20.634  23.526   9.051  1.00  0.00     0.000 C 
BRANCH  16  17
ATOM     17  C   UNL     1      20.493  23.087  10.522  1.00  0.00     0.000 C 
BRANCH  17  18
ATOM     18  C   UNL     1      19.055  22.760  10.972  1.00  0.00     0.000 C 
BRANCH  18  19
ATOM     19  C   UNL     1      18.176  22.088   9.903  1.00  0.00     0.000 C 
BRANCH  19  20
ATOM     20  C   UNL     1      16.967  22.948   9.499  1.00  0.00     0.006 C 
BRANCH  20  21
ATOM     21  C   UNL     1      17.088  24.392  10.004  1.00  0.00     0.053 C 
BRANCH  21  22
ATOM     22  C   UNL     1      17.264  25.365   8.878  1.00  0.00     0.041 C 
ATOM     23  O   UNL     1      17.365  24.951   7.693  1.00  0.00    -0.550 OA
ATOM     24  O   UNL     1      17.346  26.727   9.142  1.00  0.00    -0.550 OA
ENDBRANCH  21  22
ENDBRANCH  20  21
ENDBRANCH  19  20
ENDBRANCH  18  19
ENDBRANCH  17  18
ENDBRANCH  16  17
ENDBRANCH  15  16
ENDBRANCH  14  15
ENDBRANCH  13  14
ENDBRANCH   1  13
TORSDOF 20
ENDMDL
MODEL 9
REMARK VINA RESULT:    -4.974      2.644      3.845
REMARK INTER + INTRA:         -13.809
REMARK INTER:                 -11.097
REMARK INTRA:                  -2.711
REMARK UNBOUND:                -3.019
REMARK SMILES CCCCCCCCCCCCCCCCCCCCCC(=O)[O-]
REMARK SMILES IDX 12 1 11 2 10 3 9 4 8 5 7 6 6 7 5 8 4 9 3 10 2 11 1 12 13 13
REMARK SMILES IDX 14 14 15 15 16 16 17 17 18 18 19 19 20 20 21 21 22 22 23 23
REMARK SMILES IDX 24 24
REMARK H PARENT
REMARK Flexibility Score: inf
ROOT
ATOM      1  C   UNL     1      19.361  22.737   6.255  1.00  0.00     0.000 C 
ENDROOT
BRANCH   1   2
ATOM      2  C   UNL     1      18.003  23.460   6.198  1.00  0.00     0.000 C 
BRANCH   2   3
ATOM      3  C   UNL     1      16.879  22.679   6.899  1.00  0.00     0.000 C 
BRANCH   3   4
ATOM      4  C   UNL     1      17.261  21.217   7.198  1.00  0.00    -0.000 C 
BRANCH   4   5
ATOM      5  C   UNL     1      17.087  20.775   8.662  1.00  0.00    -0.000 C 
BRANCH   5   6
ATOM      6  C   UNL     1      18.353  20.988   9.510  1.00  0.00    -0.000 C 
BRANCH   6   7
ATOM      7  C   UNL     1      18.056  21.715  10.831  1.00  0.00    -0.000 C 
BRANCH   7   8
ATOM      8  C   UNL     1      18.282  23.234  10.731  1.00  0.00    -0.000 C 
BRANCH   8   9
ATOM      9  C   UNL     1      16.982  24.005  10.451  1.00  0.00    -0.000 C 
BRANCH   9  10
ATOM     10  C   UNL     1      17.201  25.209   9.520  1.00  0.00    -0.000 C 
BRANCH  10  11
ATOM     11  C   UNL     1      18.684  25.432   9.185  1.00  0.00    -0.003 C 
ATOM     12  C   UNL     1      19.052  26.913   9.100  1.00  0.00     0.004 C 
ENDBRANCH  10  11
ENDBRANCH   9  10
ENDBRANCH   8   9
ENDBRANCH   7   8
ENDBRANCH   6   7
ENDBRANCH   5   6
ENDBRANCH   4   5
ENDBRANCH   3   4
ENDBRANCH   2   3
ENDBRANCH   1   2
BRANCH   1  13
ATOM     13  C   UNL     1      20.260  23.123   7.445  1.00  0.00     0.000 C 
BRANCH  13  14
ATOM     14  C   UNL     1      21.604  22.380   7.447  1.00  0.00     0.000 C 
BRANCH  14  15
ATOM     15  C   UNL     1      21.394  20.860   7.460  1.00  0.00     0.000 C 
BRANCH  15  16
ATOM     16  C   UNL     1      22.125  20.145   6.308  1.00  0.00     0.000 C 
BRANCH  16  17
ATOM     17  C   UNL     1      23.388  19.363   6.725  1.00  0.00     0.000 C 
BRANCH  17  18
ATOM     18  C   UNL     1      23.777  18.202   5.788  1.00  0.00     0.000 C 
BRANCH  18  19
ATOM     19  C   UNL     1      22.592  17.426   5.188  1.00  0.00     0.000 C 
BRANCH  19  20
ATOM     20  C   UNL     1      22.003  16.391   6.162  1.00  0.00     0.006 C 
BRANCH  20  21
ATOM     21  C   UNL     1      20.540  16.056   5.839  1.00  0.00     0.053 C 
BRANCH  21  22
ATOM     22  C   UNL     1      19.777  15.647   7.061  1.00  0.00     0.041 C 
ATOM     23  O   UNL     1      18.581  16.011   7.212  1.00  0.00    -0.550 OA
ATOM     24  O   UNL     1      20.396  14.889   8.046  1.00  0.00    -0.550 OA
ENDBRANCH  21  22
ENDBRANCH  20  21
ENDBRANCH  19  20
ENDBRANCH  18  19
ENDBRANCH  17  18
ENDBRANCH  16  17
ENDBRANCH  15  16
ENDBRANCH  14  15
ENDBRANCH  13  14
ENDBRANCH   1  13
TORSDOF 20
ENDMDL
