MODEL 1
REMARK VINA RESULT:    -7.324      0.000      0.000
REMARK INTER + INTRA:          -9.202
REMARK INTER:                  -8.823
REMARK INTRA:                  -0.380
REMARK UNBOUND:                -0.380
REMARK SMILES O=c1c(O)c(-c2ccc(O)cc2O)oc2cc(O)cc(O)c12
REMARK SMILES IDX 5 1 3 2 2 3 1 4 22 5 20 6 19 7 17 8 16 9 15 10 14 11 6 12
REMARK SMILES IDX 8 13 7 14 9 15 11 16 12 17 10 18 13 20 4 22 21 24 18 26
REMARK H PARENT 10 19 13 21 4 23 21 25 18 27
REMARK Flexibility Score: inf
ROOT
ATOM      1  C   UNL     1       4.224  70.893   5.708  1.00  0.00     0.184 A 
ATOM      2  C   UNL     1       4.238  71.331   4.374  1.00  0.00     0.208 A 
ATOM      3  C   UNL     1       3.146  72.070   3.890  1.00  0.00     0.238 A 
ATOM      4  O   UNL     1       3.188  72.507   2.711  1.00  0.00    -0.285 OA
ATOM      5  C   UNL     1       2.048  72.344   4.742  1.00  0.00     0.111 A 
ATOM      6  C   UNL     1       0.872  73.048   4.346  1.00  0.00     0.134 A 
ATOM      7  C   UNL     1      -0.093  73.375   5.307  1.00  0.00     0.093 A 
ATOM      8  C   UNL     1       0.045  72.966   6.636  1.00  0.00     0.123 A 
ATOM      9  C   UNL     1       1.162  72.228   7.019  1.00  0.00     0.094 A 
ATOM     10  C   UNL     1       2.159  71.917   6.091  1.00  0.00     0.146 A 
ATOM     11  O   UNL     1       3.212  71.221   6.502  1.00  0.00    -0.451 OA
ENDROOT
BRANCH   1  12
ATOM     12  C   UNL     1       5.333  70.098   6.274  1.00  0.00     0.063 A 
ATOM     13  C   UNL     1       7.339  70.014   7.646  1.00  0.00     0.047 A 
ATOM     14  C   UNL     1       6.281  70.738   7.089  1.00  0.00     0.020 A 
ATOM     15  C   UNL     1       7.456  68.643   7.408  1.00  0.00     0.119 A 
ATOM     16  C   UNL     1       6.502  67.991   6.616  1.00  0.00     0.093 A 
ATOM     17  C   UNL     1       5.433  68.708   6.058  1.00  0.00     0.130 A 
BRANCH  15  18
ATOM     18  O   UNL     1       8.518  67.935   7.967  1.00  0.00    -0.508 OA
ATOM     19  H   UNL     1       9.471  68.069   7.648  1.00  0.00     0.293 HD
ENDBRANCH  15  18
BRANCH  17  20
ATOM     20  O   UNL     1       4.463  68.039   5.312  1.00  0.00    -0.507 OA
ATOM     21  H   UNL     1       4.091  67.142   5.606  1.00  0.00     0.293 HD
ENDBRANCH  17  20
ENDBRANCH   1  12
BRANCH   2  22
ATOM     22  O   UNL     1       5.342  71.063   3.561  1.00  0.00    -0.502 OA
ATOM     23  H   UNL     1       6.294  71.210   3.874  1.00  0.00     0.293 HD
ENDBRANCH   2  22
BRANCH   6  24
ATOM     24  O   UNL     1       0.592  73.422   3.028  1.00  0.00    -0.507 OA
ATOM     25  H   UNL     1       1.061  74.161   2.529  1.00  0.00     0.293 HD
ENDBRANCH   6  24
BRANCH   8  26
ATOM     26  O   UNL     1      -0.928  73.283   7.581  1.00  0.00    -0.508 OA
ATOM     27  H   UNL     1      -1.556  72.579   7.951  1.00  0.00     0.293 HD
ENDBRANCH   8  26
TORSDOF 6
ENDMDL
MODEL 2
REMARK VINA RESULT:    -7.288      1.191      2.819
REMARK INTER + INTRA:          -9.159
REMARK INTER:                  -8.748
REMARK INTRA:                  -0.410
REMARK UNBOUND:                -0.380
REMARK SMILES O=c1c(O)c(-c2ccc(O)cc2O)oc2cc(O)cc(O)c12
REMARK SMILES IDX 5 1 3 2 2 3 1 4 22 5 20 6 19 7 17 8 16 9 15 10 14 11 6 12
REMARK SMILES IDX 8 13 7 14 9 15 11 16 12 17 10 18 13 20 4 22 21 24 18 26
REMARK H PARENT 10 19 13 21 4 23 21 25 18 27
REMARK Flexibility Score: inf
ROOT
ATOM      1  C   UNL     1       3.949  70.778   6.534  1.00  0.00     0.184 A 
ATOM      2  C   UNL     1       2.810  70.670   7.347  1.00  0.00     0.208 A 
ATOM      3  C   UNL     1       1.661  71.402   7.006  1.00  0.00     0.238 A 
ATOM      4  O   UNL     1       0.625  71.260   7.706  1.00  0.00    -0.285 OA
ATOM      5  C   UNL     1       1.674  72.245   5.868  1.00  0.00     0.111 A 
ATOM      6  C   UNL     1       0.581  73.063   5.453  1.00  0.00     0.134 A 
ATOM      7  C   UNL     1       0.661  73.757   4.238  1.00  0.00     0.093 A 
ATOM      8  C   UNL     1       1.819  73.714   3.458  1.00  0.00     0.123 A 
ATOM      9  C   UNL     1       2.913  72.965   3.885  1.00  0.00     0.094 A 
ATOM     10  C   UNL     1       2.851  72.233   5.073  1.00  0.00     0.146 A 
ATOM     11  O   UNL     1       3.913  71.524   5.437  1.00  0.00    -0.451 OA
ENDROOT
BRANCH   1  12
ATOM     12  C   UNL     1       5.196  70.047   6.846  1.00  0.00     0.063 A 
ATOM     13  C   UNL     1       7.331  69.984   8.007  1.00  0.00     0.047 A 
ATOM     14  C   UNL     1       6.144  70.650   7.688  1.00  0.00     0.020 A 
ATOM     15  C   UNL     1       7.579  68.705   7.503  1.00  0.00     0.119 A 
ATOM     16  C   UNL     1       6.627  68.087   6.680  1.00  0.00     0.093 A 
ATOM     17  C   UNL     1       5.431  68.745   6.359  1.00  0.00     0.130 A 
BRANCH  15  18
ATOM     18  O   UNL     1       8.767  68.055   7.826  1.00  0.00    -0.508 OA
ATOM     19  H   UNL     1       8.773  67.194   8.359  1.00  0.00     0.293 HD
ENDBRANCH  15  18
BRANCH  17  20
ATOM     20  O   UNL     1       4.471  68.099   5.580  1.00  0.00    -0.507 OA
ATOM     21  H   UNL     1       3.548  68.494   5.438  1.00  0.00     0.293 HD
ENDBRANCH  17  20
ENDBRANCH   1  12
BRANCH   2  22
ATOM     22  O   UNL     1       2.818  69.817   8.453  1.00  0.00    -0.502 OA
ATOM     23  H   UNL     1       2.724  68.812   8.363  1.00  0.00     0.293 HD
ENDBRANCH   2  22
BRANCH   6  24
ATOM     24  O   UNL     1      -0.584  73.248   6.203  1.00  0.00    -0.507 OA
ATOM     25  H   UNL     1      -0.939  74.143   6.501  1.00  0.00     0.293 HD
ENDBRANCH   6  24
BRANCH   8  26
ATOM     26  O   UNL     1       1.894  74.420   2.260  1.00  0.00    -0.508 OA
ATOM     27  H   UNL     1       2.777  74.767   1.904  1.00  0.00     0.293 HD
ENDBRANCH   8  26
TORSDOF 6
ENDMDL
MODEL 3
REMARK VINA RESULT:    -7.113      1.435      2.073
REMARK INTER + INTRA:          -8.949
REMARK INTER:                  -9.280
REMARK INTRA:                   0.331
REMARK UNBOUND:                -0.380
REMARK SMILES O=c1c(O)c(-c2ccc(O)cc2O)oc2cc(O)cc(O)c12
REMARK SMILES IDX 5 1 3 2 2 3 1 4 22 5 20 6 19 7 17 8 16 9 15 10 14 11 6 12
REMARK SMILES IDX 8 13 7 14 9 15 11 16 12 17 10 18 13 20 4 22 21 24 18 26
REMARK H PARENT 10 19 13 21 4 23 21 25 18 27
REMARK Flexibility Score: inf
ROOT
ATOM      1  C   UNL     1       4.250  71.575   6.857  1.00  0.00     0.184 A 
ATOM      2  C   UNL     1       4.448  71.839   5.493  1.00  0.00     0.208 A 
ATOM      3  C   UNL     1       3.376  72.338   4.735  1.00  0.00     0.238 A 
ATOM      4  O   UNL     1       3.574  72.625   3.525  1.00  0.00    -0.285 OA
ATOM      5  C   UNL     1       2.117  72.548   5.348  1.00  0.00     0.111 A 
ATOM      6  C   UNL     1       0.951  73.011   4.668  1.00  0.00     0.134 A 
ATOM      7  C   UNL     1      -0.205  73.306   5.402  1.00  0.00     0.093 A 
ATOM      8  C   UNL     1      -0.257  73.093   6.781  1.00  0.00     0.123 A 
ATOM      9  C   UNL     1       0.857  72.586   7.446  1.00  0.00     0.094 A 
ATOM     10  C   UNL     1       2.036  72.316   6.747  1.00  0.00     0.146 A 
ATOM     11  O   UNL     1       3.078  71.843   7.421  1.00  0.00    -0.451 OA
ENDROOT
BRANCH   1  12
ATOM     12  C   UNL     1       5.331  71.034   7.708  1.00  0.00     0.063 A 
ATOM     13  C   UNL     1       7.430  69.819   7.875  1.00  0.00     0.047 A 
ATOM     14  C   UNL     1       6.389  70.338   7.101  1.00  0.00     0.020 A 
ATOM     15  C   UNL     1       7.436  70.000   9.260  1.00  0.00     0.119 A 
ATOM     16  C   UNL     1       6.397  70.714   9.871  1.00  0.00     0.093 A 
ATOM     17  C   UNL     1       5.351  71.243   9.102  1.00  0.00     0.130 A 
BRANCH  15  18
ATOM     18  O   UNL     1       8.479  69.474  10.019  1.00  0.00    -0.508 OA
ATOM     19  H   UNL     1       9.343  69.163   9.590  1.00  0.00     0.293 HD
ENDBRANCH  15  18
BRANCH  17  20
ATOM     20  O   UNL     1       4.348  71.994   9.717  1.00  0.00    -0.507 OA
ATOM     21  H   UNL     1       4.503  72.953  10.006  1.00  0.00     0.293 HD
ENDBRANCH  17  20
ENDBRANCH   1  12
BRANCH   2  22
ATOM     22  O   UNL     1       5.706  71.641   4.917  1.00  0.00    -0.502 OA
ATOM     23  H   UNL     1       6.483  71.250   5.436  1.00  0.00     0.293 HD
ENDBRANCH   2  22
BRANCH   6  24
ATOM     24  O   UNL     1       0.868  73.170   3.281  1.00  0.00    -0.507 OA
ATOM     25  H   UNL     1       0.024  73.070   2.741  1.00  0.00     0.293 HD
ENDBRANCH   6  24
BRANCH   8  26
ATOM     26  O   UNL     1      -1.416  73.375   7.500  1.00  0.00    -0.508 OA
ATOM     27  H   UNL     1      -2.334  73.304   7.075  1.00  0.00     0.293 HD
ENDBRANCH   8  26
TORSDOF 6
ENDMDL
MODEL 4
REMARK VINA RESULT:    -7.105      2.099      4.141
REMARK INTER + INTRA:          -8.938
REMARK INTER:                  -8.995
REMARK INTRA:                   0.057
REMARK UNBOUND:                -0.380
REMARK SMILES O=c1c(O)c(-c2ccc(O)cc2O)oc2cc(O)cc(O)c12
REMARK SMILES IDX 5 1 3 2 2 3 1 4 22 5 20 6 19 7 17 8 16 9 15 10 14 11 6 12
REMARK SMILES IDX 8 13 7 14 9 15 11 16 12 17 10 18 13 20 4 22 21 24 18 26
REMARK H PARENT 10 19 13 21 4 23 21 25 18 27
REMARK Flexibility Score: inf
ROOT
ATOM      1  C   UNL     1       6.111  70.371   7.893  1.00  0.00     0.184 A 
ATOM      2  C   UNL     1       5.024  70.923   8.589  1.00  0.00     0.208 A 
ATOM      3  C   UNL     1       3.965  71.485   7.859  1.00  0.00     0.238 A 
ATOM      4  O   UNL     1       2.968  71.930   8.485  1.00  0.00    -0.285 OA
ATOM      5  C   UNL     1       4.017  71.504   6.443  1.00  0.00     0.111 A 
ATOM      6  C   UNL     1       3.020  72.084   5.603  1.00  0.00     0.134 A 
ATOM      7  C   UNL     1       3.113  71.928   4.214  1.00  0.00     0.093 A 
ATOM      8  C   UNL     1       4.199  71.271   3.632  1.00  0.00     0.123 A 
ATOM      9  C   UNL     1       5.207  70.753   4.442  1.00  0.00     0.094 A 
ATOM     10  C   UNL     1       5.125  70.860   5.832  1.00  0.00     0.146 A 
ATOM     11  O   UNL     1       6.103  70.343   6.566  1.00  0.00    -0.451 OA
ENDROOT
BRANCH   1  12
ATOM     12  C   UNL     1       7.265  69.778   8.602  1.00  0.00     0.063 A 
ATOM     13  C   UNL     1       8.765  69.807  10.514  1.00  0.00     0.047 A 
ATOM     14  C   UNL     1       7.682  70.347   9.816  1.00  0.00     0.020 A 
ATOM     15  C   UNL     1       9.436  68.687  10.018  1.00  0.00     0.119 A 
ATOM     16  C   UNL     1       9.012  68.098   8.819  1.00  0.00     0.093 A 
ATOM     17  C   UNL     1       7.922  68.629   8.114  1.00  0.00     0.130 A 
BRANCH  15  18
ATOM     18  O   UNL     1      10.517  68.162  10.723  1.00  0.00    -0.508 OA
ATOM     19  H   UNL     1      11.466  68.467  10.543  1.00  0.00     0.293 HD
ENDBRANCH  15  18
BRANCH  17  20
ATOM     20  O   UNL     1       7.479  68.006   6.948  1.00  0.00    -0.507 OA
ATOM     21  H   UNL     1       7.559  67.003   6.818  1.00  0.00     0.293 HD
ENDBRANCH  17  20
ENDBRANCH   1  12
BRANCH   2  22
ATOM     22  O   UNL     1       4.990  70.875   9.985  1.00  0.00    -0.502 OA
ATOM     23  H   UNL     1       5.793  70.601  10.538  1.00  0.00     0.293 HD
ENDBRANCH   2  22
BRANCH   6  24
ATOM     24  O   UNL     1       1.943  72.839   6.077  1.00  0.00    -0.507 OA
ATOM     25  H   UNL     1       1.408  72.621   6.902  1.00  0.00     0.293 HD
ENDBRANCH   6  24
BRANCH   8  26
ATOM     26  O   UNL     1       4.290  71.136   2.249  1.00  0.00    -0.508 OA
ATOM     27  H   UNL     1       3.852  70.362   1.762  1.00  0.00     0.293 HD
ENDBRANCH   8  26
TORSDOF 6
ENDMDL
MODEL 5
REMARK VINA RESULT:    -7.084      2.268      7.141
REMARK INTER + INTRA:          -8.914
REMARK INTER:                  -8.902
REMARK INTRA:                  -0.012
REMARK UNBOUND:                -0.380
REMARK SMILES O=c1c(O)c(-c2ccc(O)cc2O)oc2cc(O)cc(O)c12
REMARK SMILES IDX 5 1 3 2 2 3 1 4 22 5 20 6 19 7 17 8 16 9 15 10 14 11 6 12
REMARK SMILES IDX 8 13 7 14 9 15 11 16 12 17 10 18 13 20 4 22 21 24 18 26
REMARK H PARENT 10 19 13 21 4 23 21 25 18 27
REMARK Flexibility Score: inf
ROOT
ATOM      1  C   UNL     1       3.489  71.892   7.344  1.00  0.00     0.184 A 
ATOM      2  C   UNL     1       3.177  72.049   8.704  1.00  0.00     0.208 A 
ATOM      3  C   UNL     1       4.083  71.581   9.668  1.00  0.00     0.238 A 
ATOM      4  O   UNL     1       3.824  71.772  10.884  1.00  0.00    -0.285 OA
ATOM      5  C   UNL     1       5.281  70.946   9.258  1.00  0.00     0.111 A 
ATOM      6  C   UNL     1       6.253  70.398  10.148  1.00  0.00     0.134 A 
ATOM      7  C   UNL     1       7.462  69.910   9.635  1.00  0.00     0.093 A 
ATOM      8  C   UNL     1       7.706  69.892   8.260  1.00  0.00     0.123 A 
ATOM      9  C   UNL     1       6.739  70.371   7.379  1.00  0.00     0.094 A 
ATOM     10  C   UNL     1       5.539  70.897   7.863  1.00  0.00     0.146 A 
ATOM     11  O   UNL     1       4.649  71.353   6.989  1.00  0.00    -0.451 OA
ENDROOT
BRANCH   1  12
ATOM     12  C   UNL     1       2.571  72.348   6.279  1.00  0.00     0.063 A 
ATOM     13  C   UNL     1       0.292  72.610   5.474  1.00  0.00     0.047 A 
ATOM     14  C   UNL     1       1.188  72.184   6.459  1.00  0.00     0.020 A 
ATOM     15  C   UNL     1       0.763  73.216   4.308  1.00  0.00     0.119 A 
ATOM     16  C   UNL     1       2.140  73.405   4.130  1.00  0.00     0.093 A 
ATOM     17  C   UNL     1       3.047  72.986   5.115  1.00  0.00     0.130 A 
BRANCH  15  18
ATOM     18  O   UNL     1      -0.142  73.631   3.334  1.00  0.00    -0.508 OA
ATOM     19  H   UNL     1       0.168  73.944   2.421  1.00  0.00     0.293 HD
ENDBRANCH  15  18
BRANCH  17  20
ATOM     20  O   UNL     1       4.411  73.224   4.949  1.00  0.00    -0.507 OA
ATOM     21  H   UNL     1       5.104  72.782   5.543  1.00  0.00     0.293 HD
ENDBRANCH  17  20
ENDBRANCH   1  12
BRANCH   2  22
ATOM     22  O   UNL     1       1.996  72.695   9.080  1.00  0.00    -0.502 OA
ATOM     23  H   UNL     1       1.292  72.972   8.407  1.00  0.00     0.293 HD
ENDBRANCH   2  22
BRANCH   6  24
ATOM     24  O   UNL     1       6.070  70.283  11.530  1.00  0.00    -0.507 OA
ATOM     25  H   UNL     1       5.253  69.890  11.970  1.00  0.00     0.293 HD
ENDBRANCH   6  24
BRANCH   8  26
ATOM     26  O   UNL     1       8.905  69.390   7.758  1.00  0.00    -0.508 OA
ATOM     27  H   UNL     1       9.395  69.849   6.999  1.00  0.00     0.293 HD
ENDBRANCH   8  26
TORSDOF 6
ENDMDL
MODEL 6
REMARK VINA RESULT:    -7.016      1.694      3.395
REMARK INTER + INTRA:          -8.831
REMARK INTER:                  -8.656
REMARK INTRA:                  -0.175
REMARK UNBOUND:                -0.380
REMARK SMILES O=c1c(O)c(-c2ccc(O)cc2O)oc2cc(O)cc(O)c12
REMARK SMILES IDX 5 1 3 2 2 3 1 4 22 5 20 6 19 7 17 8 16 9 15 10 14 11 6 12
REMARK SMILES IDX 8 13 7 14 9 15 11 16 12 17 10 18 13 20 4 22 21 24 18 26
REMARK H PARENT 10 19 13 21 4 23 21 25 18 27
REMARK Flexibility Score: inf
ROOT
ATOM      1  C   UNL     1       4.003  71.207   7.177  1.00  0.00     0.184 A 
ATOM      2  C   UNL     1       2.787  70.936   7.822  1.00  0.00     0.208 A 
ATOM      3  C   UNL     1       1.604  71.484   7.303  1.00  0.00     0.238 A 
ATOM      4  O   UNL     1       0.510  71.194   7.853  1.00  0.00    -0.285 OA
ATOM      5  C   UNL     1       1.657  72.312   6.154  1.00  0.00     0.111 A 
ATOM      6  C   UNL     1       0.527  72.954   5.565  1.00  0.00     0.134 A 
ATOM      7  C   UNL     1       0.678  73.643   4.355  1.00  0.00     0.093 A 
ATOM      8  C   UNL     1       1.929  73.769   3.748  1.00  0.00     0.123 A 
ATOM      9  C   UNL     1       3.049  73.195   4.346  1.00  0.00     0.094 A 
ATOM     10  C   UNL     1       2.924  72.471   5.534  1.00  0.00     0.146 A 
ATOM     11  O   UNL     1       4.016  71.932   6.064  1.00  0.00    -0.451 OA
ENDROOT
BRANCH   1  12
ATOM     12  C   UNL     1       5.286  70.674   7.682  1.00  0.00     0.063 A 
ATOM     13  C   UNL     1       7.303  69.381   7.271  1.00  0.00     0.047 A 
ATOM     14  C   UNL     1       6.082  69.895   6.827  1.00  0.00     0.020 A 
ATOM     15  C   UNL     1       7.750  69.647   8.567  1.00  0.00     0.119 A 
ATOM     16  C   UNL     1       6.974  70.443   9.420  1.00  0.00     0.093 A 
ATOM     17  C   UNL     1       5.750  70.969   8.981  1.00  0.00     0.130 A 
BRANCH  15  18
ATOM     18  O   UNL     1       8.968  69.124   8.997  1.00  0.00    -0.508 OA
ATOM     19  H   UNL     1       9.073  68.714   9.917  1.00  0.00     0.293 HD
ENDBRANCH  15  18
BRANCH  17  20
ATOM     20  O   UNL     1       5.009  71.799   9.822  1.00  0.00    -0.507 OA
ATOM     21  H   UNL     1       4.886  71.586  10.806  1.00  0.00     0.293 HD
ENDBRANCH  17  20
ENDBRANCH   1  12
BRANCH   2  22
ATOM     22  O   UNL     1       2.761  70.101   8.943  1.00  0.00    -0.502 OA
ATOM     23  H   UNL     1       2.273  69.213   8.946  1.00  0.00     0.293 HD
ENDBRANCH   2  22
BRANCH   6  24
ATOM     24  O   UNL     1      -0.749  72.968   6.137  1.00  0.00    -0.507 OA
ATOM     25  H   UNL     1      -1.104  72.265   6.766  1.00  0.00     0.293 HD
ENDBRANCH   6  24
BRANCH   8  26
ATOM     26  O   UNL     1       2.072  74.470   2.553  1.00  0.00    -0.508 OA
ATOM     27  H   UNL     1       1.271  74.855   2.065  1.00  0.00     0.293 HD
ENDBRANCH   8  26
TORSDOF 6
ENDMDL
MODEL 7
REMARK VINA RESULT:    -6.899      1.377      6.626
REMARK INTER + INTRA:          -8.690
REMARK INTER:                  -8.273
REMARK INTRA:                  -0.418
REMARK UNBOUND:                -0.380
REMARK SMILES O=c1c(O)c(-c2ccc(O)cc2O)oc2cc(O)cc(O)c12
REMARK SMILES IDX 5 1 3 2 2 3 1 4 22 5 20 6 19 7 17 8 16 9 15 10 14 11 6 12
REMARK SMILES IDX 8 13 7 14 9 15 11 16 12 17 10 18 13 20 4 22 21 24 18 26
REMARK H PARENT 10 19 13 21 4 23 21 25 18 27
REMARK Flexibility Score: inf
ROOT
ATOM      1  C   UNL     1       3.472  70.796   5.608  1.00  0.00     0.184 A 
ATOM      2  C   UNL     1       3.549  69.511   5.047  1.00  0.00     0.208 A 
ATOM      3  C   UNL     1       4.577  68.650   5.460  1.00  0.00     0.238 A 
ATOM      4  O   UNL     1       4.610  67.481   4.995  1.00  0.00    -0.285 OA
ATOM      5  C   UNL     1       5.525  69.092   6.416  1.00  0.00     0.111 A 
ATOM      6  C   UNL     1       6.632  68.318   6.877  1.00  0.00     0.134 A 
ATOM      7  C   UNL     1       7.430  68.807   7.919  1.00  0.00     0.093 A 
ATOM      8  C   UNL     1       7.199  70.069   8.472  1.00  0.00     0.123 A 
ATOM      9  C   UNL     1       6.157  70.856   7.988  1.00  0.00     0.094 A 
ATOM     10  C   UNL     1       5.322  70.381   6.974  1.00  0.00     0.146 A 
ATOM     11  O   UNL     1       4.334  71.160   6.550  1.00  0.00    -0.451 OA
ENDROOT
BRANCH   1  12
ATOM     12  C   UNL     1       2.424  71.757   5.205  1.00  0.00     0.063 A 
ATOM     13  C   UNL     1       0.235  72.734   5.612  1.00  0.00     0.047 A 
ATOM     14  C   UNL     1       1.243  71.832   5.962  1.00  0.00     0.020 A 
ATOM     15  C   UNL     1       0.398  73.581   4.513  1.00  0.00     0.119 A 
ATOM     16  C   UNL     1       1.583  73.530   3.766  1.00  0.00     0.093 A 
ATOM     17  C   UNL     1       2.602  72.632   4.114  1.00  0.00     0.130 A 
BRANCH  15  18
ATOM     18  O   UNL     1      -0.617  74.472   4.174  1.00  0.00    -0.508 OA
ATOM     19  H   UNL     1      -1.583  74.174   4.103  1.00  0.00     0.293 HD
ENDBRANCH  15  18
BRANCH  17  20
ATOM     20  O   UNL     1       3.797  72.624   3.392  1.00  0.00    -0.507 OA
ATOM     21  H   UNL     1       3.851  72.233   2.459  1.00  0.00     0.293 HD
ENDBRANCH  17  20
ENDBRANCH   1  12
BRANCH   2  22
ATOM     22  O   UNL     1       2.589  69.094   4.121  1.00  0.00    -0.502 OA
ATOM     23  H   UNL     1       2.063  68.237   4.234  1.00  0.00     0.293 HD
ENDBRANCH   2  22
BRANCH   6  24
ATOM     24  O   UNL     1       7.005  67.086   6.331  1.00  0.00    -0.507 OA
ATOM     25  H   UNL     1       7.885  66.902   5.877  1.00  0.00     0.293 HD
ENDBRANCH   6  24
BRANCH   8  26
ATOM     26  O   UNL     1       8.008  70.554   9.498  1.00  0.00    -0.508 OA
ATOM     27  H   UNL     1       7.620  70.837  10.390  1.00  0.00     0.293 HD
ENDBRANCH   8  26
TORSDOF 6
ENDMDL
MODEL 8
REMARK VINA RESULT:    -6.561     12.356     14.690
REMARK INTER + INTRA:          -8.283
REMARK INTER:                  -7.898
REMARK INTRA:                  -0.385
REMARK UNBOUND:                -0.380
REMARK SMILES O=c1c(O)c(-c2ccc(O)cc2O)oc2cc(O)cc(O)c12
REMARK SMILES IDX 5 1 3 2 2 3 1 4 22 5 20 6 19 7 17 8 16 9 15 10 14 11 6 12
REMARK SMILES IDX 8 13 7 14 9 15 11 16 12 17 10 18 13 20 4 22 21 24 18 26
REMARK H PARENT 10 19 13 21 4 23 21 25 18 27
REMARK Flexibility Score: inf
ROOT
ATOM      1  C   UNL     1       3.856  82.362  -1.858  1.00  0.00     0.184 A 
ATOM      2  C   UNL     1       3.732  83.448  -2.739  1.00  0.00     0.208 A 
ATOM      3  C   UNL     1       4.288  83.348  -4.024  1.00  0.00     0.238 A 
ATOM      4  O   UNL     1       4.127  84.302  -4.829  1.00  0.00    -0.285 OA
ATOM      5  C   UNL     1       4.976  82.169  -4.404  1.00  0.00     0.111 A 
ATOM      6  C   UNL     1       5.613  81.973  -5.666  1.00  0.00     0.134 A 
ATOM      7  C   UNL     1       6.151  80.719  -5.980  1.00  0.00     0.093 A 
ATOM      8  C   UNL     1       6.133  79.674  -5.054  1.00  0.00     0.123 A 
ATOM      9  C   UNL     1       5.565  79.873  -3.797  1.00  0.00     0.094 A 
ATOM     10  C   UNL     1       4.988  81.102  -3.468  1.00  0.00     0.146 A 
ATOM     11  O   UNL     1       4.448  81.245  -2.263  1.00  0.00    -0.451 OA
ENDROOT
BRANCH   1  12
ATOM     12  C   UNL     1       3.308  82.410  -0.486  1.00  0.00     0.063 A 
ATOM     13  C   UNL     1       1.544  81.790   1.067  1.00  0.00     0.047 A 
ATOM     14  C   UNL     1       2.087  81.770  -0.220  1.00  0.00     0.020 A 
ATOM     15  C   UNL     1       2.218  82.436   2.106  1.00  0.00     0.119 A 
ATOM     16  C   UNL     1       3.449  83.058   1.855  1.00  0.00     0.093 A 
ATOM     17  C   UNL     1       4.004  83.037   0.567  1.00  0.00     0.130 A 
BRANCH  15  18
ATOM     18  O   UNL     1       1.662  82.452   3.383  1.00  0.00    -0.508 OA
ATOM     19  H   UNL     1       2.239  82.386   4.213  1.00  0.00     0.293 HD
ENDBRANCH  15  18
BRANCH  17  20
ATOM     20  O   UNL     1       5.253  83.617   0.341  1.00  0.00    -0.507 OA
ATOM     21  H   UNL     1       5.695  84.212   1.032  1.00  0.00     0.293 HD
ENDBRANCH  17  20
ENDBRANCH   1  12
BRANCH   2  22
ATOM     22  O   UNL     1       3.032  84.592  -2.345  1.00  0.00    -0.502 OA
ATOM     23  H   UNL     1       2.672  85.263  -3.013  1.00  0.00     0.293 HD
ENDBRANCH   2  22
BRANCH   6  24
ATOM     24  O   UNL     1       5.767  82.978  -6.626  1.00  0.00    -0.507 OA
ATOM     25  H   UNL     1       5.251  83.031  -7.490  1.00  0.00     0.293 HD
ENDBRANCH   6  24
BRANCH   8  26
ATOM     26  O   UNL     1       6.685  78.435  -5.370  1.00  0.00    -0.508 OA
ATOM     27  H   UNL     1       6.459  77.602  -4.837  1.00  0.00     0.293 HD
ENDBRANCH   8  26
TORSDOF 6
ENDMDL
MODEL 9
REMARK VINA RESULT:    -6.527     10.786     13.450
REMARK INTER + INTRA:          -8.243
REMARK INTER:                  -7.840
REMARK INTRA:                  -0.402
REMARK UNBOUND:                -0.380
REMARK SMILES O=c1c(O)c(-c2ccc(O)cc2O)oc2cc(O)cc(O)c12
REMARK SMILES IDX 5 1 3 2 2 3 1 4 22 5 20 6 19 7 17 8 16 9 15 10 14 11 6 12
REMARK SMILES IDX 8 13 7 14 9 15 11 16 12 17 10 18 13 20 4 22 21 24 18 26
REMARK H PARENT 10 19 13 21 4 23 21 25 18 27
REMARK Flexibility Score: inf
ROOT
ATOM      1  C   UNL     1       3.268  81.570  -1.999  1.00  0.00     0.184 A 
ATOM      2  C   UNL     1       2.783  82.887  -2.036  1.00  0.00     0.208 A 
ATOM      3  C   UNL     1       2.229  83.441  -0.871  1.00  0.00     0.238 A 
ATOM      4  O   UNL     1       1.846  84.639  -0.895  1.00  0.00    -0.285 OA
ATOM      5  C   UNL     1       2.151  82.663   0.310  1.00  0.00     0.111 A 
ATOM      6  C   UNL     1       1.573  83.108   1.536  1.00  0.00     0.134 A 
ATOM      7  C   UNL     1       1.668  82.301   2.677  1.00  0.00     0.093 A 
ATOM      8  C   UNL     1       2.263  81.038   2.620  1.00  0.00     0.123 A 
ATOM      9  C   UNL     1       2.778  80.571   1.413  1.00  0.00     0.094 A 
ATOM     10  C   UNL     1       2.730  81.367   0.266  1.00  0.00     0.146 A 
ATOM     11  O   UNL     1       3.243  80.887  -0.860  1.00  0.00    -0.451 OA
ENDROOT
BRANCH   1  12
ATOM     12  C   UNL     1       3.848  80.922  -3.194  1.00  0.00     0.063 A 
ATOM     13  C   UNL     1       3.504  79.694  -5.263  1.00  0.00     0.047 A 
ATOM     14  C   UNL     1       2.989  80.310  -4.120  1.00  0.00     0.020 A 
ATOM     15  C   UNL     1       4.880  79.694  -5.504  1.00  0.00     0.119 A 
ATOM     16  C   UNL     1       5.744  80.324  -4.598  1.00  0.00     0.093 A 
ATOM     17  C   UNL     1       5.235  80.949  -3.450  1.00  0.00     0.130 A 
BRANCH  15  18
ATOM     18  O   UNL     1       5.380  79.073  -6.646  1.00  0.00    -0.508 OA
ATOM     19  H   UNL     1       4.773  78.799  -7.409  1.00  0.00     0.293 HD
ENDBRANCH  15  18
BRANCH  17  20
ATOM     20  O   UNL     1       6.100  81.615  -2.581  1.00  0.00    -0.507 OA
ATOM     21  H   UNL     1       6.097  82.625  -2.499  1.00  0.00     0.293 HD
ENDBRANCH  17  20
ENDBRANCH   1  12
BRANCH   2  22
ATOM     22  O   UNL     1       2.890  83.638  -3.210  1.00  0.00    -0.502 OA
ATOM     23  H   UNL     1       3.471  83.349  -3.987  1.00  0.00     0.293 HD
ENDBRANCH   2  22
BRANCH   6  24
ATOM     24  O   UNL     1       0.876  84.312   1.679  1.00  0.00    -0.507 OA
ATOM     25  H   UNL     1       0.107  84.458   2.314  1.00  0.00     0.293 HD
ENDBRANCH   6  24
BRANCH   8  26
ATOM     26  O   UNL     1       2.339  80.236   3.756  1.00  0.00    -0.508 OA
ATOM     27  H   UNL     1       2.220  79.231   3.705  1.00  0.00     0.293 HD
ENDBRANCH   8  26
TORSDOF 6
ENDMDL
