MODEL 1
REMARK VINA RESULT:    10.816      0.000      0.000
REMARK INTER + INTRA:          18.647
REMARK INTER:                  18.404
REMARK INTRA:                   0.243
REMARK UNBOUND:                 0.243
REMARK SMILES CCCCCCCCCCCCCC(=O)[O-]
REMARK SMILES IDX 8 1 9 2 10 3 11 4 12 5 13 6 14 7 15 8 16 9 7 10 6 11 5 12
REMARK SMILES IDX 4 13 3 14 2 15 1 16
REMARK H PARENT
REMARK Flexibility Score: inf
ROOT
ATOM      1  C   UNL     1      15.247   5.687   7.718  1.00  0.00     0.000 C 
ENDROOT
BRANCH   1   2
ATOM      2  C   UNL     1      15.975   5.650   6.363  1.00  0.00     0.000 C 
BRANCH   2   3
ATOM      3  C   UNL     1      17.141   4.648   6.347  1.00  0.00     0.000 C 
BRANCH   3   4
ATOM      4  C   UNL     1      18.125   4.861   7.508  1.00  0.00     0.000 C 
BRANCH   4   5
ATOM      5  C   UNL     1      18.113   6.322   7.975  1.00  0.00     0.006 C 
BRANCH   5   6
ATOM      6  C   UNL     1      18.124   6.410   9.503  1.00  0.00     0.053 C 
BRANCH   6   7
ATOM      7  C   UNL     1      17.400   7.636   9.962  1.00  0.00     0.041 C 
ATOM      8  O   UNL     1      17.899   8.777   9.770  1.00  0.00    -0.550 OA
ATOM      9  O   UNL     1      16.149   7.524  10.555  1.00  0.00    -0.550 OA
ENDBRANCH   6   7
ENDBRANCH   5   6
ENDBRANCH   4   5
ENDBRANCH   3   4
ENDBRANCH   2   3
ENDBRANCH   1   2
BRANCH   1  10
ATOM     10  C   UNL     1      14.586   7.048   8.004  1.00  0.00     0.000 C 
BRANCH  10  11
ATOM     11  C   UNL     1      13.214   7.263   7.338  1.00  0.00    -0.000 C 
BRANCH  11  12
ATOM     12  C   UNL     1      11.997   6.926   8.221  1.00  0.00    -0.000 C 
BRANCH  12  13
ATOM     13  C   UNL     1      11.003   5.942   7.565  1.00  0.00    -0.000 C 
BRANCH  13  14
ATOM     14  C   UNL     1      10.319   5.022   8.592  1.00  0.00    -0.000 C 
BRANCH  14  15
ATOM     15  C   UNL     1      10.622   3.536   8.345  1.00  0.00    -0.003 C 
ATOM     16  C   UNL     1      10.651   2.717   9.634  1.00  0.00     0.004 C 
ENDBRANCH  14  15
ENDBRANCH  13  14
ENDBRANCH  12  13
ENDBRANCH  11  12
ENDBRANCH  10  11
ENDBRANCH   1  10
TORSDOF 12
ENDMDL
MODEL 2
REMARK VINA RESULT:    11.229      1.029      1.339
REMARK INTER + INTRA:          19.350
REMARK INTER:                  20.012
REMARK INTRA:                  -0.662
REMARK UNBOUND:                 0.243
REMARK SMILES CCCCCCCCCCCCCC(=O)[O-]
REMARK SMILES IDX 8 1 9 2 10 3 11 4 12 5 13 6 14 7 15 8 16 9 7 10 6 11 5 12
REMARK SMILES IDX 4 13 3 14 2 15 1 16
REMARK H PARENT
REMARK Flexibility Score: inf
ROOT
ATOM      1  C   UNL     1      15.000   4.895   7.074  1.00  0.00     0.000 C 
ENDROOT
BRANCH   1   2
ATOM      2  C   UNL     1      16.247   5.281   6.258  1.00  0.00     0.000 C 
BRANCH   2   3
ATOM      3  C   UNL     1      17.557   4.911   6.972  1.00  0.00     0.000 C 
BRANCH   3   4
ATOM      4  C   UNL     1      18.123   6.066   7.812  1.00  0.00     0.000 C 
BRANCH   4   5
ATOM      5  C   UNL     1      17.539   6.051   9.229  1.00  0.00     0.006 C 
BRANCH   5   6
ATOM      6  C   UNL     1      18.125   7.184  10.078  1.00  0.00     0.053 C 
BRANCH   6   7
ATOM      7  C   UNL     1      17.344   8.444   9.879  1.00  0.00     0.041 C 
ATOM      8  O   UNL     1      17.924   9.497   9.504  1.00  0.00    -0.550 OA
ATOM      9  O   UNL     1      15.966   8.443  10.058  1.00  0.00    -0.550 OA
ENDBRANCH   6   7
ENDBRANCH   5   6
ENDBRANCH   4   5
ENDBRANCH   3   4
ENDBRANCH   2   3
ENDBRANCH   1   2
BRANCH   1  10
ATOM     10  C   UNL     1      14.620   5.955   8.123  1.00  0.00     0.000 C 
BRANCH  10  11
ATOM     11  C   UNL     1      13.880   7.188   7.570  1.00  0.00    -0.000 C 
BRANCH  11  12
ATOM     12  C   UNL     1      12.364   7.004   7.363  1.00  0.00    -0.000 C 
BRANCH  12  13
ATOM     13  C   UNL     1      11.583   6.749   8.671  1.00  0.00    -0.000 C 
BRANCH  13  14
ATOM     14  C   UNL     1      10.529   5.637   8.522  1.00  0.00    -0.000 C 
BRANCH  14  15
ATOM     15  C   UNL     1      11.028   4.463   7.666  1.00  0.00    -0.003 C 
ATOM     16  C   UNL     1      10.219   4.281   6.384  1.00  0.00     0.004 C 
ENDBRANCH  14  15
ENDBRANCH  13  14
ENDBRANCH  12  13
ENDBRANCH  11  12
ENDBRANCH  10  11
ENDBRANCH   1  10
TORSDOF 12
ENDMDL
MODEL 3
REMARK VINA RESULT:    11.796      2.959      6.751
REMARK INTER + INTRA:          20.314
REMARK INTER:                  20.239
REMARK INTRA:                   0.075
REMARK UNBOUND:                 0.243
REMARK SMILES CCCCCCCCCCCCCC(=O)[O-]
REMARK SMILES IDX 8 1 9 2 10 3 11 4 12 5 13 6 14 7 15 8 16 9 7 10 6 11 5 12
REMARK SMILES IDX 4 13 3 14 2 15 1 16
REMARK H PARENT
REMARK Flexibility Score: inf
ROOT
ATOM      1  C   UNL     1      15.268   5.628   8.313  1.00  0.00     0.000 C 
ENDROOT
BRANCH   1   2
ATOM      2  C   UNL     1      14.657   7.030   8.488  1.00  0.00     0.000 C 
BRANCH   2   3
ATOM      3  C   UNL     1      13.469   7.277   7.544  1.00  0.00     0.000 C 
BRANCH   3   4
ATOM      4  C   UNL     1      12.115   7.241   8.271  1.00  0.00     0.000 C 
BRANCH   4   5
ATOM      5  C   UNL     1      11.194   6.179   7.661  1.00  0.00     0.006 C 
BRANCH   5   6
ATOM      6  C   UNL     1      10.469   5.387   8.753  1.00  0.00     0.053 C 
BRANCH   6   7
ATOM      7  C   UNL     1      10.674   3.918   8.558  1.00  0.00     0.041 C 
ATOM      8  O   UNL     1      11.013   3.469   7.431  1.00  0.00    -0.550 OA
ATOM      9  O   UNL     1      10.542   3.049   9.634  1.00  0.00    -0.550 OA
ENDBRANCH   6   7
ENDBRANCH   5   6
ENDBRANCH   4   5
ENDBRANCH   3   4
ENDBRANCH   2   3
ENDBRANCH   1   2
BRANCH   1  10
ATOM     10  C   UNL     1      15.677   5.331   6.859  1.00  0.00     0.000 C 
BRANCH  10  11
ATOM     11  C   UNL     1      17.163   4.977   6.656  1.00  0.00    -0.000 C 
BRANCH  11  12
ATOM     12  C   UNL     1      18.076   5.266   7.863  1.00  0.00    -0.000 C 
BRANCH  12  13
ATOM     13  C   UNL     1      17.879   6.672   8.471  1.00  0.00    -0.000 C 
BRANCH  13  14
ATOM     14  C   UNL     1      18.125   6.697   9.991  1.00  0.00    -0.000 C 
BRANCH  14  15
ATOM     15  C   UNL     1      18.111   8.121  10.567  1.00  0.00    -0.003 C 
ATOM     16  C   UNL     1      17.672   9.167   9.544  1.00  0.00     0.004 C 
ENDBRANCH  14  15
ENDBRANCH  13  14
ENDBRANCH  12  13
ENDBRANCH  11  12
ENDBRANCH  10  11
ENDBRANCH   1  10
TORSDOF 12
ENDMDL
MODEL 4
REMARK VINA RESULT:    12.320      3.322      7.219
REMARK INTER + INTRA:          21.206
REMARK INTER:                  22.068
REMARK INTRA:                  -0.862
REMARK UNBOUND:                 0.243
REMARK SMILES CCCCCCCCCCCCCC(=O)[O-]
REMARK SMILES IDX 8 1 9 2 10 3 11 4 12 5 13 6 14 7 15 8 16 9 7 10 6 11 5 12
REMARK SMILES IDX 4 13 3 14 2 15 1 16
REMARK H PARENT
REMARK Flexibility Score: inf
ROOT
ATOM      1  C   UNL     1      14.274   7.723   7.427  1.00  0.00     0.000 C 
ENDROOT
BRANCH   1   2
ATOM      2  C   UNL     1      12.743   7.687   7.278  1.00  0.00     0.000 C 
BRANCH   2   3
ATOM      3  C   UNL     1      12.135   6.357   7.750  1.00  0.00     0.000 C 
BRANCH   3   4
ATOM      4  C   UNL     1      10.823   6.545   8.528  1.00  0.00     0.000 C 
BRANCH   4   5
ATOM      5  C   UNL     1      10.099   5.206   8.714  1.00  0.00     0.006 C 
BRANCH   5   6
ATOM      6  C   UNL     1      10.844   4.075   7.998  1.00  0.00     0.053 C 
BRANCH   6   7
ATOM      7  C   UNL     1      10.643   2.779   8.718  1.00  0.00     0.041 C 
ATOM      8  O   UNL     1      10.562   2.757   9.975  1.00  0.00    -0.550 OA
ATOM      9  O   UNL     1      10.492   1.600   7.998  1.00  0.00    -0.550 OA
ENDBRANCH   6   7
ENDBRANCH   5   6
ENDBRANCH   4   5
ENDBRANCH   3   4
ENDBRANCH   2   3
ENDBRANCH   1   2
BRANCH   1  10
ATOM     10  C   UNL     1      14.877   6.340   7.732  1.00  0.00     0.000 C 
BRANCH  10  11
ATOM     11  C   UNL     1      16.144   6.357   8.610  1.00  0.00    -0.000 C 
BRANCH  11  12
ATOM     12  C   UNL     1      16.071   7.274   9.847  1.00  0.00    -0.000 C 
BRANCH  12  13
ATOM     13  C   UNL     1      17.448   7.587  10.473  1.00  0.00    -0.000 C 
BRANCH  13  14
ATOM     14  C   UNL     1      18.123   8.812   9.830  1.00  0.00    -0.000 C 
BRANCH  14  15
ATOM     15  C   UNL     1      17.107   9.830   9.290  1.00  0.00    -0.003 C 
ATOM     16  C   UNL     1      17.770  11.091   8.739  1.00  0.00     0.004 C 
ENDBRANCH  14  15
ENDBRANCH  13  14
ENDBRANCH  12  13
ENDBRANCH  11  12
ENDBRANCH  10  11
ENDBRANCH   1  10
TORSDOF 12
ENDMDL
