MODEL 1
REMARK VINA RESULT:    -2.157      0.000      0.000
REMARK INTER + INTRA:          -2.157
REMARK INTER:                  -2.157
REMARK INTRA:                   0.000
REMARK UNBOUND:                 0.000
REMARK SMILES CC(=O)[O-]
REMARK SMILES IDX 1 1 2 2 3 3 4 4
REMARK H PARENT
REMARK Flexibility Score: inf
ROOT
ATOM      1  C   UNL     1       2.585 -10.114  18.922  1.00  0.00     0.063 C 
ATOM      2  C   UNL     1       1.448 -10.473  18.027  1.00  0.00     0.038 C 
ATOM      3  O   UNL     1       0.266 -10.417  18.456  1.00  0.00    -0.550 OA
ATOM      4  O   UNL     1       1.686 -10.819  16.703  1.00  0.00    -0.550 OA
ENDROOT
TORSDOF 0
ENDMDL
MODEL 2
REMARK VINA RESULT:    -2.038     27.009     27.089
REMARK INTER + INTRA:          -2.038
REMARK INTER:                  -2.038
REMARK INTRA:                   0.000
REMARK UNBOUND:                 0.000
REMARK SMILES CC(=O)[O-]
REMARK SMILES IDX 1 1 2 2 3 3 4 4
REMARK H PARENT
REMARK Flexibility Score: inf
ROOT
ATOM      1  C   UNL     1     -17.050   0.873  33.653  1.00  0.00     0.063 C 
ATOM      2  C   UNL     1     -16.113   1.516  34.619  1.00  0.00     0.038 C 
ATOM      3  O   UNL     1     -15.701   2.687  34.412  1.00  0.00    -0.550 OA
ATOM      4  O   UNL     1     -15.735   0.844  35.774  1.00  0.00    -0.550 OA
ENDROOT
TORSDOF 0
ENDMDL
MODEL 3
REMARK VINA RESULT:    -2.029     26.980     27.123
REMARK INTER + INTRA:          -2.029
REMARK INTER:                  -2.029
REMARK INTRA:                   0.000
REMARK UNBOUND:                 0.000
REMARK SMILES CC(=O)[O-]
REMARK SMILES IDX 1 1 2 2 3 3 4 4
REMARK H PARENT
REMARK Flexibility Score: inf
ROOT
ATOM      1  C   UNL     1     -15.847   2.852  34.205  1.00  0.00     0.063 C 
ATOM      2  C   UNL     1     -16.259   1.480  34.622  1.00  0.00     0.038 C 
ATOM      3  O   UNL     1     -15.861   1.008  35.718  1.00  0.00    -0.550 OA
ATOM      4  O   UNL     1     -17.125   0.741  33.826  1.00  0.00    -0.550 OA
ENDROOT
TORSDOF 0
ENDMDL
MODEL 4
REMARK VINA RESULT:    -2.028     26.452     26.950
REMARK INTER + INTRA:          -2.028
REMARK INTER:                  -2.028
REMARK INTRA:                   0.000
REMARK UNBOUND:                 0.000
REMARK SMILES CC(=O)[O-]
REMARK SMILES IDX 1 1 2 2 3 3 4 4
REMARK H PARENT
REMARK Flexibility Score: inf
ROOT
ATOM      1  C   UNL     1     -16.362   6.505  30.780  1.00  0.00     0.063 C 
ATOM      2  C   UNL     1     -15.229   6.936  29.910  1.00  0.00     0.038 C 
ATOM      3  O   UNL     1     -15.149   8.132  29.525  1.00  0.00    -0.550 OA
ATOM      4  O   UNL     1     -14.232   6.032  29.566  1.00  0.00    -0.550 OA
ENDROOT
TORSDOF 0
ENDMDL
MODEL 5
REMARK VINA RESULT:    -2.018     26.795     27.193
REMARK INTER + INTRA:          -2.018
REMARK INTER:                  -2.018
REMARK INTRA:                   0.000
REMARK UNBOUND:                 0.000
REMARK SMILES CC(=O)[O-]
REMARK SMILES IDX 1 1 2 2 3 3 4 4
REMARK H PARENT
REMARK Flexibility Score: inf
ROOT
ATOM      1  C   UNL     1     -15.623   7.044  30.091  1.00  0.00     0.063 C 
ATOM      2  C   UNL     1     -16.329   5.808  30.534  1.00  0.00     0.038 C 
ATOM      3  O   UNL     1     -16.696   5.686  31.732  1.00  0.00    -0.550 OA
ATOM      4  O   UNL     1     -16.629   4.810  29.615  1.00  0.00    -0.550 OA
ENDROOT
TORSDOF 0
ENDMDL
MODEL 6
REMARK VINA RESULT:    -2.013      1.360      2.026
REMARK INTER + INTRA:          -2.013
REMARK INTER:                  -2.013
REMARK INTRA:                   0.000
REMARK UNBOUND:                 0.000
REMARK SMILES CC(=O)[O-]
REMARK SMILES IDX 1 1 2 2 3 3 4 4
REMARK H PARENT
REMARK Flexibility Score: inf
ROOT
ATOM      1  C   UNL     1       0.210 -10.030  18.455  1.00  0.00     0.063 C 
ATOM      2  C   UNL     1       1.541 -10.488  17.962  1.00  0.00     0.038 C 
ATOM      3  O   UNL     1       1.685 -10.824  16.758  1.00  0.00    -0.550 OA
ATOM      4  O   UNL     1       2.636 -10.495  18.817  1.00  0.00    -0.550 OA
ENDROOT
TORSDOF 0
ENDMDL
MODEL 7
REMARK VINA RESULT:    -1.995     26.847     27.207
REMARK INTER + INTRA:          -1.995
REMARK INTER:                  -1.995
REMARK INTRA:                   0.000
REMARK UNBOUND:                 0.000
REMARK SMILES CC(=O)[O-]
REMARK SMILES IDX 1 1 2 2 3 3 4 4
REMARK H PARENT
REMARK Flexibility Score: inf
ROOT
ATOM      1  C   UNL     1     -16.036   1.141  35.402  1.00  0.00     0.063 C 
ATOM      2  C   UNL     1     -16.772   1.494  34.154  1.00  0.00     0.038 C 
ATOM      3  O   UNL     1     -17.122   0.590  33.351  1.00  0.00    -0.550 OA
ATOM      4  O   UNL     1     -17.120   2.814  33.900  1.00  0.00    -0.550 OA
ENDROOT
TORSDOF 0
ENDMDL
MODEL 8
REMARK VINA RESULT:    -1.984     26.469     27.004
REMARK INTER + INTRA:          -1.984
REMARK INTER:                  -1.984
REMARK INTRA:                   0.000
REMARK UNBOUND:                 0.000
REMARK SMILES CC(=O)[O-]
REMARK SMILES IDX 1 1 2 2 3 3 4 4
REMARK H PARENT
REMARK Flexibility Score: inf
ROOT
ATOM      1  C   UNL     1     -14.675   8.344  29.047  1.00  0.00     0.063 C 
ATOM      2  C   UNL     1     -15.123   7.126  29.780  1.00  0.00     0.038 C 
ATOM      3  O   UNL     1     -14.412   6.087  29.773  1.00  0.00    -0.550 OA
ATOM      4  O   UNL     1     -16.302   7.151  30.516  1.00  0.00    -0.550 OA
ENDROOT
TORSDOF 0
ENDMDL
MODEL 9
REMARK VINA RESULT:    -1.912      1.585      1.865
REMARK INTER + INTRA:          -1.912
REMARK INTER:                  -1.912
REMARK INTRA:                   0.000
REMARK UNBOUND:                 0.000
REMARK SMILES CC(=O)[O-]
REMARK SMILES IDX 1 1 2 2 3 3 4 4
REMARK H PARENT
REMARK Flexibility Score: inf
ROOT
ATOM      1  C   UNL     1       1.575 -10.727  17.070  1.00  0.00     0.063 C 
ATOM      2  C   UNL     1       1.730 -10.249  18.474  1.00  0.00     0.038 C 
ATOM      3  O   UNL     1       0.757  -9.720  19.071  1.00  0.00    -0.550 OA
ATOM      4  O   UNL     1       2.933 -10.435  19.143  1.00  0.00    -0.550 OA
ENDROOT
TORSDOF 0
ENDMDL
