MODEL 1
REMARK VINA RESULT:    -2.526      0.000      0.000
REMARK INTER + INTRA:          -2.526
REMARK INTER:                  -2.526
REMARK INTRA:                   0.000
REMARK UNBOUND:                 0.000
REMARK SMILES CC(=O)[O-]
REMARK SMILES IDX 1 1 2 2 3 3 4 4
REMARK H PARENT
REMARK Flexibility Score: inf
ROOT
ATOM      1  C   UNL     1      21.865  81.851  32.055  1.00  0.00     0.063 C 
ATOM      2  C   UNL     1      22.169  82.445  33.388  1.00  0.00     0.038 C 
ATOM      3  O   UNL     1      23.365  82.625  33.741  1.00  0.00    -0.550 OA
ATOM      4  O   UNL     1      21.135  82.850  34.222  1.00  0.00    -0.550 OA
ENDROOT
TORSDOF 0
ENDMDL
MODEL 2
REMARK VINA RESULT:    -2.447     18.208     18.523
REMARK INTER + INTRA:          -2.447
REMARK INTER:                  -2.447
REMARK INTRA:                   0.000
REMARK UNBOUND:                 0.000
REMARK SMILES CC(=O)[O-]
REMARK SMILES IDX 1 1 2 2 3 3 4 4
REMARK H PARENT
REMARK Flexibility Score: inf
ROOT
ATOM      1  C   UNL     1      16.160  65.167  26.130  1.00  0.00     0.063 C 
ATOM      2  C   UNL     1      16.975  66.400  25.937  1.00  0.00     0.038 C 
ATOM      3  O   UNL     1      17.674  66.848  26.884  1.00  0.00    -0.550 OA
ATOM      4  O   UNL     1      17.006  67.028  24.699  1.00  0.00    -0.550 OA
ENDROOT
TORSDOF 0
ENDMDL
MODEL 3
REMARK VINA RESULT:    -2.408     18.383     18.728
REMARK INTER + INTRA:          -2.408
REMARK INTER:                  -2.408
REMARK INTRA:                   0.000
REMARK UNBOUND:                 0.000
REMARK SMILES CC(=O)[O-]
REMARK SMILES IDX 1 1 2 2 3 3 4 4
REMARK H PARENT
REMARK Flexibility Score: inf
ROOT
ATOM      1  C   UNL     1      16.918  66.817  24.757  1.00  0.00     0.063 C 
ATOM      2  C   UNL     1      16.897  66.062  26.043  1.00  0.00     0.038 C 
ATOM      3  O   UNL     1      16.238  64.993  26.136  1.00  0.00    -0.550 OA
ATOM      4  O   UNL     1      17.647  66.508  27.124  1.00  0.00    -0.550 OA
ENDROOT
TORSDOF 0
ENDMDL
MODEL 4
REMARK VINA RESULT:    -2.383     18.475     18.805
REMARK INTER + INTRA:          -2.383
REMARK INTER:                  -2.383
REMARK INTRA:                   0.000
REMARK UNBOUND:                 0.000
REMARK SMILES CC(=O)[O-]
REMARK SMILES IDX 1 1 2 2 3 3 4 4
REMARK H PARENT
REMARK Flexibility Score: inf
ROOT
ATOM      1  C   UNL     1      17.577  66.789  26.692  1.00  0.00     0.063 C 
ATOM      2  C   UNL     1      16.591  66.269  25.700  1.00  0.00     0.038 C 
ATOM      3  O   UNL     1      16.712  66.557  24.480  1.00  0.00    -0.550 OA
ATOM      4  O   UNL     1      15.569  65.424  26.112  1.00  0.00    -0.550 OA
ENDROOT
TORSDOF 0
ENDMDL
MODEL 5
REMARK VINA RESULT:    -2.367      1.602      2.166
REMARK INTER + INTRA:          -2.367
REMARK INTER:                  -2.367
REMARK INTRA:                   0.000
REMARK UNBOUND:                 0.000
REMARK SMILES CC(=O)[O-]
REMARK SMILES IDX 1 1 2 2 3 3 4 4
REMARK H PARENT
REMARK Flexibility Score: inf
ROOT
ATOM      1  C   UNL     1      21.050  83.025  33.480  1.00  0.00     0.063 C 
ATOM      2  C   UNL     1      22.068  82.188  32.780  1.00  0.00     0.038 C 
ATOM      3  O   UNL     1      21.750  81.541  31.748  1.00  0.00    -0.550 OA
ATOM      4  O   UNL     1      23.380  82.162  33.235  1.00  0.00    -0.550 OA
ENDROOT
TORSDOF 0
ENDMDL
MODEL 6
REMARK VINA RESULT:    -2.350      1.399      2.015
REMARK INTER + INTRA:          -2.350
REMARK INTER:                  -2.350
REMARK INTRA:                   0.000
REMARK UNBOUND:                 0.000
REMARK SMILES CC(=O)[O-]
REMARK SMILES IDX 1 1 2 2 3 3 4 4
REMARK H PARENT
REMARK Flexibility Score: inf
ROOT
ATOM      1  C   UNL     1      22.899  82.645  35.497  1.00  0.00     0.063 C 
ATOM      2  C   UNL     1      22.134  82.377  34.244  1.00  0.00     0.038 C 
ATOM      3  O   UNL     1      22.586  81.570  33.390  1.00  0.00    -0.550 OA
ATOM      4  O   UNL     1      20.899  82.978  34.041  1.00  0.00    -0.550 OA
ENDROOT
TORSDOF 0
ENDMDL
MODEL 7
REMARK VINA RESULT:    -2.340     15.876     16.304
REMARK INTER + INTRA:          -2.340
REMARK INTER:                  -2.340
REMARK INTRA:                   0.000
REMARK UNBOUND:                 0.000
REMARK SMILES CC(=O)[O-]
REMARK SMILES IDX 1 1 2 2 3 3 4 4
REMARK H PARENT
REMARK Flexibility Score: inf
ROOT
ATOM      1  C   UNL     1      20.587  80.432  18.158  1.00  0.00     0.063 C 
ATOM      2  C   UNL     1      20.195  79.080  17.665  1.00  0.00     0.038 C 
ATOM      3  O   UNL     1      19.691  78.242  18.457  1.00  0.00    -0.550 OA
ATOM      4  O   UNL     1      20.336  78.762  16.320  1.00  0.00    -0.550 OA
ENDROOT
TORSDOF 0
ENDMDL
MODEL 8
REMARK VINA RESULT:    -2.325     15.860     16.260
REMARK INTER + INTRA:          -2.325
REMARK INTER:                  -2.325
REMARK INTRA:                   0.000
REMARK UNBOUND:                 0.000
REMARK SMILES CC(=O)[O-]
REMARK SMILES IDX 1 1 2 2 3 3 4 4
REMARK H PARENT
REMARK Flexibility Score: inf
ROOT
ATOM      1  C   UNL     1      20.606  80.454  18.155  1.00  0.00     0.063 C 
ATOM      2  C   UNL     1      20.236  79.115  17.612  1.00  0.00     0.038 C 
ATOM      3  O   UNL     1      20.306  78.894  16.374  1.00  0.00    -0.550 OA
ATOM      4  O   UNL     1      19.866  78.092  18.476  1.00  0.00    -0.550 OA
ENDROOT
TORSDOF 0
ENDMDL
MODEL 9
REMARK VINA RESULT:    -2.272     12.810     13.270
REMARK INTER + INTRA:          -2.272
REMARK INTER:                  -2.272
REMARK INTRA:                   0.000
REMARK UNBOUND:                 0.000
REMARK SMILES CC(=O)[O-]
REMARK SMILES IDX 1 1 2 2 3 3 4 4
REMARK H PARENT
REMARK Flexibility Score: inf
ROOT
ATOM      1  C   UNL     1      11.612  77.627  31.295  1.00  0.00     0.063 C 
ATOM      2  C   UNL     1      10.474  76.935  30.624  1.00  0.00     0.038 C 
ATOM      3  O   UNL     1      10.407  76.905  29.367  1.00  0.00    -0.550 OA
ATOM      4  O   UNL     1       9.516  76.276  31.383  1.00  0.00    -0.550 OA
ENDROOT
TORSDOF 0
ENDMDL
