MODEL 1
REMARK VINA RESULT:    -3.550      0.000      0.000
REMARK INTER + INTRA:          -3.902
REMARK INTER:                  -3.757
REMARK INTRA:                  -0.144
REMARK UNBOUND:                -0.144
REMARK SMILES CC(C)[C@@H]1CC[C@H](C)CC1=O
REMARK SMILES IDX 8 1 7 2 6 3 5 4 4 5 10 6 11 7 9 8 2 9 1 10 3 11
REMARK H PARENT
REMARK Flexibility Score: inf
ROOT
ATOM      1  C   UNL     1     482.511  38.456 459.378  1.00  0.00     0.008 C 
ATOM      2  C   UNL     1     481.147  38.934 458.854  1.00  0.00    -0.007 C 
ATOM      3  C   UNL     1     480.340  37.779 458.215  1.00  0.00     0.004 C 
ATOM      4  C   UNL     1     479.793  36.777 459.251  1.00  0.00     0.012 C 
ATOM      5  C   UNL     1     478.946  37.476 460.343  1.00  0.00     0.058 C 
ATOM      6  C   UNL     1     479.780  38.610 460.911  1.00  0.00     0.136 C 
ATOM      7  O   UNL     1     480.084  38.660 462.095  1.00  0.00    -0.299 OA
ATOM      8  C   UNL     1     480.331  39.631 459.957  1.00  0.00     0.079 C 
ENDROOT
BRANCH   5   9
ATOM      9  C   UNL     1     478.424  36.493 461.441  1.00  0.00    -0.007 C 
ATOM     10  C   UNL     1     478.331  35.039 460.945  1.00  0.00     0.008 C 
ATOM     11  C   UNL     1     477.034  36.925 461.947  1.00  0.00     0.008 C 
ENDBRANCH   5   9
TORSDOF 1
ENDMDL
MODEL 2
REMARK VINA RESULT:    -3.396      2.576      4.428
REMARK INTER + INTRA:          -3.738
REMARK INTER:                  -3.580
REMARK INTRA:                  -0.159
REMARK UNBOUND:                -0.144
REMARK SMILES CC(C)[C@@H]1CC[C@H](C)CC1=O
REMARK SMILES IDX 8 1 7 2 6 3 5 4 4 5 10 6 11 7 9 8 2 9 1 10 3 11
REMARK H PARENT
REMARK Flexibility Score: inf
ROOT
ATOM      1  C   UNL     1     485.334  40.960 458.656  1.00  0.00     0.008 C 
ATOM      2  C   UNL     1     485.296  39.423 458.625  1.00  0.00    -0.007 C 
ATOM      3  C   UNL     1     484.943  38.829 460.009  1.00  0.00     0.004 C 
ATOM      4  C   UNL     1     483.466  39.037 460.399  1.00  0.00     0.012 C 
ATOM      5  C   UNL     1     482.499  38.485 459.323  1.00  0.00     0.058 C 
ATOM      6  C   UNL     1     482.911  39.084 457.989  1.00  0.00     0.136 C 
ATOM      7  O   UNL     1     482.150  39.774 457.326  1.00  0.00    -0.299 OA
ATOM      8  C   UNL     1     484.333  38.903 457.542  1.00  0.00     0.079 C 
ENDROOT
BRANCH   5   9
ATOM      9  C   UNL     1     480.993  38.733 459.662  1.00  0.00    -0.007 C 
ATOM     10  C   UNL     1     480.769  39.114 461.137  1.00  0.00     0.008 C 
ATOM     11  C   UNL     1     480.147  37.484 459.348  1.00  0.00     0.008 C 
ENDBRANCH   5   9
TORSDOF 1
ENDMDL
MODEL 3
REMARK VINA RESULT:    -3.368      4.525      6.927
REMARK INTER + INTRA:          -3.709
REMARK INTER:                  -3.554
REMARK INTRA:                  -0.154
REMARK UNBOUND:                -0.144
REMARK SMILES CC(C)[C@@H]1CC[C@H](C)CC1=O
REMARK SMILES IDX 8 1 7 2 6 3 5 4 4 5 10 6 11 7 9 8 2 9 1 10 3 11
REMARK H PARENT
REMARK Flexibility Score: inf
ROOT
ATOM      1  C   UNL     1     483.008  38.974 458.509  1.00  0.00     0.008 C 
ATOM      2  C   UNL     1     484.517  38.691 458.585  1.00  0.00    -0.007 C 
ATOM      3  C   UNL     1     485.355  39.938 458.215  1.00  0.00     0.004 C 
ATOM      4  C   UNL     1     485.322  41.033 459.300  1.00  0.00     0.012 C 
ATOM      5  C   UNL     1     485.760  40.492 460.684  1.00  0.00     0.058 C 
ATOM      6  C   UNL     1     484.922  39.259 460.977  1.00  0.00     0.136 C 
ATOM      7  O   UNL     1     484.191  39.191 461.954  1.00  0.00    -0.299 OA
ATOM      8  C   UNL     1     484.922  38.147 459.967  1.00  0.00     0.079 C 
ENDROOT
BRANCH   5   9
ATOM      9  C   UNL     1     485.683  41.565 461.818  1.00  0.00    -0.007 C 
ATOM     10  C   UNL     1     485.677  43.005 461.277  1.00  0.00     0.008 C 
ATOM     11  C   UNL     1     486.865  41.416 462.795  1.00  0.00     0.008 C 
ENDBRANCH   5   9
TORSDOF 1
ENDMDL
MODEL 4
REMARK VINA RESULT:    -3.365      3.803      5.315
REMARK INTER + INTRA:          -3.706
REMARK INTER:                  -3.541
REMARK INTRA:                  -0.166
REMARK UNBOUND:                -0.144
REMARK SMILES CC(C)[C@@H]1CC[C@H](C)CC1=O
REMARK SMILES IDX 8 1 7 2 6 3 5 4 4 5 10 6 11 7 9 8 2 9 1 10 3 11
REMARK H PARENT
REMARK Flexibility Score: inf
ROOT
ATOM      1  C   UNL     1     484.116  39.677 457.580  1.00  0.00     0.008 C 
ATOM      2  C   UNL     1     483.726  38.432 458.394  1.00  0.00    -0.007 C 
ATOM      3  C   UNL     1     484.883  37.954 459.303  1.00  0.00     0.004 C 
ATOM      4  C   UNL     1     485.132  38.886 460.506  1.00  0.00     0.012 C 
ATOM      5  C   UNL     1     483.849  39.100 461.348  1.00  0.00     0.058 C 
ATOM      6  C   UNL     1     482.749  39.541 460.399  1.00  0.00     0.136 C 
ATOM      7  O   UNL     1     482.177  40.615 460.525  1.00  0.00    -0.299 OA
ATOM      8  C   UNL     1     482.445  38.671 459.213  1.00  0.00     0.079 C 
ENDROOT
BRANCH   5   9
ATOM      9  C   UNL     1     484.054  40.086 462.544  1.00  0.00    -0.007 C 
ATOM     10  C   UNL     1     485.491  40.631 462.627  1.00  0.00     0.008 C 
ATOM     11  C   UNL     1     483.713  39.402 463.882  1.00  0.00     0.008 C 
ENDBRANCH   5   9
TORSDOF 1
ENDMDL
MODEL 5
REMARK VINA RESULT:    -3.357      3.240      4.857
REMARK INTER + INTRA:          -3.698
REMARK INTER:                  -3.519
REMARK INTRA:                  -0.178
REMARK UNBOUND:                -0.144
REMARK SMILES CC(C)[C@@H]1CC[C@H](C)CC1=O
REMARK SMILES IDX 8 1 7 2 6 3 5 4 4 5 10 6 11 7 9 8 2 9 1 10 3 11
REMARK H PARENT
REMARK Flexibility Score: inf
ROOT
ATOM      1  C   UNL     1     485.385  40.697 460.266  1.00  0.00     0.008 C 
ATOM      2  C   UNL     1     484.955  39.312 460.776  1.00  0.00    -0.007 C 
ATOM      3  C   UNL     1     483.526  39.336 461.368  1.00  0.00     0.004 C 
ATOM      4  C   UNL     1     482.428  39.481 460.294  1.00  0.00     0.012 C 
ATOM      5  C   UNL     1     482.534  38.383 459.206  1.00  0.00     0.058 C 
ATOM      6  C   UNL     1     483.960  38.393 458.685  1.00  0.00     0.136 C 
ATOM      7  O   UNL     1     484.219  38.610 457.510  1.00  0.00    -0.299 OA
ATOM      8  C   UNL     1     485.077  38.241 459.677  1.00  0.00     0.079 C 
ENDROOT
BRANCH   5   9
ATOM      9  C   UNL     1     481.469  38.536 458.071  1.00  0.00    -0.007 C 
ATOM     10  C   UNL     1     480.925  39.971 457.954  1.00  0.00     0.008 C 
ATOM     11  C   UNL     1     480.282  37.582 458.301  1.00  0.00     0.008 C 
ENDBRANCH   5   9
TORSDOF 1
ENDMDL
MODEL 6
REMARK VINA RESULT:    -3.344      4.510      5.764
REMARK INTER + INTRA:          -3.684
REMARK INTER:                  -3.529
REMARK INTRA:                  -0.154
REMARK UNBOUND:                -0.144
REMARK SMILES CC(C)[C@@H]1CC[C@H](C)CC1=O
REMARK SMILES IDX 8 1 7 2 6 3 5 4 4 5 10 6 11 7 9 8 2 9 1 10 3 11
REMARK H PARENT
REMARK Flexibility Score: inf
ROOT
ATOM      1  C   UNL     1     484.952  41.017 461.574  1.00  0.00     0.008 C 
ATOM      2  C   UNL     1     484.548  39.534 461.537  1.00  0.00    -0.007 C 
ATOM      3  C   UNL     1     483.035  39.357 461.269  1.00  0.00     0.004 C 
ATOM      4  C   UNL     1     482.635  39.688 459.816  1.00  0.00     0.012 C 
ATOM      5  C   UNL     1     483.457  38.871 458.788  1.00  0.00     0.058 C 
ATOM      6  C   UNL     1     484.926  39.065 459.120  1.00  0.00     0.136 C 
ATOM      7  O   UNL     1     485.711  39.553 458.319  1.00  0.00    -0.299 OA
ATOM      8  C   UNL     1     485.385  38.746 460.513  1.00  0.00     0.079 C 
ENDROOT
BRANCH   5   9
ATOM      9  C   UNL     1     483.114  39.226 457.304  1.00  0.00    -0.007 C 
ATOM     10  C   UNL     1     481.742  39.907 457.156  1.00  0.00     0.008 C 
ATOM     11  C   UNL     1     483.131  37.963 456.421  1.00  0.00     0.008 C 
ENDBRANCH   5   9
TORSDOF 1
ENDMDL
MODEL 7
REMARK VINA RESULT:    -3.306      4.935      6.031
REMARK INTER + INTRA:          -3.643
REMARK INTER:                  -3.486
REMARK INTRA:                  -0.158
REMARK UNBOUND:                -0.144
REMARK SMILES CC(C)[C@@H]1CC[C@H](C)CC1=O
REMARK SMILES IDX 8 1 7 2 6 3 5 4 4 5 10 6 11 7 9 8 2 9 1 10 3 11
REMARK H PARENT
REMARK Flexibility Score: inf
ROOT
ATOM      1  C   UNL     1     484.044  40.267 460.969  1.00  0.00     0.008 C 
ATOM      2  C   UNL     1     485.205  39.819 460.065  1.00  0.00    -0.007 C 
ATOM      3  C   UNL     1     485.047  38.348 459.614  1.00  0.00     0.004 C 
ATOM      4  C   UNL     1     483.924  38.150 458.575  1.00  0.00     0.012 C 
ATOM      5  C   UNL     1     484.109  39.067 457.341  1.00  0.00     0.058 C 
ATOM      6  C   UNL     1     484.283  40.488 457.850  1.00  0.00     0.136 C 
ATOM      7  O   UNL     1     483.515  41.386 457.536  1.00  0.00    -0.299 OA
ATOM      8  C   UNL     1     485.369  40.752 458.852  1.00  0.00     0.079 C 
ENDROOT
BRANCH   5   9
ATOM      9  C   UNL     1     482.955  38.932 456.294  1.00  0.00    -0.007 C 
ATOM     10  C   UNL     1     482.111  37.662 456.499  1.00  0.00     0.008 C 
ATOM     11  C   UNL     1     483.515  38.919 454.859  1.00  0.00     0.008 C 
ENDBRANCH   5   9
TORSDOF 1
ENDMDL
MODEL 8
REMARK VINA RESULT:    -3.241      2.873      5.155
REMARK INTER + INTRA:          -3.575
REMARK INTER:                  -3.412
REMARK INTRA:                  -0.163
REMARK UNBOUND:                -0.144
REMARK SMILES CC(C)[C@@H]1CC[C@H](C)CC1=O
REMARK SMILES IDX 8 1 7 2 6 3 5 4 4 5 10 6 11 7 9 8 2 9 1 10 3 11
REMARK H PARENT
REMARK Flexibility Score: inf
ROOT
ATOM      1  C   UNL     1     480.328  39.326 456.690  1.00  0.00     0.008 C 
ATOM      2  C   UNL     1     480.857  37.974 457.196  1.00  0.00    -0.007 C 
ATOM      3  C   UNL     1     482.253  37.649 456.616  1.00  0.00     0.004 C 
ATOM      4  C   UNL     1     483.376  38.518 457.218  1.00  0.00     0.012 C 
ATOM      5  C   UNL     1     483.410  38.430 458.764  1.00  0.00     0.058 C 
ATOM      6  C   UNL     1     482.010  38.733 459.269  1.00  0.00     0.136 C 
ATOM      7  O   UNL     1     481.782  39.672 460.019  1.00  0.00    -0.299 OA
ATOM      8  C   UNL     1     480.872  37.913 458.734  1.00  0.00     0.079 C 
ENDROOT
BRANCH   5   9
ATOM      9  C   UNL     1     484.502  39.345 459.410  1.00  0.00    -0.007 C 
ATOM     10  C   UNL     1     485.410  40.017 458.364  1.00  0.00     0.008 C 
ATOM     11  C   UNL     1     485.388  38.540 460.380  1.00  0.00     0.008 C 
ENDBRANCH   5   9
TORSDOF 1
ENDMDL
MODEL 9
REMARK VINA RESULT:    -3.188      4.223      5.929
REMARK INTER + INTRA:          -3.518
REMARK INTER:                  -3.340
REMARK INTRA:                  -0.179
REMARK UNBOUND:                -0.144
REMARK SMILES CC(C)[C@@H]1CC[C@H](C)CC1=O
REMARK SMILES IDX 8 1 7 2 6 3 5 4 4 5 10 6 11 7 9 8 2 9 1 10 3 11
REMARK H PARENT
REMARK Flexibility Score: inf
ROOT
ATOM      1  C   UNL     1     481.359  40.413 455.016  1.00  0.00     0.008 C 
ATOM      2  C   UNL     1     482.895  40.363 454.971  1.00  0.00    -0.007 C 
ATOM      3  C   UNL     1     483.531  41.178 456.122  1.00  0.00     0.004 C 
ATOM      4  C   UNL     1     483.370  40.505 457.500  1.00  0.00     0.012 C 
ATOM      5  C   UNL     1     483.921  39.057 457.506  1.00  0.00     0.058 C 
ATOM      6  C   UNL     1     483.281  38.320 456.343  1.00  0.00     0.136 C 
ATOM      7  O   UNL     1     482.595  37.322 456.508  1.00  0.00    -0.299 OA
ATOM      8  C   UNL     1     483.414  38.914 454.970  1.00  0.00     0.079 C 
ENDROOT
BRANCH   5   9
ATOM      9  C   UNL     1     483.721  38.327 458.874  1.00  0.00    -0.007 C 
ATOM     10  C   UNL     1     482.593  38.946 459.720  1.00  0.00     0.008 C 
ATOM     11  C   UNL     1     485.020  38.348 459.703  1.00  0.00     0.008 C 
ENDBRANCH   5   9
TORSDOF 1
ENDMDL
