MODEL 1
REMARK VINA RESULT:    -2.457      0.000      0.000
REMARK INTER + INTRA:          -3.709
REMARK INTER:                  -3.032
REMARK INTRA:                  -0.677
REMARK UNBOUND:                -0.677
REMARK SMILES CC(C)=CCC[C@@H](C)[C@H]1C=CC(C)=CC1
REMARK SMILES IDX 6 1 7 2 8 3 9 4 13 5 12 6 14 7 11 8 15 9 10 10 5 11 4 12
REMARK SMILES IDX 2 13 1 14 3 15
REMARK H PARENT
REMARK Flexibility Score: inf
ROOT
ATOM      1  C   UNL     1     -14.262  -1.857  18.916  1.00  0.00     0.008 C 
ENDROOT
BRANCH   1   2
ATOM      2  C   UNL     1     -15.393  -1.777  17.844  1.00  0.00    -0.007 C 
ATOM      3  C   UNL     1     -16.160  -0.451  17.983  1.00  0.00     0.008 C 
BRANCH   2   4
ATOM      4  C   UNL     1     -14.913  -1.978  16.369  1.00  0.00     0.018 C 
ATOM      5  C   UNL     1     -15.021  -6.240  15.394  1.00  0.00     0.044 C 
ATOM      6  C   UNL     1     -14.958  -4.745  15.508  1.00  0.00    -0.055 C 
ATOM      7  C   UNL     1     -16.073  -4.012  15.377  1.00  0.00    -0.023 C 
ATOM      8  C   UNL     1     -13.686  -4.093  15.884  1.00  0.00    -0.001 C 
ATOM      9  C   UNL     1     -16.020  -2.509  15.425  1.00  0.00     0.035 C 
ATOM     10  C   UNL     1     -13.651  -2.813  16.266  1.00  0.00    -0.023 C 
ENDBRANCH   2   4
ENDBRANCH   1   2
BRANCH   1  11
ATOM     11  C   UNL     1     -14.619  -2.747  20.119  1.00  0.00     0.027 C 
BRANCH  11  12
ATOM     12  C   UNL     1     -14.969  -1.935  21.344  1.00  0.00    -0.028 C 
ATOM     13  C   UNL     1     -14.091  -1.686  22.338  1.00  0.00    -0.080 C 
ATOM     14  C   UNL     1     -14.545  -0.864  23.516  1.00  0.00     0.039 C 
ATOM     15  C   UNL     1     -12.676  -2.211  22.292  1.00  0.00     0.039 C 
ENDBRANCH  11  12
ENDBRANCH   1  11
TORSDOF 4
ENDMDL
MODEL 2
REMARK VINA RESULT:    -0.247      0.999      6.474
REMARK INTER + INTRA:          -0.982
REMARK INTER:                  -0.535
REMARK INTRA:                  -0.447
REMARK UNBOUND:                -0.677
REMARK SMILES CC(C)=CCC[C@@H](C)[C@H]1C=CC(C)=CC1
REMARK SMILES IDX 6 1 7 2 8 3 9 4 13 5 12 6 14 7 11 8 15 9 10 10 5 11 4 12
REMARK SMILES IDX 2 13 1 14 3 15
REMARK H PARENT
REMARK Flexibility Score: inf
ROOT
ATOM      1  C   UNL     1     -13.537  -2.429  17.522  1.00  0.00     0.008 C 
ENDROOT
BRANCH   1   2
ATOM      2  C   UNL     1     -14.237  -1.966  18.837  1.00  0.00    -0.007 C 
ATOM      3  C   UNL     1     -15.762  -2.134  18.710  1.00  0.00     0.008 C 
BRANCH   2   4
ATOM      4  C   UNL     1     -13.717  -2.662  20.136  1.00  0.00     0.018 C 
ATOM      5  C   UNL     1     -14.972  -0.328  23.615  1.00  0.00     0.044 C 
ATOM      6  C   UNL     1     -14.490  -1.289  22.570  1.00  0.00    -0.055 C 
ATOM      7  C   UNL     1     -15.331  -2.193  22.045  1.00  0.00    -0.023 C 
ATOM      8  C   UNL     1     -13.118  -1.159  22.033  1.00  0.00    -0.001 C 
ATOM      9  C   UNL     1     -14.850  -3.207  21.042  1.00  0.00     0.035 C 
ATOM     10  C   UNL     1     -12.747  -1.802  20.921  1.00  0.00    -0.023 C 
ENDBRANCH   2   4
ENDBRANCH   1   2
BRANCH   1  11
ATOM     11  C   UNL     1     -14.520  -2.894  16.433  1.00  0.00     0.027 C 
BRANCH  11  12
ATOM     12  C   UNL     1     -14.295  -4.336  16.041  1.00  0.00    -0.028 C 
ATOM     13  C   UNL     1     -15.204  -5.064  15.358  1.00  0.00    -0.080 C 
ATOM     14  C   UNL     1     -14.876  -6.494  15.018  1.00  0.00     0.039 C 
ATOM     15  C   UNL     1     -16.529  -4.476  14.934  1.00  0.00     0.039 C 
ENDBRANCH  11  12
ENDBRANCH   1  11
TORSDOF 4
ENDMDL
MODEL 3
REMARK VINA RESULT:     0.401      1.878      6.250
REMARK INTER + INTRA:          -0.183
REMARK INTER:                  -0.063
REMARK INTRA:                  -0.120
REMARK UNBOUND:                -0.677
REMARK SMILES CC(C)=CCC[C@@H](C)[C@H]1C=CC(C)=CC1
REMARK SMILES IDX 6 1 7 2 8 3 9 4 13 5 12 6 14 7 11 8 15 9 10 10 5 11 4 12
REMARK SMILES IDX 2 13 1 14 3 15
REMARK H PARENT
REMARK Flexibility Score: inf
ROOT
ATOM      1  C   UNL     1     -13.692  -2.716  18.109  1.00  0.00     0.008 C 
ENDROOT
BRANCH   1   2
ATOM      2  C   UNL     1     -14.363  -2.188  19.414  1.00  0.00    -0.007 C 
ATOM      3  C   UNL     1     -15.807  -2.710  19.514  1.00  0.00     0.008 C 
BRANCH   2   4
ATOM      4  C   UNL     1     -13.577  -2.503  20.729  1.00  0.00     0.018 C 
ATOM      5  C   UNL     1     -15.163  -0.039  23.974  1.00  0.00     0.044 C 
ATOM      6  C   UNL     1     -14.514  -0.999  23.023  1.00  0.00    -0.055 C 
ATOM      7  C   UNL     1     -15.111  -2.163  22.728  1.00  0.00    -0.023 C 
ATOM      8  C   UNL     1     -13.275  -0.606  22.319  1.00  0.00    -0.001 C 
ATOM      9  C   UNL     1     -14.445  -3.168  21.826  1.00  0.00     0.035 C 
ATOM     10  C   UNL     1     -12.825  -1.303  21.270  1.00  0.00    -0.023 C 
ENDBRANCH   2   4
ENDBRANCH   1   2
BRANCH   1  11
ATOM     11  C   UNL     1     -14.248  -2.069  16.828  1.00  0.00     0.027 C 
BRANCH  11  12
ATOM     12  C   UNL     1     -15.205  -0.940  17.132  1.00  0.00    -0.028 C 
ATOM     13  C   UNL     1     -16.429  -0.842  16.571  1.00  0.00    -0.080 C 
ATOM     14  C   UNL     1     -17.304   0.326  16.944  1.00  0.00     0.039 C 
ATOM     15  C   UNL     1     -16.932  -1.871  15.587  1.00  0.00     0.039 C 
ENDBRANCH  11  12
ENDBRANCH   1  11
TORSDOF 4
ENDMDL
