MODEL 1
REMARK VINA RESULT:    15.249      0.000      0.000
REMARK INTER + INTRA:          27.473
REMARK INTER:                  27.730
REMARK INTRA:                  -0.257
REMARK UNBOUND:                -0.257
REMARK SMILES CCCCCC=CCC=CCCCCCCCC(=O)[O-]
REMARK SMILES IDX 11 1 12 2 13 3 14 4 15 5 16 6 17 7 18 8 19 9 20 10 10 11
REMARK SMILES IDX 9 12 8 13 7 14 6 15 5 16 4 17 3 18 2 19 1 20
REMARK H PARENT
REMARK Flexibility Score: inf
ROOT
ATOM      1  C   UNL     1     -17.578  23.650  19.017  1.00  0.00     0.027 C 
ENDROOT
BRANCH   1   2
ATOM      2  C   UNL     1     -18.275  23.936  17.677  1.00  0.00     0.004 C 
BRANCH   2   3
ATOM      3  C   UNL     1     -18.557  25.427  17.415  1.00  0.00     0.000 C 
BRANCH   3   4
ATOM      4  C   UNL     1     -18.214  25.879  15.979  1.00  0.00     0.000 C 
BRANCH   4   5
ATOM      5  C   UNL     1     -17.118  25.010  15.343  1.00  0.00     0.000 C 
BRANCH   5   6
ATOM      6  C   UNL     1     -15.989  25.878  14.770  1.00  0.00     0.006 C 
BRANCH   6   7
ATOM      7  C   UNL     1     -14.627  25.545  15.395  1.00  0.00     0.053 C 
BRANCH   7   8
ATOM      8  C   UNL     1     -14.743  25.263  16.862  1.00  0.00     0.041 C 
ATOM      9  O   UNL     1     -15.511  25.954  17.582  1.00  0.00    -0.550 OA
ATOM     10  O   UNL     1     -14.021  24.222  17.430  1.00  0.00    -0.550 OA
ENDBRANCH   7   8
ENDBRANCH   6   7
ENDBRANCH   5   6
ENDBRANCH   4   5
ENDBRANCH   3   4
ENDBRANCH   2   3
ENDBRANCH   1   2
BRANCH   1  11
ATOM     11  C   UNL     1     -18.462  22.908  19.984  1.00  0.00    -0.031 C 
ATOM     12  C   UNL     1     -18.229  21.630  20.312  1.00  0.00    -0.027 C 
BRANCH  12  13
ATOM     13  C   UNL     1     -19.125  20.913  21.285  1.00  0.00     0.054 C 
BRANCH  13  14
ATOM     14  C   UNL     1     -19.059  19.425  21.093  1.00  0.00    -0.027 C 
ATOM     15  C   UNL     1     -18.426  18.884  20.041  1.00  0.00    -0.031 C 
BRANCH  15  16
ATOM     16  C   UNL     1     -18.392  17.396  19.818  1.00  0.00     0.027 C 
BRANCH  16  17
ATOM     17  C   UNL     1     -19.118  17.002  18.524  1.00  0.00     0.004 C 
BRANCH  17  18
ATOM     18  C   UNL     1     -18.643  17.830  17.317  1.00  0.00     0.000 C 
BRANCH  18  19
ATOM     19  C   UNL     1     -19.120  17.247  15.978  1.00  0.00    -0.003 C 
ATOM     20  C   UNL     1     -17.971  16.965  15.011  1.00  0.00     0.004 C 
ENDBRANCH  18  19
ENDBRANCH  17  18
ENDBRANCH  16  17
ENDBRANCH  15  16
ENDBRANCH  13  14
ENDBRANCH  12  13
ENDBRANCH   1  11
TORSDOF 14
ENDMDL
MODEL 2
REMARK VINA RESULT:    17.497      1.566      2.189
REMARK INTER + INTRA:          31.560
REMARK INTER:                  32.324
REMARK INTRA:                  -0.764
REMARK UNBOUND:                -0.257
REMARK SMILES CCCCCC=CCC=CCCCCCCCC(=O)[O-]
REMARK SMILES IDX 11 1 12 2 13 3 14 4 15 5 16 6 17 7 18 8 19 9 20 10 10 11
REMARK SMILES IDX 9 12 8 13 7 14 6 15 5 16 4 17 3 18 2 19 1 20
REMARK H PARENT
REMARK Flexibility Score: inf
ROOT
ATOM      1  C   UNL     1     -18.439  24.295  17.308  1.00  0.00     0.027 C 
ENDROOT
BRANCH   1   2
ATOM      2  C   UNL     1     -19.027  25.715  17.252  1.00  0.00     0.004 C 
BRANCH   2   3
ATOM      3  C   UNL     1     -18.152  26.732  16.494  1.00  0.00     0.000 C 
BRANCH   3   4
ATOM      4  C   UNL     1     -16.696  26.261  16.287  1.00  0.00     0.000 C 
BRANCH   4   5
ATOM      5  C   UNL     1     -15.804  26.584  17.495  1.00  0.00     0.000 C 
BRANCH   5   6
ATOM      6  C   UNL     1     -14.317  26.456  17.132  1.00  0.00     0.006 C 
BRANCH   6   7
ATOM      7  C   UNL     1     -13.735  25.096  17.542  1.00  0.00     0.053 C 
BRANCH   7   8
ATOM      8  C   UNL     1     -13.585  24.179  16.366  1.00  0.00     0.041 C 
ATOM      9  O   UNL     1     -14.310  23.154  16.265  1.00  0.00    -0.550 OA
ATOM     10  O   UNL     1     -12.663  24.470  15.370  1.00  0.00    -0.550 OA
ENDBRANCH   7   8
ENDBRANCH   6   7
ENDBRANCH   5   6
ENDBRANCH   4   5
ENDBRANCH   3   4
ENDBRANCH   2   3
ENDBRANCH   1   2
BRANCH   1  11
ATOM     11  C   UNL     1     -19.107  23.431  18.345  1.00  0.00    -0.031 C 
ATOM     12  C   UNL     1     -18.403  22.801  19.295  1.00  0.00    -0.027 C 
BRANCH  12  13
ATOM     13  C   UNL     1     -19.096  21.949  20.323  1.00  0.00     0.054 C 
BRANCH  13  14
ATOM     14  C   UNL     1     -18.522  20.561  20.358  1.00  0.00    -0.027 C 
ATOM     15  C   UNL     1     -19.103  19.582  21.066  1.00  0.00    -0.031 C 
BRANCH  15  16
ATOM     16  C   UNL     1     -18.510  18.200  21.141  1.00  0.00     0.027 C 
BRANCH  16  17
ATOM     17  C   UNL     1     -19.117  17.267  20.085  1.00  0.00     0.004 C 
BRANCH  17  18
ATOM     18  C   UNL     1     -18.230  17.150  18.834  1.00  0.00     0.000 C 
BRANCH  18  19
ATOM     19  C   UNL     1     -18.864  16.276  17.741  1.00  0.00    -0.003 C 
ATOM     20  C   UNL     1     -19.015  14.815  18.163  1.00  0.00     0.004 C 
ENDBRANCH  18  19
ENDBRANCH  17  18
ENDBRANCH  16  17
ENDBRANCH  15  16
ENDBRANCH  13  14
ENDBRANCH  12  13
ENDBRANCH   1  11
TORSDOF 14
ENDMDL
MODEL 3
REMARK VINA RESULT:    18.169      1.672      2.459
REMARK INTER + INTRA:          32.783
REMARK INTER:                  31.686
REMARK INTRA:                   1.097
REMARK UNBOUND:                -0.257
REMARK SMILES CCCCCC=CCC=CCCCCCCCC(=O)[O-]
REMARK SMILES IDX 11 1 12 2 13 3 14 4 15 5 16 6 17 7 18 8 19 9 20 10 10 11
REMARK SMILES IDX 9 12 8 13 7 14 6 15 5 16 4 17 3 18 2 19 1 20
REMARK H PARENT
REMARK Flexibility Score: inf
ROOT
ATOM      1  C   UNL     1     -18.104  23.221  18.182  1.00  0.00     0.027 C 
ENDROOT
BRANCH   1   2
ATOM      2  C   UNL     1     -19.079  23.880  17.193  1.00  0.00     0.004 C 
BRANCH   2   3
ATOM      3  C   UNL     1     -19.119  25.418  17.274  1.00  0.00     0.000 C 
BRANCH   3   4
ATOM      4  C   UNL     1     -19.064  26.112  15.895  1.00  0.00     0.000 C 
BRANCH   4   5
ATOM      5  C   UNL     1     -17.645  26.124  15.308  1.00  0.00     0.000 C 
BRANCH   5   6
ATOM      6  C   UNL     1     -16.612  25.672  16.351  1.00  0.00     0.006 C 
BRANCH   6   7
ATOM      7  C   UNL     1     -15.172  25.956  15.903  1.00  0.00     0.053 C 
BRANCH   7   8
ATOM      8  C   UNL     1     -14.185  25.088  16.624  1.00  0.00     0.041 C 
ATOM      9  O   UNL     1     -13.959  25.268  17.849  1.00  0.00    -0.550 OA
ATOM     10  O   UNL     1     -13.534  24.066  15.947  1.00  0.00    -0.550 OA
ENDBRANCH   7   8
ENDBRANCH   6   7
ENDBRANCH   5   6
ENDBRANCH   4   5
ENDBRANCH   3   4
ENDBRANCH   2   3
ENDBRANCH   1   2
BRANCH   1  11
ATOM     11  C   UNL     1     -18.732  22.954  19.525  1.00  0.00    -0.031 C 
ATOM     12  C   UNL     1     -18.488  21.824  20.203  1.00  0.00    -0.027 C 
BRANCH  12  13
ATOM     13  C   UNL     1     -19.124  21.584  21.545  1.00  0.00     0.054 C 
BRANCH  13  14
ATOM     14  C   UNL     1     -18.220  20.789  22.443  1.00  0.00    -0.027 C 
ATOM     15  C   UNL     1     -17.612  19.673  22.011  1.00  0.00    -0.031 C 
BRANCH  15  16
ATOM     16  C   UNL     1     -16.739  18.847  22.917  1.00  0.00     0.027 C 
BRANCH  16  17
ATOM     17  C   UNL     1     -16.315  17.532  22.249  1.00  0.00     0.004 C 
BRANCH  17  18
ATOM     18  C   UNL     1     -16.892  17.390  20.830  1.00  0.00     0.000 C 
BRANCH  18  19
ATOM     19  C   UNL     1     -18.364  17.822  20.747  1.00  0.00    -0.003 C 
ATOM     20  C   UNL     1     -19.003  17.494  19.397  1.00  0.00     0.004 C 
ENDBRANCH  18  19
ENDBRANCH  17  18
ENDBRANCH  16  17
ENDBRANCH  15  16
ENDBRANCH  13  14
ENDBRANCH  12  13
ENDBRANCH   1  11
TORSDOF 14
ENDMDL
