MODEL 1
REMARK VINA RESULT:    -3.550      0.000      0.000
REMARK INTER + INTRA:          -4.493
REMARK INTER:                  -4.276
REMARK INTRA:                  -0.217
REMARK UNBOUND:                -0.217
REMARK SMILES OCC(O)CO
REMARK SMILES IDX 3 1 5 2 6 3 2 5 1 6 4 8
REMARK H PARENT 6 4 1 7 4 9
REMARK Flexibility Score: inf
ROOT
ATOM      1  C   UNL     1      10.604   4.651  29.210  1.00  0.00     0.165 C 
ENDROOT
BRANCH   1   2
ATOM      2  C   UNL     1      11.751   4.533  30.219  1.00  0.00     0.190 C 
BRANCH   2   3
ATOM      3  O   UNL     1      12.969   4.794  29.581  1.00  0.00    -0.394 OA
ATOM      4  H   UNL     1      12.788   4.737  28.607  1.00  0.00     0.210 HD
ENDBRANCH   2   3
ENDBRANCH   1   2
BRANCH   1   5
ATOM      5  C   UNL     1      11.070   5.338  27.914  1.00  0.00     0.190 C 
BRANCH   5   6
ATOM      6  O   UNL     1      11.495   4.395  26.966  1.00  0.00    -0.394 OA
ATOM      7  H   UNL     1      12.106   4.871  26.344  1.00  0.00     0.210 HD
ENDBRANCH   5   6
ENDBRANCH   1   5
BRANCH   1   8
ATOM      8  O   UNL     1      10.097   3.372  28.927  1.00  0.00    -0.388 OA
ATOM      9  H   UNL     1       9.433   3.165  29.634  1.00  0.00     0.211 HD
ENDBRANCH   1   8
TORSDOF 5
ENDMDL
MODEL 2
REMARK VINA RESULT:    -3.483      1.501      2.901
REMARK INTER + INTRA:          -4.412
REMARK INTER:                  -4.193
REMARK INTRA:                  -0.219
REMARK UNBOUND:                -0.217
REMARK SMILES OCC(O)CO
REMARK SMILES IDX 3 1 5 2 6 3 2 5 1 6 4 8
REMARK H PARENT 6 4 1 7 4 9
REMARK Flexibility Score: inf
ROOT
ATOM      1  C   UNL     1      10.552   4.941  30.785  1.00  0.00     0.165 C 
ENDROOT
BRANCH   1   2
ATOM      2  C   UNL     1       9.997   4.729  29.373  1.00  0.00     0.190 C 
BRANCH   2   3
ATOM      3  O   UNL     1      10.142   3.385  29.007  1.00  0.00    -0.394 OA
ATOM      4  H   UNL     1       9.310   3.140  28.525  1.00  0.00     0.210 HD
ENDBRANCH   2   3
ENDBRANCH   1   2
BRANCH   1   5
ATOM      5  C   UNL     1      11.983   4.389  30.912  1.00  0.00     0.190 C 
BRANCH   5   6
ATOM      6  O   UNL     1      12.746   4.694  29.775  1.00  0.00    -0.394 OA
ATOM      7  H   UNL     1      12.599   5.657  29.582  1.00  0.00     0.210 HD
ENDBRANCH   5   6
ENDBRANCH   1   5
BRANCH   1   8
ATOM      8  O   UNL     1      10.531   6.311  31.095  1.00  0.00    -0.388 OA
ATOM      9  H   UNL     1      11.454   6.558  31.363  1.00  0.00     0.211 HD
ENDBRANCH   1   8
TORSDOF 5
ENDMDL
MODEL 3
REMARK VINA RESULT:    -3.482     14.523     15.455
REMARK INTER + INTRA:          -4.411
REMARK INTER:                  -4.224
REMARK INTRA:                  -0.187
REMARK UNBOUND:                -0.217
REMARK SMILES OCC(O)CO
REMARK SMILES IDX 3 1 5 2 6 3 2 5 1 6 4 8
REMARK H PARENT 6 4 1 7 4 9
REMARK Flexibility Score: inf
ROOT
ATOM      1  C   UNL     1       5.444   6.411  15.392  1.00  0.00     0.165 C 
ENDROOT
BRANCH   1   2
ATOM      2  C   UNL     1       5.169   6.782  13.931  1.00  0.00     0.190 C 
BRANCH   2   3
ATOM      3  O   UNL     1       4.120   5.997  13.435  1.00  0.00    -0.394 OA
ATOM      4  H   UNL     1       4.459   5.578  12.602  1.00  0.00     0.210 HD
ENDBRANCH   2   3
ENDBRANCH   1   2
BRANCH   1   5
ATOM      5  C   UNL     1       4.134   6.189  16.168  1.00  0.00     0.190 C 
BRANCH   5   6
ATOM      6  O   UNL     1       3.871   4.821  16.339  1.00  0.00    -0.394 OA
ATOM      7  H   UNL     1       2.887   4.709  16.272  1.00  0.00     0.210 HD
ENDBRANCH   5   6
ENDBRANCH   1   5
BRANCH   1   8
ATOM      8  O   UNL     1       6.238   5.253  15.438  1.00  0.00    -0.388 OA
ATOM      9  H   UNL     1       6.078   4.832  16.322  1.00  0.00     0.211 HD
ENDBRANCH   1   8
TORSDOF 5
ENDMDL
MODEL 4
REMARK VINA RESULT:    -3.473     14.520     15.093
REMARK INTER + INTRA:          -4.400
REMARK INTER:                  -4.181
REMARK INTRA:                  -0.219
REMARK UNBOUND:                -0.217
REMARK SMILES OCC(O)CO
REMARK SMILES IDX 3 1 5 2 6 3 2 5 1 6 4 8
REMARK H PARENT 6 4 1 7 4 9
REMARK Flexibility Score: inf
ROOT
ATOM      1  C   UNL     1       4.565   6.659  15.142  1.00  0.00     0.165 C 
ENDROOT
BRANCH   1   2
ATOM      2  C   UNL     1       3.796   6.166  16.373  1.00  0.00     0.190 C 
BRANCH   2   3
ATOM      3  O   UNL     1       3.816   4.767  16.412  1.00  0.00    -0.394 OA
ATOM      4  H   UNL     1       4.690   4.492  16.031  1.00  0.00     0.210 HD
ENDBRANCH   2   3
ENDBRANCH   1   2
BRANCH   1   5
ATOM      5  C   UNL     1       6.080   6.448  15.309  1.00  0.00     0.190 C 
BRANCH   5   6
ATOM      6  O   UNL     1       6.409   5.085  15.273  1.00  0.00    -0.394 OA
ATOM      7  H   UNL     1       6.980   4.951  14.471  1.00  0.00     0.210 HD
ENDBRANCH   5   6
ENDBRANCH   1   5
BRANCH   1   8
ATOM      8  O   UNL     1       4.103   5.982  14.002  1.00  0.00    -0.388 OA
ATOM      9  H   UNL     1       4.905   5.640  13.527  1.00  0.00     0.211 HD
ENDBRANCH   1   8
TORSDOF 5
ENDMDL
MODEL 5
REMARK VINA RESULT:    -3.462      1.843      3.147
REMARK INTER + INTRA:          -4.387
REMARK INTER:                  -4.191
REMARK INTRA:                  -0.196
REMARK UNBOUND:                -0.217
REMARK SMILES OCC(O)CO
REMARK SMILES IDX 3 1 5 2 6 3 2 5 1 6 4 8
REMARK H PARENT 6 4 1 7 4 9
REMARK Flexibility Score: inf
ROOT
ATOM      1  C   UNL     1      12.852   5.609  27.417  1.00  0.00     0.165 C 
ENDROOT
BRANCH   1   2
ATOM      2  C   UNL     1      13.437   5.283  26.039  1.00  0.00     0.190 C 
BRANCH   2   3
ATOM      3  O   UNL     1      13.495   3.895  25.869  1.00  0.00    -0.394 OA
ATOM      4  H   UNL     1      14.053   3.548  26.612  1.00  0.00     0.210 HD
ENDBRANCH   2   3
ENDBRANCH   1   2
BRANCH   1   5
ATOM      5  C   UNL     1      11.332   5.371  27.449  1.00  0.00     0.190 C 
BRANCH   5   6
ATOM      6  O   UNL     1      11.014   4.070  27.030  1.00  0.00    -0.394 OA
ATOM      7  H   UNL     1      11.744   3.480  27.352  1.00  0.00     0.210 HD
ENDBRANCH   5   6
ENDBRANCH   1   5
BRANCH   1   8
ATOM      8  O   UNL     1      13.487   4.824  28.392  1.00  0.00    -0.388 OA
ATOM      9  H   UNL     1      13.233   5.201  29.274  1.00  0.00     0.211 HD
ENDBRANCH   1   8
TORSDOF 5
ENDMDL
MODEL 6
REMARK VINA RESULT:    -3.451      1.160      2.888
REMARK INTER + INTRA:          -4.373
REMARK INTER:                  -4.361
REMARK INTRA:                  -0.012
REMARK UNBOUND:                -0.217
REMARK SMILES OCC(O)CO
REMARK SMILES IDX 3 1 5 2 6 3 2 5 1 6 4 8
REMARK H PARENT 6 4 1 7 4 9
REMARK Flexibility Score: inf
ROOT
ATOM      1  C   UNL     1      10.823   4.930  27.747  1.00  0.00     0.165 C 
ENDROOT
BRANCH   1   2
ATOM      2  C   UNL     1       9.598   4.037  27.529  1.00  0.00     0.190 C 
BRANCH   2   3
ATOM      3  O   UNL     1      10.009   2.712  27.333  1.00  0.00    -0.394 OA
ATOM      4  H   UNL     1      10.960   2.674  27.615  1.00  0.00     0.210 HD
ENDBRANCH   2   3
ENDBRANCH   1   2
BRANCH   1   5
ATOM      5  C   UNL     1      11.278   4.905  29.217  1.00  0.00     0.190 C 
BRANCH   5   6
ATOM      6  O   UNL     1      12.675   4.827  29.314  1.00  0.00    -0.394 OA
ATOM      7  H   UNL     1      13.044   5.434  28.622  1.00  0.00     0.210 HD
ENDBRANCH   5   6
ENDBRANCH   1   5
BRANCH   1   8
ATOM      8  O   UNL     1      11.867   4.505  26.909  1.00  0.00    -0.388 OA
ATOM      9  H   UNL     1      12.657   4.354  27.490  1.00  0.00     0.211 HD
ENDBRANCH   1   8
TORSDOF 5
ENDMDL
MODEL 7
REMARK VINA RESULT:    -3.400      2.386      2.906
REMARK INTER + INTRA:          -4.312
REMARK INTER:                  -4.304
REMARK INTRA:                  -0.008
REMARK UNBOUND:                -0.217
REMARK SMILES OCC(O)CO
REMARK SMILES IDX 3 1 5 2 6 3 2 5 1 6 4 8
REMARK H PARENT 6 4 1 7 4 9
REMARK Flexibility Score: inf
ROOT
ATOM      1  C   UNL     1      12.675   5.732  26.861  1.00  0.00     0.165 C 
ENDROOT
BRANCH   1   2
ATOM      2  C   UNL     1      13.738   5.648  27.961  1.00  0.00     0.190 C 
BRANCH   2   3
ATOM      3  O   UNL     1      13.222   4.956  29.064  1.00  0.00    -0.394 OA
ATOM      4  H   UNL     1      12.954   4.061  28.727  1.00  0.00     0.210 HD
ENDBRANCH   2   3
ENDBRANCH   1   2
BRANCH   1   5
ATOM      5  C   UNL     1      13.321   5.829  25.468  1.00  0.00     0.190 C 
BRANCH   5   6
ATOM      6  O   UNL     1      13.864   4.597  25.074  1.00  0.00    -0.394 OA
ATOM      7  H   UNL     1      13.644   3.946  25.790  1.00  0.00     0.210 HD
ENDBRANCH   5   6
ENDBRANCH   1   5
BRANCH   1   8
ATOM      8  O   UNL     1      11.840   4.605  26.932  1.00  0.00    -0.388 OA
ATOM      9  H   UNL     1      11.636   4.459  27.892  1.00  0.00     0.211 HD
ENDBRANCH   1   8
TORSDOF 5
ENDMDL
MODEL 8
REMARK VINA RESULT:    -3.364     14.861     16.333
REMARK INTER + INTRA:          -4.269
REMARK INTER:                  -4.046
REMARK INTRA:                  -0.223
REMARK UNBOUND:                -0.217
REMARK SMILES OCC(O)CO
REMARK SMILES IDX 3 1 5 2 6 3 2 5 1 6 4 8
REMARK H PARENT 6 4 1 7 4 9
REMARK Flexibility Score: inf
ROOT
ATOM      1  C   UNL     1       6.983   5.837  13.126  1.00  0.00     0.165 C 
ENDROOT
BRANCH   1   2
ATOM      2  C   UNL     1       5.761   5.986  12.215  1.00  0.00     0.190 C 
BRANCH   2   3
ATOM      3  O   UNL     1       4.592   5.938  12.984  1.00  0.00    -0.394 OA
ATOM      4  H   UNL     1       4.596   6.757  13.545  1.00  0.00     0.210 HD
ENDBRANCH   2   3
ENDBRANCH   1   2
BRANCH   1   5
ATOM      5  C   UNL     1       6.695   6.373  14.540  1.00  0.00     0.190 C 
BRANCH   5   6
ATOM      6  O   UNL     1       6.229   5.354  15.383  1.00  0.00    -0.394 OA
ATOM      7  H   UNL     1       6.963   4.690  15.462  1.00  0.00     0.210 HD
ENDBRANCH   5   6
ENDBRANCH   1   5
BRANCH   1   8
ATOM      8  O   UNL     1       7.358   4.485  13.187  1.00  0.00    -0.388 OA
ATOM      9  H   UNL     1       7.920   4.307  12.388  1.00  0.00     0.211 HD
ENDBRANCH   1   8
TORSDOF 5
ENDMDL
MODEL 9
REMARK VINA RESULT:    -3.309      1.575      2.406
REMARK INTER + INTRA:          -4.203
REMARK INTER:                  -4.169
REMARK INTRA:                  -0.034
REMARK UNBOUND:                -0.217
REMARK SMILES OCC(O)CO
REMARK SMILES IDX 3 1 5 2 6 3 2 5 1 6 4 8
REMARK H PARENT 6 4 1 7 4 9
REMARK Flexibility Score: inf
ROOT
ATOM      1  C   UNL     1      10.663   4.648  29.473  1.00  0.00     0.165 C 
ENDROOT
BRANCH   1   2
ATOM      2  C   UNL     1       9.628   5.544  30.159  1.00  0.00     0.190 C 
BRANCH   2   3
ATOM      3  O   UNL     1      10.281   6.506  30.939  1.00  0.00    -0.394 OA
ATOM      4  H   UNL     1      10.267   7.346  30.411  1.00  0.00     0.210 HD
ENDBRANCH   2   3
ENDBRANCH   1   2
BRANCH   1   5
ATOM      5  C   UNL     1      11.928   4.493  30.337  1.00  0.00     0.190 C 
BRANCH   5   6
ATOM      6  O   UNL     1      13.080   4.837  29.614  1.00  0.00    -0.394 OA
ATOM      7  H   UNL     1      12.774   5.168  28.730  1.00  0.00     0.210 HD
ENDBRANCH   5   6
ENDBRANCH   1   5
BRANCH   1   8
ATOM      8  O   UNL     1      10.095   3.390  29.215  1.00  0.00    -0.388 OA
ATOM      9  H   UNL     1       9.321   3.294  29.830  1.00  0.00     0.211 HD
ENDBRANCH   1   8
TORSDOF 5
ENDMDL
