MODEL 1
REMARK VINA RESULT:    -3.422      0.000      0.000
REMARK INTER + INTRA:         -13.839
REMARK INTER:                  -9.024
REMARK INTRA:                  -4.814
REMARK UNBOUND:                -4.814
REMARK SMILES CCCCCCCCCCCCCCCCCCCCCCCCCCCCCC(=O)[O-]
REMARK SMILES IDX 16 1 17 2 18 3 19 4 20 5 21 6 22 7 23 8 24 9 25 10 26 11
REMARK SMILES IDX 27 12 28 13 29 14 30 15 31 16 32 17 15 18 14 19 13 20 12 21
REMARK SMILES IDX 11 22 10 23 9 24 8 25 7 26 6 27 5 28 4 29 3 30 2 31 1 32
REMARK H PARENT
REMARK Flexibility Score: inf
ROOT
ATOM      1  C   UNL     1      63.068  28.870  56.314  1.00  0.00     0.000 C 
ENDROOT
BRANCH   1   2
ATOM      2  C   UNL     1      62.675  27.729  57.270  1.00  0.00     0.000 C 
BRANCH   2   3
ATOM      3  C   UNL     1      63.886  27.116  57.992  1.00  0.00     0.000 C 
BRANCH   3   4
ATOM      4  C   UNL     1      65.161  27.266  57.147  1.00  0.00     0.000 C 
BRANCH   4   5
ATOM      5  C   UNL     1      66.433  27.467  57.995  1.00  0.00     0.000 C 
BRANCH   5   6
ATOM      6  C   UNL     1      66.334  27.011  59.463  1.00  0.00     0.000 C 
BRANCH   6   7
ATOM      7  C   UNL     1      67.676  27.077  60.211  1.00  0.00     0.000 C 
BRANCH   7   8
ATOM      8  C   UNL     1      67.791  28.306  61.128  1.00  0.00     0.000 C 
BRANCH   8   9
ATOM      9  C   UNL     1      69.223  28.867  61.255  1.00  0.00     0.000 C 
BRANCH   9  10
ATOM     10  C   UNL     1      69.976  28.879  59.912  1.00  0.00     0.000 C 
BRANCH  10  11
ATOM     11  C   UNL     1      71.504  28.943  60.078  1.00  0.00     0.000 C 
BRANCH  11  12
ATOM     12  C   UNL     1      71.974  29.826  61.253  1.00  0.00     0.000 C 
BRANCH  12  13
ATOM     13  C   UNL     1      72.730  31.076  60.775  1.00  0.00     0.006 C 
BRANCH  13  14
ATOM     14  C   UNL     1      72.320  31.458  59.349  1.00  0.00     0.053 C 
BRANCH  14  15
ATOM     15  C   UNL     1      71.677  32.813  59.302  1.00  0.00     0.041 C 
ATOM     16  O   UNL     1      71.638  33.524  60.340  1.00  0.00    -0.550 OA
ATOM     17  O   UNL     1      71.180  33.322  58.107  1.00  0.00    -0.550 OA
ENDBRANCH  14  15
ENDBRANCH  13  14
ENDBRANCH  12  13
ENDBRANCH  11  12
ENDBRANCH  10  11
ENDBRANCH   9  10
ENDBRANCH   8   9
ENDBRANCH   7   8
ENDBRANCH   6   7
ENDBRANCH   5   6
ENDBRANCH   4   5
ENDBRANCH   3   4
ENDBRANCH   2   3
ENDBRANCH   1   2
BRANCH   1  18
ATOM     18  C   UNL     1      63.003  30.278  56.935  1.00  0.00     0.000 C 
BRANCH  18  19
ATOM     19  C   UNL     1      64.375  30.967  56.994  1.00  0.00     0.000 C 
BRANCH  19  20
ATOM     20  C   UNL     1      64.621  31.586  58.376  1.00  0.00     0.000 C 
BRANCH  20  21
ATOM     21  C   UNL     1      65.222  30.554  59.344  1.00  0.00     0.000 C 
BRANCH  21  22
ATOM     22  C   UNL     1      64.525  30.552  60.715  1.00  0.00     0.000 C 
BRANCH  22  23
ATOM     23  C   UNL     1      63.812  29.223  61.014  1.00  0.00     0.000 C 
BRANCH  23  24
ATOM     24  C   UNL     1      62.319  29.250  60.642  1.00  0.00    -0.000 C 
BRANCH  24  25
ATOM     25  C   UNL     1      61.541  30.482  61.147  1.00  0.00    -0.000 C 
BRANCH  25  26
ATOM     26  C   UNL     1      61.136  31.498  60.060  1.00  0.00    -0.000 C 
BRANCH  26  27
ATOM     27  C   UNL     1      61.738  32.907  60.226  1.00  0.00    -0.000 C 
BRANCH  27  28
ATOM     28  C   UNL     1      61.702  33.770  58.951  1.00  0.00    -0.000 C 
BRANCH  28  29
ATOM     29  C   UNL     1      62.398  35.141  59.119  1.00  0.00    -0.000 C 
BRANCH  29  30
ATOM     30  C   UNL     1      62.654  35.524  60.588  1.00  0.00    -0.000 C 
BRANCH  30  31
ATOM     31  C   UNL     1      64.142  35.528  60.988  1.00  0.00    -0.003 C 
ATOM     32  C   UNL     1      65.052  34.950  59.903  1.00  0.00     0.004 C 
ENDBRANCH  30  31
ENDBRANCH  29  30
ENDBRANCH  28  29
ENDBRANCH  27  28
ENDBRANCH  26  27
ENDBRANCH  25  26
ENDBRANCH  24  25
ENDBRANCH  23  24
ENDBRANCH  22  23
ENDBRANCH  21  22
ENDBRANCH  20  21
ENDBRANCH  19  20
ENDBRANCH  18  19
ENDBRANCH   1  18
TORSDOF 28
ENDMDL
MODEL 2
REMARK VINA RESULT:    -3.401      5.079      8.381
REMARK INTER + INTRA:         -13.784
REMARK INTER:                  -8.040
REMARK INTRA:                  -5.744
REMARK UNBOUND:                -4.814
REMARK SMILES CCCCCCCCCCCCCCCCCCCCCCCCCCCCCC(=O)[O-]
REMARK SMILES IDX 16 1 17 2 18 3 19 4 20 5 21 6 22 7 23 8 24 9 25 10 26 11
REMARK SMILES IDX 27 12 28 13 29 14 30 15 31 16 32 17 15 18 14 19 13 20 12 21
REMARK SMILES IDX 11 22 10 23 9 24 8 25 7 26 6 27 5 28 4 29 3 30 2 31 1 32
REMARK H PARENT
REMARK Flexibility Score: inf
ROOT
ATOM      1  C   UNL     1      59.272  28.418  59.421  1.00  0.00     0.000 C 
ENDROOT
BRANCH   1   2
ATOM      2  C   UNL     1      60.214  28.292  58.210  1.00  0.00     0.000 C 
BRANCH   2   3
ATOM      3  C   UNL     1      60.677  29.657  57.674  1.00  0.00     0.000 C 
BRANCH   3   4
ATOM      4  C   UNL     1      62.200  29.681  57.479  1.00  0.00     0.000 C 
BRANCH   4   5
ATOM      5  C   UNL     1      62.889  28.366  57.896  1.00  0.00     0.000 C 
BRANCH   5   6
ATOM      6  C   UNL     1      63.807  28.457  59.131  1.00  0.00     0.000 C 
BRANCH   6   7
ATOM      7  C   UNL     1      63.403  27.494  60.259  1.00  0.00     0.000 C 
BRANCH   7   8
ATOM      8  C   UNL     1      62.569  28.174  61.358  1.00  0.00     0.000 C 
BRANCH   8   9
ATOM      9  C   UNL     1      62.668  29.714  61.364  1.00  0.00     0.000 C 
BRANCH   9  10
ATOM     10  C   UNL     1      61.296  30.397  61.509  1.00  0.00     0.000 C 
BRANCH  10  11
ATOM     11  C   UNL     1      61.185  31.703  60.706  1.00  0.00     0.000 C 
BRANCH  11  12
ATOM     12  C   UNL     1      62.530  32.217  60.150  1.00  0.00     0.000 C 
BRANCH  12  13
ATOM     13  C   UNL     1      62.373  33.535  59.374  1.00  0.00     0.006 C 
BRANCH  13  14
ATOM     14  C   UNL     1      63.675  34.345  59.391  1.00  0.00     0.053 C 
BRANCH  14  15
ATOM     15  C   UNL     1      63.905  34.995  60.723  1.00  0.00     0.041 C 
ATOM     16  O   UNL     1      64.813  34.566  61.482  1.00  0.00    -0.550 OA
ATOM     17  O   UNL     1      63.168  36.112  61.104  1.00  0.00    -0.550 OA
ENDBRANCH  14  15
ENDBRANCH  13  14
ENDBRANCH  12  13
ENDBRANCH  11  12
ENDBRANCH  10  11
ENDBRANCH   9  10
ENDBRANCH   8   9
ENDBRANCH   7   8
ENDBRANCH   6   7
ENDBRANCH   5   6
ENDBRANCH   4   5
ENDBRANCH   3   4
ENDBRANCH   2   3
ENDBRANCH   1   2
BRANCH   1  18
ATOM     18  C   UNL     1      59.171  27.150  60.290  1.00  0.00     0.000 C 
BRANCH  18  19
ATOM     19  C   UNL     1      59.928  25.956  59.690  1.00  0.00     0.000 C 
BRANCH  19  20
ATOM     20  C   UNL     1      60.443  25.021  60.793  1.00  0.00     0.000 C 
BRANCH  20  21
ATOM     21  C   UNL     1      60.029  25.529  62.184  1.00  0.00     0.000 C 
BRANCH  21  22
ATOM     22  C   UNL     1      61.113  25.293  63.248  1.00  0.00     0.000 C 
BRANCH  22  23
ATOM     23  C   UNL     1      61.780  23.913  63.117  1.00  0.00     0.000 C 
BRANCH  23  24
ATOM     24  C   UNL     1      61.216  22.881  64.109  1.00  0.00    -0.000 C 
BRANCH  24  25
ATOM     25  C   UNL     1      60.069  22.007  63.564  1.00  0.00    -0.000 C 
BRANCH  25  26
ATOM     26  C   UNL     1      58.648  22.553  63.810  1.00  0.00    -0.000 C 
BRANCH  26  27
ATOM     27  C   UNL     1      57.698  22.472  62.599  1.00  0.00    -0.000 C 
BRANCH  27  28
ATOM     28  C   UNL     1      56.764  23.686  62.441  1.00  0.00    -0.000 C 
BRANCH  28  29
ATOM     29  C   UNL     1      56.764  24.278  61.011  1.00  0.00    -0.000 C 
BRANCH  29  30
ATOM     30  C   UNL     1      55.901  25.546  60.872  1.00  0.00    -0.000 C 
BRANCH  30  31
ATOM     31  C   UNL     1      55.937  26.471  62.103  1.00  0.00    -0.003 C 
ATOM     32  C   UNL     1      55.808  27.951  61.741  1.00  0.00     0.004 C 
ENDBRANCH  30  31
ENDBRANCH  29  30
ENDBRANCH  28  29
ENDBRANCH  27  28
ENDBRANCH  26  27
ENDBRANCH  25  26
ENDBRANCH  24  25
ENDBRANCH  23  24
ENDBRANCH  22  23
ENDBRANCH  21  22
ENDBRANCH  20  21
ENDBRANCH  19  20
ENDBRANCH  18  19
ENDBRANCH   1  18
TORSDOF 28
ENDMDL
MODEL 3
REMARK VINA RESULT:    -3.349     10.049     12.780
REMARK INTER + INTRA:         -13.645
REMARK INTER:                  -9.128
REMARK INTRA:                  -4.517
REMARK UNBOUND:                -4.814
REMARK SMILES CCCCCCCCCCCCCCCCCCCCCCCCCCCCCC(=O)[O-]
REMARK SMILES IDX 16 1 17 2 18 3 19 4 20 5 21 6 22 7 23 8 24 9 25 10 26 11
REMARK SMILES IDX 27 12 28 13 29 14 30 15 31 16 32 17 15 18 14 19 13 20 12 21
REMARK SMILES IDX 11 22 10 23 9 24 8 25 7 26 6 27 5 28 4 29 3 30 2 31 1 32
REMARK H PARENT
REMARK Flexibility Score: inf
ROOT
ATOM      1  C   UNL     1      56.923  30.360  52.812  1.00  0.00     0.000 C 
ENDROOT
BRANCH   1   2
ATOM      2  C   UNL     1      58.177  29.489  52.618  1.00  0.00     0.000 C 
BRANCH   2   3
ATOM      3  C   UNL     1      59.016  29.918  51.404  1.00  0.00     0.000 C 
BRANCH   3   4
ATOM      4  C   UNL     1      58.489  29.266  50.117  1.00  0.00     0.000 C 
BRANCH   4   5
ATOM      5  C   UNL     1      59.543  29.196  48.993  1.00  0.00     0.000 C 
BRANCH   5   6
ATOM      6  C   UNL     1      60.393  27.911  48.958  1.00  0.00     0.000 C 
BRANCH   6   7
ATOM      7  C   UNL     1      61.869  28.151  49.316  1.00  0.00     0.000 C 
BRANCH   7   8
ATOM      8  C   UNL     1      62.359  27.259  50.469  1.00  0.00     0.000 C 
BRANCH   8   9
ATOM      9  C   UNL     1      63.485  26.281  50.076  1.00  0.00     0.000 C 
BRANCH   9  10
ATOM     10  C   UNL     1      64.616  26.964  49.286  1.00  0.00     0.000 C 
BRANCH  10  11
ATOM     11  C   UNL     1      65.475  27.900  50.150  1.00  0.00     0.000 C 
BRANCH  11  12
ATOM     12  C   UNL     1      65.793  29.257  49.485  1.00  0.00     0.000 C 
BRANCH  12  13
ATOM     13  C   UNL     1      64.952  30.403  50.071  1.00  0.00     0.006 C 
BRANCH  13  14
ATOM     14  C   UNL     1      64.224  31.176  48.964  1.00  0.00     0.053 C 
BRANCH  14  15
ATOM     15  C   UNL     1      63.034  31.916  49.498  1.00  0.00     0.041 C 
ATOM     16  O   UNL     1      62.667  32.990  48.953  1.00  0.00    -0.550 OA
ATOM     17  O   UNL     1      62.288  31.394  50.550  1.00  0.00    -0.550 OA
ENDBRANCH  14  15
ENDBRANCH  13  14
ENDBRANCH  12  13
ENDBRANCH  11  12
ENDBRANCH  10  11
ENDBRANCH   9  10
ENDBRANCH   8   9
ENDBRANCH   7   8
ENDBRANCH   6   7
ENDBRANCH   5   6
ENDBRANCH   4   5
ENDBRANCH   3   4
ENDBRANCH   2   3
ENDBRANCH   1   2
BRANCH   1  18
ATOM     18  C   UNL     1      55.595  29.659  52.471  1.00  0.00     0.000 C 
BRANCH  18  19
ATOM     19  C   UNL     1      54.883  30.287  51.264  1.00  0.00     0.000 C 
BRANCH  19  20
ATOM     20  C   UNL     1      54.699  29.261  50.138  1.00  0.00     0.000 C 
BRANCH  20  21
ATOM     21  C   UNL     1      53.214  28.910  49.949  1.00  0.00     0.000 C 
BRANCH  21  22
ATOM     22  C   UNL     1      52.950  27.397  50.016  1.00  0.00     0.000 C 
BRANCH  22  23
ATOM     23  C   UNL     1      53.126  26.704  48.655  1.00  0.00     0.000 C 
BRANCH  23  24
ATOM     24  C   UNL     1      54.320  25.733  48.629  1.00  0.00    -0.000 C 
BRANCH  24  25
ATOM     25  C   UNL     1      54.967  25.455  50.001  1.00  0.00    -0.000 C 
BRANCH  25  26
ATOM     26  C   UNL     1      56.360  26.081  50.213  1.00  0.00    -0.000 C 
BRANCH  26  27
ATOM     27  C   UNL     1      56.802  26.209  51.684  1.00  0.00    -0.000 C 
BRANCH  27  28
ATOM     28  C   UNL     1      58.300  25.951  51.924  1.00  0.00    -0.000 C 
BRANCH  28  29
ATOM     29  C   UNL     1      59.024  25.351  50.696  1.00  0.00    -0.000 C 
BRANCH  29  30
ATOM     30  C   UNL     1      60.301  24.570  51.056  1.00  0.00    -0.000 C 
BRANCH  30  31
ATOM     31  C   UNL     1      60.770  23.591  49.963  1.00  0.00    -0.003 C 
ATOM     32  C   UNL     1      61.793  22.574  50.472  1.00  0.00     0.004 C 
ENDBRANCH  30  31
ENDBRANCH  29  30
ENDBRANCH  28  29
ENDBRANCH  27  28
ENDBRANCH  26  27
ENDBRANCH  25  26
ENDBRANCH  24  25
ENDBRANCH  23  24
ENDBRANCH  22  23
ENDBRANCH  21  22
ENDBRANCH  20  21
ENDBRANCH  19  20
ENDBRANCH  18  19
ENDBRANCH   1  18
TORSDOF 28
ENDMDL
MODEL 4
REMARK VINA RESULT:    -3.329     11.129     13.413
REMARK INTER + INTRA:         -13.593
REMARK INTER:                  -7.845
REMARK INTRA:                  -5.748
REMARK UNBOUND:                -4.814
REMARK SMILES CCCCCCCCCCCCCCCCCCCCCCCCCCCCCC(=O)[O-]
REMARK SMILES IDX 16 1 17 2 18 3 19 4 20 5 21 6 22 7 23 8 24 9 25 10 26 11
REMARK SMILES IDX 27 12 28 13 29 14 30 15 31 16 32 17 15 18 14 19 13 20 12 21
REMARK SMILES IDX 11 22 10 23 9 24 8 25 7 26 6 27 5 28 4 29 3 30 2 31 1 32
REMARK H PARENT
REMARK Flexibility Score: inf
ROOT
ATOM      1  C   UNL     1      53.999  24.512  51.011  1.00  0.00     0.000 C 
ENDROOT
BRANCH   1   2
ATOM      2  C   UNL     1      53.012  25.194  51.976  1.00  0.00     0.000 C 
BRANCH   2   3
ATOM      3  C   UNL     1      53.701  25.756  53.230  1.00  0.00     0.000 C 
BRANCH   3   4
ATOM      4  C   UNL     1      54.063  27.236  53.039  1.00  0.00     0.000 C 
BRANCH   4   5
ATOM      5  C   UNL     1      55.547  27.543  53.326  1.00  0.00     0.000 C 
BRANCH   5   6
ATOM      6  C   UNL     1      56.552  26.482  52.837  1.00  0.00     0.000 C 
BRANCH   6   7
ATOM      7  C   UNL     1      57.673  27.066  51.961  1.00  0.00     0.000 C 
BRANCH   7   8
ATOM      8  C   UNL     1      58.229  28.393  52.505  1.00  0.00     0.000 C 
BRANCH   8   9
ATOM      9  C   UNL     1      58.100  29.579  51.527  1.00  0.00     0.000 C 
BRANCH   9  10
ATOM     10  C   UNL     1      58.067  29.133  50.054  1.00  0.00     0.000 C 
BRANCH  10  11
ATOM     11  C   UNL     1      59.395  29.378  49.320  1.00  0.00     0.000 C 
BRANCH  11  12
ATOM     12  C   UNL     1      60.173  28.089  48.978  1.00  0.00     0.000 C 
BRANCH  12  13
ATOM     13  C   UNL     1      61.041  27.605  50.151  1.00  0.00     0.006 C 
BRANCH  13  14
ATOM     14  C   UNL     1      61.680  26.246  49.840  1.00  0.00     0.053 C 
BRANCH  14  15
ATOM     15  C   UNL     1      61.001  25.134  50.582  1.00  0.00     0.041 C 
ATOM     16  O   UNL     1      61.575  24.589  51.561  1.00  0.00    -0.550 OA
ATOM     17  O   UNL     1      59.711  24.738  50.241  1.00  0.00    -0.550 OA
ENDBRANCH  14  15
ENDBRANCH  13  14
ENDBRANCH  12  13
ENDBRANCH  11  12
ENDBRANCH  10  11
ENDBRANCH   9  10
ENDBRANCH   8   9
ENDBRANCH   7   8
ENDBRANCH   6   7
ENDBRANCH   5   6
ENDBRANCH   4   5
ENDBRANCH   3   4
ENDBRANCH   2   3
ENDBRANCH   1   2
BRANCH   1  18
ATOM     18  C   UNL     1      53.949  25.038  49.564  1.00  0.00     0.000 C 
BRANCH  18  19
ATOM     19  C   UNL     1      55.176  25.886  49.197  1.00  0.00     0.000 C 
BRANCH  19  20
ATOM     20  C   UNL     1      54.959  27.358  49.572  1.00  0.00     0.000 C 
BRANCH  20  21
ATOM     21  C   UNL     1      53.486  27.761  49.396  1.00  0.00     0.000 C 
BRANCH  21  22
ATOM     22  C   UNL     1      53.225  29.230  49.768  1.00  0.00     0.000 C 
BRANCH  22  23
ATOM     23  C   UNL     1      54.415  29.875  50.499  1.00  0.00     0.000 C 
BRANCH  23  24
ATOM     24  C   UNL     1      53.984  30.717  51.712  1.00  0.00    -0.000 C 
BRANCH  24  25
ATOM     25  C   UNL     1      55.088  31.607  52.318  1.00  0.00    -0.000 C 
BRANCH  25  26
ATOM     26  C   UNL     1      55.024  31.790  53.848  1.00  0.00    -0.000 C 
BRANCH  26  27
ATOM     27  C   UNL     1      56.056  30.973  54.648  1.00  0.00    -0.000 C 
BRANCH  27  28
ATOM     28  C   UNL     1      55.467  30.189  55.836  1.00  0.00    -0.000 C 
BRANCH  28  29
ATOM     29  C   UNL     1      53.962  29.869  55.673  1.00  0.00    -0.000 C 
BRANCH  29  30
ATOM     30  C   UNL     1      53.381  29.043  56.836  1.00  0.00    -0.000 C 
BRANCH  30  31
ATOM     31  C   UNL     1      53.766  27.552  56.803  1.00  0.00    -0.003 C 
ATOM     32  C   UNL     1      53.506  26.839  58.131  1.00  0.00     0.004 C 
ENDBRANCH  30  31
ENDBRANCH  29  30
ENDBRANCH  28  29
ENDBRANCH  27  28
ENDBRANCH  26  27
ENDBRANCH  25  26
ENDBRANCH  24  25
ENDBRANCH  23  24
ENDBRANCH  22  23
ENDBRANCH  21  22
ENDBRANCH  20  21
ENDBRANCH  19  20
ENDBRANCH  18  19
ENDBRANCH   1  18
TORSDOF 28
ENDMDL
MODEL 5
REMARK VINA RESULT:    -3.293      3.985      8.630
REMARK INTER + INTRA:         -13.497
REMARK INTER:                  -8.558
REMARK INTRA:                  -4.939
REMARK UNBOUND:                -4.814
REMARK SMILES CCCCCCCCCCCCCCCCCCCCCCCCCCCCCC(=O)[O-]
REMARK SMILES IDX 16 1 17 2 18 3 19 4 20 5 21 6 22 7 23 8 24 9 25 10 26 11
REMARK SMILES IDX 27 12 28 13 29 14 30 15 31 16 32 17 15 18 14 19 13 20 12 21
REMARK SMILES IDX 11 22 10 23 9 24 8 25 7 26 6 27 5 28 4 29 3 30 2 31 1 32
REMARK H PARENT
REMARK Flexibility Score: inf
ROOT
ATOM      1  C   UNL     1      70.685  30.408  57.052  1.00  0.00     0.000 C 
ENDROOT
BRANCH   1   2
ATOM      2  C   UNL     1      69.397  30.279  57.886  1.00  0.00     0.000 C 
BRANCH   2   3
ATOM      3  C   UNL     1      68.472  29.161  57.380  1.00  0.00     0.000 C 
BRANCH   3   4
ATOM      4  C   UNL     1      67.049  29.691  57.148  1.00  0.00     0.000 C 
BRANCH   4   5
ATOM      5  C   UNL     1      66.837  31.123  57.681  1.00  0.00     0.000 C 
BRANCH   5   6
ATOM      6  C   UNL     1      65.394  31.473  58.091  1.00  0.00     0.000 C 
BRANCH   6   7
ATOM      7  C   UNL     1      65.023  30.969  59.495  1.00  0.00     0.000 C 
BRANCH   7   8
ATOM      8  C   UNL     1      64.401  32.063  60.380  1.00  0.00     0.000 C 
BRANCH   8   9
ATOM      9  C   UNL     1      62.859  32.092  60.357  1.00  0.00     0.000 C 
BRANCH   9  10
ATOM     10  C   UNL     1      62.243  30.712  60.065  1.00  0.00     0.000 C 
BRANCH  10  11
ATOM     11  C   UNL     1      62.103  29.836  61.321  1.00  0.00     0.000 C 
BRANCH  11  12
ATOM     12  C   UNL     1      62.800  28.463  61.212  1.00  0.00     0.000 C 
BRANCH  12  13
ATOM     13  C   UNL     1      61.799  27.321  60.972  1.00  0.00     0.006 C 
BRANCH  13  14
ATOM     14  C   UNL     1      61.879  26.273  62.088  1.00  0.00     0.053 C 
BRANCH  14  15
ATOM     15  C   UNL     1      60.766  25.273  61.987  1.00  0.00     0.041 C 
ATOM     16  O   UNL     1      61.027  24.041  61.983  1.00  0.00    -0.550 OA
ATOM     17  O   UNL     1      59.438  25.688  61.965  1.00  0.00    -0.550 OA
ENDBRANCH  14  15
ENDBRANCH  13  14
ENDBRANCH  12  13
ENDBRANCH  11  12
ENDBRANCH  10  11
ENDBRANCH   9  10
ENDBRANCH   8   9
ENDBRANCH   7   8
ENDBRANCH   6   7
ENDBRANCH   5   6
ENDBRANCH   4   5
ENDBRANCH   3   4
ENDBRANCH   2   3
ENDBRANCH   1   2
BRANCH   1  18
ATOM     18  C   UNL     1      71.866  31.064  57.792  1.00  0.00     0.000 C 
BRANCH  18  19
ATOM     19  C   UNL     1      71.443  32.280  58.629  1.00  0.00     0.000 C 
BRANCH  19  20
ATOM     20  C   UNL     1      72.028  32.204  60.045  1.00  0.00     0.000 C 
BRANCH  20  21
ATOM     21  C   UNL     1      72.910  30.956  60.211  1.00  0.00     0.000 C 
BRANCH  21  22
ATOM     22  C   UNL     1      72.421  30.031  61.338  1.00  0.00     0.000 C 
BRANCH  22  23
ATOM     23  C   UNL     1      70.944  29.635  61.179  1.00  0.00     0.000 C 
BRANCH  23  24
ATOM     24  C   UNL     1      70.763  28.266  60.501  1.00  0.00    -0.000 C 
BRANCH  24  25
ATOM     25  C   UNL     1      69.390  27.600  60.723  1.00  0.00    -0.000 C 
BRANCH  25  26
ATOM     26  C   UNL     1      68.307  28.509  61.338  1.00  0.00    -0.000 C 
BRANCH  26  27
ATOM     27  C   UNL     1      66.869  28.224  60.864  1.00  0.00    -0.000 C 
BRANCH  27  28
ATOM     28  C   UNL     1      66.764  27.174  59.743  1.00  0.00    -0.000 C 
BRANCH  28  29
ATOM     29  C   UNL     1      65.322  26.662  59.516  1.00  0.00    -0.000 C 
BRANCH  29  30
ATOM     30  C   UNL     1      64.848  26.789  58.056  1.00  0.00    -0.000 C 
BRANCH  30  31
ATOM     31  C   UNL     1      63.617  27.697  57.870  1.00  0.00    -0.003 C 
ATOM     32  C   UNL     1      63.693  28.553  56.605  1.00  0.00     0.004 C 
ENDBRANCH  30  31
ENDBRANCH  29  30
ENDBRANCH  28  29
ENDBRANCH  27  28
ENDBRANCH  26  27
ENDBRANCH  25  26
ENDBRANCH  24  25
ENDBRANCH  23  24
ENDBRANCH  22  23
ENDBRANCH  21  22
ENDBRANCH  20  21
ENDBRANCH  19  20
ENDBRANCH  18  19
ENDBRANCH   1  18
TORSDOF 28
ENDMDL
MODEL 6
REMARK VINA RESULT:    -3.283      3.717      8.791
REMARK INTER + INTRA:         -13.471
REMARK INTER:                  -8.918
REMARK INTRA:                  -4.553
REMARK UNBOUND:                -4.814
REMARK SMILES CCCCCCCCCCCCCCCCCCCCCCCCCCCCCC(=O)[O-]
REMARK SMILES IDX 16 1 17 2 18 3 19 4 20 5 21 6 22 7 23 8 24 9 25 10 26 11
REMARK SMILES IDX 27 12 28 13 29 14 30 15 31 16 32 17 15 18 14 19 13 20 12 21
REMARK SMILES IDX 11 22 10 23 9 24 8 25 7 26 6 27 5 28 4 29 3 30 2 31 1 32
REMARK H PARENT
REMARK Flexibility Score: inf
ROOT
ATOM      1  C   UNL     1      64.715  31.726  57.704  1.00  0.00     0.000 C 
ENDROOT
BRANCH   1   2
ATOM      2  C   UNL     1      65.618  32.972  57.696  1.00  0.00     0.000 C 
BRANCH   2   3
ATOM      3  C   UNL     1      64.892  34.235  58.186  1.00  0.00     0.000 C 
BRANCH   3   4
ATOM      4  C   UNL     1      65.201  34.504  59.667  1.00  0.00     0.000 C 
BRANCH   4   5
ATOM      5  C   UNL     1      64.041  34.126  60.610  1.00  0.00     0.000 C 
BRANCH   5   6
ATOM      6  C   UNL     1      62.679  34.767  60.279  1.00  0.00     0.000 C 
BRANCH   6   7
ATOM      7  C   UNL     1      61.597  33.738  59.913  1.00  0.00     0.000 C 
BRANCH   7   8
ATOM      8  C   UNL     1      62.019  32.291  60.216  1.00  0.00     0.000 C 
BRANCH   8   9
ATOM      9  C   UNL     1      61.542  31.262  59.171  1.00  0.00     0.000 C 
BRANCH   9  10
ATOM     10  C   UNL     1      60.440  30.333  59.712  1.00  0.00     0.000 C 
BRANCH  10  11
ATOM     11  C   UNL     1      60.990  29.017  60.288  1.00  0.00     0.000 C 
BRANCH  11  12
ATOM     12  C   UNL     1      61.959  28.273  59.345  1.00  0.00     0.000 C 
BRANCH  12  13
ATOM     13  C   UNL     1      62.318  26.872  59.868  1.00  0.00     0.006 C 
BRANCH  13  14
ATOM     14  C   UNL     1      62.408  26.860  61.398  1.00  0.00     0.053 C 
BRANCH  14  15
ATOM     15  C   UNL     1      61.564  25.772  61.992  1.00  0.00     0.041 C 
ATOM     16  O   UNL     1      62.113  24.791  62.560  1.00  0.00    -0.550 OA
ATOM     17  O   UNL     1      60.176  25.866  61.983  1.00  0.00    -0.550 OA
ENDBRANCH  14  15
ENDBRANCH  13  14
ENDBRANCH  12  13
ENDBRANCH  11  12
ENDBRANCH  10  11
ENDBRANCH   9  10
ENDBRANCH   8   9
ENDBRANCH   7   8
ENDBRANCH   6   7
ENDBRANCH   5   6
ENDBRANCH   4   5
ENDBRANCH   3   4
ENDBRANCH   2   3
ENDBRANCH   1   2
BRANCH   1  18
ATOM     18  C   UNL     1      65.309  30.507  58.436  1.00  0.00     0.000 C 
BRANCH  18  19
ATOM     19  C   UNL     1      65.303  30.669  59.963  1.00  0.00     0.000 C 
BRANCH  19  20
ATOM     20  C   UNL     1      65.130  29.313  60.659  1.00  0.00     0.000 C 
BRANCH  20  21
ATOM     21  C   UNL     1      66.195  28.310  60.186  1.00  0.00     0.000 C 
BRANCH  21  22
ATOM     22  C   UNL     1      67.545  28.501  60.895  1.00  0.00     0.000 C 
BRANCH  22  23
ATOM     23  C   UNL     1      68.741  28.355  59.940  1.00  0.00     0.000 C 
BRANCH  23  24
ATOM     24  C   UNL     1      70.092  28.316  60.676  1.00  0.00    -0.000 C 
BRANCH  24  25
ATOM     25  C   UNL     1      70.596  29.678  61.193  1.00  0.00    -0.000 C 
BRANCH  25  26
ATOM     26  C   UNL     1      72.127  29.810  61.323  1.00  0.00    -0.000 C 
BRANCH  26  27
ATOM     27  C   UNL     1      72.750  30.985  60.544  1.00  0.00    -0.000 C 
BRANCH  27  28
ATOM     28  C   UNL     1      71.778  32.144  60.254  1.00  0.00    -0.000 C 
BRANCH  28  29
ATOM     29  C   UNL     1      71.639  32.465  58.747  1.00  0.00    -0.000 C 
BRANCH  29  30
ATOM     30  C   UNL     1      71.937  31.262  57.833  1.00  0.00    -0.000 C 
BRANCH  30  31
ATOM     31  C   UNL     1      70.699  30.413  57.486  1.00  0.00    -0.003 C 
ATOM     32  C   UNL     1      69.386  31.182  57.640  1.00  0.00     0.004 C 
ENDBRANCH  30  31
ENDBRANCH  29  30
ENDBRANCH  28  29
ENDBRANCH  27  28
ENDBRANCH  26  27
ENDBRANCH  25  26
ENDBRANCH  24  25
ENDBRANCH  23  24
ENDBRANCH  22  23
ENDBRANCH  21  22
ENDBRANCH  20  21
ENDBRANCH  19  20
ENDBRANCH  18  19
ENDBRANCH   1  18
TORSDOF 28
ENDMDL
MODEL 7
REMARK VINA RESULT:    -3.250      4.438      7.046
REMARK INTER + INTRA:         -13.383
REMARK INTER:                  -8.532
REMARK INTRA:                  -4.852
REMARK UNBOUND:                -4.814
REMARK SMILES CCCCCCCCCCCCCCCCCCCCCCCCCCCCCC(=O)[O-]
REMARK SMILES IDX 16 1 17 2 18 3 19 4 20 5 21 6 22 7 23 8 24 9 25 10 26 11
REMARK SMILES IDX 27 12 28 13 29 14 30 15 31 16 32 17 15 18 14 19 13 20 12 21
REMARK SMILES IDX 11 22 10 23 9 24 8 25 7 26 6 27 5 28 4 29 3 30 2 31 1 32
REMARK H PARENT
REMARK Flexibility Score: inf
ROOT
ATOM      1  C   UNL     1      61.656  31.447  57.900  1.00  0.00     0.000 C 
ENDROOT
BRANCH   1   2
ATOM      2  C   UNL     1      60.621  31.353  59.036  1.00  0.00     0.000 C 
BRANCH   2   3
ATOM      3  C   UNL     1      61.164  31.871  60.378  1.00  0.00     0.000 C 
BRANCH   3   4
ATOM      4  C   UNL     1      61.387  30.712  61.362  1.00  0.00     0.000 C 
BRANCH   4   5
ATOM      5  C   UNL     1      62.806  30.114  61.288  1.00  0.00     0.000 C 
BRANCH   5   6
ATOM      6  C   UNL     1      63.932  31.113  60.957  1.00  0.00     0.000 C 
BRANCH   6   7
ATOM      7  C   UNL     1      65.052  30.502  60.098  1.00  0.00     0.000 C 
BRANCH   7   8
ATOM      8  C   UNL     1      64.530  29.490  59.064  1.00  0.00     0.000 C 
BRANCH   8   9
ATOM      9  C   UNL     1      65.403  28.225  58.922  1.00  0.00     0.000 C 
BRANCH   9  10
ATOM     10  C   UNL     1      65.283  27.282  60.133  1.00  0.00     0.000 C 
BRANCH  10  11
ATOM     11  C   UNL     1      64.755  25.887  59.761  1.00  0.00     0.000 C 
BRANCH  11  12
ATOM     12  C   UNL     1      63.457  25.489  60.498  1.00  0.00     0.000 C 
BRANCH  12  13
ATOM     13  C   UNL     1      62.683  26.711  61.016  1.00  0.00     0.006 C 
BRANCH  13  14
ATOM     14  C   UNL     1      61.237  26.341  61.367  1.00  0.00     0.053 C 
BRANCH  14  15
ATOM     15  C   UNL     1      60.252  27.162  60.589  1.00  0.00     0.041 C 
ATOM     16  O   UNL     1      60.622  27.765  59.548  1.00  0.00    -0.550 OA
ATOM     17  O   UNL     1      58.914  27.213  60.969  1.00  0.00    -0.550 OA
ENDBRANCH  14  15
ENDBRANCH  13  14
ENDBRANCH  12  13
ENDBRANCH  11  12
ENDBRANCH  10  11
ENDBRANCH   9  10
ENDBRANCH   8   9
ENDBRANCH   7   8
ENDBRANCH   6   7
ENDBRANCH   5   6
ENDBRANCH   4   5
ENDBRANCH   3   4
ENDBRANCH   2   3
ENDBRANCH   1   2
BRANCH   1  18
ATOM     18  C   UNL     1      62.533  32.713  57.934  1.00  0.00     0.000 C 
BRANCH  18  19
ATOM     19  C   UNL     1      62.705  33.354  56.549  1.00  0.00     0.000 C 
BRANCH  19  20
ATOM     20  C   UNL     1      62.480  34.871  56.614  1.00  0.00     0.000 C 
BRANCH  20  21
ATOM     21  C   UNL     1      60.981  35.208  56.577  1.00  0.00     0.000 C 
BRANCH  21  22
ATOM     22  C   UNL     1      60.608  36.355  57.531  1.00  0.00     0.000 C 
BRANCH  22  23
ATOM     23  C   UNL     1      59.889  35.861  58.797  1.00  0.00     0.000 C 
BRANCH  23  24
ATOM     24  C   UNL     1      60.863  35.488  59.929  1.00  0.00    -0.000 C 
BRANCH  24  25
ATOM     25  C   UNL     1      61.675  36.663  60.509  1.00  0.00    -0.000 C 
BRANCH  25  26
ATOM     26  C   UNL     1      63.165  36.369  60.777  1.00  0.00    -0.000 C 
BRANCH  26  27
ATOM     27  C   UNL     1      63.561  34.882  60.701  1.00  0.00    -0.000 C 
BRANCH  27  28
ATOM     28  C   UNL     1      64.998  34.630  60.207  1.00  0.00    -0.000 C 
BRANCH  28  29
ATOM     29  C   UNL     1      65.247  35.126  58.763  1.00  0.00    -0.000 C 
BRANCH  29  30
ATOM     30  C   UNL     1      66.493  36.021  58.627  1.00  0.00    -0.000 C 
BRANCH  30  31
ATOM     31  C   UNL     1      67.554  35.478  57.650  1.00  0.00    -0.003 C 
ATOM     32  C   UNL     1      68.585  36.532  57.244  1.00  0.00     0.004 C 
ENDBRANCH  30  31
ENDBRANCH  29  30
ENDBRANCH  28  29
ENDBRANCH  27  28
ENDBRANCH  26  27
ENDBRANCH  25  26
ENDBRANCH  24  25
ENDBRANCH  23  24
ENDBRANCH  22  23
ENDBRANCH  21  22
ENDBRANCH  20  21
ENDBRANCH  19  20
ENDBRANCH  18  19
ENDBRANCH   1  18
TORSDOF 28
ENDMDL
MODEL 8
REMARK VINA RESULT:    -3.194      4.177      8.017
REMARK INTER + INTRA:         -13.237
REMARK INTER:                  -6.427
REMARK INTRA:                  -6.810
REMARK UNBOUND:                -4.814
REMARK SMILES CCCCCCCCCCCCCCCCCCCCCCCCCCCCCC(=O)[O-]
REMARK SMILES IDX 16 1 17 2 18 3 19 4 20 5 21 6 22 7 23 8 24 9 25 10 26 11
REMARK SMILES IDX 27 12 28 13 29 14 30 15 31 16 32 17 15 18 14 19 13 20 12 21
REMARK SMILES IDX 11 22 10 23 9 24 8 25 7 26 6 27 5 28 4 29 3 30 2 31 1 32
REMARK H PARENT
REMARK Flexibility Score: inf
ROOT
ATOM      1  C   UNL     1      61.729  32.765  57.585  1.00  0.00     0.000 C 
ENDROOT
BRANCH   1   2
ATOM      2  C   UNL     1      60.888  33.637  58.534  1.00  0.00     0.000 C 
BRANCH   2   3
ATOM      3  C   UNL     1      61.610  33.943  59.856  1.00  0.00     0.000 C 
BRANCH   3   4
ATOM      4  C   UNL     1      61.621  35.453  60.137  1.00  0.00     0.000 C 
BRANCH   4   5
ATOM      5  C   UNL     1      62.997  35.979  60.592  1.00  0.00     0.000 C 
BRANCH   5   6
ATOM      6  C   UNL     1      64.031  34.899  60.967  1.00  0.00     0.000 C 
BRANCH   6   7
ATOM      7  C   UNL     1      65.260  34.890  60.044  1.00  0.00     0.000 C 
BRANCH   7   8
ATOM      8  C   UNL     1      65.107  35.824  58.832  1.00  0.00     0.000 C 
BRANCH   8   9
ATOM      9  C   UNL     1      65.293  35.124  57.469  1.00  0.00     0.000 C 
BRANCH   9  10
ATOM     10  C   UNL     1      64.091  35.325  56.530  1.00  0.00     0.000 C 
BRANCH  10  11
ATOM     11  C   UNL     1      63.270  36.582  56.861  1.00  0.00     0.000 C 
BRANCH  11  12
ATOM     12  C   UNL     1      61.760  36.444  56.570  1.00  0.00     0.000 C 
BRANCH  12  13
ATOM     13  C   UNL     1      61.468  36.287  55.069  1.00  0.00     0.006 C 
BRANCH  13  14
ATOM     14  C   UNL     1      60.409  35.206  54.822  1.00  0.00     0.053 C 
BRANCH  14  15
ATOM     15  C   UNL     1      60.873  34.197  53.815  1.00  0.00     0.041 C 
ATOM     16  O   UNL     1      60.385  34.198  52.655  1.00  0.00    -0.550 OA
ATOM     17  O   UNL     1      61.889  33.298  54.126  1.00  0.00    -0.550 OA
ENDBRANCH  14  15
ENDBRANCH  13  14
ENDBRANCH  12  13
ENDBRANCH  11  12
ENDBRANCH  10  11
ENDBRANCH   9  10
ENDBRANCH   8   9
ENDBRANCH   7   8
ENDBRANCH   6   7
ENDBRANCH   5   6
ENDBRANCH   4   5
ENDBRANCH   3   4
ENDBRANCH   2   3
ENDBRANCH   1   2
BRANCH   1  18
ATOM     18  C   UNL     1      63.001  32.170  58.218  1.00  0.00     0.000 C 
BRANCH  18  19
ATOM     19  C   UNL     1      64.001  31.653  57.173  1.00  0.00     0.000 C 
BRANCH  19  20
ATOM     20  C   UNL     1      65.343  31.296  57.825  1.00  0.00     0.000 C 
BRANCH  20  21
ATOM     21  C   UNL     1      65.221  31.263  59.357  1.00  0.00     0.000 C 
BRANCH  21  22
ATOM     22  C   UNL     1      65.618  29.903  59.953  1.00  0.00     0.000 C 
BRANCH  22  23
ATOM     23  C   UNL     1      64.713  28.758  59.470  1.00  0.00     0.000 C 
BRANCH  23  24
ATOM     24  C   UNL     1      64.119  27.937  60.628  1.00  0.00    -0.000 C 
BRANCH  24  25
ATOM     25  C   UNL     1      62.645  28.245  60.961  1.00  0.00    -0.000 C 
BRANCH  25  26
ATOM     26  C   UNL     1      62.361  29.684  61.438  1.00  0.00    -0.000 C 
BRANCH  26  27
ATOM     27  C   UNL     1      61.134  30.356  60.793  1.00  0.00    -0.000 C 
BRANCH  27  28
ATOM     28  C   UNL     1      60.217  29.395  60.015  1.00  0.00    -0.000 C 
BRANCH  28  29
ATOM     29  C   UNL     1      59.882  29.888  58.587  1.00  0.00    -0.000 C 
BRANCH  29  30
ATOM     30  C   UNL     1      60.292  28.896  57.483  1.00  0.00    -0.000 C 
BRANCH  30  31
ATOM     31  C   UNL     1      61.813  28.690  57.354  1.00  0.00    -0.003 C 
ATOM     32  C   UNL     1      62.201  27.228  57.132  1.00  0.00     0.004 C 
ENDBRANCH  30  31
ENDBRANCH  29  30
ENDBRANCH  28  29
ENDBRANCH  27  28
ENDBRANCH  26  27
ENDBRANCH  25  26
ENDBRANCH  24  25
ENDBRANCH  23  24
ENDBRANCH  22  23
ENDBRANCH  21  22
ENDBRANCH  20  21
ENDBRANCH  19  20
ENDBRANCH  18  19
ENDBRANCH   1  18
TORSDOF 28
ENDMDL
MODEL 9
REMARK VINA RESULT:    -3.139      3.188      6.020
REMARK INTER + INTRA:         -13.091
REMARK INTER:                  -6.851
REMARK INTRA:                  -6.240
REMARK UNBOUND:                -4.814
REMARK SMILES CCCCCCCCCCCCCCCCCCCCCCCCCCCCCC(=O)[O-]
REMARK SMILES IDX 16 1 17 2 18 3 19 4 20 5 21 6 22 7 23 8 24 9 25 10 26 11
REMARK SMILES IDX 27 12 28 13 29 14 30 15 31 16 32 17 15 18 14 19 13 20 12 21
REMARK SMILES IDX 11 22 10 23 9 24 8 25 7 26 6 27 5 28 4 29 3 30 2 31 1 32
REMARK H PARENT
REMARK Flexibility Score: inf
ROOT
ATOM      1  C   UNL     1      63.225  29.132  60.472  1.00  0.00     0.000 C 
ENDROOT
BRANCH   1   2
ATOM      2  C   UNL     1      62.590  30.164  61.421  1.00  0.00     0.000 C 
BRANCH   2   3
ATOM      3  C   UNL     1      61.188  30.605  60.967  1.00  0.00     0.000 C 
BRANCH   3   4
ATOM      4  C   UNL     1      61.230  32.010  60.349  1.00  0.00     0.000 C 
BRANCH   4   5
ATOM      5  C   UNL     1      60.784  32.041  58.873  1.00  0.00     0.000 C 
BRANCH   5   6
ATOM      6  C   UNL     1      60.532  30.665  58.225  1.00  0.00     0.000 C 
BRANCH   6   7
ATOM      7  C   UNL     1      60.879  30.627  56.728  1.00  0.00     0.000 C 
BRANCH   7   8
ATOM      8  C   UNL     1      62.392  30.546  56.465  1.00  0.00     0.000 C 
BRANCH   8   9
ATOM      9  C   UNL     1      63.002  31.837  55.880  1.00  0.00     0.000 C 
BRANCH   9  10
ATOM     10  C   UNL     1      63.430  31.679  54.411  1.00  0.00     0.000 C 
BRANCH  10  11
ATOM     11  C   UNL     1      64.279  30.422  54.161  1.00  0.00     0.000 C 
BRANCH  11  12
ATOM     12  C   UNL     1      65.734  30.534  54.664  1.00  0.00     0.000 C 
BRANCH  12  13
ATOM     13  C   UNL     1      65.995  29.648  55.893  1.00  0.00     0.006 C 
BRANCH  13  14
ATOM     14  C   UNL     1      67.204  30.151  56.691  1.00  0.00     0.053 C 
BRANCH  14  15
ATOM     15  C   UNL     1      67.689  29.122  57.667  1.00  0.00     0.041 C 
ATOM     16  O   UNL     1      68.018  27.977  57.260  1.00  0.00    -0.550 OA
ATOM     17  O   UNL     1      67.844  29.438  59.013  1.00  0.00    -0.550 OA
ENDBRANCH  14  15
ENDBRANCH  13  14
ENDBRANCH  12  13
ENDBRANCH  11  12
ENDBRANCH  10  11
ENDBRANCH   9  10
ENDBRANCH   8   9
ENDBRANCH   7   8
ENDBRANCH   6   7
ENDBRANCH   5   6
ENDBRANCH   4   5
ENDBRANCH   3   4
ENDBRANCH   2   3
ENDBRANCH   1   2
BRANCH   1  18
ATOM     18  C   UNL     1      64.310  29.701  59.539  1.00  0.00     0.000 C 
BRANCH  18  19
ATOM     19  C   UNL     1      64.846  31.061  60.008  1.00  0.00     0.000 C 
BRANCH  19  20
ATOM     20  C   UNL     1      64.885  32.066  58.849  1.00  0.00     0.000 C 
BRANCH  20  21
ATOM     21  C   UNL     1      64.585  33.491  59.345  1.00  0.00     0.000 C 
BRANCH  21  22
ATOM     22  C   UNL     1      64.497  33.579  60.877  1.00  0.00     0.000 C 
BRANCH  22  23
ATOM     23  C   UNL     1      64.903  34.962  61.414  1.00  0.00     0.000 C 
BRANCH  23  24
ATOM     24  C   UNL     1      64.427  36.115  60.512  1.00  0.00    -0.000 C 
BRANCH  24  25
ATOM     25  C   UNL     1      63.448  37.104  61.175  1.00  0.00    -0.000 C 
BRANCH  25  26
ATOM     26  C   UNL     1      62.006  37.073  60.629  1.00  0.00    -0.000 C 
BRANCH  26  27
ATOM     27  C   UNL     1      61.492  35.678  60.222  1.00  0.00    -0.000 C 
BRANCH  27  28
ATOM     28  C   UNL     1      60.435  35.691  59.102  1.00  0.00    -0.000 C 
BRANCH  28  29
ATOM     29  C   UNL     1      60.986  36.183  57.743  1.00  0.00    -0.000 C 
BRANCH  29  30
ATOM     30  C   UNL     1      62.087  35.276  57.163  1.00  0.00    -0.000 C 
BRANCH  30  31
ATOM     31  C   UNL     1      63.443  35.979  56.963  1.00  0.00    -0.003 C 
ATOM     32  C   UNL     1      64.369  35.229  56.004  1.00  0.00     0.004 C 
ENDBRANCH  30  31
ENDBRANCH  29  30
ENDBRANCH  28  29
ENDBRANCH  27  28
ENDBRANCH  26  27
ENDBRANCH  25  26
ENDBRANCH  24  25
ENDBRANCH  23  24
ENDBRANCH  22  23
ENDBRANCH  21  22
ENDBRANCH  20  21
ENDBRANCH  19  20
ENDBRANCH  18  19
ENDBRANCH   1  18
TORSDOF 28
ENDMDL
