MODEL 1
REMARK VINA RESULT:    -7.742      0.000      0.000
REMARK INTER + INTRA:          -8.623
REMARK INTER:                  -9.100
REMARK INTRA:                   0.477
REMARK UNBOUND:                 0.477
REMARK SMILES O=c1c(O)c(-c2ccc(O)cc2)oc2cc(O)cc(O)c12
REMARK SMILES IDX 5 1 3 2 2 3 1 4 21 5 19 6 18 7 16 8 15 9 14 10 13 11 6 12
REMARK SMILES IDX 7 13 8 14 9 15 12 16 11 17 10 18 4 20 20 22 17 24
REMARK H PARENT 10 19 4 21 20 23 17 25
REMARK Flexibility Score: inf
ROOT
ATOM      1  C   UNL     1      10.519  -2.697  19.429  1.00  0.00     0.180 A 
ATOM      2  C   UNL     1      11.822  -2.228  19.192  1.00  0.00     0.208 A 
ATOM      3  C   UNL     1      12.028  -0.849  19.018  1.00  0.00     0.238 A 
ATOM      4  O   UNL     1      13.204  -0.429  18.860  1.00  0.00    -0.285 OA
ATOM      5  C   UNL     1      10.927   0.039  19.067  1.00  0.00     0.111 A 
ATOM      6  C   UNL     1      11.014   1.450  18.863  1.00  0.00     0.134 A 
ATOM      7  C   UNL     1       9.881   2.247  19.065  1.00  0.00     0.093 A 
ATOM      8  C   UNL     1       8.649   1.678  19.397  1.00  0.00     0.123 A 
ATOM      9  C   UNL     1       8.541   0.297  19.539  1.00  0.00     0.094 A 
ATOM     10  C   UNL     1       9.662  -0.522  19.380  1.00  0.00     0.146 A 
ATOM     11  O   UNL     1       9.517  -1.833  19.534  1.00  0.00    -0.452 OA
ENDROOT
BRANCH   1  12
ATOM     12  C   UNL     1      10.219  -4.138  19.597  1.00  0.00     0.021 A 
ATOM     13  C   UNL     1       8.888  -4.582  19.517  1.00  0.00     0.016 A 
ATOM     14  C   UNL     1       8.585  -5.940  19.652  1.00  0.00     0.047 A 
ATOM     15  C   UNL     1       9.609  -6.873  19.851  1.00  0.00     0.115 A 
ATOM     16  C   UNL     1      11.245  -5.084  19.780  1.00  0.00     0.016 A 
ATOM     17  C   UNL     1      10.938  -6.442  19.912  1.00  0.00     0.047 A 
BRANCH  15  18
ATOM     18  O   UNL     1       9.320  -8.229  19.987  1.00  0.00    -0.508 OA
ATOM     19  H   UNL     1       9.668  -8.768  20.772  1.00  0.00     0.293 HD
ENDBRANCH  15  18
ENDBRANCH   1  12
BRANCH   2  20
ATOM     20  O   UNL     1      12.898  -3.119  19.169  1.00  0.00    -0.502 OA
ATOM     21  H   UNL     1      13.027  -3.835  19.874  1.00  0.00     0.293 HD
ENDBRANCH   2  20
BRANCH   6  22
ATOM     22  O   UNL     1      12.173   2.107  18.441  1.00  0.00    -0.507 OA
ATOM     23  H   UNL     1      13.043   2.124  18.951  1.00  0.00     0.293 HD
ENDBRANCH   6  22
BRANCH   8  24
ATOM     24  O   UNL     1       7.523   2.478  19.580  1.00  0.00    -0.508 OA
ATOM     25  H   UNL     1       7.009   2.857  18.794  1.00  0.00     0.293 HD
ENDBRANCH   8  24
TORSDOF 5
ENDMDL
MODEL 2
REMARK VINA RESULT:    -7.729      1.320      6.479
REMARK INTER + INTRA:          -8.607
REMARK INTER:                  -8.754
REMARK INTRA:                   0.148
REMARK UNBOUND:                 0.477
REMARK SMILES O=c1c(O)c(-c2ccc(O)cc2)oc2cc(O)cc(O)c12
REMARK SMILES IDX 5 1 3 2 2 3 1 4 21 5 19 6 18 7 16 8 15 9 14 10 13 11 6 12
REMARK SMILES IDX 7 13 8 14 9 15 12 16 11 17 10 18 4 20 20 22 17 24
REMARK H PARENT 10 19 4 21 20 23 17 25
REMARK Flexibility Score: inf
ROOT
ATOM      1  C   UNL     1       9.752  -1.541  19.144  1.00  0.00     0.180 A 
ATOM      2  C   UNL     1      11.086  -1.965  19.018  1.00  0.00     0.208 A 
ATOM      3  C   UNL     1      11.389  -3.325  19.194  1.00  0.00     0.238 A 
ATOM      4  O   UNL     1      12.576  -3.707  19.027  1.00  0.00    -0.285 OA
ATOM      5  C   UNL     1      10.356  -4.240  19.510  1.00  0.00     0.111 A 
ATOM      6  C   UNL     1      10.554  -5.634  19.750  1.00  0.00     0.134 A 
ATOM      7  C   UNL     1       9.444  -6.468  19.925  1.00  0.00     0.093 A 
ATOM      8  C   UNL     1       8.146  -5.950  19.934  1.00  0.00     0.123 A 
ATOM      9  C   UNL     1       7.947  -4.582  19.761  1.00  0.00     0.094 A 
ATOM     10  C   UNL     1       9.033  -3.729  19.548  1.00  0.00     0.146 A 
ATOM     11  O   UNL     1       8.798  -2.434  19.377  1.00  0.00    -0.452 OA
ENDROOT
BRANCH   1  12
ATOM     12  C   UNL     1       9.359  -0.120  18.998  1.00  0.00     0.021 A 
ATOM     13  C   UNL     1       8.139   0.200  18.380  1.00  0.00     0.016 A 
ATOM     14  C   UNL     1       7.739   1.533  18.250  1.00  0.00     0.047 A 
ATOM     15  C   UNL     1       8.546   2.562  18.752  1.00  0.00     0.115 A 
ATOM     16  C   UNL     1      10.155   0.918  19.517  1.00  0.00     0.016 A 
ATOM     17  C   UNL     1       9.751   2.250  19.387  1.00  0.00     0.047 A 
BRANCH  15  18
ATOM     18  O   UNL     1       8.158   3.894  18.630  1.00  0.00    -0.508 OA
ATOM     19  H   UNL     1       7.674   4.230  17.804  1.00  0.00     0.293 HD
ENDBRANCH  15  18
ENDBRANCH   1  12
BRANCH   2  20
ATOM     20  O   UNL     1      12.087  -1.048  18.685  1.00  0.00    -0.502 OA
ATOM     21  H   UNL     1      12.846  -1.276  18.054  1.00  0.00     0.293 HD
ENDBRANCH   2  20
BRANCH   6  22
ATOM     22  O   UNL     1      11.810  -6.238  19.852  1.00  0.00    -0.507 OA
ATOM     23  H   UNL     1      12.250  -6.778  19.122  1.00  0.00     0.293 HD
ENDBRANCH   6  22
BRANCH   8  24
ATOM     24  O   UNL     1       7.048  -6.785  20.125  1.00  0.00    -0.508 OA
ATOM     25  H   UNL     1       6.896  -7.601  19.545  1.00  0.00     0.293 HD
ENDBRANCH   8  24
TORSDOF 5
ENDMDL
MODEL 3
REMARK VINA RESULT:    -7.270      2.079      7.285
REMARK INTER + INTRA:          -8.068
REMARK INTER:                  -8.193
REMARK INTRA:                   0.126
REMARK UNBOUND:                 0.477
REMARK SMILES O=c1c(O)c(-c2ccc(O)cc2)oc2cc(O)cc(O)c12
REMARK SMILES IDX 5 1 3 2 2 3 1 4 21 5 19 6 18 7 16 8 15 9 14 10 13 11 6 12
REMARK SMILES IDX 7 13 8 14 9 15 12 16 11 17 10 18 4 20 20 22 17 24
REMARK H PARENT 10 19 4 21 20 23 17 25
REMARK Flexibility Score: inf
ROOT
ATOM      1  C   UNL     1       8.300  -1.957  19.499  1.00  0.00     0.180 A 
ATOM      2  C   UNL     1       7.059  -2.605  19.617  1.00  0.00     0.208 A 
ATOM      3  C   UNL     1       7.030  -4.002  19.755  1.00  0.00     0.238 A 
ATOM      4  O   UNL     1       5.919  -4.572  19.914  1.00  0.00    -0.285 OA
ATOM      5  C   UNL     1       8.242  -4.734  19.756  1.00  0.00     0.111 A 
ATOM      6  C   UNL     1       8.330  -6.156  19.848  1.00  0.00     0.134 A 
ATOM      7  C   UNL     1       9.585  -6.763  19.971  1.00  0.00     0.093 A 
ATOM      8  C   UNL     1      10.758  -6.006  19.940  1.00  0.00     0.123 A 
ATOM      9  C   UNL     1      10.685  -4.623  19.790  1.00  0.00     0.094 A 
ATOM     10  C   UNL     1       9.446  -3.985  19.701  1.00  0.00     0.146 A 
ATOM     11  O   UNL     1       9.421  -2.664  19.569  1.00  0.00    -0.452 OA
ENDROOT
BRANCH   1  12
ATOM     12  C   UNL     1       8.410  -0.489  19.326  1.00  0.00     0.021 A 
ATOM     13  C   UNL     1       7.559   0.166  18.419  1.00  0.00     0.016 A 
ATOM     14  C   UNL     1       7.631   1.552  18.255  1.00  0.00     0.047 A 
ATOM     15  C   UNL     1       8.543   2.303  19.008  1.00  0.00     0.115 A 
ATOM     16  C   UNL     1       9.310   0.274  20.092  1.00  0.00     0.016 A 
ATOM     17  C   UNL     1       9.378   1.661  19.927  1.00  0.00     0.047 A 
BRANCH  15  18
ATOM     18  O   UNL     1       8.623   3.686  18.854  1.00  0.00    -0.508 OA
ATOM     19  H   UNL     1       8.819   4.107  17.953  1.00  0.00     0.293 HD
ENDBRANCH  15  18
ENDBRANCH   1  12
BRANCH   2  20
ATOM     20  O   UNL     1       5.875  -1.861  19.636  1.00  0.00    -0.502 OA
ATOM     21  H   UNL     1       5.099  -2.089  20.245  1.00  0.00     0.293 HD
ENDBRANCH   2  20
BRANCH   6  22
ATOM     22  O   UNL     1       7.225  -7.011  19.795  1.00  0.00    -0.507 OA
ATOM     23  H   UNL     1       6.387  -6.903  20.347  1.00  0.00     0.293 HD
ENDBRANCH   6  22
BRANCH   8  24
ATOM     24  O   UNL     1      12.004  -6.621  20.047  1.00  0.00    -0.508 OA
ATOM     25  H   UNL     1      12.863  -6.087  20.013  1.00  0.00     0.293 HD
ENDBRANCH   8  24
TORSDOF 5
ENDMDL
