MODEL 1
REMARK VINA RESULT:    -4.390      0.000      0.000
REMARK INTER + INTRA:          -6.821
REMARK INTER:                  -5.930
REMARK INTRA:                  -0.891
REMARK UNBOUND:                -0.891
REMARK SMILES O=C[C@@H](O)[C@H](O)[C@@H](O)CO
REMARK SMILES IDX 7 1 9 2 10 3 5 5 3 6 2 7 1 8 4 9 6 11 8 13
REMARK H PARENT 10 4 4 10 6 12 8 14
REMARK Flexibility Score: inf
ROOT
ATOM      1  C   UNL     1       0.324  33.350  48.380  1.00  0.00     0.171 C 
ENDROOT
BRANCH   1   2
ATOM      2  C   UNL     1      -0.860  32.737  49.148  1.00  0.00     0.190 C 
BRANCH   2   3
ATOM      3  O   UNL     1      -0.552  32.551  50.504  1.00  0.00    -0.394 OA
ATOM      4  H   UNL     1      -1.222  33.070  51.023  1.00  0.00     0.210 HD
ENDBRANCH   2   3
ENDBRANCH   1   2
BRANCH   1   5
ATOM      5  C   UNL     1       0.586  34.848  48.713  1.00  0.00     0.181 C 
BRANCH   5   6
ATOM      6  C   UNL     1       1.737  35.057  49.729  1.00  0.00     0.209 C 
BRANCH   6   7
ATOM      7  C   UNL     1       2.238  36.477  49.719  1.00  0.00     0.258 C 
ATOM      8  O   UNL     1       1.469  37.402  49.510  1.00  0.00    -0.300 OA
ENDBRANCH   6   7
BRANCH   6   9
ATOM      9  O   UNL     1       1.276  34.766  51.023  1.00  0.00    -0.383 OA
ATOM     10  H   UNL     1       0.850  33.869  50.984  1.00  0.00     0.211 HD
ENDBRANCH   6   9
ENDBRANCH   5   6
BRANCH   5  11
ATOM     11  O   UNL     1      -0.590  35.394  49.262  1.00  0.00    -0.387 OA
ATOM     12  H   UNL     1      -1.100  35.808  48.517  1.00  0.00     0.211 HD
ENDBRANCH   5  11
ENDBRANCH   1   5
BRANCH   1  13
ATOM     13  O   UNL     1       1.473  32.594  48.673  1.00  0.00    -0.388 OA
ATOM     14  H   UNL     1       1.178  31.663  48.846  1.00  0.00     0.211 HD
ENDBRANCH   1  13
TORSDOF 8
ENDMDL
MODEL 2
REMARK VINA RESULT:    -4.331      1.211      1.688
REMARK INTER + INTRA:          -6.742
REMARK INTER:                  -5.822
REMARK INTRA:                  -0.920
REMARK UNBOUND:                -0.891
REMARK SMILES O=C[C@@H](O)[C@H](O)[C@@H](O)CO
REMARK SMILES IDX 7 1 9 2 10 3 5 5 3 6 2 7 1 8 4 9 6 11 8 13
REMARK H PARENT 10 4 4 10 6 12 8 14
REMARK Flexibility Score: inf
ROOT
ATOM      1  C   UNL     1       0.157  33.919  48.840  1.00  0.00     0.171 C 
ENDROOT
BRANCH   1   2
ATOM      2  C   UNL     1      -0.748  32.741  49.239  1.00  0.00     0.190 C 
BRANCH   2   3
ATOM      3  O   UNL     1      -0.388  32.217  50.489  1.00  0.00    -0.394 OA
ATOM      4  H   UNL     1      -0.613  31.250  50.469  1.00  0.00     0.210 HD
ENDBRANCH   2   3
ENDBRANCH   1   2
BRANCH   1   5
ATOM      5  C   UNL     1       0.022  35.164  49.764  1.00  0.00     0.181 C 
BRANCH   5   6
ATOM      6  C   UNL     1       0.554  36.468  49.118  1.00  0.00     0.209 C 
BRANCH   6   7
ATOM      7  C   UNL     1       1.854  36.907  49.737  1.00  0.00     0.258 C 
ATOM      8  O   UNL     1       2.868  36.244  49.579  1.00  0.00    -0.300 OA
ENDBRANCH   6   7
BRANCH   6   9
ATOM      9  O   UNL     1       0.772  36.254  47.747  1.00  0.00    -0.383 OA
ATOM     10  H   UNL     1       0.706  37.140  47.301  1.00  0.00     0.211 HD
ENDBRANCH   6   9
ENDBRANCH   5   6
BRANCH   5  11
ATOM     11  O   UNL     1       0.757  34.925  50.941  1.00  0.00    -0.387 OA
ATOM     12  H   UNL     1       0.152  34.465  51.581  1.00  0.00     0.211 HD
ENDBRANCH   5  11
ENDBRANCH   1   5
BRANCH   1  13
ATOM     13  O   UNL     1       1.489  33.468  48.848  1.00  0.00    -0.388 OA
ATOM     14  H   UNL     1       1.667  33.057  47.963  1.00  0.00     0.211 HD
ENDBRANCH   1  13
TORSDOF 8
ENDMDL
MODEL 3
REMARK VINA RESULT:    -4.230      1.313      3.429
REMARK INTER + INTRA:          -6.604
REMARK INTER:                  -6.398
REMARK INTRA:                  -0.206
REMARK UNBOUND:                -0.891
REMARK SMILES O=C[C@@H](O)[C@H](O)[C@@H](O)CO
REMARK SMILES IDX 7 1 9 2 10 3 5 5 3 6 2 7 1 8 4 9 6 11 8 13
REMARK H PARENT 10 4 4 10 6 12 8 14
REMARK Flexibility Score: inf
ROOT
ATOM      1  C   UNL     1       0.864  36.053  49.434  1.00  0.00     0.171 C 
ENDROOT
BRANCH   1   2
ATOM      2  C   UNL     1      -0.399  36.705  50.022  1.00  0.00     0.190 C 
BRANCH   2   3
ATOM      3  O   UNL     1      -1.535  36.412  49.253  1.00  0.00    -0.394 OA
ATOM      4  H   UNL     1      -2.241  36.117  49.887  1.00  0.00     0.210 HD
ENDBRANCH   2   3
ENDBRANCH   1   2
BRANCH   1   5
ATOM      5  C   UNL     1       1.137  34.614  49.961  1.00  0.00     0.181 C 
BRANCH   5   6
ATOM      6  C   UNL     1       0.117  33.567  49.443  1.00  0.00     0.209 C 
BRANCH   6   7
ATOM      7  C   UNL     1       0.709  32.700  48.364  1.00  0.00     0.258 C 
ATOM      8  O   UNL     1       1.748  33.025  47.810  1.00  0.00    -0.300 OA
ENDBRANCH   6   7
BRANCH   6   9
ATOM      9  O   UNL     1      -0.279  32.737  50.504  1.00  0.00    -0.383 OA
ATOM     10  H   UNL     1      -0.176  33.265  51.339  1.00  0.00     0.211 HD
ENDBRANCH   6   9
ENDBRANCH   5   6
BRANCH   5  11
ATOM     11  O   UNL     1       1.069  34.635  51.367  1.00  0.00    -0.387 OA
ATOM     12  H   UNL     1       1.991  34.779  51.707  1.00  0.00     0.211 HD
ENDBRANCH   5  11
ENDBRANCH   1   5
BRANCH   1  13
ATOM     13  O   UNL     1       0.729  36.024  48.034  1.00  0.00    -0.388 OA
ATOM     14  H   UNL     1       0.447  36.931  47.746  1.00  0.00     0.211 HD
ENDBRANCH   1  13
TORSDOF 8
ENDMDL
MODEL 4
REMARK VINA RESULT:    -4.206      1.124      3.870
REMARK INTER + INTRA:          -6.573
REMARK INTER:                  -5.875
REMARK INTRA:                  -0.698
REMARK UNBOUND:                -0.891
REMARK SMILES O=C[C@@H](O)[C@H](O)[C@@H](O)CO
REMARK SMILES IDX 7 1 9 2 10 3 5 5 3 6 2 7 1 8 4 9 6 11 8 13
REMARK H PARENT 10 4 4 10 6 12 8 14
REMARK Flexibility Score: inf
ROOT
ATOM      1  C   UNL     1       1.015  35.833  50.609  1.00  0.00     0.171 C 
ENDROOT
BRANCH   1   2
ATOM      2  C   UNL     1       2.139  36.558  49.848  1.00  0.00     0.190 C 
BRANCH   2   3
ATOM      3  O   UNL     1       1.722  37.817  49.393  1.00  0.00    -0.394 OA
ATOM      4  H   UNL     1       2.538  38.378  49.317  1.00  0.00     0.210 HD
ENDBRANCH   2   3
ENDBRANCH   1   2
BRANCH   1   5
ATOM      5  C   UNL     1       0.045  35.032  49.693  1.00  0.00     0.181 C 
BRANCH   5   6
ATOM      6  C   UNL     1       0.330  33.508  49.683  1.00  0.00     0.209 C 
BRANCH   6   7
ATOM      7  C   UNL     1      -0.812  32.732  49.082  1.00  0.00     0.258 C 
ATOM      8  O   UNL     1      -1.865  33.291  48.813  1.00  0.00    -0.300 OA
ENDBRANCH   6   7
BRANCH   6   9
ATOM      9  O   UNL     1       1.481  33.253  48.920  1.00  0.00    -0.383 OA
ATOM     10  H   UNL     1       1.664  32.279  48.987  1.00  0.00     0.211 HD
ENDBRANCH   6   9
ENDBRANCH   5   6
BRANCH   5  11
ATOM     11  O   UNL     1       0.179  35.512  48.376  1.00  0.00    -0.387 OA
ATOM     12  H   UNL     1       0.609  36.406  48.429  1.00  0.00     0.211 HD
ENDBRANCH   5  11
ENDBRANCH   1   5
BRANCH   1  13
ATOM     13  O   UNL     1       1.610  34.963  51.541  1.00  0.00    -0.388 OA
ATOM     14  H   UNL     1       2.526  35.300  51.716  1.00  0.00     0.211 HD
ENDBRANCH   1  13
TORSDOF 8
ENDMDL
MODEL 5
REMARK VINA RESULT:    -4.197      1.483      1.900
REMARK INTER + INTRA:          -6.560
REMARK INTER:                  -6.446
REMARK INTRA:                  -0.115
REMARK UNBOUND:                -0.891
REMARK SMILES O=C[C@@H](O)[C@H](O)[C@@H](O)CO
REMARK SMILES IDX 7 1 9 2 10 3 5 5 3 6 2 7 1 8 4 9 6 11 8 13
REMARK H PARENT 10 4 4 10 6 12 8 14
REMARK Flexibility Score: inf
ROOT
ATOM      1  C   UNL     1       0.407  33.597  49.578  1.00  0.00     0.171 C 
ENDROOT
BRANCH   1   2
ATOM      2  C   UNL     1       0.709  32.675  48.384  1.00  0.00     0.190 C 
BRANCH   2   3
ATOM      3  O   UNL     1      -0.390  31.863  48.071  1.00  0.00    -0.394 OA
ATOM      4  H   UNL     1      -0.694  32.131  47.164  1.00  0.00     0.210 HD
ENDBRANCH   2   3
ENDBRANCH   1   2
BRANCH   1   5
ATOM      5  C   UNL     1      -0.133  35.000  49.174  1.00  0.00     0.181 C 
BRANCH   5   6
ATOM      6  C   UNL     1       0.337  36.134  50.121  1.00  0.00     0.209 C 
BRANCH   6   7
ATOM      7  C   UNL     1       1.551  36.842  49.581  1.00  0.00     0.258 C 
ATOM      8  O   UNL     1       2.673  36.464  49.883  1.00  0.00    -0.300 OA
ENDBRANCH   6   7
BRANCH   6   9
ATOM      9  O   UNL     1      -0.692  37.078  50.266  1.00  0.00    -0.383 OA
ATOM     10  H   UNL     1      -1.197  36.832  51.085  1.00  0.00     0.211 HD
ENDBRANCH   6   9
ENDBRANCH   5   6
BRANCH   5  11
ATOM     11  O   UNL     1      -1.540  34.959  49.203  1.00  0.00    -0.387 OA
ATOM     12  H   UNL     1      -1.836  35.467  50.003  1.00  0.00     0.211 HD
ENDBRANCH   5  11
ENDBRANCH   1   5
BRANCH   1  13
ATOM     13  O   UNL     1      -0.531  32.951  50.403  1.00  0.00    -0.388 OA
ATOM     14  H   UNL     1      -1.375  32.875  49.886  1.00  0.00     0.211 HD
ENDBRANCH   1  13
TORSDOF 8
ENDMDL
MODEL 6
REMARK VINA RESULT:    -4.037     11.308     12.643
REMARK INTER + INTRA:          -6.343
REMARK INTER:                  -5.744
REMARK INTRA:                  -0.599
REMARK UNBOUND:                -0.891
REMARK SMILES O=C[C@@H](O)[C@H](O)[C@@H](O)CO
REMARK SMILES IDX 7 1 9 2 10 3 5 5 3 6 2 7 1 8 4 9 6 11 8 13
REMARK H PARENT 10 4 4 10 6 12 8 14
REMARK Flexibility Score: inf
ROOT
ATOM      1  C   UNL     1      11.158  34.883  52.974  1.00  0.00     0.171 C 
ENDROOT
BRANCH   1   2
ATOM      2  C   UNL     1      10.662  36.157  52.269  1.00  0.00     0.190 C 
BRANCH   2   3
ATOM      3  O   UNL     1      10.715  36.026  50.873  1.00  0.00    -0.394 OA
ATOM      4  H   UNL     1      11.655  35.804  50.642  1.00  0.00     0.210 HD
ENDBRANCH   2   3
ENDBRANCH   1   2
BRANCH   1   5
ATOM      5  C   UNL     1      12.701  34.684  52.912  1.00  0.00     0.181 C 
BRANCH   5   6
ATOM      6  C   UNL     1      13.498  35.960  53.284  1.00  0.00     0.209 C 
BRANCH   6   7
ATOM      7  C   UNL     1      14.156  35.832  54.632  1.00  0.00     0.258 C 
ATOM      8  O   UNL     1      13.547  35.349  55.573  1.00  0.00    -0.300 OA
ENDBRANCH   6   7
BRANCH   6   9
ATOM      9  O   UNL     1      14.502  36.178  52.326  1.00  0.00    -0.383 OA
ATOM     10  H   UNL     1      14.660  37.159  52.289  1.00  0.00     0.211 HD
ENDBRANCH   6   9
ENDBRANCH   5   6
BRANCH   5  11
ATOM     11  O   UNL     1      13.049  34.315  51.598  1.00  0.00    -0.387 OA
ATOM     12  H   UNL     1      12.452  34.815  50.981  1.00  0.00     0.211 HD
ENDBRANCH   5  11
ENDBRANCH   1   5
BRANCH   1  13
ATOM     13  O   UNL     1      10.744  34.937  54.317  1.00  0.00    -0.388 OA
ATOM     14  H   UNL     1      11.553  34.829  54.880  1.00  0.00     0.211 HD
ENDBRANCH   1  13
TORSDOF 8
ENDMDL
MODEL 7
REMARK VINA RESULT:    -4.017     11.472     12.736
REMARK INTER + INTRA:          -6.317
REMARK INTER:                  -5.398
REMARK INTRA:                  -0.919
REMARK UNBOUND:                -0.891
REMARK SMILES O=C[C@@H](O)[C@H](O)[C@@H](O)CO
REMARK SMILES IDX 7 1 9 2 10 3 5 5 3 6 2 7 1 8 4 9 6 11 8 13
REMARK H PARENT 10 4 4 10 6 12 8 14
REMARK Flexibility Score: inf
ROOT
ATOM      1  C   UNL     1      12.233  34.581  51.669  1.00  0.00     0.171 C 
ENDROOT
BRANCH   1   2
ATOM      2  C   UNL     1      11.456  34.931  50.388  1.00  0.00     0.190 C 
BRANCH   2   3
ATOM      3  O   UNL     1      10.743  36.131  50.531  1.00  0.00    -0.394 OA
ATOM      4  H   UNL     1      11.080  36.566  51.358  1.00  0.00     0.210 HD
ENDBRANCH   2   3
ENDBRANCH   1   2
BRANCH   1   5
ATOM      5  C   UNL     1      13.377  35.581  52.008  1.00  0.00     0.181 C 
BRANCH   5   6
ATOM      6  C   UNL     1      14.413  35.009  53.010  1.00  0.00     0.209 C 
BRANCH   6   7
ATOM      7  C   UNL     1      14.163  35.501  54.411  1.00  0.00     0.258 C 
ATOM      8  O   UNL     1      13.177  35.130  55.029  1.00  0.00    -0.300 OA
ENDBRANCH   6   7
BRANCH   6   9
ATOM      9  O   UNL     1      14.331  33.607  53.018  1.00  0.00    -0.383 OA
ATOM     10  H   UNL     1      14.750  33.297  53.863  1.00  0.00     0.211 HD
ENDBRANCH   6   9
ENDBRANCH   5   6
BRANCH   5  11
ATOM     11  O   UNL     1      12.805  36.734  52.577  1.00  0.00    -0.387 OA
ATOM     12  H   UNL     1      13.446  37.482  52.441  1.00  0.00     0.211 HD
ENDBRANCH   5  11
ENDBRANCH   1   5
BRANCH   1  13
ATOM     13  O   UNL     1      11.318  34.533  52.736  1.00  0.00    -0.388 OA
ATOM     14  H   UNL     1      11.812  34.784  53.559  1.00  0.00     0.211 HD
ENDBRANCH   1  13
TORSDOF 8
ENDMDL
MODEL 8
REMARK VINA RESULT:    -3.994     11.396     12.856
REMARK INTER + INTRA:          -6.286
REMARK INTER:                  -5.368
REMARK INTRA:                  -0.918
REMARK UNBOUND:                -0.891
REMARK SMILES O=C[C@@H](O)[C@H](O)[C@@H](O)CO
REMARK SMILES IDX 7 1 9 2 10 3 5 5 3 6 2 7 1 8 4 9 6 11 8 13
REMARK H PARENT 10 4 4 10 6 12 8 14
REMARK Flexibility Score: inf
ROOT
ATOM      1  C   UNL     1      13.162  35.165  53.596  1.00  0.00     0.171 C 
ENDROOT
BRANCH   1   2
ATOM      2  C   UNL     1      14.348  35.496  54.518  1.00  0.00     0.190 C 
BRANCH   2   3
ATOM      3  O   UNL     1      14.710  36.848  54.426  1.00  0.00    -0.394 OA
ATOM      4  H   UNL     1      14.470  37.267  55.294  1.00  0.00     0.210 HD
ENDBRANCH   2   3
ENDBRANCH   1   2
BRANCH   1   5
ATOM      5  C   UNL     1      12.734  36.339  52.668  1.00  0.00     0.181 C 
BRANCH   5   6
ATOM      6  C   UNL     1      11.301  36.181  52.100  1.00  0.00     0.209 C 
BRANCH   6   7
ATOM      7  C   UNL     1      11.318  35.738  50.661  1.00  0.00     0.258 C 
ATOM      8  O   UNL     1      11.624  34.592  50.371  1.00  0.00    -0.300 OA
ENDBRANCH   6   7
BRANCH   6   9
ATOM      9  O   UNL     1      10.607  35.215  52.847  1.00  0.00    -0.383 OA
ATOM     10  H   UNL     1      10.605  34.379  52.310  1.00  0.00     0.211 HD
ENDBRANCH   6   9
ENDBRANCH   5   6
BRANCH   5  11
ATOM     11  O   UNL     1      13.632  36.400  51.585  1.00  0.00    -0.387 OA
ATOM     12  H   UNL     1      13.978  37.329  51.538  1.00  0.00     0.211 HD
ENDBRANCH   5  11
ENDBRANCH   1   5
BRANCH   1  13
ATOM     13  O   UNL     1      13.514  34.051  52.813  1.00  0.00    -0.388 OA
ATOM     14  H   UNL     1      13.759  33.318  53.436  1.00  0.00     0.211 HD
ENDBRANCH   1  13
TORSDOF 8
ENDMDL
MODEL 9
REMARK VINA RESULT:    -3.849     12.203     13.513
REMARK INTER + INTRA:          -6.090
REMARK INTER:                  -5.236
REMARK INTRA:                  -0.854
REMARK UNBOUND:                -0.891
REMARK SMILES O=C[C@@H](O)[C@H](O)[C@@H](O)CO
REMARK SMILES IDX 7 1 9 2 10 3 5 5 3 6 2 7 1 8 4 9 6 11 8 13
REMARK H PARENT 10 4 4 10 6 12 8 14
REMARK Flexibility Score: inf
ROOT
ATOM      1  C   UNL     1      12.700  36.388  52.253  1.00  0.00     0.171 C 
ENDROOT
BRANCH   1   2
ATOM      2  C   UNL     1      11.559  36.275  51.228  1.00  0.00     0.190 C 
BRANCH   2   3
ATOM      3  O   UNL     1      11.926  35.478  50.134  1.00  0.00    -0.394 OA
ATOM      4  H   UNL     1      11.110  35.358  49.581  1.00  0.00     0.210 HD
ENDBRANCH   2   3
ENDBRANCH   1   2
BRANCH   1   5
ATOM      5  C   UNL     1      12.785  35.189  53.241  1.00  0.00     0.181 C 
BRANCH   5   6
ATOM      6  C   UNL     1      13.893  35.354  54.313  1.00  0.00     0.209 C 
BRANCH   6   7
ATOM      7  C   UNL     1      15.000  34.350  54.129  1.00  0.00     0.258 C 
ATOM      8  O   UNL     1      15.670  34.349  53.108  1.00  0.00    -0.300 OA
ENDBRANCH   6   7
BRANCH   6   9
ATOM      9  O   UNL     1      14.449  36.641  54.214  1.00  0.00    -0.383 OA
ATOM     10  H   UNL     1      13.694  37.272  54.076  1.00  0.00     0.211 HD
ENDBRANCH   6   9
ENDBRANCH   5   6
BRANCH   5  11
ATOM     11  O   UNL     1      13.059  34.022  52.502  1.00  0.00    -0.387 OA
ATOM     12  H   UNL     1      12.274  33.421  52.595  1.00  0.00     0.211 HD
ENDBRANCH   5  11
ENDBRANCH   1   5
BRANCH   1  13
ATOM     13  O   UNL     1      13.911  36.502  51.546  1.00  0.00    -0.388 OA
ATOM     14  H   UNL     1      14.226  37.437  51.650  1.00  0.00     0.211 HD
ENDBRANCH   1  13
TORSDOF 8
ENDMDL
