MODEL 1
REMARK VINA RESULT:    -4.973      0.000      0.000
REMARK INTER + INTRA:          -6.819
REMARK INTER:                  -6.427
REMARK INTRA:                  -0.392
REMARK UNBOUND:                -0.392
REMARK SMILES CCO[C@H]1O[C@H](CO)[C@@H](O)[C@@H](O)[C@@H]1O
REMARK SMILES IDX 4 1 13 2 11 3 9 4 6 5 5 6 3 7 2 8 1 9 14 10 12 12 7 14 8 15
REMARK SMILES IDX 10 17
REMARK H PARENT 14 11 12 13 8 16 10 18
REMARK Flexibility Score: inf
ROOT
ATOM      1  C   UNL     1     232.696 238.545 239.359  1.00  0.00     0.281 C 
ATOM      2  C   UNL     1     231.816 239.243 240.420  1.00  0.00     0.202 C 
ATOM      3  C   UNL     1     232.473 240.547 240.906  1.00  0.00     0.179 C 
ATOM      4  C   UNL     1     233.939 240.285 241.305  1.00  0.00     0.177 C 
ATOM      5  C   UNL     1     234.672 239.542 240.167  1.00  0.00     0.178 C 
ATOM      6  O   UNL     1     234.009 238.324 239.855  1.00  0.00    -0.341 OA
ENDROOT
BRANCH   1   7
ATOM      7  O   UNL     1     232.748 239.304 238.157  1.00  0.00    -0.350 OA
BRANCH   7   8
ATOM      8  C   UNL     1     233.050 238.483 237.049  1.00  0.00     0.160 C 
ATOM      9  C   UNL     1     234.228 239.081 236.294  1.00  0.00     0.035 C 
ENDBRANCH   7   8
ENDBRANCH   1   7
BRANCH   2  10
ATOM     10  O   UNL     1     231.630 238.368 241.505  1.00  0.00    -0.385 OA
ATOM     11  H   UNL     1     230.801 237.853 241.321  1.00  0.00     0.211 HD
ENDBRANCH   2  10
BRANCH   3  12
ATOM     12  O   UNL     1     232.404 241.512 239.885  1.00  0.00    -0.387 OA
ATOM     13  H   UNL     1     232.764 241.091 239.060  1.00  0.00     0.211 HD
ENDBRANCH   3  12
BRANCH   5  14
ATOM     14  C   UNL     1     236.112 239.212 240.577  1.00  0.00     0.191 C 
BRANCH  14  15
ATOM     15  O   UNL     1     236.935 240.321 240.339  1.00  0.00    -0.394 OA
ATOM     16  H   UNL     1     237.570 240.361 241.102  1.00  0.00     0.210 HD
ENDBRANCH  14  15
ENDBRANCH   5  14
BRANCH   4  17
ATOM     17  O   UNL     1     234.589 241.500 241.583  1.00  0.00    -0.387 OA
ATOM     18  H   UNL     1     235.465 241.468 241.118  1.00  0.00     0.211 HD
ENDBRANCH   4  17
TORSDOF 7
ENDMDL
MODEL 2
REMARK VINA RESULT:    -4.706      6.542      9.583
REMARK INTER + INTRA:          -6.473
REMARK INTER:                  -6.026
REMARK INTRA:                  -0.447
REMARK UNBOUND:                -0.392
REMARK SMILES CCO[C@H]1O[C@H](CO)[C@@H](O)[C@@H](O)[C@@H]1O
REMARK SMILES IDX 4 1 13 2 11 3 9 4 6 5 5 6 3 7 2 8 1 9 14 10 12 12 7 14 8 15
REMARK SMILES IDX 10 17
REMARK H PARENT 14 11 12 13 8 16 10 18
REMARK Flexibility Score: inf
ROOT
ATOM      1  C   UNL     1     235.706 238.636 232.111  1.00  0.00     0.281 C 
ATOM      2  C   UNL     1     234.870 239.713 231.383  1.00  0.00     0.202 C 
ATOM      3  C   UNL     1     233.655 239.082 230.681  1.00  0.00     0.179 C 
ATOM      4  C   UNL     1     234.103 237.879 229.827  1.00  0.00     0.177 C 
ATOM      5  C   UNL     1     234.967 236.920 230.676  1.00  0.00     0.178 C 
ATOM      6  O   UNL     1     236.091 237.603 231.215  1.00  0.00    -0.341 OA
ENDROOT
BRANCH   1   7
ATOM      7  O   UNL     1     234.991 238.090 233.212  1.00  0.00    -0.350 OA
BRANCH   7   8
ATOM      8  C   UNL     1     235.007 238.970 234.316  1.00  0.00     0.160 C 
ATOM      9  C   UNL     1     233.815 238.667 235.211  1.00  0.00     0.035 C 
ENDBRANCH   7   8
ENDBRANCH   1   7
BRANCH   2  10
ATOM     10  O   UNL     1     235.686 240.363 230.440  1.00  0.00    -0.385 OA
ATOM     11  H   UNL     1     236.102 241.136 230.902  1.00  0.00     0.211 HD
ENDBRANCH   2  10
BRANCH   3  12
ATOM     12  O   UNL     1     232.715 238.680 231.647  1.00  0.00    -0.387 OA
ATOM     13  H   UNL     1     232.674 237.688 231.619  1.00  0.00     0.211 HD
ENDBRANCH   3  12
BRANCH   5  14
ATOM     14  C   UNL     1     235.478 235.754 229.823  1.00  0.00     0.191 C 
BRANCH  14  15
ATOM     15  O   UNL     1     234.510 234.742 229.781  1.00  0.00    -0.394 OA
ATOM     16  H   UNL     1     233.744 235.071 230.318  1.00  0.00     0.210 HD
ENDBRANCH  14  15
ENDBRANCH   5  14
BRANCH   4  17
ATOM     17  O   UNL     1     232.981 237.199 229.324  1.00  0.00    -0.387 OA
ATOM     18  H   UNL     1     233.202 236.933 228.394  1.00  0.00     0.211 HD
ENDBRANCH   4  17
TORSDOF 7
ENDMDL
MODEL 3
REMARK VINA RESULT:    -4.654      1.569      3.105
REMARK INTER + INTRA:          -6.407
REMARK INTER:                  -5.978
REMARK INTRA:                  -0.428
REMARK UNBOUND:                -0.392
REMARK SMILES CCO[C@H]1O[C@H](CO)[C@@H](O)[C@@H](O)[C@@H]1O
REMARK SMILES IDX 4 1 13 2 11 3 9 4 6 5 5 6 3 7 2 8 1 9 14 10 12 12 7 14 8 15
REMARK SMILES IDX 10 17
REMARK H PARENT 14 11 12 13 8 16 10 18
REMARK Flexibility Score: inf
ROOT
ATOM      1  C   UNL     1     235.193 239.358 239.340  1.00  0.00     0.281 C 
ATOM      2  C   UNL     1     234.366 238.092 239.018  1.00  0.00     0.202 C 
ATOM      3  C   UNL     1     232.859 238.373 239.152  1.00  0.00     0.179 C 
ATOM      4  C   UNL     1     232.564 239.050 240.505  1.00  0.00     0.177 C 
ATOM      5  C   UNL     1     233.498 240.264 240.704  1.00  0.00     0.178 C 
ATOM      6  O   UNL     1     234.860 239.866 240.624  1.00  0.00    -0.341 OA
ENDROOT
BRANCH   1   7
ATOM      7  O   UNL     1     234.999 240.361 238.351  1.00  0.00    -0.350 OA
BRANCH   7   8
ATOM      8  C   UNL     1     236.051 240.355 237.408  1.00  0.00     0.160 C 
ATOM      9  C   UNL     1     235.481 240.054 236.030  1.00  0.00     0.035 C 
ENDBRANCH   7   8
ENDBRANCH   1   7
BRANCH   2  10
ATOM     10  O   UNL     1     234.743 237.065 239.901  1.00  0.00    -0.385 OA
ATOM     11  H   UNL     1     234.329 237.273 240.779  1.00  0.00     0.211 HD
ENDBRANCH   2  10
BRANCH   3  12
ATOM     12  O   UNL     1     232.441 239.193 238.088  1.00  0.00    -0.387 OA
ATOM     13  H   UNL     1     233.092 239.066 237.348  1.00  0.00     0.211 HD
ENDBRANCH   3  12
BRANCH   5  14
ATOM     14  C   UNL     1     233.266 240.906 242.076  1.00  0.00     0.191 C 
BRANCH  14  15
ATOM     15  O   UNL     1     232.307 241.922 241.965  1.00  0.00    -0.394 OA
ATOM     16  H   UNL     1     232.804 242.778 242.030  1.00  0.00     0.210 HD
ENDBRANCH  14  15
ENDBRANCH   5  14
BRANCH   4  17
ATOM     17  O   UNL     1     231.221 239.462 240.558  1.00  0.00    -0.387 OA
ATOM     18  H   UNL     1     230.681 238.649 240.735  1.00  0.00     0.211 HD
ENDBRANCH   4  17
TORSDOF 7
ENDMDL
MODEL 4
REMARK VINA RESULT:    -4.633      1.708      4.317
REMARK INTER + INTRA:          -6.379
REMARK INTER:                  -5.924
REMARK INTRA:                  -0.455
REMARK UNBOUND:                -0.392
REMARK SMILES CCO[C@H]1O[C@H](CO)[C@@H](O)[C@@H](O)[C@@H]1O
REMARK SMILES IDX 4 1 13 2 11 3 9 4 6 5 5 6 3 7 2 8 1 9 14 10 12 12 7 14 8 15
REMARK SMILES IDX 10 17
REMARK H PARENT 14 11 12 13 8 16 10 18
REMARK Flexibility Score: inf
ROOT
ATOM      1  C   UNL     1     236.083 238.898 239.606  1.00  0.00     0.281 C 
ATOM      2  C   UNL     1     236.284 240.379 239.998  1.00  0.00     0.202 C 
ATOM      3  C   UNL     1     235.121 240.877 240.875  1.00  0.00     0.179 C 
ATOM      4  C   UNL     1     233.773 240.526 240.215  1.00  0.00     0.177 C 
ATOM      5  C   UNL     1     233.742 239.028 239.838  1.00  0.00     0.178 C 
ATOM      6  O   UNL     1     234.825 238.707 238.975  1.00  0.00    -0.341 OA
ENDROOT
BRANCH   1   7
ATOM      7  O   UNL     1     236.196 238.048 240.741  1.00  0.00    -0.350 OA
BRANCH   7   8
ATOM      8  C   UNL     1     237.550 237.827 241.077  1.00  0.00     0.160 C 
ATOM      9  C   UNL     1     237.660 237.603 242.577  1.00  0.00     0.035 C 
ENDBRANCH   7   8
ENDBRANCH   1   7
BRANCH   2  10
ATOM     10  O   UNL     1     236.366 241.153 238.827  1.00  0.00    -0.385 OA
ATOM     11  H   UNL     1     235.707 241.890 238.920  1.00  0.00     0.211 HD
ENDBRANCH   2  10
BRANCH   3  12
ATOM     12  O   UNL     1     235.215 240.291 242.150  1.00  0.00    -0.387 OA
ATOM     13  H   UNL     1     235.030 239.321 242.040  1.00  0.00     0.211 HD
ENDBRANCH   3  12
BRANCH   5  14
ATOM     14  C   UNL     1     232.435 238.679 239.118  1.00  0.00     0.191 C 
BRANCH  14  15
ATOM     15  O   UNL     1     231.458 238.328 240.059  1.00  0.00    -0.394 OA
ATOM     16  H   UNL     1     231.310 237.352 239.952  1.00  0.00     0.210 HD
ENDBRANCH  14  15
ENDBRANCH   5  14
BRANCH   4  17
ATOM     17  O   UNL     1     232.714 240.823 241.091  1.00  0.00    -0.387 OA
ATOM     18  H   UNL     1     233.094 241.385 241.816  1.00  0.00     0.211 HD
ENDBRANCH   4  17
TORSDOF 7
ENDMDL
MODEL 5
REMARK VINA RESULT:    -4.610      8.359     10.978
REMARK INTER + INTRA:          -6.349
REMARK INTER:                  -5.951
REMARK INTRA:                  -0.398
REMARK UNBOUND:                -0.392
REMARK SMILES CCO[C@H]1O[C@H](CO)[C@@H](O)[C@@H](O)[C@@H]1O
REMARK SMILES IDX 4 1 13 2 11 3 9 4 6 5 5 6 3 7 2 8 1 9 14 10 12 12 7 14 8 15
REMARK SMILES IDX 10 17
REMARK H PARENT 14 11 12 13 8 16 10 18
REMARK Flexibility Score: inf
ROOT
ATOM      1  C   UNL     1     235.623 239.093 230.755  1.00  0.00     0.281 C 
ATOM      2  C   UNL     1     235.225 239.598 229.350  1.00  0.00     0.202 C 
ATOM      3  C   UNL     1     235.136 238.430 228.352  1.00  0.00     0.179 C 
ATOM      4  C   UNL     1     236.414 237.570 228.428  1.00  0.00     0.177 C 
ATOM      5  C   UNL     1     236.706 237.186 229.895  1.00  0.00     0.178 C 
ATOM      6  O   UNL     1     236.832 238.349 230.702  1.00  0.00    -0.341 OA
ENDROOT
BRANCH   1   7
ATOM      7  O   UNL     1     234.587 238.305 231.328  1.00  0.00    -0.350 OA
BRANCH   7   8
ATOM      8  C   UNL     1     233.971 238.981 232.405  1.00  0.00     0.160 C 
ATOM      9  C   UNL     1     232.635 239.540 231.941  1.00  0.00     0.035 C 
ENDBRANCH   7   8
ENDBRANCH   1   7
BRANCH   2  10
ATOM     10  O   UNL     1     236.183 240.530 228.912  1.00  0.00    -0.385 OA
ATOM     11  H   UNL     1     236.976 240.427 229.501  1.00  0.00     0.211 HD
ENDBRANCH   2  10
BRANCH   3  12
ATOM     12  O   UNL     1     234.000 237.654 228.644  1.00  0.00    -0.387 OA
ATOM     13  H   UNL     1     233.230 238.077 228.180  1.00  0.00     0.211 HD
ENDBRANCH   3  12
BRANCH   5  14
ATOM     14  C   UNL     1     238.012 236.389 229.995  1.00  0.00     0.191 C 
BRANCH  14  15
ATOM     15  O   UNL     1     238.894 236.802 228.987  1.00  0.00    -0.394 OA
ATOM     16  H   UNL     1     238.363 236.823 228.148  1.00  0.00     0.210 HD
ENDBRANCH  14  15
ENDBRANCH   5  14
BRANCH   4  17
ATOM     17  O   UNL     1     236.263 236.411 227.647  1.00  0.00    -0.387 OA
ATOM     18  H   UNL     1     235.383 236.020 227.885  1.00  0.00     0.211 HD
ENDBRANCH   4  17
TORSDOF 7
ENDMDL
MODEL 6
REMARK VINA RESULT:    -4.488      7.593     10.076
REMARK INTER + INTRA:          -6.193
REMARK INTER:                  -5.815
REMARK INTRA:                  -0.378
REMARK UNBOUND:                -0.392
REMARK SMILES CCO[C@H]1O[C@H](CO)[C@@H](O)[C@@H](O)[C@@H]1O
REMARK SMILES IDX 4 1 13 2 11 3 9 4 6 5 5 6 3 7 2 8 1 9 14 10 12 12 7 14 8 15
REMARK SMILES IDX 10 17
REMARK H PARENT 14 11 12 13 8 16 10 18
REMARK Flexibility Score: inf
ROOT
ATOM      1  C   UNL     1     235.735 237.428 230.085  1.00  0.00     0.281 C 
ATOM      2  C   UNL     1     235.501 238.457 228.955  1.00  0.00     0.202 C 
ATOM      3  C   UNL     1     235.468 239.890 229.516  1.00  0.00     0.179 C 
ATOM      4  C   UNL     1     234.502 239.967 230.716  1.00  0.00     0.177 C 
ATOM      5  C   UNL     1     234.830 238.850 231.731  1.00  0.00     0.178 C 
ATOM      6  O   UNL     1     234.763 237.574 231.111  1.00  0.00    -0.341 OA
ENDROOT
BRANCH   1   7
ATOM      7  O   UNL     1     237.043 237.553 230.627  1.00  0.00    -0.350 OA
BRANCH   7   8
ATOM      8  C   UNL     1     237.777 236.358 230.466  1.00  0.00     0.160 C 
ATOM      9  C   UNL     1     238.731 236.515 229.291  1.00  0.00     0.035 C 
ENDBRANCH   7   8
ENDBRANCH   1   7
BRANCH   2  10
ATOM     10  O   UNL     1     234.282 238.164 228.318  1.00  0.00    -0.385 OA
ATOM     11  H   UNL     1     233.906 239.027 228.002  1.00  0.00     0.211 HD
ENDBRANCH   2  10
BRANCH   3  12
ATOM     12  O   UNL     1     236.767 240.269 229.902  1.00  0.00    -0.387 OA
ATOM     13  H   UNL     1     237.239 239.443 230.187  1.00  0.00     0.211 HD
ENDBRANCH   3  12
BRANCH   5  14
ATOM     14  C   UNL     1     233.834 238.870 232.896  1.00  0.00     0.191 C 
BRANCH  14  15
ATOM     15  O   UNL     1     232.553 239.173 232.416  1.00  0.00    -0.394 OA
ATOM     16  H   UNL     1     232.252 238.373 231.911  1.00  0.00     0.210 HD
ENDBRANCH  14  15
ENDBRANCH   5  14
BRANCH   4  17
ATOM     17  O   UNL     1     234.600 241.225 231.335  1.00  0.00    -0.387 OA
ATOM     18  H   UNL     1     233.809 241.748 231.044  1.00  0.00     0.211 HD
ENDBRANCH   4  17
TORSDOF 7
ENDMDL
MODEL 7
REMARK VINA RESULT:    -4.481      1.518      3.991
REMARK INTER + INTRA:          -6.183
REMARK INTER:                  -5.978
REMARK INTRA:                  -0.205
REMARK UNBOUND:                -0.392
REMARK SMILES CCO[C@H]1O[C@H](CO)[C@@H](O)[C@@H](O)[C@@H]1O
REMARK SMILES IDX 4 1 13 2 11 3 9 4 6 5 5 6 3 7 2 8 1 9 14 10 12 12 7 14 8 15
REMARK SMILES IDX 10 17
REMARK H PARENT 14 11 12 13 8 16 10 18
REMARK Flexibility Score: inf
ROOT
ATOM      1  C   UNL     1     233.194 241.224 241.411  1.00  0.00     0.281 C 
ATOM      2  C   UNL     1     232.056 240.700 240.506  1.00  0.00     0.202 C 
ATOM      3  C   UNL     1     232.222 239.196 240.231  1.00  0.00     0.179 C 
ATOM      4  C   UNL     1     233.658 238.900 239.754  1.00  0.00     0.177 C 
ATOM      5  C   UNL     1     234.679 239.526 240.731  1.00  0.00     0.178 C 
ATOM      6  O   UNL     1     234.465 240.925 240.849  1.00  0.00    -0.341 OA
ENDROOT
BRANCH   1   7
ATOM      7  O   UNL     1     233.097 240.681 242.721  1.00  0.00    -0.350 OA
BRANCH   7   8
ATOM      8  C   UNL     1     233.519 241.616 243.692  1.00  0.00     0.160 C 
ATOM      9  C   UNL     1     234.696 241.037 244.461  1.00  0.00     0.035 C 
ENDBRANCH   7   8
ENDBRANCH   1   7
BRANCH   2  10
ATOM     10  O   UNL     1     232.072 241.414 239.294  1.00  0.00    -0.385 OA
ATOM     11  H   UNL     1     232.677 240.924 238.678  1.00  0.00     0.211 HD
ENDBRANCH   2  10
BRANCH   3  12
ATOM     12  O   UNL     1     231.931 238.473 241.402  1.00  0.00    -0.387 OA
ATOM     13  H   UNL     1     231.801 239.136 242.130  1.00  0.00     0.211 HD
ENDBRANCH   3  12
BRANCH   5  14
ATOM     14  C   UNL     1     236.111 239.300 240.233  1.00  0.00     0.191 C 
BRANCH  14  15
ATOM     15  O   UNL     1     236.842 240.491 240.345  1.00  0.00    -0.394 OA
ATOM     16  H   UNL     1     236.307 241.187 239.882  1.00  0.00     0.210 HD
ENDBRANCH  14  15
ENDBRANCH   5  14
BRANCH   4  17
ATOM     17  O   UNL     1     233.863 237.512 239.668  1.00  0.00    -0.387 OA
ATOM     18  H   UNL     1     234.652 237.376 239.081  1.00  0.00     0.211 HD
ENDBRANCH   4  17
TORSDOF 7
ENDMDL
MODEL 8
REMARK VINA RESULT:    -4.443      1.877      4.593
REMARK INTER + INTRA:          -6.134
REMARK INTER:                  -5.775
REMARK INTRA:                  -0.359
REMARK UNBOUND:                -0.392
REMARK SMILES CCO[C@H]1O[C@H](CO)[C@@H](O)[C@@H](O)[C@@H]1O
REMARK SMILES IDX 4 1 13 2 11 3 9 4 6 5 5 6 3 7 2 8 1 9 14 10 12 12 7 14 8 15
REMARK SMILES IDX 10 17
REMARK H PARENT 14 11 12 13 8 16 10 18
REMARK Flexibility Score: inf
ROOT
ATOM      1  C   UNL     1     235.466 239.640 240.823  1.00  0.00     0.281 C 
ATOM      2  C   UNL     1     236.749 239.458 239.982  1.00  0.00     0.202 C 
ATOM      3  C   UNL     1     236.587 240.092 238.590  1.00  0.00     0.179 C 
ATOM      4  C   UNL     1     235.275 239.612 237.938  1.00  0.00     0.177 C 
ATOM      5  C   UNL     1     234.095 239.814 238.915  1.00  0.00     0.178 C 
ATOM      6  O   UNL     1     234.333 239.128 240.136  1.00  0.00    -0.341 OA
ENDROOT
BRANCH   1   7
ATOM      7  O   UNL     1     235.261 241.008 241.154  1.00  0.00    -0.350 OA
BRANCH   7   8
ATOM      8  C   UNL     1     234.549 241.137 242.367  1.00  0.00     0.160 C 
ATOM      9  C   UNL     1     233.466 242.192 242.198  1.00  0.00     0.035 C 
ENDBRANCH   7   8
ENDBRANCH   1   7
BRANCH   2  10
ATOM     10  O   UNL     1     237.019 238.084 239.855  1.00  0.00    -0.385 OA
ATOM     11  H   UNL     1     237.432 237.790 240.708  1.00  0.00     0.211 HD
ENDBRANCH   2  10
BRANCH   3  12
ATOM     12  O   UNL     1     236.595 241.494 238.712  1.00  0.00    -0.387 OA
ATOM     13  H   UNL     1     237.537 241.790 238.613  1.00  0.00     0.211 HD
ENDBRANCH   3  12
BRANCH   5  14
ATOM     14  C   UNL     1     232.794 239.277 238.308  1.00  0.00     0.191 C 
BRANCH  14  15
ATOM     15  O   UNL     1     233.086 238.504 237.176  1.00  0.00    -0.394 OA
ATOM     16  H   UNL     1     232.944 237.559 237.443  1.00  0.00     0.210 HD
ENDBRANCH  14  15
ENDBRANCH   5  14
BRANCH   4  17
ATOM     17  O   UNL     1     235.040 240.319 236.747  1.00  0.00    -0.387 OA
ATOM     18  H   UNL     1     235.720 241.041 236.705  1.00  0.00     0.211 HD
ENDBRANCH   4  17
TORSDOF 7
ENDMDL
MODEL 9
REMARK VINA RESULT:    -4.342      6.772      8.191
REMARK INTER + INTRA:          -6.003
REMARK INTER:                  -5.645
REMARK INTRA:                  -0.359
REMARK UNBOUND:                -0.392
REMARK SMILES CCO[C@H]1O[C@H](CO)[C@@H](O)[C@@H](O)[C@@H]1O
REMARK SMILES IDX 4 1 13 2 11 3 9 4 6 5 5 6 3 7 2 8 1 9 14 10 12 12 7 14 8 15
REMARK SMILES IDX 10 17
REMARK H PARENT 14 11 12 13 8 16 10 18
REMARK Flexibility Score: inf
ROOT
ATOM      1  C   UNL     1     236.892 233.409 238.154  1.00  0.00     0.281 C 
ATOM      2  C   UNL     1     236.542 231.986 237.665  1.00  0.00     0.202 C 
ATOM      3  C   UNL     1     236.016 231.121 238.825  1.00  0.00     0.179 C 
ATOM      4  C   UNL     1     236.977 231.209 240.028  1.00  0.00     0.177 C 
ATOM      5  C   UNL     1     237.268 232.688 240.365  1.00  0.00     0.178 C 
ATOM      6  O   UNL     1     237.810 233.361 239.237  1.00  0.00    -0.341 OA
ENDROOT
BRANCH   1   7
ATOM      7  O   UNL     1     235.721 234.122 238.535  1.00  0.00    -0.350 OA
BRANCH   7   8
ATOM      8  C   UNL     1     235.958 235.514 238.557  1.00  0.00     0.160 C 
ATOM      9  C   UNL     1     235.288 236.113 239.785  1.00  0.00     0.035 C 
ENDBRANCH   7   8
ENDBRANCH   1   7
BRANCH   2  10
ATOM     10  O   UNL     1     237.693 231.398 237.112  1.00  0.00    -0.385 OA
ATOM     11  H   UNL     1     237.687 231.608 236.142  1.00  0.00     0.211 HD
ENDBRANCH   2  10
BRANCH   3  12
ATOM     12  O   UNL     1     234.729 231.559 239.187  1.00  0.00    -0.387 OA
ATOM     13  H   UNL     1     234.823 232.486 239.532  1.00  0.00     0.211 HD
ENDBRANCH   3  12
BRANCH   5  14
ATOM     14  C   UNL     1     238.277 232.791 241.515  1.00  0.00     0.191 C 
BRANCH  14  15
ATOM     15  O   UNL     1     237.594 232.844 242.737  1.00  0.00    -0.394 OA
ATOM     16  H   UNL     1     237.466 233.807 242.940  1.00  0.00     0.210 HD
ENDBRANCH  14  15
ENDBRANCH   5  14
BRANCH   4  17
ATOM     17  O   UNL     1     236.415 230.563 241.142  1.00  0.00    -0.387 OA
ATOM     18  H   UNL     1     235.436 230.716 241.097  1.00  0.00     0.211 HD
ENDBRANCH   4  17
TORSDOF 7
ENDMDL
