MODEL 1
REMARK VINA RESULT:    -3.383      0.000      0.000
REMARK INTER + INTRA:          -4.798
REMARK INTER:                  -4.372
REMARK INTRA:                  -0.426
REMARK UNBOUND:                -0.426
REMARK SMILES CCCCCCC(=O)[O-]
REMARK SMILES IDX 5 1 6 2 7 3 8 4 9 5 4 6 3 7 2 8 1 9
REMARK H PARENT
REMARK Flexibility Score: inf
ROOT
ATOM      1  C   UNL     1      14.011  43.265  61.570  1.00  0.00     0.006 C 
ENDROOT
BRANCH   1   2
ATOM      2  C   UNL     1      13.707  44.712  61.141  1.00  0.00     0.053 C 
BRANCH   2   3
ATOM      3  C   UNL     1      14.872  45.631  61.356  1.00  0.00     0.041 C 
ATOM      4  O   UNL     1      15.352  45.788  62.510  1.00  0.00    -0.550 OA
ATOM      5  O   UNL     1      15.456  46.283  60.276  1.00  0.00    -0.550 OA
ENDBRANCH   2   3
ENDBRANCH   1   2
BRANCH   1   6
ATOM      6  C   UNL     1      15.285  42.675  60.933  1.00  0.00     0.000 C 
BRANCH   6   7
ATOM      7  C   UNL     1      16.446  42.418  61.909  1.00  0.00    -0.000 C 
BRANCH   7   8
ATOM      8  C   UNL     1      17.763  43.064  61.455  1.00  0.00    -0.003 C 
ATOM      9  C   UNL     1      17.677  43.519  60.000  1.00  0.00     0.004 C 
ENDBRANCH   7   8
ENDBRANCH   6   7
ENDBRANCH   1   6
TORSDOF 5
ENDMDL
MODEL 2
REMARK VINA RESULT:    -3.317      1.877      3.499
REMARK INTER + INTRA:          -4.713
REMARK INTER:                  -4.336
REMARK INTRA:                  -0.377
REMARK UNBOUND:                -0.426
REMARK SMILES CCCCCCC(=O)[O-]
REMARK SMILES IDX 5 1 6 2 7 3 8 4 9 5 4 6 3 7 2 8 1 9
REMARK H PARENT
REMARK Flexibility Score: inf
ROOT
ATOM      1  C   UNL     1      16.545  42.556  61.701  1.00  0.00     0.006 C 
ENDROOT
BRANCH   1   2
ATOM      2  C   UNL     1      17.500  43.293  60.746  1.00  0.00     0.053 C 
BRANCH   2   3
ATOM      3  C   UNL     1      18.184  44.454  61.403  1.00  0.00     0.041 C 
ATOM      4  O   UNL     1      17.541  45.505  61.663  1.00  0.00    -0.550 OA
ATOM      5  O   UNL     1      19.523  44.362  61.766  1.00  0.00    -0.550 OA
ENDBRANCH   2   3
ENDBRANCH   1   2
BRANCH   1   6
ATOM      6  C   UNL     1      15.054  42.695  61.331  1.00  0.00     0.000 C 
BRANCH   6   7
ATOM      7  C   UNL     1      14.773  43.450  60.021  1.00  0.00    -0.000 C 
BRANCH   7   8
ATOM      8  C   UNL     1      13.889  44.688  60.222  1.00  0.00    -0.003 C 
ATOM      9  C   UNL     1      13.938  45.168  61.670  1.00  0.00     0.004 C 
ENDBRANCH   7   8
ENDBRANCH   6   7
ENDBRANCH   1   6
TORSDOF 5
ENDMDL
MODEL 3
REMARK VINA RESULT:    -3.265     14.977     16.232
REMARK INTER + INTRA:          -4.645
REMARK INTER:                  -4.510
REMARK INTRA:                  -0.135
REMARK UNBOUND:                -0.426
REMARK SMILES CCCCCCC(=O)[O-]
REMARK SMILES IDX 5 1 6 2 7 3 8 4 9 5 4 6 3 7 2 8 1 9
REMARK H PARENT
REMARK Flexibility Score: inf
ROOT
ATOM      1  C   UNL     1      16.001  30.866  69.783  1.00  0.00     0.006 C 
ENDROOT
BRANCH   1   2
ATOM      2  C   UNL     1      14.825  31.465  68.990  1.00  0.00     0.053 C 
BRANCH   2   3
ATOM      3  C   UNL     1      15.227  32.668  68.191  1.00  0.00     0.041 C 
ATOM      4  O   UNL     1      14.464  33.668  68.122  1.00  0.00    -0.550 OA
ATOM      5  O   UNL     1      16.462  32.704  67.556  1.00  0.00    -0.550 OA
ENDBRANCH   2   3
ENDBRANCH   1   2
BRANCH   1   6
ATOM      6  C   UNL     1      15.599  30.268  71.147  1.00  0.00     0.000 C 
BRANCH   6   7
ATOM      7  C   UNL     1      16.702  29.469  71.861  1.00  0.00    -0.000 C 
BRANCH   7   8
ATOM      8  C   UNL     1      16.146  28.398  72.809  1.00  0.00    -0.003 C 
ATOM      9  C   UNL     1      14.722  28.007  72.421  1.00  0.00     0.004 C 
ENDBRANCH   7   8
ENDBRANCH   6   7
ENDBRANCH   1   6
TORSDOF 5
ENDMDL
MODEL 4
REMARK VINA RESULT:    -3.251      2.007      2.298
REMARK INTER + INTRA:          -4.627
REMARK INTER:                  -4.286
REMARK INTRA:                  -0.341
REMARK UNBOUND:                -0.426
REMARK SMILES CCCCCCC(=O)[O-]
REMARK SMILES IDX 5 1 6 2 7 3 8 4 9 5 4 6 3 7 2 8 1 9
REMARK H PARENT
REMARK Flexibility Score: inf
ROOT
ATOM      1  C   UNL     1      13.717  43.272  61.585  1.00  0.00     0.006 C 
ENDROOT
BRANCH   1   2
ATOM      2  C   UNL     1      14.062  44.625  62.232  1.00  0.00     0.053 C 
BRANCH   2   3
ATOM      3  C   UNL     1      14.501  44.484  63.658  1.00  0.00     0.041 C 
ATOM      4  O   UNL     1      13.727  44.812  64.596  1.00  0.00    -0.550 OA
ATOM      5  O   UNL     1      15.749  43.951  63.956  1.00  0.00    -0.550 OA
ENDBRANCH   2   3
ENDBRANCH   1   2
BRANCH   1   6
ATOM      6  C   UNL     1      14.704  42.830  60.486  1.00  0.00     0.000 C 
BRANCH   6   7
ATOM      7  C   UNL     1      15.596  43.948  59.920  1.00  0.00    -0.000 C 
BRANCH   7   8
ATOM      8  C   UNL     1      17.081  43.563  59.875  1.00  0.00    -0.003 C 
ATOM      9  C   UNL     1      17.854  44.225  61.013  1.00  0.00     0.004 C 
ENDBRANCH   7   8
ENDBRANCH   6   7
ENDBRANCH   1   6
TORSDOF 5
ENDMDL
MODEL 5
REMARK VINA RESULT:    -3.250     10.950     12.174
REMARK INTER + INTRA:          -4.627
REMARK INTER:                  -4.381
REMARK INTRA:                  -0.246
REMARK UNBOUND:                -0.426
REMARK SMILES CCCCCCC(=O)[O-]
REMARK SMILES IDX 5 1 6 2 7 3 8 4 9 5 4 6 3 7 2 8 1 9
REMARK H PARENT
REMARK Flexibility Score: inf
ROOT
ATOM      1  C   UNL     1      14.389  34.034  66.923  1.00  0.00     0.006 C 
ENDROOT
BRANCH   1   2
ATOM      2  C   UNL     1      13.728  35.221  67.647  1.00  0.00     0.053 C 
BRANCH   2   3
ATOM      3  C   UNL     1      14.419  36.521  67.366  1.00  0.00     0.041 C 
ATOM      4  O   UNL     1      13.747  37.551  67.093  1.00  0.00    -0.550 OA
ATOM      5  O   UNL     1      15.803  36.608  67.444  1.00  0.00    -0.550 OA
ENDBRANCH   2   3
ENDBRANCH   1   2
BRANCH   1   6
ATOM      6  C   UNL     1      15.234  33.129  67.842  1.00  0.00     0.000 C 
BRANCH   6   7
ATOM      7  C   UNL     1      14.428  32.183  68.748  1.00  0.00    -0.000 C 
BRANCH   7   8
ATOM      8  C   UNL     1      13.152  31.654  68.077  1.00  0.00    -0.003 C 
ATOM      9  C   UNL     1      11.906  32.102  68.837  1.00  0.00     0.004 C 
ENDBRANCH   7   8
ENDBRANCH   6   7
ENDBRANCH   1   6
TORSDOF 5
ENDMDL
MODEL 6
REMARK VINA RESULT:    -3.238      1.466      2.093
REMARK INTER + INTRA:          -4.611
REMARK INTER:                  -4.409
REMARK INTRA:                  -0.202
REMARK UNBOUND:                -0.426
REMARK SMILES CCCCCCC(=O)[O-]
REMARK SMILES IDX 5 1 6 2 7 3 8 4 9 5 4 6 3 7 2 8 1 9
REMARK H PARENT
REMARK Flexibility Score: inf
ROOT
ATOM      1  C   UNL     1      15.474  42.744  61.354  1.00  0.00     0.006 C 
ENDROOT
BRANCH   1   2
ATOM      2  C   UNL     1      15.079  43.380  60.009  1.00  0.00     0.053 C 
BRANCH   2   3
ATOM      3  C   UNL     1      14.567  44.780  60.166  1.00  0.00     0.041 C 
ATOM      4  O   UNL     1      13.337  44.990  60.339  1.00  0.00    -0.550 OA
ATOM      5  O   UNL     1      15.451  45.853  60.163  1.00  0.00    -0.550 OA
ENDBRANCH   2   3
ENDBRANCH   1   2
BRANCH   1   6
ATOM      6  C   UNL     1      16.954  42.945  61.735  1.00  0.00     0.000 C 
BRANCH   6   7
ATOM      7  C   UNL     1      17.892  43.279  60.562  1.00  0.00    -0.000 C 
BRANCH   7   8
ATOM      8  C   UNL     1      19.360  43.411  60.989  1.00  0.00    -0.003 C 
ATOM      9  C   UNL     1      19.946  42.054  61.368  1.00  0.00     0.004 C 
ENDBRANCH   7   8
ENDBRANCH   6   7
ENDBRANCH   1   6
TORSDOF 5
ENDMDL
MODEL 7
REMARK VINA RESULT:    -3.216      2.027      3.467
REMARK INTER + INTRA:          -4.582
REMARK INTER:                  -4.132
REMARK INTRA:                  -0.450
REMARK UNBOUND:                -0.426
REMARK SMILES CCCCCCC(=O)[O-]
REMARK SMILES IDX 5 1 6 2 7 3 8 4 9 5 4 6 3 7 2 8 1 9
REMARK H PARENT
REMARK Flexibility Score: inf
ROOT
ATOM      1  C   UNL     1      15.494  43.999  59.893  1.00  0.00     0.006 C 
ENDROOT
BRANCH   1   2
ATOM      2  C   UNL     1      16.978  43.588  59.902  1.00  0.00     0.053 C 
BRANCH   2   3
ATOM      3  C   UNL     1      17.593  43.692  61.266  1.00  0.00     0.041 C 
ATOM      4  O   UNL     1      17.946  44.813  61.718  1.00  0.00    -0.550 OA
ATOM      5  O   UNL     1      17.739  42.558  62.055  1.00  0.00    -0.550 OA
ENDBRANCH   2   3
ENDBRANCH   1   2
BRANCH   1   6
ATOM      6  C   UNL     1      14.533  42.893  60.373  1.00  0.00     0.000 C 
BRANCH   6   7
ATOM      7  C   UNL     1      13.735  43.226  61.645  1.00  0.00    -0.000 C 
BRANCH   7   8
ATOM      8  C   UNL     1      14.114  44.585  62.250  1.00  0.00    -0.003 C 
ATOM      9  C   UNL     1      14.793  44.412  63.606  1.00  0.00     0.004 C 
ENDBRANCH   7   8
ENDBRANCH   6   7
ENDBRANCH   1   6
TORSDOF 5
ENDMDL
MODEL 8
REMARK VINA RESULT:    -3.204     12.142     13.348
REMARK INTER + INTRA:          -4.567
REMARK INTER:                  -4.468
REMARK INTRA:                  -0.100
REMARK UNBOUND:                -0.426
REMARK SMILES CCCCCCC(=O)[O-]
REMARK SMILES IDX 5 1 6 2 7 3 8 4 9 5 4 6 3 7 2 8 1 9
REMARK H PARENT
REMARK Flexibility Score: inf
ROOT
ATOM      1  C   UNL     1      15.581  33.088  67.765  1.00  0.00     0.006 C 
ENDROOT
BRANCH   1   2
ATOM      2  C   UNL     1      14.572  33.980  67.019  1.00  0.00     0.053 C 
BRANCH   2   3
ATOM      3  C   UNL     1      14.679  35.421  67.416  1.00  0.00     0.041 C 
ATOM      4  O   UNL     1      13.656  36.055  67.788  1.00  0.00    -0.550 OA
ATOM      5  O   UNL     1      15.915  36.056  67.415  1.00  0.00    -0.550 OA
ENDBRANCH   2   3
ENDBRANCH   1   2
BRANCH   1   6
ATOM      6  C   UNL     1      14.934  32.105  68.761  1.00  0.00     0.000 C 
BRANCH   6   7
ATOM      7  C   UNL     1      15.848  30.964  69.242  1.00  0.00    -0.000 C 
BRANCH   7   8
ATOM      8  C   UNL     1      15.950  30.884  70.771  1.00  0.00    -0.003 C 
ATOM      9  C   UNL     1      17.402  30.726  71.216  1.00  0.00     0.004 C 
ENDBRANCH   7   8
ENDBRANCH   6   7
ENDBRANCH   1   6
TORSDOF 5
ENDMDL
MODEL 9
REMARK VINA RESULT:    -3.170      2.149      3.687
REMARK INTER + INTRA:          -4.522
REMARK INTER:                  -4.078
REMARK INTRA:                  -0.444
REMARK UNBOUND:                -0.426
REMARK SMILES CCCCCCC(=O)[O-]
REMARK SMILES IDX 5 1 6 2 7 3 8 4 9 5 4 6 3 7 2 8 1 9
REMARK H PARENT
REMARK Flexibility Score: inf
ROOT
ATOM      1  C   UNL     1      17.301  43.895  60.404  1.00  0.00     0.006 C 
ENDROOT
BRANCH   1   2
ATOM      2  C   UNL     1      17.578  44.294  61.864  1.00  0.00     0.053 C 
BRANCH   2   3
ATOM      3  C   UNL     1      17.206  43.213  62.834  1.00  0.00     0.041 C 
ATOM      4  O   UNL     1      16.698  43.507  63.948  1.00  0.00    -0.550 OA
ATOM      5  O   UNL     1      17.383  41.877  62.493  1.00  0.00    -0.550 OA
ENDBRANCH   2   3
ENDBRANCH   1   2
BRANCH   1   6
ATOM      6  C   UNL     1      15.877  44.232  59.919  1.00  0.00     0.000 C 
BRANCH   6   7
ATOM      7  C   UNL     1      14.901  43.044  59.875  1.00  0.00    -0.000 C 
BRANCH   7   8
ATOM      8  C   UNL     1      14.065  42.908  61.155  1.00  0.00    -0.003 C 
ATOM      9  C   UNL     1      13.770  44.276  61.764  1.00  0.00     0.004 C 
ENDBRANCH   7   8
ENDBRANCH   6   7
ENDBRANCH   1   6
TORSDOF 5
ENDMDL
