MODEL 1
REMARK VINA RESULT:    -3.205      0.000      0.000
REMARK INTER + INTRA:          -5.291
REMARK INTER:                  -4.891
REMARK INTRA:                  -0.400
REMARK UNBOUND:                -0.400
REMARK SMILES CC1=CCC[C@H](C)C(=O)C[C@H](C(C)C)C(=O)C1
REMARK SMILES IDX 8 1 9 2 6 3 7 4 5 5 4 6 3 7 2 8 1 9 10 11 11 12 15 13 16 14
REMARK SMILES IDX 17 15 12 17 13 18 14 19
REMARK H PARENT
REMARK Flexibility Score: 70.00
ROOT
ATOM      1  C   UNL     1      16.049  60.841  20.761  1.00  0.00     0.136 C 
ATOM      2  O   UNL     1      16.771  60.953  19.781  1.00  0.00    -0.299 OA
ENDROOT
BRANCH   1   3
ATOM      3  C   UNL     1      16.297  59.663  21.698  1.00  0.00     0.053 C 
ATOM      4  C   UNL     1      16.301  58.284  21.021  1.00  0.00     0.016 C 
BRANCH   3   5
ATOM      5  C   UNL     1      17.556  59.882  22.577  1.00  0.00     0.015 C 
BRANCH   5   6
ATOM      6  C   UNL     1      17.389  60.878  23.741  1.00  0.00     0.028 C 
BRANCH   6   7
ATOM      7  C   UNL     1      16.278  60.477  24.680  1.00  0.00    -0.028 C 
ATOM      8  C   UNL     1      15.089  61.110  24.806  1.00  0.00    -0.070 CG0
ATOM      9  C   UNL     1      14.088  60.544  25.782  1.00  0.00     0.039 C 
ATOM     10  G   UNL     1      14.741  62.385  24.063  1.00  0.00     0.000 G0
ENDBRANCH   6   7
ENDBRANCH   5   6
ENDBRANCH   3   5
ENDBRANCH   1   3
BRANCH   1  11
ATOM     11  C   UNL     1      14.988  61.901  20.973  1.00  0.00     0.087 C 
BRANCH  11  12
ATOM     12  C   UNL     1      13.798  61.373  21.821  1.00  0.00     0.066 C 
BRANCH  12  13
ATOM     13  C   UNL     1      13.618  62.209  23.078  1.00  0.00     0.140 C 
ATOM     14  O   UNL     1      12.533  62.720  23.317  1.00  0.00    -0.299 OA
BRANCH  13  15
ATOM     15  C   UNL     1      14.737  62.401  24.070  1.00  0.00     0.106 CG0
ATOM     16  G   UNL     1      15.040  61.102  24.792  1.00  0.00     0.000 G0
ENDBRANCH  13  15
ENDBRANCH  12  13
BRANCH  12  17
ATOM     17  C   UNL     1      12.455  61.279  21.030  1.00  0.00    -0.006 C 
ATOM     18  C   UNL     1      12.517  61.880  19.612  1.00  0.00     0.008 C 
ATOM     19  C   UNL     1      11.937  59.833  20.965  1.00  0.00     0.008 C 
ENDBRANCH  12  17
ENDBRANCH  11  12
ENDBRANCH   1  11
TORSDOF 1
ENDMDL
MODEL 2
REMARK VINA RESULT:    -2.986      2.486      4.404
REMARK INTER + INTRA:          -4.956
REMARK INTER:                  -4.706
REMARK INTRA:                  -0.250
REMARK UNBOUND:                -0.400
REMARK SMILES CC1=CCC[C@H](C)C(=O)C[C@H](C(C)C)C(=O)C1
REMARK SMILES IDX 8 1 9 2 6 3 7 4 5 5 4 6 3 7 2 8 1 9 10 11 11 12 15 13 16 14
REMARK SMILES IDX 17 15 12 17 13 18 14 19
REMARK H PARENT
REMARK Flexibility Score: 70.00
ROOT
ATOM      1  C   UNL     1      13.390  60.805  22.314  1.00  0.00     0.136 C 
ATOM      2  O   UNL     1      12.581  61.524  22.882  1.00  0.00    -0.299 OA
ENDROOT
BRANCH   1   3
ATOM      3  C   UNL     1      13.763  61.149  20.876  1.00  0.00     0.053 C 
ATOM      4  C   UNL     1      12.682  61.903  20.086  1.00  0.00     0.016 C 
BRANCH   3   5
ATOM      5  C   UNL     1      15.142  61.856  20.793  1.00  0.00     0.015 C 
BRANCH   5   6
ATOM      6  C   UNL     1      16.327  60.957  20.392  1.00  0.00     0.028 C 
BRANCH   6   7
ATOM      7  C   UNL     1      17.254  60.687  21.551  1.00  0.00    -0.028 C 
ATOM      8  C   UNL     1      17.521  59.469  22.077  1.00  0.00    -0.070 CG0
ATOM      9  C   UNL     1      18.498  59.392  23.223  1.00  0.00     0.039 C 
ATOM     10  G   UNL     1      16.842  58.194  21.612  1.00  0.00     0.000 G0
ENDBRANCH   6   7
ENDBRANCH   5   6
ENDBRANCH   3   5
ENDBRANCH   1   3
BRANCH   1  11
ATOM     11  C   UNL     1      13.972  59.649  23.101  1.00  0.00     0.087 C 
BRANCH  11  12
ATOM     12  C   UNL     1      14.262  58.417  22.199  1.00  0.00     0.066 C 
BRANCH  12  13
ATOM     13  C   UNL     1      15.648  57.859  22.477  1.00  0.00     0.140 C 
ATOM     14  O   UNL     1      15.815  57.086  23.410  1.00  0.00    -0.299 OA
BRANCH  13  15
ATOM     15  C   UNL     1      16.830  58.201  21.606  1.00  0.00     0.106 CG0
ATOM     16  G   UNL     1      17.516  59.458  22.106  1.00  0.00     0.000 G0
ENDBRANCH  13  15
ENDBRANCH  12  13
BRANCH  12  17
ATOM     17  C   UNL     1      13.186  57.291  22.310  1.00  0.00    -0.006 C 
ATOM     18  C   UNL     1      11.853  57.753  22.929  1.00  0.00     0.008 C 
ATOM     19  C   UNL     1      12.928  56.620  20.951  1.00  0.00     0.008 C 
ENDBRANCH  12  17
ENDBRANCH  11  12
ENDBRANCH   1  11
TORSDOF 1
ENDMDL
MODEL 3
REMARK VINA RESULT:    -2.900      9.921     11.705
REMARK INTER + INTRA:          -4.826
REMARK INTER:                  -4.742
REMARK INTRA:                  -0.083
REMARK UNBOUND:                -0.400
REMARK SMILES CC1=CCC[C@H](C)C(=O)C[C@H](C(C)C)C(=O)C1
REMARK SMILES IDX 8 1 9 2 6 3 7 4 5 5 4 6 3 7 2 8 1 9 10 11 11 12 15 13 16 14
REMARK SMILES IDX 17 15 12 17 13 18 14 19
REMARK H PARENT
REMARK Flexibility Score: 70.00
ROOT
ATOM      1  C   UNL     1      12.445  51.041  20.943  1.00  0.00     0.136 C 
ATOM      2  O   UNL     1      13.250  51.318  21.820  1.00  0.00    -0.299 OA
ENDROOT
BRANCH   1   3
ATOM      3  C   UNL     1      12.229  52.058  19.827  1.00  0.00     0.053 C 
ATOM      4  C   UNL     1      11.425  51.542  18.623  1.00  0.00     0.016 C 
BRANCH   3   5
ATOM      5  C   UNL     1      11.666  53.397  20.370  1.00  0.00     0.015 C 
BRANCH   5   6
ATOM      6  C   UNL     1      10.130  53.522  20.369  1.00  0.00     0.028 C 
BRANCH   6   7
ATOM      7  C   UNL     1       9.545  53.362  21.751  1.00  0.00    -0.028 C 
ATOM      8  C   UNL     1       9.095  52.202  22.284  1.00  0.00    -0.070 CG0
ATOM      9  C   UNL     1       8.567  52.232  23.696  1.00  0.00     0.039 C 
ATOM     10  G   UNL     1       9.042  50.897  21.514  1.00  0.00     0.000 G0
ENDBRANCH   6   7
ENDBRANCH   5   6
ENDBRANCH   3   5
ENDBRANCH   1   3
BRANCH   1  11
ATOM     11  C   UNL     1      11.751  49.697  21.029  1.00  0.00     0.087 C 
BRANCH  11  12
ATOM     12  C   UNL     1      11.073  49.479  22.410  1.00  0.00     0.066 C 
BRANCH  12  13
ATOM     13  C   UNL     1       9.579  49.749  22.327  1.00  0.00     0.140 C 
ATOM     14  O   UNL     1       8.800  49.048  22.957  1.00  0.00    -0.299 OA
BRANCH  13  15
ATOM     15  C   UNL     1       9.024  50.890  21.514  1.00  0.00     0.106 CG0
ATOM     16  G   UNL     1       9.091  52.188  22.296  1.00  0.00     0.000 G0
ENDBRANCH  13  15
ENDBRANCH  12  13
BRANCH  12  17
ATOM     17  C   UNL     1      11.340  48.068  23.024  1.00  0.00    -0.006 C 
ATOM     18  C   UNL     1      11.553  46.956  21.979  1.00  0.00     0.008 C 
ATOM     19  C   UNL     1      12.520  48.095  24.009  1.00  0.00     0.008 C 
ENDBRANCH  12  17
ENDBRANCH  11  12
ENDBRANCH   1  11
TORSDOF 1
ENDMDL
MODEL 4
REMARK VINA RESULT:    -2.866     13.185     14.508
REMARK INTER + INTRA:          -4.773
REMARK INTER:                  -4.757
REMARK INTRA:                  -0.016
REMARK UNBOUND:                -0.400
REMARK SMILES CC1=CCC[C@H](C)C(=O)C[C@H](C(C)C)C(=O)C1
REMARK SMILES IDX 8 1 9 2 6 3 7 4 5 5 4 6 3 7 2 8 1 9 10 11 11 12 15 13 16 14
REMARK SMILES IDX 17 15 12 17 13 18 14 19
REMARK H PARENT
REMARK Flexibility Score: 70.00
ROOT
ATOM      1  C   UNL     1      18.545  53.002  34.213  1.00  0.00     0.136 C 
ATOM      2  O   UNL     1      18.899  53.724  35.134  1.00  0.00    -0.299 OA
ENDROOT
BRANCH   1   3
ATOM      3  C   UNL     1      19.311  53.098  32.897  1.00  0.00     0.053 C 
ATOM      4  C   UNL     1      20.769  53.567  33.026  1.00  0.00     0.016 C 
BRANCH   3   5
ATOM      5  C   UNL     1      19.192  51.794  32.066  1.00  0.00     0.015 C 
BRANCH   5   6
ATOM      6  C   UNL     1      18.362  51.903  30.772  1.00  0.00     0.028 C 
BRANCH   6   7
ATOM      7  C   UNL     1      17.378  50.768  30.630  1.00  0.00    -0.028 C 
ATOM      8  C   UNL     1      16.071  50.812  30.978  1.00  0.00    -0.070 CG0
ATOM      9  C   UNL     1      15.234  49.581  30.736  1.00  0.00     0.039 C 
ATOM     10  G   UNL     1      15.428  52.010  31.650  1.00  0.00     0.000 G0
ENDBRANCH   6   7
ENDBRANCH   5   6
ENDBRANCH   3   5
ENDBRANCH   1   3
BRANCH   1  11
ATOM     11  C   UNL     1      17.393  52.053  34.471  1.00  0.00     0.087 C 
BRANCH  11  12
ATOM     12  C   UNL     1      16.021  52.697  34.126  1.00  0.00     0.066 C 
BRANCH  12  13
ATOM     13  C   UNL     1      15.260  51.842  33.125  1.00  0.00     0.140 C 
ATOM     14  O   UNL     1      14.476  50.993  33.525  1.00  0.00    -0.299 OA
BRANCH  13  15
ATOM     15  C   UNL     1      15.415  52.034  31.638  1.00  0.00     0.106 CG0
ATOM     16  G   UNL     1      16.057  50.815  31.005  1.00  0.00     0.000 G0
ENDBRANCH  13  15
ENDBRANCH  12  13
BRANCH  12  17
ATOM     17  C   UNL     1      15.135  52.994  35.377  1.00  0.00    -0.006 C 
ATOM     18  C   UNL     1      15.437  52.093  36.591  1.00  0.00     0.008 C 
ATOM     19  C   UNL     1      15.216  54.473  35.788  1.00  0.00     0.008 C 
ENDBRANCH  12  17
ENDBRANCH  11  12
ENDBRANCH   1  11
TORSDOF 1
ENDMDL
MODEL 5
REMARK VINA RESULT:    -2.865     12.105     14.120
REMARK INTER + INTRA:          -4.771
REMARK INTER:                  -4.495
REMARK INTRA:                  -0.276
REMARK UNBOUND:                -0.400
REMARK SMILES CC1=CCC[C@H](C)C(=O)C[C@H](C(C)C)C(=O)C1
REMARK SMILES IDX 8 1 9 2 6 3 7 4 5 5 4 6 3 7 2 8 1 9 10 11 11 12 15 13 16 14
REMARK SMILES IDX 17 15 12 17 13 18 14 19
REMARK H PARENT
REMARK Flexibility Score: 70.00
ROOT
ATOM      1  C   UNL     1      16.428  52.464  33.959  1.00  0.00     0.136 C 
ATOM      2  O   UNL     1      16.461  52.153  32.777  1.00  0.00    -0.299 OA
ENDROOT
BRANCH   1   3
ATOM      3  C   UNL     1      15.229  52.005  34.783  1.00  0.00     0.053 C 
ATOM      4  C   UNL     1      15.504  51.814  36.283  1.00  0.00     0.016 C 
BRANCH   3   5
ATOM      5  C   UNL     1      13.984  52.896  34.531  1.00  0.00     0.015 C 
BRANCH   5   6
ATOM      6  C   UNL     1      13.885  54.163  35.401  1.00  0.00     0.028 C 
BRANCH   6   7
ATOM      7  C   UNL     1      14.049  55.425  34.590  1.00  0.00    -0.028 C 
ATOM      8  C   UNL     1      15.155  56.204  34.563  1.00  0.00    -0.070 CG0
ATOM      9  C   UNL     1      15.143  57.418  33.668  1.00  0.00     0.039 C 
ATOM     10  G   UNL     1      16.373  55.950  35.430  1.00  0.00     0.000 G0
ENDBRANCH   6   7
ENDBRANCH   5   6
ENDBRANCH   3   5
ENDBRANCH   1   3
BRANCH   1  11
ATOM     11  C   UNL     1      17.597  53.255  34.508  1.00  0.00     0.087 C 
BRANCH  11  12
ATOM     12  C   UNL     1      17.840  54.565  33.709  1.00  0.00     0.066 C 
BRANCH  12  13
ATOM     13  C   UNL     1      17.632  55.784  34.594  1.00  0.00     0.140 C 
ATOM     14  O   UNL     1      18.473  56.671  34.614  1.00  0.00    -0.299 OA
BRANCH  13  15
ATOM     15  C   UNL     1      16.389  55.953  35.431  1.00  0.00     0.106 CG0
ATOM     16  G   UNL     1      15.179  56.192  34.548  1.00  0.00     0.000 G0
ENDBRANCH  13  15
ENDBRANCH  12  13
BRANCH  12  17
ATOM     17  C   UNL     1      19.237  54.627  33.014  1.00  0.00    -0.006 C 
ATOM     18  C   UNL     1      20.259  53.612  33.563  1.00  0.00     0.008 C 
ATOM     19  C   UNL     1      19.116  54.477  31.489  1.00  0.00     0.008 C 
ENDBRANCH  12  17
ENDBRANCH  11  12
ENDBRANCH   1  11
TORSDOF 1
ENDMDL
MODEL 6
REMARK VINA RESULT:    -2.779      2.224      4.312
REMARK INTER + INTRA:          -4.641
REMARK INTER:                  -4.308
REMARK INTRA:                  -0.333
REMARK UNBOUND:                -0.400
REMARK SMILES CC1=CCC[C@H](C)C(=O)C[C@H](C(C)C)C(=O)C1
REMARK SMILES IDX 8 1 9 2 6 3 7 4 5 5 4 6 3 7 2 8 1 9 10 11 11 12 15 13 16 14
REMARK SMILES IDX 17 15 12 17 13 18 14 19
REMARK H PARENT
REMARK Flexibility Score: 70.00
ROOT
ATOM      1  C   UNL     1      14.539  61.360  21.074  1.00  0.00     0.136 C 
ATOM      2  O   UNL     1      15.178  61.066  20.074  1.00  0.00    -0.299 OA
ENDROOT
BRANCH   1   3
ATOM      3  C   UNL     1      13.034  61.564  20.923  1.00  0.00     0.053 C 
ATOM      4  C   UNL     1      12.625  62.773  20.068  1.00  0.00     0.016 C 
BRANCH   3   5
ATOM      5  C   UNL     1      12.320  60.264  20.469  1.00  0.00     0.015 C 
BRANCH   5   6
ATOM      6  C   UNL     1      11.717  59.407  21.598  1.00  0.00     0.028 C 
BRANCH   6   7
ATOM      7  C   UNL     1      12.576  58.211  21.926  1.00  0.00    -0.028 C 
ATOM      8  C   UNL     1      13.222  58.004  23.097  1.00  0.00    -0.070 CG0
ATOM      9  C   UNL     1      14.016  56.731  23.251  1.00  0.00     0.039 C 
ATOM     10  G   UNL     1      13.234  59.011  24.230  1.00  0.00     0.000 G0
ENDBRANCH   6   7
ENDBRANCH   5   6
ENDBRANCH   3   5
ENDBRANCH   1   3
BRANCH   1  11
ATOM     11  C   UNL     1      15.295  61.468  22.382  1.00  0.00     0.087 C 
BRANCH  11  12
ATOM     12  C   UNL     1      14.358  61.310  23.611  1.00  0.00     0.066 C 
BRANCH  12  13
ATOM     13  C   UNL     1      14.442  59.902  24.178  1.00  0.00     0.140 C 
ATOM     14  O   UNL     1      15.506  59.488  24.616  1.00  0.00    -0.299 OA
BRANCH  13  15
ATOM     15  C   UNL     1      13.234  59.003  24.252  1.00  0.00     0.106 CG0
ATOM     16  G   UNL     1      13.228  58.020  23.098  1.00  0.00     0.000 G0
ENDBRANCH  13  15
ENDBRANCH  12  13
BRANCH  12  17
ATOM     17  C   UNL     1      14.611  62.367  24.733  1.00  0.00    -0.006 C 
ATOM     18  C   UNL     1      15.920  63.163  24.565  1.00  0.00     0.008 C 
ATOM     19  C   UNL     1      13.424  63.334  24.876  1.00  0.00     0.008 C 
ENDBRANCH  12  17
ENDBRANCH  11  12
ENDBRANCH   1  11
TORSDOF 1
ENDMDL
MODEL 7
REMARK VINA RESULT:    -2.707      2.046      3.602
REMARK INTER + INTRA:          -4.530
REMARK INTER:                  -4.139
REMARK INTRA:                  -0.391
REMARK UNBOUND:                -0.400
REMARK SMILES CC1=CCC[C@H](C)C(=O)C[C@H](C(C)C)C(=O)C1
REMARK SMILES IDX 8 1 9 2 6 3 7 4 5 5 4 6 3 7 2 8 1 9 10 11 11 12 15 13 16 14
REMARK SMILES IDX 17 15 12 17 13 18 14 19
REMARK H PARENT
REMARK Flexibility Score: 70.00
ROOT
ATOM      1  C   UNL     1      12.853  60.763  21.322  1.00  0.00     0.136 C 
ATOM      2  O   UNL     1      12.225  60.830  20.275  1.00  0.00    -0.299 OA
ENDROOT
BRANCH   1   3
ATOM      3  C   UNL     1      12.900  59.418  22.040  1.00  0.00     0.053 C 
ATOM      4  C   UNL     1      11.529  58.807  22.367  1.00  0.00     0.016 C 
BRANCH   3   5
ATOM      5  C   UNL     1      13.827  58.409  21.311  1.00  0.00     0.015 C 
BRANCH   5   6
ATOM      6  C   UNL     1      15.218  58.944  20.923  1.00  0.00     0.028 C 
BRANCH   6   7
ATOM      7  C   UNL     1      16.198  58.866  22.069  1.00  0.00    -0.028 C 
ATOM      8  C   UNL     1      16.777  59.926  22.680  1.00  0.00    -0.070 CG0
ATOM      9  C   UNL     1      17.715  59.652  23.829  1.00  0.00     0.039 C 
ATOM     10  G   UNL     1      16.578  61.360  22.229  1.00  0.00     0.000 G0
ENDBRANCH   6   7
ENDBRANCH   5   6
ENDBRANCH   3   5
ENDBRANCH   1   3
BRANCH   1  11
ATOM     11  C   UNL     1      13.554  62.018  21.799  1.00  0.00     0.087 C 
BRANCH  11  12
ATOM     12  C   UNL     1      14.170  61.840  23.214  1.00  0.00     0.066 C 
BRANCH  12  13
ATOM     13  C   UNL     1      15.668  62.097  23.188  1.00  0.00     0.140 C 
ATOM     14  O   UNL     1      16.161  62.891  23.976  1.00  0.00    -0.299 OA
BRANCH  13  15
ATOM     15  C   UNL     1      16.581  61.367  22.236  1.00  0.00     0.106 CG0
ATOM     16  G   UNL     1      16.784  59.932  22.682  1.00  0.00     0.000 G0
ENDBRANCH  13  15
ENDBRANCH  12  13
BRANCH  12  17
ATOM     17  C   UNL     1      13.484  62.714  24.311  1.00  0.00    -0.006 C 
ATOM     18  C   UNL     1      12.231  63.467  23.824  1.00  0.00     0.008 C 
ATOM     19  C   UNL     1      13.146  61.888  25.563  1.00  0.00     0.008 C 
ENDBRANCH  12  17
ENDBRANCH  11  12
ENDBRANCH   1  11
TORSDOF 1
ENDMDL
MODEL 8
REMARK VINA RESULT:    -2.636      2.567      4.061
REMARK INTER + INTRA:          -4.423
REMARK INTER:                  -4.576
REMARK INTRA:                   0.154
REMARK UNBOUND:                -0.400
REMARK SMILES CC1=CCC[C@H](C)C(=O)C[C@H](C(C)C)C(=O)C1
REMARK SMILES IDX 8 1 9 2 6 3 7 4 5 5 4 6 3 7 2 8 1 9 10 11 11 12 15 13 16 14
REMARK SMILES IDX 17 15 12 17 13 18 14 19
REMARK H PARENT
REMARK Flexibility Score: 70.00
ROOT
ATOM      1  C   UNL     1      16.679  57.856  21.481  1.00  0.00     0.136 C 
ATOM      2  O   UNL     1      17.465  56.994  21.118  1.00  0.00    -0.299 OA
ENDROOT
BRANCH   1   3
ATOM      3  C   UNL     1      17.253  59.162  22.021  1.00  0.00     0.053 C 
ATOM      4  C   UNL     1      18.724  59.094  22.458  1.00  0.00     0.016 C 
BRANCH   3   5
ATOM      5  C   UNL     1      16.988  60.349  21.058  1.00  0.00     0.015 C 
BRANCH   5   6
ATOM      6  C   UNL     1      15.978  61.400  21.559  1.00  0.00     0.028 C 
BRANCH   6   7
ATOM      7  C   UNL     1      14.857  61.626  20.575  1.00  0.00    -0.028 C 
ATOM      8  C   UNL     1      13.561  61.288  20.769  1.00  0.00    -0.070 CG0
ATOM      9  C   UNL     1      12.574  61.618  19.677  1.00  0.00     0.039 C 
ATOM     10  G   UNL     1      13.069  60.543  21.995  1.00  0.00     0.000 G0
ENDBRANCH   6   7
ENDBRANCH   5   6
ENDBRANCH   3   5
ENDBRANCH   1   3
BRANCH   1  11
ATOM     11  C   UNL     1      15.200  57.561  21.335  1.00  0.00     0.087 C 
BRANCH  11  12
ATOM     12  C   UNL     1      14.353  58.278  22.423  1.00  0.00     0.066 C 
BRANCH  12  13
ATOM     13  C   UNL     1      13.209  59.055  21.792  1.00  0.00     0.140 C 
ATOM     14  O   UNL     1      12.366  58.465  21.132  1.00  0.00    -0.299 OA
BRANCH  13  15
ATOM     15  C   UNL     1      13.058  60.542  21.987  1.00  0.00     0.106 CG0
ATOM     16  G   UNL     1      13.537  61.294  20.760  1.00  0.00     0.000 G0
ENDBRANCH  13  15
ENDBRANCH  12  13
BRANCH  12  17
ATOM     17  C   UNL     1      13.816  57.319  23.533  1.00  0.00    -0.006 C 
ATOM     18  C   UNL     1      12.869  57.994  24.543  1.00  0.00     0.008 C 
ATOM     19  C   UNL     1      13.140  56.078  22.929  1.00  0.00     0.008 C 
ENDBRANCH  12  17
ENDBRANCH  11  12
ENDBRANCH   1  11
TORSDOF 1
ENDMDL
MODEL 9
REMARK VINA RESULT:    -2.574     11.843     13.686
REMARK INTER + INTRA:          -4.328
REMARK INTER:                  -4.267
REMARK INTRA:                  -0.061
REMARK UNBOUND:                -0.400
REMARK SMILES CC1=CCC[C@H](C)C(=O)C[C@H](C(C)C)C(=O)C1
REMARK SMILES IDX 8 1 9 2 6 3 7 4 5 5 4 6 3 7 2 8 1 9 10 11 11 12 15 13 16 14
REMARK SMILES IDX 17 15 12 17 13 18 14 19
REMARK H PARENT
REMARK Flexibility Score: 70.00
ROOT
ATOM      1  C   UNL     1      15.280  52.806  34.261  1.00  0.00     0.136 C 
ATOM      2  O   UNL     1      15.286  51.911  33.428  1.00  0.00    -0.299 OA
ENDROOT
BRANCH   1   3
ATOM      3  C   UNL     1      16.017  52.562  35.574  1.00  0.00     0.053 C 
ATOM      4  C   UNL     1      15.306  51.615  36.553  1.00  0.00     0.016 C 
BRANCH   3   5
ATOM      5  C   UNL     1      17.494  52.151  35.337  1.00  0.00     0.015 C 
BRANCH   5   6
ATOM      6  C   UNL     1      18.482  53.312  35.117  1.00  0.00     0.028 C 
BRANCH   6   7
ATOM      7  C   UNL     1      19.076  53.300  33.730  1.00  0.00    -0.028 C 
ATOM      8  C   UNL     1      18.909  54.263  32.795  1.00  0.00    -0.070 CG0
ATOM      9  C   UNL     1      19.606  54.089  31.469  1.00  0.00     0.039 C 
ATOM     10  G   UNL     1      18.014  55.471  32.993  1.00  0.00     0.000 G0
ENDBRANCH   6   7
ENDBRANCH   5   6
ENDBRANCH   3   5
ENDBRANCH   1   3
BRANCH   1  11
ATOM     11  C   UNL     1      14.561  54.090  33.902  1.00  0.00     0.087 C 
BRANCH  11  12
ATOM     12  C   UNL     1      15.527  55.307  33.864  1.00  0.00     0.066 C 
BRANCH  12  13
ATOM     13  C   UNL     1      16.568  55.135  32.769  1.00  0.00     0.140 C 
ATOM     14  O   UNL     1      16.227  54.733  31.666  1.00  0.00    -0.299 OA
BRANCH  13  15
ATOM     15  C   UNL     1      18.017  55.485  32.991  1.00  0.00     0.106 CG0
ATOM     16  G   UNL     1      18.899  54.269  32.785  1.00  0.00     0.000 G0
ENDBRANCH  13  15
ENDBRANCH  12  13
BRANCH  12  17
ATOM     17  C   UNL     1      14.800  56.681  33.717  1.00  0.00    -0.006 C 
ATOM     18  C   UNL     1      13.317  56.569  33.313  1.00  0.00     0.008 C 
ATOM     19  C   UNL     1      14.933  57.530  34.991  1.00  0.00     0.008 C 
ENDBRANCH  12  17
ENDBRANCH  11  12
ENDBRANCH   1  11
TORSDOF 1
ENDMDL
