MODEL 1
REMARK VINA RESULT:    -3.036      0.000      0.000
REMARK INTER + INTRA:          -8.165
REMARK INTER:                  -5.521
REMARK INTRA:                  -2.645
REMARK UNBOUND:                -2.645
REMARK SMILES CCCCCCCCCCCCCC[C@H](C)C(=O)[O-]
REMARK SMILES IDX 9 1 10 2 11 3 12 4 13 5 14 6 15 7 16 8 17 9 18 10 19 11 8 12
REMARK SMILES IDX 7 13 6 14 5 15 4 16 3 17 2 18 1 19
REMARK H PARENT
REMARK Flexibility Score: inf
ROOT
ATOM      1  C   UNL     1     -45.057 -47.859  70.219  1.00  0.00     0.000 C 
ENDROOT
BRANCH   1   2
ATOM      2  C   UNL     1     -46.092 -47.166  71.117  1.00  0.00     0.000 C 
BRANCH   2   3
ATOM      3  C   UNL     1     -47.486 -47.083  70.469  1.00  0.00     0.000 C 
BRANCH   3   4
ATOM      4  C   UNL     1     -48.584 -47.914  71.164  1.00  0.00     0.000 C 
BRANCH   4   5
ATOM      5  C   UNL     1     -49.058 -49.158  70.391  1.00  0.00     0.001 C 
BRANCH   5   6
ATOM      6  C   UNL     1     -50.523 -49.525  70.687  1.00  0.00     0.009 C 
BRANCH   6   7
ATOM      7  C   UNL     1     -51.157 -50.389  69.576  1.00  0.00     0.032 C 
ATOM      8  C   UNL     1     -50.106 -51.155  68.759  1.00  0.00     0.014 C 
BRANCH   7   9
ATOM      9  C   UNL     1     -51.978 -49.525  68.659  1.00  0.00     0.044 C 
ATOM     10  O   UNL     1     -51.942 -49.698  67.412  1.00  0.00    -0.550 OA
ATOM     11  O   UNL     1     -52.788 -48.527  69.188  1.00  0.00    -0.550 OA
ENDBRANCH   7   9
ENDBRANCH   6   7
ENDBRANCH   5   6
ENDBRANCH   4   5
ENDBRANCH   3   4
ENDBRANCH   2   3
ENDBRANCH   1   2
BRANCH   1  12
ATOM     12  C   UNL     1     -44.874 -49.328  70.626  1.00  0.00     0.000 C 
BRANCH  12  13
ATOM     13  C   UNL     1     -45.649 -50.297  69.718  1.00  0.00    -0.000 C 
BRANCH  13  14
ATOM     14  C   UNL     1     -45.451 -49.991  68.223  1.00  0.00    -0.000 C 
BRANCH  14  15
ATOM     15  C   UNL     1     -46.778 -49.946  67.449  1.00  0.00    -0.000 C 
BRANCH  15  16
ATOM     16  C   UNL     1     -47.220 -48.514  67.109  1.00  0.00    -0.000 C 
BRANCH  16  17
ATOM     17  C   UNL     1     -48.723 -48.465  66.796  1.00  0.00    -0.000 C 
BRANCH  17  18
ATOM     18  C   UNL     1     -49.374 -47.143  67.227  1.00  0.00    -0.003 C 
ATOM     19  C   UNL     1     -50.466 -46.678  66.264  1.00  0.00     0.004 C 
ENDBRANCH  17  18
ENDBRANCH  16  17
ENDBRANCH  15  16
ENDBRANCH  14  15
ENDBRANCH  13  14
ENDBRANCH  12  13
ENDBRANCH   1  12
TORSDOF 14
ENDMDL
MODEL 2
REMARK VINA RESULT:    -3.014      3.551      5.685
REMARK INTER + INTRA:          -8.125
REMARK INTER:                  -6.240
REMARK INTRA:                  -1.885
REMARK UNBOUND:                -2.645
REMARK SMILES CCCCCCCCCCCCCC[C@H](C)C(=O)[O-]
REMARK SMILES IDX 9 1 10 2 11 3 12 4 13 5 14 6 15 7 16 8 17 9 18 10 19 11 8 12
REMARK SMILES IDX 7 13 6 14 5 15 4 16 3 17 2 18 1 19
REMARK H PARENT
REMARK Flexibility Score: inf
ROOT
ATOM      1  C   UNL     1     -43.803 -45.659  72.281  1.00  0.00     0.000 C 
ENDROOT
BRANCH   1   2
ATOM      2  C   UNL     1     -44.623 -46.654  71.446  1.00  0.00     0.000 C 
BRANCH   2   3
ATOM      3  C   UNL     1     -43.743 -47.660  70.682  1.00  0.00     0.000 C 
BRANCH   3   4
ATOM      4  C   UNL     1     -44.340 -49.075  70.535  1.00  0.00     0.000 C 
BRANCH   4   5
ATOM      5  C   UNL     1     -45.879 -49.144  70.544  1.00  0.00     0.001 C 
BRANCH   5   6
ATOM      6  C   UNL     1     -46.507 -48.662  69.224  1.00  0.00     0.009 C 
BRANCH   6   7
ATOM      7  C   UNL     1     -47.622 -47.615  69.443  1.00  0.00     0.032 C 
ATOM      8  C   UNL     1     -48.141 -47.607  70.888  1.00  0.00     0.014 C 
BRANCH   7   9
ATOM      9  C   UNL     1     -48.762 -47.876  68.497  1.00  0.00     0.044 C 
ATOM     10  O   UNL     1     -49.067 -47.030  67.614  1.00  0.00    -0.550 OA
ATOM     11  O   UNL     1     -49.486 -49.057  68.592  1.00  0.00    -0.550 OA
ENDBRANCH   7   9
ENDBRANCH   6   7
ENDBRANCH   5   6
ENDBRANCH   4   5
ENDBRANCH   3   4
ENDBRANCH   2   3
ENDBRANCH   1   2
BRANCH   1  12
ATOM     12  C   UNL     1     -42.297 -45.875  72.070  1.00  0.00     0.000 C 
BRANCH  12  13
ATOM     13  C   UNL     1     -41.529 -44.557  71.878  1.00  0.00    -0.000 C 
BRANCH  13  14
ATOM     14  C   UNL     1     -42.459 -43.333  71.833  1.00  0.00    -0.000 C 
BRANCH  14  15
ATOM     15  C   UNL     1     -42.438 -42.625  70.468  1.00  0.00    -0.000 C 
BRANCH  15  16
ATOM     16  C   UNL     1     -43.271 -43.358  69.406  1.00  0.00    -0.000 C 
BRANCH  16  17
ATOM     17  C   UNL     1     -42.378 -43.866  68.264  1.00  0.00    -0.000 C 
BRANCH  17  18
ATOM     18  C   UNL     1     -42.149 -45.384  68.322  1.00  0.00    -0.003 C 
ATOM     19  C   UNL     1     -42.408 -46.074  66.983  1.00  0.00     0.004 C 
ENDBRANCH  17  18
ENDBRANCH  16  17
ENDBRANCH  15  16
ENDBRANCH  14  15
ENDBRANCH  13  14
ENDBRANCH  12  13
ENDBRANCH   1  12
TORSDOF 14
ENDMDL
MODEL 3
REMARK VINA RESULT:    -2.991      3.172      5.145
REMARK INTER + INTRA:          -8.085
REMARK INTER:                  -6.322
REMARK INTRA:                  -1.762
REMARK UNBOUND:                -2.645
REMARK SMILES CCCCCCCCCCCCCC[C@H](C)C(=O)[O-]
REMARK SMILES IDX 9 1 10 2 11 3 12 4 13 5 14 6 15 7 16 8 17 9 18 10 19 11 8 12
REMARK SMILES IDX 7 13 6 14 5 15 4 16 3 17 2 18 1 19
REMARK H PARENT
REMARK Flexibility Score: inf
ROOT
ATOM      1  C   UNL     1     -44.162 -48.994  70.083  1.00  0.00     0.000 C 
ENDROOT
BRANCH   1   2
ATOM      2  C   UNL     1     -45.515 -48.770  70.775  1.00  0.00     0.000 C 
BRANCH   2   3
ATOM      3  C   UNL     1     -46.025 -47.324  70.638  1.00  0.00     0.000 C 
BRANCH   3   4
ATOM      4  C   UNL     1     -47.557 -47.175  70.535  1.00  0.00     0.000 C 
BRANCH   4   5
ATOM      5  C   UNL     1     -48.344 -48.497  70.471  1.00  0.00     0.001 C 
BRANCH   5   6
ATOM      6  C   UNL     1     -48.945 -48.769  69.080  1.00  0.00     0.009 C 
BRANCH   6   7
ATOM      7  C   UNL     1     -48.419 -47.794  68.003  1.00  0.00     0.032 C 
ATOM      8  C   UNL     1     -49.556 -47.081  67.256  1.00  0.00     0.014 C 
BRANCH   7   9
ATOM      9  C   UNL     1     -47.553 -48.533  67.021  1.00  0.00     0.044 C 
ATOM     10  O   UNL     1     -48.036 -48.965  65.940  1.00  0.00    -0.550 OA
ATOM     11  O   UNL     1     -46.209 -48.741  67.302  1.00  0.00    -0.550 OA
ENDBRANCH   7   9
ENDBRANCH   6   7
ENDBRANCH   5   6
ENDBRANCH   4   5
ENDBRANCH   3   4
ENDBRANCH   2   3
ENDBRANCH   1   2
BRANCH   1  12
ATOM     12  C   UNL     1     -43.430 -47.661  69.865  1.00  0.00     0.000 C 
BRANCH  12  13
ATOM     13  C   UNL     1     -42.455 -47.325  71.004  1.00  0.00    -0.000 C 
BRANCH  13  14
ATOM     14  C   UNL     1     -42.796 -45.996  71.701  1.00  0.00    -0.000 C 
BRANCH  14  15
ATOM     15  C   UNL     1     -42.229 -44.777  70.956  1.00  0.00    -0.000 C 
BRANCH  15  16
ATOM     16  C   UNL     1     -43.299 -44.020  70.153  1.00  0.00    -0.000 C 
BRANCH  16  17
ATOM     17  C   UNL     1     -42.748 -43.579  68.789  1.00  0.00    -0.000 C 
BRANCH  17  18
ATOM     18  C   UNL     1     -41.764 -44.595  68.191  1.00  0.00    -0.003 C 
ATOM     19  C   UNL     1     -42.336 -45.333  66.981  1.00  0.00     0.004 C 
ENDBRANCH  17  18
ENDBRANCH  16  17
ENDBRANCH  15  16
ENDBRANCH  14  15
ENDBRANCH  13  14
ENDBRANCH  12  13
ENDBRANCH   1  12
TORSDOF 14
ENDMDL
MODEL 4
REMARK VINA RESULT:    -2.989      1.912      5.295
REMARK INTER + INTRA:          -8.080
REMARK INTER:                  -5.959
REMARK INTRA:                  -2.122
REMARK UNBOUND:                -2.645
REMARK SMILES CCCCCCCCCCCCCC[C@H](C)C(=O)[O-]
REMARK SMILES IDX 9 1 10 2 11 3 12 4 13 5 14 6 15 7 16 8 17 9 18 10 19 11 8 12
REMARK SMILES IDX 7 13 6 14 5 15 4 16 3 17 2 18 1 19
REMARK H PARENT
REMARK Flexibility Score: inf
ROOT
ATOM      1  C   UNL     1     -48.087 -50.390  68.504  1.00  0.00     0.000 C 
ENDROOT
BRANCH   1   2
ATOM      2  C   UNL     1     -46.921 -50.093  67.550  1.00  0.00     0.000 C 
BRANCH   2   3
ATOM      3  C   UNL     1     -46.955 -48.660  66.990  1.00  0.00     0.000 C 
BRANCH   3   4
ATOM      4  C   UNL     1     -47.279 -48.550  65.486  1.00  0.00     0.000 C 
BRANCH   4   5
ATOM      5  C   UNL     1     -48.776 -48.456  65.139  1.00  0.00     0.001 C 
BRANCH   5   6
ATOM      6  C   UNL     1     -49.148 -47.133  64.446  1.00  0.00     0.009 C 
BRANCH   6   7
ATOM      7  C   UNL     1     -50.166 -46.301  65.258  1.00  0.00     0.032 C 
ATOM      8  C   UNL     1     -50.316 -46.807  66.700  1.00  0.00     0.014 C 
BRANCH   7   9
ATOM      9  C   UNL     1     -51.505 -46.320  64.574  1.00  0.00     0.044 C 
ATOM     10  O   UNL     1     -52.422 -47.082  64.981  1.00  0.00    -0.550 OA
ATOM     11  O   UNL     1     -51.739 -45.490  63.484  1.00  0.00    -0.550 OA
ENDBRANCH   7   9
ENDBRANCH   6   7
ENDBRANCH   5   6
ENDBRANCH   4   5
ENDBRANCH   3   4
ENDBRANCH   2   3
ENDBRANCH   1   2
BRANCH   1  12
ATOM     12  C   UNL     1     -48.730 -49.088  69.005  1.00  0.00     0.000 C 
BRANCH  12  13
ATOM     13  C   UNL     1     -49.067 -49.131  70.505  1.00  0.00    -0.000 C 
BRANCH  13  14
ATOM     14  C   UNL     1     -48.566 -47.886  71.258  1.00  0.00    -0.000 C 
BRANCH  14  15
ATOM     15  C   UNL     1     -47.518 -47.095  70.458  1.00  0.00    -0.000 C 
BRANCH  15  16
ATOM     16  C   UNL     1     -46.138 -47.086  71.134  1.00  0.00    -0.000 C 
BRANCH  16  17
ATOM     17  C   UNL     1     -45.109 -47.849  70.287  1.00  0.00    -0.000 C 
BRANCH  17  18
ATOM     18  C   UNL     1     -45.068 -49.349  70.615  1.00  0.00    -0.003 C 
ATOM     19  C   UNL     1     -43.695 -49.973  70.367  1.00  0.00     0.004 C 
ENDBRANCH  17  18
ENDBRANCH  16  17
ENDBRANCH  15  16
ENDBRANCH  14  15
ENDBRANCH  13  14
ENDBRANCH  12  13
ENDBRANCH   1  12
TORSDOF 14
ENDMDL
MODEL 5
REMARK VINA RESULT:    -2.969      1.808      4.142
REMARK INTER + INTRA:          -8.044
REMARK INTER:                  -5.635
REMARK INTRA:                  -2.409
REMARK UNBOUND:                -2.645
REMARK SMILES CCCCCCCCCCCCCC[C@H](C)C(=O)[O-]
REMARK SMILES IDX 9 1 10 2 11 3 12 4 13 5 14 6 15 7 16 8 17 9 18 10 19 11 8 12
REMARK SMILES IDX 7 13 6 14 5 15 4 16 3 17 2 18 1 19
REMARK H PARENT
REMARK Flexibility Score: inf
ROOT
ATOM      1  C   UNL     1     -43.936 -48.361  68.357  1.00  0.00     0.000 C 
ENDROOT
BRANCH   1   2
ATOM      2  C   UNL     1     -44.565 -48.492  66.962  1.00  0.00     0.000 C 
BRANCH   2   3
ATOM      3  C   UNL     1     -45.963 -49.137  66.995  1.00  0.00     0.000 C 
BRANCH   3   4
ATOM      4  C   UNL     1     -46.933 -48.659  65.895  1.00  0.00     0.000 C 
BRANCH   4   5
ATOM      5  C   UNL     1     -48.425 -48.698  66.271  1.00  0.00     0.001 C 
BRANCH   5   6
ATOM      6  C   UNL     1     -48.886 -47.436  67.023  1.00  0.00     0.009 C 
BRANCH   6   7
ATOM      7  C   UNL     1     -50.412 -47.211  66.930  1.00  0.00     0.032 C 
ATOM      8  C   UNL     1     -51.211 -48.355  67.570  1.00  0.00     0.014 C 
BRANCH   7   9
ATOM      9  C   UNL     1     -50.820 -47.052  65.491  1.00  0.00     0.044 C 
ATOM     10  O   UNL     1     -51.651 -47.843  64.970  1.00  0.00    -0.550 OA
ATOM     11  O   UNL     1     -50.281 -46.025  64.727  1.00  0.00    -0.550 OA
ENDBRANCH   7   9
ENDBRANCH   6   7
ENDBRANCH   5   6
ENDBRANCH   4   5
ENDBRANCH   3   4
ENDBRANCH   2   3
ENDBRANCH   1   2
BRANCH   1  12
ATOM     12  C   UNL     1     -44.611 -49.312  69.356  1.00  0.00     0.000 C 
BRANCH  12  13
ATOM     13  C   UNL     1     -44.812 -48.675  70.741  1.00  0.00    -0.000 C 
BRANCH  13  14
ATOM     14  C   UNL     1     -45.546 -47.325  70.669  1.00  0.00    -0.000 C 
BRANCH  14  15
ATOM     15  C   UNL     1     -46.944 -47.447  70.042  1.00  0.00    -0.000 C 
BRANCH  15  16
ATOM     16  C   UNL     1     -48.063 -47.516  71.093  1.00  0.00    -0.000 C 
BRANCH  16  17
ATOM     17  C   UNL     1     -48.954 -48.747  70.864  1.00  0.00    -0.000 C 
BRANCH  17  18
ATOM     18  C   UNL     1     -48.362 -49.722  69.837  1.00  0.00    -0.003 C 
ATOM     19  C   UNL     1     -47.780 -50.980  70.481  1.00  0.00     0.004 C 
ENDBRANCH  17  18
ENDBRANCH  16  17
ENDBRANCH  15  16
ENDBRANCH  14  15
ENDBRANCH  13  14
ENDBRANCH  12  13
ENDBRANCH   1  12
TORSDOF 14
ENDMDL
MODEL 6
REMARK VINA RESULT:    -2.923      4.894      7.439
REMARK INTER + INTRA:          -7.960
REMARK INTER:                  -6.137
REMARK INTRA:                  -1.823
REMARK UNBOUND:                -2.645
REMARK SMILES CCCCCCCCCCCCCC[C@H](C)C(=O)[O-]
REMARK SMILES IDX 9 1 10 2 11 3 12 4 13 5 14 6 15 7 16 8 17 9 18 10 19 11 8 12
REMARK SMILES IDX 7 13 6 14 5 15 4 16 3 17 2 18 1 19
REMARK H PARENT
REMARK Flexibility Score: inf
ROOT
ATOM      1  C   UNL     1     -43.576 -49.146  67.979  1.00  0.00     0.000 C 
ENDROOT
BRANCH   1   2
ATOM      2  C   UNL     1     -43.495 -47.831  67.188  1.00  0.00     0.000 C 
BRANCH   2   3
ATOM      3  C   UNL     1     -42.071 -47.249  67.139  1.00  0.00     0.000 C 
BRANCH   3   4
ATOM      4  C   UNL     1     -41.958 -45.842  66.517  1.00  0.00     0.000 C 
BRANCH   4   5
ATOM      5  C   UNL     1     -42.477 -44.689  67.398  1.00  0.00     0.001 C 
BRANCH   5   6
ATOM      6  C   UNL     1     -42.212 -44.916  68.897  1.00  0.00     0.009 C 
BRANCH   6   7
ATOM      7  C   UNL     1     -43.104 -44.036  69.800  1.00  0.00     0.032 C 
ATOM      8  C   UNL     1     -43.178 -42.582  69.310  1.00  0.00     0.014 C 
BRANCH   7   9
ATOM      9  C   UNL     1     -42.594 -44.068  71.213  1.00  0.00     0.044 C 
ATOM     10  O   UNL     1     -41.871 -45.021  71.612  1.00  0.00    -0.550 OA
ATOM     11  O   UNL     1     -42.916 -43.040  72.091  1.00  0.00    -0.550 OA
ENDBRANCH   7   9
ENDBRANCH   6   7
ENDBRANCH   5   6
ENDBRANCH   4   5
ENDBRANCH   3   4
ENDBRANCH   2   3
ENDBRANCH   1   2
BRANCH   1  12
ATOM     12  C   UNL     1     -44.894 -49.236  68.760  1.00  0.00     0.000 C 
BRANCH  12  13
ATOM     13  C   UNL     1     -44.687 -49.188  70.283  1.00  0.00    -0.000 C 
BRANCH  13  14
ATOM     14  C   UNL     1     -44.151 -47.828  70.763  1.00  0.00    -0.000 C 
BRANCH  14  15
ATOM     15  C   UNL     1     -45.243 -46.748  70.816  1.00  0.00    -0.000 C 
BRANCH  15  16
ATOM     16  C   UNL     1     -46.615 -47.310  71.222  1.00  0.00    -0.000 C 
BRANCH  16  17
ATOM     17  C   UNL     1     -47.671 -47.001  70.150  1.00  0.00    -0.000 C 
BRANCH  17  18
ATOM     18  C   UNL     1     -48.413 -48.258  69.671  1.00  0.00    -0.003 C 
ATOM     19  C   UNL     1     -48.336 -49.409  70.674  1.00  0.00     0.004 C 
ENDBRANCH  17  18
ENDBRANCH  16  17
ENDBRANCH  15  16
ENDBRANCH  14  15
ENDBRANCH  13  14
ENDBRANCH  12  13
ENDBRANCH   1  12
TORSDOF 14
ENDMDL
MODEL 7
REMARK VINA RESULT:    -2.898      5.170      7.234
REMARK INTER + INTRA:          -7.914
REMARK INTER:                  -6.592
REMARK INTRA:                  -1.322
REMARK UNBOUND:                -2.645
REMARK SMILES CCCCCCCCCCCCCC[C@H](C)C(=O)[O-]
REMARK SMILES IDX 9 1 10 2 11 3 12 4 13 5 14 6 15 7 16 8 17 9 18 10 19 11 8 12
REMARK SMILES IDX 7 13 6 14 5 15 4 16 3 17 2 18 1 19
REMARK H PARENT
REMARK Flexibility Score: inf
ROOT
ATOM      1  C   UNL     1     -45.638 -48.600  70.753  1.00  0.00     0.000 C 
ENDROOT
BRANCH   1   2
ATOM      2  C   UNL     1     -44.181 -48.135  70.606  1.00  0.00     0.000 C 
BRANCH   2   3
ATOM      3  C   UNL     1     -44.028 -46.607  70.705  1.00  0.00     0.000 C 
BRANCH   3   4
ATOM      4  C   UNL     1     -42.779 -46.120  71.468  1.00  0.00     0.000 C 
BRANCH   4   5
ATOM      5  C   UNL     1     -42.031 -44.940  70.821  1.00  0.00     0.001 C 
BRANCH   5   6
ATOM      6  C   UNL     1     -42.977 -43.832  70.324  1.00  0.00     0.009 C 
BRANCH   6   7
ATOM      7  C   UNL     1     -42.707 -43.431  68.857  1.00  0.00     0.032 C 
ATOM      8  C   UNL     1     -42.327 -44.635  67.983  1.00  0.00     0.014 C 
BRANCH   7   9
ATOM      9  C   UNL     1     -41.614 -42.400  68.801  1.00  0.00     0.044 C 
ATOM     10  O   UNL     1     -40.466 -42.706  68.378  1.00  0.00    -0.550 OA
ATOM     11  O   UNL     1     -41.866 -41.098  69.213  1.00  0.00    -0.550 OA
ENDBRANCH   7   9
ENDBRANCH   6   7
ENDBRANCH   5   6
ENDBRANCH   4   5
ENDBRANCH   3   4
ENDBRANCH   2   3
ENDBRANCH   1   2
BRANCH   1  12
ATOM     12  C   UNL     1     -46.559 -47.417  71.088  1.00  0.00     0.000 C 
BRANCH  12  13
ATOM     13  C   UNL     1     -48.050 -47.770  70.959  1.00  0.00    -0.000 C 
BRANCH  13  14
ATOM     14  C   UNL     1     -48.275 -49.223  70.505  1.00  0.00    -0.000 C 
BRANCH  14  15
ATOM     15  C   UNL     1     -48.931 -49.313  69.118  1.00  0.00    -0.000 C 
BRANCH  15  16
ATOM     16  C   UNL     1     -47.907 -49.282  67.973  1.00  0.00    -0.000 C 
BRANCH  16  17
ATOM     17  C   UNL     1     -48.372 -48.347  66.847  1.00  0.00    -0.000 C 
BRANCH  17  18
ATOM     18  C   UNL     1     -49.244 -47.192  67.360  1.00  0.00    -0.003 C 
ATOM     19  C   UNL     1     -50.321 -46.773  66.360  1.00  0.00     0.004 C 
ENDBRANCH  17  18
ENDBRANCH  16  17
ENDBRANCH  15  16
ENDBRANCH  14  15
ENDBRANCH  13  14
ENDBRANCH  12  13
ENDBRANCH   1  12
TORSDOF 14
ENDMDL
MODEL 8
REMARK VINA RESULT:    -2.875      4.193      6.796
REMARK INTER + INTRA:          -7.873
REMARK INTER:                  -5.455
REMARK INTRA:                  -2.418
REMARK UNBOUND:                -2.645
REMARK SMILES CCCCCCCCCCCCCC[C@H](C)C(=O)[O-]
REMARK SMILES IDX 9 1 10 2 11 3 12 4 13 5 14 6 15 7 16 8 17 9 18 10 19 11 8 12
REMARK SMILES IDX 7 13 6 14 5 15 4 16 3 17 2 18 1 19
REMARK H PARENT
REMARK Flexibility Score: inf
ROOT
ATOM      1  C   UNL     1     -48.756 -48.980  69.280  1.00  0.00     0.000 C 
ENDROOT
BRANCH   1   2
ATOM      2  C   UNL     1     -48.484 -48.235  70.596  1.00  0.00     0.000 C 
BRANCH   2   3
ATOM      3  C   UNL     1     -47.428 -47.125  70.447  1.00  0.00     0.000 C 
BRANCH   3   4
ATOM      4  C   UNL     1     -46.078 -47.406  71.137  1.00  0.00     0.000 C 
BRANCH   4   5
ATOM      5  C   UNL     1     -44.969 -46.374  70.862  1.00  0.00     0.001 C 
BRANCH   5   6
ATOM      6  C   UNL     1     -43.593 -46.817  71.391  1.00  0.00     0.009 C 
BRANCH   6   7
ATOM      7  C   UNL     1     -42.929 -45.751  72.290  1.00  0.00     0.032 C 
ATOM      8  C   UNL     1     -43.832 -45.326  73.457  1.00  0.00     0.014 C 
BRANCH   7   9
ATOM      9  C   UNL     1     -42.562 -44.546  71.469  1.00  0.00     0.044 C 
ATOM     10  O   UNL     1     -42.768 -43.383  71.911  1.00  0.00    -0.550 OA
ATOM     11  O   UNL     1     -41.989 -44.709  70.214  1.00  0.00    -0.550 OA
ENDBRANCH   7   9
ENDBRANCH   6   7
ENDBRANCH   5   6
ENDBRANCH   4   5
ENDBRANCH   3   4
ENDBRANCH   2   3
ENDBRANCH   1   2
BRANCH   1  12
ATOM     12  C   UNL     1     -48.170 -48.215  68.085  1.00  0.00     0.000 C 
BRANCH  12  13
ATOM     13  C   UNL     1     -47.774 -49.140  66.923  1.00  0.00    -0.000 C 
BRANCH  13  14
ATOM     14  C   UNL     1     -46.275 -49.488  66.930  1.00  0.00    -0.000 C 
BRANCH  14  15
ATOM     15  C   UNL     1     -45.413 -48.368  67.533  1.00  0.00    -0.000 C 
BRANCH  15  16
ATOM     16  C   UNL     1     -44.219 -48.905  68.338  1.00  0.00    -0.000 C 
BRANCH  16  17
ATOM     17  C   UNL     1     -44.284 -50.435  68.458  1.00  0.00    -0.000 C 
BRANCH  17  18
ATOM     18  C   UNL     1     -44.464 -50.907  69.908  1.00  0.00    -0.003 C 
ATOM     19  C   UNL     1     -45.933 -51.035  70.311  1.00  0.00     0.004 C 
ENDBRANCH  17  18
ENDBRANCH  16  17
ENDBRANCH  15  16
ENDBRANCH  14  15
ENDBRANCH  13  14
ENDBRANCH  12  13
ENDBRANCH   1  12
TORSDOF 14
ENDMDL
MODEL 9
REMARK VINA RESULT:    -2.869      3.081      5.082
REMARK INTER + INTRA:          -7.862
REMARK INTER:                  -5.332
REMARK INTRA:                  -2.530
REMARK UNBOUND:                -2.645
REMARK SMILES CCCCCCCCCCCCCC[C@H](C)C(=O)[O-]
REMARK SMILES IDX 9 1 10 2 11 3 12 4 13 5 14 6 15 7 16 8 17 9 18 10 19 11 8 12
REMARK SMILES IDX 7 13 6 14 5 15 4 16 3 17 2 18 1 19
REMARK H PARENT
REMARK Flexibility Score: inf
ROOT
ATOM      1  C   UNL     1     -47.250 -46.933  70.380  1.00  0.00     0.000 C 
ENDROOT
BRANCH   1   2
ATOM      2  C   UNL     1     -46.053 -47.126  71.322  1.00  0.00     0.000 C 
BRANCH   2   3
ATOM      3  C   UNL     1     -44.748 -46.532  70.761  1.00  0.00     0.000 C 
BRANCH   3   4
ATOM      4  C   UNL     1     -43.699 -47.567  70.303  1.00  0.00     0.000 C 
BRANCH   4   5
ATOM      5  C   UNL     1     -44.152 -49.037  70.369  1.00  0.00     0.001 C 
BRANCH   5   6
ATOM      6  C   UNL     1     -44.361 -49.661  68.977  1.00  0.00     0.009 C 
BRANCH   6   7
ATOM      7  C   UNL     1     -44.789 -48.622  67.916  1.00  0.00     0.032 C 
ATOM      8  C   UNL     1     -46.201 -48.887  67.375  1.00  0.00     0.014 C 
BRANCH   7   9
ATOM      9  C   UNL     1     -43.804 -48.615  66.780  1.00  0.00     0.044 C 
ATOM     10  O   UNL     1     -42.664 -48.097  66.924  1.00  0.00    -0.550 OA
ATOM     11  O   UNL     1     -44.148 -49.185  65.561  1.00  0.00    -0.550 OA
ENDBRANCH   7   9
ENDBRANCH   6   7
ENDBRANCH   5   6
ENDBRANCH   4   5
ENDBRANCH   3   4
ENDBRANCH   2   3
ENDBRANCH   1   2
BRANCH   1  12
ATOM     12  C   UNL     1     -48.319 -48.009  70.624  1.00  0.00     0.000 C 
BRANCH  12  13
ATOM     13  C   UNL     1     -47.723 -49.421  70.750  1.00  0.00    -0.000 C 
BRANCH  13  14
ATOM     14  C   UNL     1     -48.759 -50.525  70.477  1.00  0.00    -0.000 C 
BRANCH  14  15
ATOM     15  C   UNL     1     -48.965 -50.782  68.975  1.00  0.00    -0.000 C 
BRANCH  15  16
ATOM     16  C   UNL     1     -50.416 -50.549  68.526  1.00  0.00    -0.000 C 
BRANCH  16  17
ATOM     17  C   UNL     1     -50.655 -49.068  68.194  1.00  0.00    -0.000 C 
BRANCH  17  18
ATOM     18  C   UNL     1     -49.876 -48.607  66.954  1.00  0.00    -0.003 C 
ATOM     19  C   UNL     1     -49.499 -47.127  67.009  1.00  0.00     0.004 C 
ENDBRANCH  17  18
ENDBRANCH  16  17
ENDBRANCH  15  16
ENDBRANCH  14  15
ENDBRANCH  13  14
ENDBRANCH  12  13
ENDBRANCH   1  12
TORSDOF 14
ENDMDL
