MODEL 1
REMARK VINA RESULT:    -5.011      0.000      0.000
REMARK INTER + INTRA:          -5.794
REMARK INTER:                  -5.744
REMARK INTRA:                  -0.050
REMARK UNBOUND:                -0.050
REMARK SMILES O=C([O-])c1cc(O)c(O)c(O)c1
REMARK SMILES IDX 4 1 5 2 12 3 6 4 10 5 8 6 2 7 1 8 3 9 7 10 11 12 9 14
REMARK H PARENT 7 11 11 13 9 15
REMARK Flexibility Score: inf
ROOT
ATOM      1  C   UNL     1      12.142   2.346  14.182  1.00  0.00     0.005 A 
ATOM      2  C   UNL     1      13.358   1.965  14.768  1.00  0.00     0.060 A 
ATOM      3  C   UNL     1      11.017   1.524  14.353  1.00  0.00     0.060 A 
ATOM      4  C   UNL     1      13.460   0.786  15.516  1.00  0.00     0.162 A 
ATOM      5  C   UNL     1      11.105   0.342  15.098  1.00  0.00     0.162 A 
ATOM      6  C   UNL     1      12.321  -0.037  15.683  1.00  0.00     0.200 A 
ENDROOT
BRANCH   1   7
ATOM      7  C   UNL     1      12.050   3.597  13.395  1.00  0.00     0.072 C 
ATOM      8  O   UNL     1      13.043   4.020  12.745  1.00  0.00    -0.545 OA
ATOM      9  O   UNL     1      10.865   4.323  13.363  1.00  0.00    -0.545 OA
ENDBRANCH   1   7
BRANCH   4  10
ATOM     10  O   UNL     1      14.705   0.473  16.069  1.00  0.00    -0.504 OA
ATOM     11  H   UNL     1      15.137  -0.437  16.009  1.00  0.00     0.293 HD
ENDBRANCH   4  10
BRANCH   5  12
ATOM     12  O   UNL     1       9.982  -0.468  15.263  1.00  0.00    -0.504 OA
ATOM     13  H   UNL     1       9.737  -1.181  14.586  1.00  0.00     0.293 HD
ENDBRANCH   5  12
BRANCH   6  14
ATOM     14  O   UNL     1      12.355  -1.226  16.417  1.00  0.00    -0.502 OA
ATOM     15  H   UNL     1      13.183  -1.789  16.545  1.00  0.00     0.293 HD
ENDBRANCH   6  14
TORSDOF 4
ENDMDL
MODEL 2
REMARK VINA RESULT:    -4.857      1.808      4.257
REMARK INTER + INTRA:          -5.618
REMARK INTER:                  -5.567
REMARK INTRA:                  -0.050
REMARK UNBOUND:                -0.050
REMARK SMILES O=C([O-])c1cc(O)c(O)c(O)c1
REMARK SMILES IDX 4 1 5 2 12 3 6 4 10 5 8 6 2 7 1 8 3 9 7 10 11 12 9 14
REMARK H PARENT 7 11 11 13 9 15
REMARK Flexibility Score: inf
ROOT
ATOM      1  C   UNL     1      11.968   1.114  14.500  1.00  0.00     0.005 A 
ATOM      2  C   UNL     1      12.040   2.053  13.460  1.00  0.00     0.060 A 
ATOM      3  C   UNL     1      12.341   1.504  15.796  1.00  0.00     0.060 A 
ATOM      4  C   UNL     1      12.473   3.363  13.698  1.00  0.00     0.162 A 
ATOM      5  C   UNL     1      12.777   2.811  16.049  1.00  0.00     0.162 A 
ATOM      6  C   UNL     1      12.848   3.747  15.007  1.00  0.00     0.200 A 
ENDROOT
BRANCH   1   7
ATOM      7  C   UNL     1      11.507  -0.267  14.231  1.00  0.00     0.072 C 
ATOM      8  O   UNL     1      11.706  -0.802  13.108  1.00  0.00    -0.545 OA
ATOM      9  O   UNL     1      10.847  -0.993  15.216  1.00  0.00    -0.545 OA
ENDBRANCH   1   7
BRANCH   4  10
ATOM     10  O   UNL     1      12.518   4.240  12.612  1.00  0.00    -0.504 OA
ATOM     11  H   UNL     1      13.004   4.047  11.749  1.00  0.00     0.293 HD
ENDBRANCH   4  10
BRANCH   5  12
ATOM     12  O   UNL     1      13.144   3.190  17.339  1.00  0.00    -0.504 OA
ATOM     13  H   UNL     1      12.870   4.085  17.728  1.00  0.00     0.293 HD
ENDBRANCH   5  12
BRANCH   6  14
ATOM     14  O   UNL     1      13.288   5.037  15.314  1.00  0.00    -0.502 OA
ATOM     15  H   UNL     1      14.238   5.356  15.190  1.00  0.00     0.293 HD
ENDBRANCH   6  14
TORSDOF 4
ENDMDL
MODEL 3
REMARK VINA RESULT:    -4.835      1.832      4.100
REMARK INTER + INTRA:          -5.592
REMARK INTER:                  -5.541
REMARK INTRA:                  -0.052
REMARK UNBOUND:                -0.050
REMARK SMILES O=C([O-])c1cc(O)c(O)c(O)c1
REMARK SMILES IDX 4 1 5 2 12 3 6 4 10 5 8 6 2 7 1 8 3 9 7 10 11 12 9 14
REMARK H PARENT 7 11 11 13 9 15
REMARK Flexibility Score: inf
ROOT
ATOM      1  C   UNL     1      11.988   1.081  14.527  1.00  0.00     0.005 A 
ATOM      2  C   UNL     1      12.263   1.471  15.847  1.00  0.00     0.060 A 
ATOM      3  C   UNL     1      12.161   2.014  13.492  1.00  0.00     0.060 A 
ATOM      4  C   UNL     1      12.706   2.767  16.140  1.00  0.00     0.162 A 
ATOM      5  C   UNL     1      12.603   3.313  13.771  1.00  0.00     0.162 A 
ATOM      6  C   UNL     1      12.877   3.700  15.090  1.00  0.00     0.200 A 
ENDROOT
BRANCH   1   7
ATOM      7  C   UNL     1      11.521  -0.293  14.235  1.00  0.00     0.072 C 
ATOM      8  O   UNL     1      11.663  -0.787  13.085  1.00  0.00    -0.545 OA
ATOM      9  O   UNL     1      10.919  -1.058  15.227  1.00  0.00    -0.545 OA
ENDBRANCH   1   7
BRANCH   4  10
ATOM     10  O   UNL     1      12.959   3.080  17.477  1.00  0.00    -0.504 OA
ATOM     11  H   UNL     1      13.675   3.722  17.782  1.00  0.00     0.293 HD
ENDBRANCH   4  10
BRANCH   5  12
ATOM     12  O   UNL     1      12.773   4.233  12.737  1.00  0.00    -0.504 OA
ATOM     13  H   UNL     1      11.981   4.650  12.262  1.00  0.00     0.293 HD
ENDBRANCH   5  12
BRANCH   6  14
ATOM     14  O   UNL     1      13.316   5.008  15.313  1.00  0.00    -0.502 OA
ATOM     15  H   UNL     1      13.897   5.527  14.672  1.00  0.00     0.293 HD
ENDBRANCH   6  14
TORSDOF 4
ENDMDL
MODEL 4
REMARK VINA RESULT:    -4.829      3.190      5.604
REMARK INTER + INTRA:          -5.585
REMARK INTER:                  -5.534
REMARK INTRA:                  -0.051
REMARK UNBOUND:                -0.050
REMARK SMILES O=C([O-])c1cc(O)c(O)c(O)c1
REMARK SMILES IDX 4 1 5 2 12 3 6 4 10 5 8 6 2 7 1 8 3 9 7 10 11 12 9 14
REMARK H PARENT 7 11 11 13 9 15
REMARK Flexibility Score: inf
ROOT
ATOM      1  C   UNL     1      12.602  -2.750  13.923  1.00  0.00     0.005 A 
ATOM      2  C   UNL     1      11.515  -2.290  14.681  1.00  0.00     0.060 A 
ATOM      3  C   UNL     1      13.451  -1.813  13.313  1.00  0.00     0.060 A 
ATOM      4  C   UNL     1      11.271  -0.920  14.835  1.00  0.00     0.162 A 
ATOM      5  C   UNL     1      13.219  -0.440  13.458  1.00  0.00     0.162 A 
ATOM      6  C   UNL     1      12.131   0.017  14.217  1.00  0.00     0.200 A 
ENDROOT
BRANCH   1   7
ATOM      7  C   UNL     1      12.847  -4.202  13.771  1.00  0.00     0.072 C 
ATOM      8  O   UNL     1      12.398  -5.021  14.616  1.00  0.00    -0.545 OA
ATOM      9  O   UNL     1      13.577  -4.683  12.690  1.00  0.00    -0.545 OA
ENDBRANCH   1   7
BRANCH   4  10
ATOM     10  O   UNL     1      10.168  -0.539  15.605  1.00  0.00    -0.504 OA
ATOM     11  H   UNL     1       9.209  -0.656  15.314  1.00  0.00     0.293 HD
ENDBRANCH   4  10
BRANCH   5  12
ATOM     12  O   UNL     1      14.067   0.483  12.850  1.00  0.00    -0.504 OA
ATOM     13  H   UNL     1      15.046   0.276  12.684  1.00  0.00     0.293 HD
ENDBRANCH   5  12
BRANCH   6  14
ATOM     14  O   UNL     1      11.944   1.397  14.330  1.00  0.00    -0.502 OA
ATOM     15  H   UNL     1      11.058   1.862  14.196  1.00  0.00     0.293 HD
ENDBRANCH   6  14
TORSDOF 4
ENDMDL
MODEL 5
REMARK VINA RESULT:    -4.828      3.132      5.084
REMARK INTER + INTRA:          -5.584
REMARK INTER:                  -5.533
REMARK INTRA:                  -0.051
REMARK UNBOUND:                -0.050
REMARK SMILES O=C([O-])c1cc(O)c(O)c(O)c1
REMARK SMILES IDX 4 1 5 2 12 3 6 4 10 5 8 6 2 7 1 8 3 9 7 10 11 12 9 14
REMARK H PARENT 7 11 11 13 9 15
REMARK Flexibility Score: inf
ROOT
ATOM      1  C   UNL     1      12.620  -2.648  13.872  1.00  0.00     0.005 A 
ATOM      2  C   UNL     1      13.460  -1.676  13.310  1.00  0.00     0.060 A 
ATOM      3  C   UNL     1      11.502  -2.236  14.614  1.00  0.00     0.060 A 
ATOM      4  C   UNL     1      13.197  -0.310  13.479  1.00  0.00     0.162 A 
ATOM      5  C   UNL     1      11.227  -0.874  14.791  1.00  0.00     0.162 A 
ATOM      6  C   UNL     1      12.068   0.096  14.229  1.00  0.00     0.200 A 
ENDROOT
BRANCH   1   7
ATOM      7  C   UNL     1      12.911  -4.087  13.684  1.00  0.00     0.072 C 
ATOM      8  O   UNL     1      13.572  -4.483  12.687  1.00  0.00    -0.545 OA
ATOM      9  O   UNL     1      12.459  -5.024  14.607  1.00  0.00    -0.545 OA
ENDBRANCH   1   7
BRANCH   4  10
ATOM     10  O   UNL     1      14.079   0.599  12.889  1.00  0.00    -0.504 OA
ATOM     11  H   UNL     1      13.988   1.601  12.960  1.00  0.00     0.293 HD
ENDBRANCH   4  10
BRANCH   5  12
ATOM     12  O   UNL     1      10.114  -0.473  15.529  1.00  0.00    -0.504 OA
ATOM     13  H   UNL     1       9.829   0.498  15.575  1.00  0.00     0.293 HD
ENDBRANCH   5  12
BRANCH   6  14
ATOM     14  O   UNL     1      11.749   1.441  14.435  1.00  0.00    -0.502 OA
ATOM     15  H   UNL     1      12.416   2.197  14.378  1.00  0.00     0.293 HD
ENDBRANCH   6  14
TORSDOF 4
ENDMDL
MODEL 6
REMARK VINA RESULT:    -4.790      2.939      3.894
REMARK INTER + INTRA:          -5.540
REMARK INTER:                  -5.488
REMARK INTRA:                  -0.052
REMARK UNBOUND:                -0.050
REMARK SMILES O=C([O-])c1cc(O)c(O)c(O)c1
REMARK SMILES IDX 4 1 5 2 12 3 6 4 10 5 8 6 2 7 1 8 3 9 7 10 11 12 9 14
REMARK H PARENT 7 11 11 13 9 15
REMARK Flexibility Score: inf
ROOT
ATOM      1  C   UNL     1      11.535  -0.440  14.642  1.00  0.00     0.005 A 
ATOM      2  C   UNL     1      11.873  -0.566  13.287  1.00  0.00     0.060 A 
ATOM      3  C   UNL     1      11.637  -1.565  15.476  1.00  0.00     0.060 A 
ATOM      4  C   UNL     1      12.308  -1.789  12.761  1.00  0.00     0.162 A 
ATOM      5  C   UNL     1      12.070  -2.794  14.964  1.00  0.00     0.162 A 
ATOM      6  C   UNL     1      12.407  -2.917  13.609  1.00  0.00     0.200 A 
ENDROOT
BRANCH   1   7
ATOM      7  C   UNL     1      11.078   0.860  15.181  1.00  0.00     0.072 C 
ATOM      8  O   UNL     1      11.039   1.062  16.425  1.00  0.00    -0.545 OA
ATOM      9  O   UNL     1      10.684   1.880  14.322  1.00  0.00    -0.545 OA
ENDBRANCH   1   7
BRANCH   4  10
ATOM     10  O   UNL     1      12.627  -1.836  11.402  1.00  0.00    -0.504 OA
ATOM     11  H   UNL     1      12.554  -2.666  10.833  1.00  0.00     0.293 HD
ENDBRANCH   4  10
BRANCH   5  12
ATOM     12  O   UNL     1      12.169  -3.906  15.800  1.00  0.00    -0.504 OA
ATOM     13  H   UNL     1      12.905  -4.594  15.683  1.00  0.00     0.293 HD
ENDBRANCH   5  12
BRANCH   6  14
ATOM     14  O   UNL     1      12.834  -4.166  13.150  1.00  0.00    -0.502 OA
ATOM     15  H   UNL     1      12.263  -4.998  13.156  1.00  0.00     0.293 HD
ENDBRANCH   6  14
TORSDOF 4
ENDMDL
MODEL 7
REMARK VINA RESULT:    -4.781      1.543      4.669
REMARK INTER + INTRA:          -5.530
REMARK INTER:                  -5.485
REMARK INTRA:                  -0.045
REMARK UNBOUND:                -0.050
REMARK SMILES O=C([O-])c1cc(O)c(O)c(O)c1
REMARK SMILES IDX 4 1 5 2 12 3 6 4 10 5 8 6 2 7 1 8 3 9 7 10 11 12 9 14
REMARK H PARENT 7 11 11 13 9 15
REMARK Flexibility Score: inf
ROOT
ATOM      1  C   UNL     1      12.040   1.890  14.695  1.00  0.00     0.005 A 
ATOM      2  C   UNL     1      11.452   2.904  13.925  1.00  0.00     0.060 A 
ATOM      3  C   UNL     1      13.427   1.692  14.614  1.00  0.00     0.060 A 
ATOM      4  C   UNL     1      12.226   3.714  13.085  1.00  0.00     0.162 A 
ATOM      5  C   UNL     1      14.214   2.494  13.778  1.00  0.00     0.162 A 
ATOM      6  C   UNL     1      13.624   3.507  13.010  1.00  0.00     0.200 A 
ENDROOT
BRANCH   1   7
ATOM      7  C   UNL     1      11.207   1.042  15.577  1.00  0.00     0.072 C 
ATOM      8  O   UNL     1      10.627   0.019  15.125  1.00  0.00    -0.545 OA
ATOM      9  O   UNL     1      11.052   1.364  16.921  1.00  0.00    -0.545 OA
ENDBRANCH   1   7
BRANCH   4  10
ATOM     10  O   UNL     1      11.569   4.703  12.349  1.00  0.00    -0.504 OA
ATOM     11  H   UNL     1      10.685   5.112  12.616  1.00  0.00     0.293 HD
ENDBRANCH   4  10
BRANCH   5  12
ATOM     12  O   UNL     1      15.591   2.291  13.705  1.00  0.00    -0.504 OA
ATOM     13  H   UNL     1      16.237   3.064  13.590  1.00  0.00     0.293 HD
ENDBRANCH   5  12
BRANCH   6  14
ATOM     14  O   UNL     1      14.454   4.280  12.193  1.00  0.00    -0.502 OA
ATOM     15  H   UNL     1      14.993   3.911  11.423  1.00  0.00     0.293 HD
ENDBRANCH   6  14
TORSDOF 4
ENDMDL
MODEL 8
REMARK VINA RESULT:    -4.760      1.519      2.604
REMARK INTER + INTRA:          -5.506
REMARK INTER:                  -5.461
REMARK INTRA:                  -0.045
REMARK UNBOUND:                -0.050
REMARK SMILES O=C([O-])c1cc(O)c(O)c(O)c1
REMARK SMILES IDX 4 1 5 2 12 3 6 4 10 5 8 6 2 7 1 8 3 9 7 10 11 12 9 14
REMARK H PARENT 7 11 11 13 9 15
REMARK Flexibility Score: inf
ROOT
ATOM      1  C   UNL     1      12.209   1.997  13.985  1.00  0.00     0.005 A 
ATOM      2  C   UNL     1      11.167   1.375  14.689  1.00  0.00     0.060 A 
ATOM      3  C   UNL     1      13.285   1.217  13.533  1.00  0.00     0.060 A 
ATOM      4  C   UNL     1      11.189  -0.002  14.942  1.00  0.00     0.162 A 
ATOM      5  C   UNL     1      13.320  -0.161  13.779  1.00  0.00     0.162 A 
ATOM      6  C   UNL     1      12.277  -0.780  14.483  1.00  0.00     0.200 A 
ENDROOT
BRANCH   1   7
ATOM      7  C   UNL     1      12.171   3.453  13.725  1.00  0.00     0.072 C 
ATOM      8  O   UNL     1      12.527   4.273  14.613  1.00  0.00    -0.545 OA
ATOM      9  O   UNL     1      11.742   3.938  12.494  1.00  0.00    -0.545 OA
ENDBRANCH   1   7
BRANCH   4  10
ATOM     10  O   UNL     1      10.115  -0.549  15.650  1.00  0.00    -0.504 OA
ATOM     11  H   UNL     1      10.033  -1.527  15.885  1.00  0.00     0.293 HD
ENDBRANCH   4  10
BRANCH   5  12
ATOM     12  O   UNL     1      14.392  -0.928  13.326  1.00  0.00    -0.504 OA
ATOM     13  H   UNL     1      15.213  -0.501  12.911  1.00  0.00     0.293 HD
ENDBRANCH   5  12
BRANCH   6  14
ATOM     14  O   UNL     1      12.360  -2.158  14.702  1.00  0.00    -0.502 OA
ATOM     15  H   UNL     1      12.321  -2.590  15.613  1.00  0.00     0.293 HD
ENDBRANCH   6  14
TORSDOF 4
ENDMDL
MODEL 9
REMARK VINA RESULT:    -4.730      3.027      3.991
REMARK INTER + INTRA:          -5.472
REMARK INTER:                  -5.419
REMARK INTRA:                  -0.053
REMARK UNBOUND:                -0.050
REMARK SMILES O=C([O-])c1cc(O)c(O)c(O)c1
REMARK SMILES IDX 4 1 5 2 12 3 6 4 10 5 8 6 2 7 1 8 3 9 7 10 11 12 9 14
REMARK H PARENT 7 11 11 13 9 15
REMARK Flexibility Score: inf
ROOT
ATOM      1  C   UNL     1      11.554  -0.558  14.531  1.00  0.00     0.005 A 
ATOM      2  C   UNL     1      11.713  -1.656  15.389  1.00  0.00     0.060 A 
ATOM      3  C   UNL     1      11.830  -0.717  13.164  1.00  0.00     0.060 A 
ATOM      4  C   UNL     1      12.138  -2.898  14.901  1.00  0.00     0.162 A 
ATOM      5  C   UNL     1      12.256  -1.953  12.662  1.00  0.00     0.162 A 
ATOM      6  C   UNL     1      12.414  -3.049  13.522  1.00  0.00     0.200 A 
ENDROOT
BRANCH   1   7
ATOM      7  C   UNL     1      11.104   0.748  15.063  1.00  0.00     0.072 C 
ATOM      8  O   UNL     1      10.995   0.933  16.304  1.00  0.00    -0.545 OA
ATOM      9  O   UNL     1      10.794   1.791  14.197  1.00  0.00    -0.545 OA
ENDBRANCH   1   7
BRANCH   4  10
ATOM     10  O   UNL     1      12.273  -3.944  15.818  1.00  0.00    -0.504 OA
ATOM     11  H   UNL     1      11.973  -4.892  15.641  1.00  0.00     0.293 HD
ENDBRANCH   4  10
BRANCH   5  12
ATOM     12  O   UNL     1      12.527  -2.103  11.303  1.00  0.00    -0.504 OA
ATOM     13  H   UNL     1      13.476  -2.101  10.947  1.00  0.00     0.293 HD
ENDBRANCH   5  12
BRANCH   6  14
ATOM     14  O   UNL     1      12.841  -4.260  12.971  1.00  0.00    -0.502 OA
ATOM     15  H   UNL     1      13.722  -4.702  13.188  1.00  0.00     0.293 HD
ENDBRANCH   6  14
TORSDOF 4
ENDMDL
