MODEL 1
REMARK VINA RESULT:    -5.838      0.000      0.000
REMARK INTER + INTRA:          -6.440
REMARK INTER:                  -6.349
REMARK INTRA:                  -0.091
REMARK UNBOUND:                -0.091
REMARK SMILES C=C(C)[C@H]1CC=C(C)[C@@H](O)C1
REMARK SMILES IDX 8 1 7 2 6 3 5 4 4 5 11 6 9 7 10 8 2 10 1 11 3 12
REMARK H PARENT 10 9
REMARK Flexibility Score: inf
ROOT
ATOM      1  C   UNL     1     135.947 124.465 144.420  1.00  0.00     0.042 C 
ATOM      2  C   UNL     1     136.038 124.162 142.947  1.00  0.00    -0.049 C 
ATOM      3  C   UNL     1     137.043 123.367 142.516  1.00  0.00    -0.025 C 
ATOM      4  C   UNL     1     137.235 122.992 141.068  1.00  0.00     0.035 C 
ATOM      5  C   UNL     1     135.928 123.101 140.270  1.00  0.00     0.021 C 
ATOM      6  C   UNL     1     135.278 124.466 140.531  1.00  0.00     0.044 C 
ATOM      7  C   UNL     1     134.919 124.618 142.018  1.00  0.00     0.140 C 
ENDROOT
BRANCH   7   8
ATOM      8  O   UNL     1     134.616 125.969 142.266  1.00  0.00    -0.389 OA
ATOM      9  H   UNL     1     134.762 126.468 141.420  1.00  0.00     0.211 HD
ENDBRANCH   7   8
BRANCH   5  10
ATOM     10  C   UNL     1     136.164 122.867 138.784  1.00  0.00    -0.077 C 
ATOM     11  C   UNL     1     135.229 122.248 138.043  1.00  0.00     0.008 C 
ATOM     12  C   UNL     1     137.439 123.308 138.109  1.00  0.00     0.039 C 
ENDBRANCH   5  10
TORSDOF 2
ENDMDL
MODEL 2
REMARK VINA RESULT:    -5.759      1.994      4.359
REMARK INTER + INTRA:          -6.355
REMARK INTER:                  -6.259
REMARK INTRA:                  -0.097
REMARK UNBOUND:                -0.091
REMARK SMILES C=C(C)[C@H]1CC=C(C)[C@@H](O)C1
REMARK SMILES IDX 8 1 7 2 6 3 5 4 4 5 11 6 9 7 10 8 2 10 1 11 3 12
REMARK H PARENT 10 9
REMARK Flexibility Score: inf
ROOT
ATOM      1  C   UNL     1     137.366 122.918 137.349  1.00  0.00     0.042 C 
ATOM      2  C   UNL     1     136.657 123.057 138.672  1.00  0.00    -0.049 C 
ATOM      3  C   UNL     1     137.392 122.988 139.804  1.00  0.00    -0.025 C 
ATOM      4  C   UNL     1     136.795 123.115 141.183  1.00  0.00     0.035 C 
ATOM      5  C   UNL     1     135.461 123.874 141.162  1.00  0.00     0.021 C 
ATOM      6  C   UNL     1     134.545 123.276 140.085  1.00  0.00     0.044 C 
ATOM      7  C   UNL     1     135.178 123.428 138.693  1.00  0.00     0.140 C 
ENDROOT
BRANCH   7   8
ATOM      8  O   UNL     1     134.471 122.612 137.792  1.00  0.00    -0.389 OA
ATOM      9  H   UNL     1     135.028 121.811 137.612  1.00  0.00     0.211 HD
ENDBRANCH   7   8
BRANCH   5  10
ATOM     10  C   UNL     1     134.795 123.865 142.532  1.00  0.00    -0.077 C 
ATOM     11  C   UNL     1     133.585 123.303 142.688  1.00  0.00     0.008 C 
ATOM     12  C   UNL     1     135.460 124.486 143.735  1.00  0.00     0.039 C 
ENDBRANCH   5  10
TORSDOF 2
ENDMDL
MODEL 3
REMARK VINA RESULT:    -5.637      2.074      4.490
REMARK INTER + INTRA:          -6.223
REMARK INTER:                  -6.136
REMARK INTRA:                  -0.087
REMARK UNBOUND:                -0.091
REMARK SMILES C=C(C)[C@H]1CC=C(C)[C@@H](O)C1
REMARK SMILES IDX 8 1 7 2 6 3 5 4 4 5 11 6 9 7 10 8 2 10 1 11 3 12
REMARK H PARENT 10 9
REMARK Flexibility Score: inf
ROOT
ATOM      1  C   UNL     1     138.380 123.351 137.759  1.00  0.00     0.042 C 
ATOM      2  C   UNL     1     137.562 123.501 139.016  1.00  0.00    -0.049 C 
ATOM      3  C   UNL     1     136.352 124.097 138.926  1.00  0.00    -0.025 C 
ATOM      4  C   UNL     1     135.445 124.303 140.113  1.00  0.00     0.035 C 
ATOM      5  C   UNL     1     135.743 123.305 141.242  1.00  0.00     0.021 C 
ATOM      6  C   UNL     1     137.249 123.300 141.539  1.00  0.00     0.044 C 
ATOM      7  C   UNL     1     138.042 122.843 140.304  1.00  0.00     0.140 C 
ENDROOT
BRANCH   7   8
ATOM      8  O   UNL     1     139.400 123.141 140.513  1.00  0.00    -0.389 OA
ATOM      9  H   UNL     1     139.880 122.280 140.634  1.00  0.00     0.211 HD
ENDBRANCH   7   8
BRANCH   5  10
ATOM     10  C   UNL     1     134.927 123.617 142.489  1.00  0.00    -0.077 C 
ATOM     11  C   UNL     1     133.670 123.156 142.603  1.00  0.00     0.008 C 
ATOM     12  C   UNL     1     135.492 124.448 143.613  1.00  0.00     0.039 C 
ENDBRANCH   5  10
TORSDOF 2
ENDMDL
MODEL 4
REMARK VINA RESULT:    -5.602      1.584      2.598
REMARK INTER + INTRA:          -6.184
REMARK INTER:                  -6.088
REMARK INTRA:                  -0.096
REMARK UNBOUND:                -0.091
REMARK SMILES C=C(C)[C@H]1CC=C(C)[C@@H](O)C1
REMARK SMILES IDX 8 1 7 2 6 3 5 4 4 5 11 6 9 7 10 8 2 10 1 11 3 12
REMARK H PARENT 10 9
REMARK Flexibility Score: inf
ROOT
ATOM      1  C   UNL     1     132.460 123.399 142.610  1.00  0.00     0.042 C 
ATOM      2  C   UNL     1     133.848 123.301 142.031  1.00  0.00    -0.049 C 
ATOM      3  C   UNL     1     134.057 122.446 141.006  1.00  0.00    -0.025 C 
ATOM      4  C   UNL     1     135.400 122.263 140.345  1.00  0.00     0.035 C 
ATOM      5  C   UNL     1     136.303 123.490 140.535  1.00  0.00     0.021 C 
ATOM      6  C   UNL     1     136.331 123.883 142.019  1.00  0.00     0.044 C 
ATOM      7  C   UNL     1     134.925 124.273 142.501  1.00  0.00     0.140 C 
ENDROOT
BRANCH   7   8
ATOM      8  O   UNL     1     134.936 124.327 143.906  1.00  0.00    -0.389 OA
ATOM      9  H   UNL     1     134.085 123.931 144.228  1.00  0.00     0.211 HD
ENDBRANCH   7   8
BRANCH   5  10
ATOM     10  C   UNL     1     137.704 123.237 139.996  1.00  0.00    -0.077 C 
ATOM     11  C   UNL     1     138.714 122.976 140.843  1.00  0.00     0.008 C 
ATOM     12  C   UNL     1     138.000 123.281 138.517  1.00  0.00     0.039 C 
ENDBRANCH   5  10
TORSDOF 2
ENDMDL
MODEL 5
REMARK VINA RESULT:    -5.107      1.990      5.103
REMARK INTER + INTRA:          -5.646
REMARK INTER:                  -5.547
REMARK INTRA:                  -0.099
REMARK UNBOUND:                -0.091
REMARK SMILES C=C(C)[C@H]1CC=C(C)[C@@H](O)C1
REMARK SMILES IDX 8 1 7 2 6 3 5 4 4 5 11 6 9 7 10 8 2 10 1 11 3 12
REMARK H PARENT 10 9
REMARK Flexibility Score: inf
ROOT
ATOM      1  C   UNL     1     135.418 122.467 140.123  1.00  0.00     0.042 C 
ATOM      2  C   UNL     1     135.654 123.344 141.325  1.00  0.00    -0.049 C 
ATOM      3  C   UNL     1     134.753 124.314 141.598  1.00  0.00    -0.025 C 
ATOM      4  C   UNL     1     134.882 125.251 142.773  1.00  0.00     0.035 C 
ATOM      5  C   UNL     1     135.751 124.654 143.889  1.00  0.00     0.021 C 
ATOM      6  C   UNL     1     137.068 124.137 143.295  1.00  0.00     0.044 C 
ATOM      7  C   UNL     1     136.798 123.015 142.278  1.00  0.00     0.140 C 
ENDROOT
BRANCH   7   8
ATOM      8  O   UNL     1     137.976 122.786 141.546  1.00  0.00    -0.389 OA
ATOM      9  H   UNL     1     138.481 123.641 141.516  1.00  0.00     0.211 HD
ENDBRANCH   7   8
BRANCH   5  10
ATOM     10  C   UNL     1     135.998 125.665 145.001  1.00  0.00    -0.077 C 
ATOM     11  C   UNL     1     135.420 126.877 144.950  1.00  0.00     0.008 C 
ATOM     12  C   UNL     1     136.894 125.346 146.172  1.00  0.00     0.039 C 
ENDBRANCH   5  10
TORSDOF 2
ENDMDL
MODEL 6
REMARK VINA RESULT:    -5.031      1.526      2.342
REMARK INTER + INTRA:          -5.563
REMARK INTER:                  -5.466
REMARK INTRA:                  -0.097
REMARK UNBOUND:                -0.091
REMARK SMILES C=C(C)[C@H]1CC=C(C)[C@@H](O)C1
REMARK SMILES IDX 8 1 7 2 6 3 5 4 4 5 11 6 9 7 10 8 2 10 1 11 3 12
REMARK H PARENT 10 9
REMARK Flexibility Score: inf
ROOT
ATOM      1  C   UNL     1     135.316 124.582 143.739  1.00  0.00     0.042 C 
ATOM      2  C   UNL     1     135.518 124.072 142.335  1.00  0.00    -0.049 C 
ATOM      3  C   UNL     1     134.460 124.069 141.495  1.00  0.00    -0.025 C 
ATOM      4  C   UNL     1     134.541 123.584 140.069  1.00  0.00     0.035 C 
ATOM      5  C   UNL     1     135.974 123.653 139.521  1.00  0.00     0.021 C 
ATOM      6  C   UNL     1     136.936 122.987 140.514  1.00  0.00     0.044 C 
ATOM      7  C   UNL     1     136.926 123.731 141.859  1.00  0.00     0.140 C 
ENDROOT
BRANCH   7   8
ATOM      8  O   UNL     1     137.570 122.927 142.816  1.00  0.00    -0.389 OA
ATOM      9  H   UNL     1     137.828 122.079 142.369  1.00  0.00     0.211 HD
ENDBRANCH   7   8
BRANCH   5  10
ATOM     10  C   UNL     1     136.070 123.023 138.138  1.00  0.00    -0.077 C 
ATOM     11  C   UNL     1     137.267 122.884 137.544  1.00  0.00     0.008 C 
ATOM     12  C   UNL     1     134.842 122.553 137.399  1.00  0.00     0.039 C 
ENDBRANCH   5  10
TORSDOF 2
ENDMDL
MODEL 7
REMARK VINA RESULT:    -4.878      2.118      2.413
REMARK INTER + INTRA:          -5.397
REMARK INTER:                  -5.302
REMARK INTRA:                  -0.095
REMARK UNBOUND:                -0.091
REMARK SMILES C=C(C)[C@H]1CC=C(C)[C@@H](O)C1
REMARK SMILES IDX 8 1 7 2 6 3 5 4 4 5 11 6 9 7 10 8 2 10 1 11 3 12
REMARK H PARENT 10 9
REMARK Flexibility Score: inf
ROOT
ATOM      1  C   UNL     1     133.691 123.857 143.052  1.00  0.00     0.042 C 
ATOM      2  C   UNL     1     134.421 123.659 141.749  1.00  0.00    -0.049 C 
ATOM      3  C   UNL     1     135.029 124.726 141.185  1.00  0.00    -0.025 C 
ATOM      4  C   UNL     1     135.790 124.650 139.886  1.00  0.00     0.035 C 
ATOM      5  C   UNL     1     136.283 123.226 139.593  1.00  0.00     0.021 C 
ATOM      6  C   UNL     1     135.119 122.237 139.750  1.00  0.00     0.044 C 
ATOM      7  C   UNL     1     134.591 122.249 141.193  1.00  0.00     0.140 C 
ENDROOT
BRANCH   7   8
ATOM      8  O   UNL     1     133.357 121.576 141.220  1.00  0.00    -0.389 OA
ATOM      9  H   UNL     1     132.848 121.915 142.002  1.00  0.00     0.211 HD
ENDBRANCH   7   8
BRANCH   5  10
ATOM     10  C   UNL     1     136.916 123.130 138.212  1.00  0.00    -0.077 C 
ATOM     11  C   UNL     1     136.157 122.848 137.140  1.00  0.00     0.008 C 
ATOM     12  C   UNL     1     138.397 123.337 138.008  1.00  0.00     0.039 C 
ENDBRANCH   5  10
TORSDOF 2
ENDMDL
MODEL 8
REMARK VINA RESULT:    -4.831      1.736      2.585
REMARK INTER + INTRA:          -5.346
REMARK INTER:                  -5.249
REMARK INTRA:                  -0.097
REMARK UNBOUND:                -0.091
REMARK SMILES C=C(C)[C@H]1CC=C(C)[C@@H](O)C1
REMARK SMILES IDX 8 1 7 2 6 3 5 4 4 5 11 6 9 7 10 8 2 10 1 11 3 12
REMARK H PARENT 10 9
REMARK Flexibility Score: inf
ROOT
ATOM      1  C   UNL     1     135.753 126.156 145.253  1.00  0.00     0.042 C 
ATOM      2  C   UNL     1     135.785 125.222 144.071  1.00  0.00    -0.049 C 
ATOM      3  C   UNL     1     134.709 125.181 143.256  1.00  0.00    -0.025 C 
ATOM      4  C   UNL     1     134.626 124.289 142.043  1.00  0.00     0.035 C 
ATOM      5  C   UNL     1     136.017 123.903 141.520  1.00  0.00     0.021 C 
ATOM      6  C   UNL     1     136.877 123.383 142.680  1.00  0.00     0.044 C 
ATOM      7  C   UNL     1     137.076 124.480 143.739  1.00  0.00     0.140 C 
ENDROOT
BRANCH   7   8
ATOM      8  O   UNL     1     137.595 123.885 144.902  1.00  0.00    -0.389 OA
ATOM      9  H   UNL     1     138.514 124.237 145.034  1.00  0.00     0.211 HD
ENDBRANCH   7   8
BRANCH   5  10
ATOM     10  C   UNL     1     135.924 122.885 140.392  1.00  0.00    -0.077 C 
ATOM     11  C   UNL     1     135.054 121.865 140.476  1.00  0.00     0.008 C 
ATOM     12  C   UNL     1     136.800 122.982 139.167  1.00  0.00     0.039 C 
ENDBRANCH   5  10
TORSDOF 2
ENDMDL
MODEL 9
REMARK VINA RESULT:    -4.811      1.790      2.881
REMARK INTER + INTRA:          -5.324
REMARK INTER:                  -5.225
REMARK INTRA:                  -0.099
REMARK UNBOUND:                -0.091
REMARK SMILES C=C(C)[C@H]1CC=C(C)[C@@H](O)C1
REMARK SMILES IDX 8 1 7 2 6 3 5 4 4 5 11 6 9 7 10 8 2 10 1 11 3 12
REMARK H PARENT 10 9
REMARK Flexibility Score: inf
ROOT
ATOM      1  C   UNL     1     137.106 126.067 146.391  1.00  0.00     0.042 C 
ATOM      2  C   UNL     1     136.725 125.416 145.086  1.00  0.00    -0.049 C 
ATOM      3  C   UNL     1     137.556 124.486 144.567  1.00  0.00    -0.025 C 
ATOM      4  C   UNL     1     137.280 123.766 143.270  1.00  0.00     0.035 C 
ATOM      5  C   UNL     1     135.783 123.755 142.929  1.00  0.00     0.021 C 
ATOM      6  C   UNL     1     135.219 125.178 143.041  1.00  0.00     0.044 C 
ATOM      7  C   UNL     1     135.355 125.701 144.480  1.00  0.00     0.140 C 
ENDROOT
BRANCH   7   8
ATOM      8  O   UNL     1     135.116 127.086 144.473  1.00  0.00    -0.389 OA
ATOM      9  H   UNL     1     134.136 127.221 144.392  1.00  0.00     0.211 HD
ENDBRANCH   7   8
BRANCH   5  10
ATOM     10  C   UNL     1     135.533 123.160 141.549  1.00  0.00    -0.077 C 
ATOM     11  C   UNL     1     136.548 123.028 140.679  1.00  0.00     0.008 C 
ATOM     12  C   UNL     1     134.156 122.718 141.120  1.00  0.00     0.039 C 
ENDBRANCH   5  10
TORSDOF 2
ENDMDL
