MODEL 1
REMARK VINA RESULT:    -3.185      0.000      0.000
REMARK INTER + INTRA:          -7.422
REMARK INTER:                  -5.419
REMARK INTRA:                  -2.003
REMARK UNBOUND:                -2.003
REMARK SMILES CCCCCCCCCCCCCC(=O)[O-]
REMARK SMILES IDX 8 1 9 2 10 3 11 4 12 5 13 6 14 7 15 8 16 9 7 10 6 11 5 12
REMARK SMILES IDX 4 13 3 14 2 15 1 16
REMARK H PARENT
REMARK Flexibility Score: inf
ROOT
ATOM      1  C   UNL     1      27.683  -6.344 -28.690  1.00  0.00     0.000 C 
ENDROOT
BRANCH   1   2
ATOM      2  C   UNL     1      27.085  -5.443 -29.782  1.00  0.00     0.000 C 
BRANCH   2   3
ATOM      3  C   UNL     1      26.308  -4.248 -29.208  1.00  0.00     0.000 C 
BRANCH   3   4
ATOM      4  C   UNL     1      25.368  -3.648 -30.263  1.00  0.00     0.000 C 
BRANCH   4   5
ATOM      5  C   UNL     1      24.041  -4.418 -30.397  1.00  0.00     0.006 C 
BRANCH   5   6
ATOM      6  C   UNL     1      24.043  -5.475 -31.514  1.00  0.00     0.053 C 
BRANCH   6   7
ATOM      7  C   UNL     1      24.306  -4.884 -32.867  1.00  0.00     0.041 C 
ATOM      8  O   UNL     1      25.383  -5.134 -33.470  1.00  0.00    -0.550 OA
ATOM      9  O   UNL     1      23.379  -4.028 -33.448  1.00  0.00    -0.550 OA
ENDBRANCH   6   7
ENDBRANCH   5   6
ENDBRANCH   4   5
ENDBRANCH   3   4
ENDBRANCH   2   3
ENDBRANCH   1   2
BRANCH   1  10
ATOM     10  C   UNL     1      27.158  -7.788 -28.760  1.00  0.00     0.000 C 
BRANCH  10  11
ATOM     11  C   UNL     1      25.672  -7.859 -29.145  1.00  0.00    -0.000 C 
BRANCH  11  12
ATOM     12  C   UNL     1      24.748  -7.985 -27.925  1.00  0.00    -0.000 C 
BRANCH  12  13
ATOM     13  C   UNL     1      23.947  -6.696 -27.707  1.00  0.00    -0.000 C 
BRANCH  13  14
ATOM     14  C   UNL     1      24.419  -5.960 -26.445  1.00  0.00    -0.000 C 
BRANCH  14  15
ATOM     15  C   UNL     1      25.271  -6.849 -25.526  1.00  0.00    -0.003 C 
ATOM     16  C   UNL     1      26.590  -6.190 -25.123  1.00  0.00     0.004 C 
ENDBRANCH  14  15
ENDBRANCH  13  14
ENDBRANCH  12  13
ENDBRANCH  11  12
ENDBRANCH  10  11
ENDBRANCH   1  10
TORSDOF 12
ENDMDL
MODEL 2
REMARK VINA RESULT:    -3.068      1.574      3.182
REMARK INTER + INTRA:          -7.223
REMARK INTER:                  -5.475
REMARK INTRA:                  -1.749
REMARK UNBOUND:                -2.003
REMARK SMILES CCCCCCCCCCCCCC(=O)[O-]
REMARK SMILES IDX 8 1 9 2 10 3 11 4 12 5 13 6 14 7 15 8 16 9 7 10 6 11 5 12
REMARK SMILES IDX 4 13 3 14 2 15 1 16
REMARK H PARENT
REMARK Flexibility Score: inf
ROOT
ATOM      1  C   UNL     1      24.222  -5.499 -28.079  1.00  0.00     0.000 C 
ENDROOT
BRANCH   1   2
ATOM      2  C   UNL     1      24.124  -4.751 -29.418  1.00  0.00     0.000 C 
BRANCH   2   3
ATOM      3  C   UNL     1      23.719  -5.668 -30.583  1.00  0.00     0.000 C 
BRANCH   3   4
ATOM      4  C   UNL     1      24.575  -5.384 -31.826  1.00  0.00     0.000 C 
BRANCH   4   5
ATOM      5  C   UNL     1      23.912  -4.395 -32.803  1.00  0.00     0.006 C 
BRANCH   5   6
ATOM      6  C   UNL     1      24.910  -3.506 -33.564  1.00  0.00     0.053 C 
BRANCH   6   7
ATOM      7  C   UNL     1      25.269  -4.062 -34.909  1.00  0.00     0.041 C 
ATOM      8  O   UNL     1      24.730  -3.602 -35.949  1.00  0.00    -0.550 OA
ATOM      9  O   UNL     1      26.173  -5.112 -35.012  1.00  0.00    -0.550 OA
ENDBRANCH   6   7
ENDBRANCH   5   6
ENDBRANCH   4   5
ENDBRANCH   3   4
ENDBRANCH   2   3
ENDBRANCH   1   2
BRANCH   1  10
ATOM     10  C   UNL     1      24.088  -7.023 -28.240  1.00  0.00     0.000 C 
BRANCH  10  11
ATOM     11  C   UNL     1      25.392  -7.768 -27.913  1.00  0.00    -0.000 C 
BRANCH  11  12
ATOM     12  C   UNL     1      26.339  -7.866 -29.119  1.00  0.00    -0.000 C 
BRANCH  12  13
ATOM     13  C   UNL     1      27.649  -7.116 -28.851  1.00  0.00    -0.000 C 
BRANCH  13  14
ATOM     14  C   UNL     1      27.712  -5.811 -29.658  1.00  0.00    -0.000 C 
BRANCH  14  15
ATOM     15  C   UNL     1      27.800  -4.566 -28.764  1.00  0.00    -0.003 C 
ATOM     16  C   UNL     1      27.833  -4.908 -27.275  1.00  0.00     0.004 C 
ENDBRANCH  14  15
ENDBRANCH  13  14
ENDBRANCH  12  13
ENDBRANCH  11  12
ENDBRANCH  10  11
ENDBRANCH   1  10
TORSDOF 12
ENDMDL
MODEL 3
REMARK VINA RESULT:    -3.028     15.238     16.992
REMARK INTER + INTRA:          -7.154
REMARK INTER:                  -5.449
REMARK INTRA:                  -1.706
REMARK UNBOUND:                -2.003
REMARK SMILES CCCCCCCCCCCCCC(=O)[O-]
REMARK SMILES IDX 8 1 9 2 10 3 11 4 12 5 13 6 14 7 15 8 16 9 7 10 6 11 5 12
REMARK SMILES IDX 4 13 3 14 2 15 1 16
REMARK H PARENT
REMARK Flexibility Score: inf
ROOT
ATOM      1  C   UNL     1      31.706   9.875 -27.783  1.00  0.00     0.000 C 
ENDROOT
BRANCH   1   2
ATOM      2  C   UNL     1      31.524   8.349 -27.790  1.00  0.00     0.000 C 
BRANCH   2   3
ATOM      3  C   UNL     1      32.782   7.602 -28.262  1.00  0.00     0.000 C 
BRANCH   3   4
ATOM      4  C   UNL     1      32.473   6.726 -29.484  1.00  0.00     0.000 C 
BRANCH   4   5
ATOM      5  C   UNL     1      32.559   7.493 -30.816  1.00  0.00     0.006 C 
BRANCH   5   6
ATOM      6  C   UNL     1      33.977   7.972 -31.170  1.00  0.00     0.053 C 
BRANCH   6   7
ATOM      7  C   UNL     1      34.879   6.847 -31.581  1.00  0.00     0.041 C 
ATOM      8  O   UNL     1      35.871   6.538 -30.870  1.00  0.00    -0.550 OA
ATOM      9  O   UNL     1      34.645   6.162 -32.767  1.00  0.00    -0.550 OA
ENDBRANCH   6   7
ENDBRANCH   5   6
ENDBRANCH   4   5
ENDBRANCH   3   4
ENDBRANCH   2   3
ENDBRANCH   1   2
BRANCH   1  10
ATOM     10  C   UNL     1      33.134  10.304 -28.162  1.00  0.00     0.000 C 
BRANCH  10  11
ATOM     11  C   UNL     1      33.823  11.113 -27.052  1.00  0.00    -0.000 C 
BRANCH  11  12
ATOM     12  C   UNL     1      32.832  11.652 -26.009  1.00  0.00    -0.000 C 
BRANCH  12  13
ATOM     13  C   UNL     1      33.280  11.291 -24.587  1.00  0.00    -0.000 C 
BRANCH  13  14
ATOM     14  C   UNL     1      33.964   9.917 -24.558  1.00  0.00    -0.000 C 
BRANCH  14  15
ATOM     15  C   UNL     1      32.966   8.762 -24.393  1.00  0.00    -0.003 C 
ATOM     16  C   UNL     1      33.613   7.390 -24.578  1.00  0.00     0.004 C 
ENDBRANCH  14  15
ENDBRANCH  13  14
ENDBRANCH  12  13
ENDBRANCH  11  12
ENDBRANCH  10  11
ENDBRANCH   1  10
TORSDOF 12
ENDMDL
MODEL 4
REMARK VINA RESULT:    -2.995      1.610      3.117
REMARK INTER + INTRA:          -7.099
REMARK INTER:                  -5.094
REMARK INTRA:                  -2.005
REMARK UNBOUND:                -2.003
REMARK SMILES CCCCCCCCCCCCCC(=O)[O-]
REMARK SMILES IDX 8 1 9 2 10 3 11 4 12 5 13 6 14 7 15 8 16 9 7 10 6 11 5 12
REMARK SMILES IDX 4 13 3 14 2 15 1 16
REMARK H PARENT
REMARK Flexibility Score: inf
ROOT
ATOM      1  C   UNL     1      25.327  -4.249 -28.028  1.00  0.00     0.000 C 
ENDROOT
BRANCH   1   2
ATOM      2  C   UNL     1      24.989  -3.948 -29.497  1.00  0.00     0.000 C 
BRANCH   2   3
ATOM      3  C   UNL     1      23.756  -4.717 -29.994  1.00  0.00     0.000 C 
BRANCH   3   4
ATOM      4  C   UNL     1      24.111  -5.608 -31.193  1.00  0.00     0.000 C 
BRANCH   4   5
ATOM      5  C   UNL     1      24.834  -4.846 -32.319  1.00  0.00     0.006 C 
BRANCH   5   6
ATOM      6  C   UNL     1      23.886  -4.123 -33.291  1.00  0.00     0.053 C 
BRANCH   6   7
ATOM      7  C   UNL     1      23.920  -2.633 -33.128  1.00  0.00     0.041 C 
ATOM      8  O   UNL     1      23.034  -1.916 -33.664  1.00  0.00    -0.550 OA
ATOM      9  O   UNL     1      24.949  -2.032 -32.415  1.00  0.00    -0.550 OA
ENDBRANCH   6   7
ENDBRANCH   5   6
ENDBRANCH   4   5
ENDBRANCH   3   4
ENDBRANCH   2   3
ENDBRANCH   1   2
BRANCH   1  10
ATOM     10  C   UNL     1      26.801  -4.640 -27.827  1.00  0.00     0.000 C 
BRANCH  10  11
ATOM     11  C   UNL     1      27.563  -4.774 -29.156  1.00  0.00    -0.000 C 
BRANCH  11  12
ATOM     12  C   UNL     1      27.998  -6.219 -29.447  1.00  0.00    -0.000 C 
BRANCH  12  13
ATOM     13  C   UNL     1      27.300  -7.204 -28.501  1.00  0.00    -0.000 C 
BRANCH  13  14
ATOM     14  C   UNL     1      26.222  -8.008 -29.241  1.00  0.00    -0.000 C 
BRANCH  14  15
ATOM     15  C   UNL     1      24.875  -8.013 -28.501  1.00  0.00    -0.003 C 
ATOM     16  C   UNL     1      25.032  -7.869 -26.988  1.00  0.00     0.004 C 
ENDBRANCH  14  15
ENDBRANCH  13  14
ENDBRANCH  12  13
ENDBRANCH  11  12
ENDBRANCH  10  11
ENDBRANCH   1  10
TORSDOF 12
ENDMDL
MODEL 5
REMARK VINA RESULT:    -2.990      1.313      2.816
REMARK INTER + INTRA:          -7.090
REMARK INTER:                  -5.099
REMARK INTRA:                  -1.991
REMARK UNBOUND:                -2.003
REMARK SMILES CCCCCCCCCCCCCC(=O)[O-]
REMARK SMILES IDX 8 1 9 2 10 3 11 4 12 5 13 6 14 7 15 8 16 9 7 10 6 11 5 12
REMARK SMILES IDX 4 13 3 14 2 15 1 16
REMARK H PARENT
REMARK Flexibility Score: inf
ROOT
ATOM      1  C   UNL     1      25.698  -4.347 -27.441  1.00  0.00     0.000 C 
ENDROOT
BRANCH   1   2
ATOM      2  C   UNL     1      25.921  -3.793 -28.857  1.00  0.00     0.000 C 
BRANCH   2   3
ATOM      3  C   UNL     1      24.759  -4.113 -29.811  1.00  0.00     0.000 C 
BRANCH   3   4
ATOM      4  C   UNL     1      25.235  -4.986 -30.981  1.00  0.00     0.000 C 
BRANCH   4   5
ATOM      5  C   UNL     1      26.556  -4.496 -31.602  1.00  0.00     0.006 C 
BRANCH   5   6
ATOM      6  C   UNL     1      26.373  -3.673 -32.888  1.00  0.00     0.053 C 
BRANCH   6   7
ATOM      7  C   UNL     1      25.523  -4.374 -33.905  1.00  0.00     0.041 C 
ATOM      8  O   UNL     1      25.987  -5.347 -34.557  1.00  0.00    -0.550 OA
ATOM      9  O   UNL     1      24.231  -3.932 -34.160  1.00  0.00    -0.550 OA
ENDBRANCH   6   7
ENDBRANCH   5   6
ENDBRANCH   4   5
ENDBRANCH   3   4
ENDBRANCH   2   3
ENDBRANCH   1   2
BRANCH   1  10
ATOM     10  C   UNL     1      24.208  -4.431 -27.065  1.00  0.00     0.000 C 
BRANCH  10  11
ATOM     11  C   UNL     1      23.764  -5.863 -26.728  1.00  0.00    -0.000 C 
BRANCH  11  12
ATOM     12  C   UNL     1      24.866  -6.902 -26.984  1.00  0.00    -0.000 C 
BRANCH  12  13
ATOM     13  C   UNL     1      24.527  -7.774 -28.199  1.00  0.00    -0.000 C 
BRANCH  13  14
ATOM     14  C   UNL     1      25.753  -7.960 -29.104  1.00  0.00    -0.000 C 
BRANCH  14  15
ATOM     15  C   UNL     1      27.078  -7.757 -28.353  1.00  0.00    -0.003 C 
ATOM     16  C   UNL     1      28.042  -6.831 -29.095  1.00  0.00     0.004 C 
ENDBRANCH  14  15
ENDBRANCH  13  14
ENDBRANCH  12  13
ENDBRANCH  11  12
ENDBRANCH  10  11
ENDBRANCH   1  10
TORSDOF 12
ENDMDL
MODEL 6
REMARK VINA RESULT:    -2.987      1.902      3.390
REMARK INTER + INTRA:          -7.086
REMARK INTER:                  -5.184
REMARK INTRA:                  -1.902
REMARK UNBOUND:                -2.003
REMARK SMILES CCCCCCCCCCCCCC(=O)[O-]
REMARK SMILES IDX 8 1 9 2 10 3 11 4 12 5 13 6 14 7 15 8 16 9 7 10 6 11 5 12
REMARK SMILES IDX 4 13 3 14 2 15 1 16
REMARK H PARENT
REMARK Flexibility Score: inf
ROOT
ATOM      1  C   UNL     1      24.155  -5.555 -28.189  1.00  0.00     0.000 C 
ENDROOT
BRANCH   1   2
ATOM      2  C   UNL     1      23.915  -4.775 -29.492  1.00  0.00     0.000 C 
BRANCH   2   3
ATOM      3  C   UNL     1      23.848  -5.687 -30.728  1.00  0.00     0.000 C 
BRANCH   3   4
ATOM      4  C   UNL     1      24.699  -5.120 -31.873  1.00  0.00     0.000 C 
BRANCH   4   5
ATOM      5  C   UNL     1      23.857  -4.482 -32.993  1.00  0.00     0.006 C 
BRANCH   5   6
ATOM      6  C   UNL     1      24.105  -2.975 -33.180  1.00  0.00     0.053 C 
BRANCH   6   7
ATOM      7  C   UNL     1      23.329  -2.138 -32.208  1.00  0.00     0.041 C 
ATOM      8  O   UNL     1      22.122  -1.859 -32.433  1.00  0.00    -0.550 OA
ATOM      9  O   UNL     1      23.948  -1.636 -31.069  1.00  0.00    -0.550 OA
ENDBRANCH   6   7
ENDBRANCH   5   6
ENDBRANCH   4   5
ENDBRANCH   3   4
ENDBRANCH   2   3
ENDBRANCH   1   2
BRANCH   1  10
ATOM     10  C   UNL     1      24.131  -7.079 -28.399  1.00  0.00     0.000 C 
BRANCH  10  11
ATOM     11  C   UNL     1      25.439  -7.756 -27.958  1.00  0.00    -0.000 C 
BRANCH  11  12
ATOM     12  C   UNL     1      26.443  -7.915 -29.110  1.00  0.00    -0.000 C 
BRANCH  12  13
ATOM     13  C   UNL     1      27.674  -7.028 -28.891  1.00  0.00    -0.000 C 
BRANCH  13  14
ATOM     14  C   UNL     1      27.642  -5.803 -29.816  1.00  0.00    -0.000 C 
BRANCH  14  15
ATOM     15  C   UNL     1      27.589  -4.478 -29.040  1.00  0.00    -0.003 C 
ATOM     16  C   UNL     1      27.707  -4.673 -27.529  1.00  0.00     0.004 C 
ENDBRANCH  14  15
ENDBRANCH  13  14
ENDBRANCH  12  13
ENDBRANCH  11  12
ENDBRANCH  10  11
ENDBRANCH   1  10
TORSDOF 12
ENDMDL
MODEL 7
REMARK VINA RESULT:    -2.942      1.457      3.030
REMARK INTER + INTRA:          -7.009
REMARK INTER:                  -5.107
REMARK INTRA:                  -1.902
REMARK UNBOUND:                -2.003
REMARK SMILES CCCCCCCCCCCCCC(=O)[O-]
REMARK SMILES IDX 8 1 9 2 10 3 11 4 12 5 13 6 14 7 15 8 16 9 7 10 6 11 5 12
REMARK SMILES IDX 4 13 3 14 2 15 1 16
REMARK H PARENT
REMARK Flexibility Score: inf
ROOT
ATOM      1  C   UNL     1      24.648  -7.835 -28.134  1.00  0.00     0.000 C 
ENDROOT
BRANCH   1   2
ATOM      2  C   UNL     1      23.961  -6.545 -27.658  1.00  0.00     0.000 C 
BRANCH   2   3
ATOM      3  C   UNL     1      24.032  -5.415 -28.697  1.00  0.00     0.000 C 
BRANCH   3   4
ATOM      4  C   UNL     1      23.926  -5.974 -30.123  1.00  0.00     0.000 C 
BRANCH   4   5
ATOM      5  C   UNL     1      25.028  -5.448 -31.062  1.00  0.00     0.006 C 
BRANCH   5   6
ATOM      6  C   UNL     1      24.631  -4.186 -31.845  1.00  0.00     0.053 C 
BRANCH   6   7
ATOM      7  C   UNL     1      24.632  -4.404 -33.329  1.00  0.00     0.041 C 
ATOM      8  O   UNL     1      25.531  -5.102 -33.866  1.00  0.00    -0.550 OA
ATOM      9  O   UNL     1      23.660  -3.809 -34.123  1.00  0.00    -0.550 OA
ENDBRANCH   6   7
ENDBRANCH   5   6
ENDBRANCH   4   5
ENDBRANCH   3   4
ENDBRANCH   2   3
ENDBRANCH   1   2
BRANCH   1  10
ATOM     10  C   UNL     1      26.150  -7.862 -27.801  1.00  0.00     0.000 C 
BRANCH  10  11
ATOM     11  C   UNL     1      27.032  -7.954 -29.057  1.00  0.00    -0.000 C 
BRANCH  11  12
ATOM     12  C   UNL     1      28.020  -6.783 -29.175  1.00  0.00    -0.000 C 
BRANCH  12  13
ATOM     13  C   UNL     1      27.661  -5.661 -28.194  1.00  0.00    -0.000 C 
BRANCH  13  14
ATOM     14  C   UNL     1      28.190  -4.307 -28.688  1.00  0.00    -0.000 C 
BRANCH  14  15
ATOM     15  C   UNL     1      27.069  -3.282 -28.917  1.00  0.00    -0.003 C 
ATOM     16  C   UNL     1      26.385  -2.854 -27.619  1.00  0.00     0.004 C 
ENDBRANCH  14  15
ENDBRANCH  13  14
ENDBRANCH  12  13
ENDBRANCH  11  12
ENDBRANCH  10  11
ENDBRANCH   1  10
TORSDOF 12
ENDMDL
MODEL 8
REMARK VINA RESULT:    -2.913      3.041      5.503
REMARK INTER + INTRA:          -6.959
REMARK INTER:                  -4.793
REMARK INTRA:                  -2.166
REMARK UNBOUND:                -2.003
REMARK SMILES CCCCCCCCCCCCCC(=O)[O-]
REMARK SMILES IDX 8 1 9 2 10 3 11 4 12 5 13 6 14 7 15 8 16 9 7 10 6 11 5 12
REMARK SMILES IDX 4 13 3 14 2 15 1 16
REMARK H PARENT
REMARK Flexibility Score: inf
ROOT
ATOM      1  C   UNL     1      24.655  -7.733 -27.715  1.00  0.00     0.000 C 
ENDROOT
BRANCH   1   2
ATOM      2  C   UNL     1      25.219  -7.876 -29.138  1.00  0.00     0.000 C 
BRANCH   2   3
ATOM      3  C   UNL     1      26.755  -7.891 -29.170  1.00  0.00     0.000 C 
BRANCH   3   4
ATOM      4  C   UNL     1      27.333  -7.862 -27.748  1.00  0.00     0.000 C 
BRANCH   4   5
ATOM      5  C   UNL     1      28.191  -6.614 -27.469  1.00  0.00     0.006 C 
BRANCH   5   6
ATOM      6  C   UNL     1      28.891  -6.046 -28.716  1.00  0.00     0.053 C 
BRANCH   6   7
ATOM      7  C   UNL     1      30.386  -6.121 -28.622  1.00  0.00     0.041 C 
ATOM      8  O   UNL     1      30.938  -6.403 -27.526  1.00  0.00    -0.550 OA
ATOM      9  O   UNL     1      31.170  -5.846 -29.735  1.00  0.00    -0.550 OA
ENDBRANCH   6   7
ENDBRANCH   5   6
ENDBRANCH   4   5
ENDBRANCH   3   4
ENDBRANCH   2   3
ENDBRANCH   1   2
BRANCH   1  10
ATOM     10  C   UNL     1      23.862  -6.429 -27.520  1.00  0.00     0.000 C 
BRANCH  10  11
ATOM     11  C   UNL     1      24.743  -5.271 -27.027  1.00  0.00    -0.000 C 
BRANCH  11  12
ATOM     12  C   UNL     1      24.619  -4.015 -27.904  1.00  0.00    -0.000 C 
BRANCH  12  13
ATOM     13  C   UNL     1      25.922  -3.749 -28.668  1.00  0.00    -0.000 C 
BRANCH  13  14
ATOM     14  C   UNL     1      25.870  -4.361 -30.075  1.00  0.00    -0.000 C 
BRANCH  14  15
ATOM     15  C   UNL     1      24.457  -4.345 -30.676  1.00  0.00    -0.003 C 
ATOM     16  C   UNL     1      24.260  -5.410 -31.754  1.00  0.00     0.004 C 
ENDBRANCH  14  15
ENDBRANCH  13  14
ENDBRANCH  12  13
ENDBRANCH  11  12
ENDBRANCH  10  11
ENDBRANCH   1  10
TORSDOF 12
ENDMDL
MODEL 9
REMARK VINA RESULT:    -2.897     10.923     12.828
REMARK INTER + INTRA:          -6.932
REMARK INTER:                  -5.007
REMARK INTRA:                  -1.925
REMARK UNBOUND:                -2.003
REMARK SMILES CCCCCCCCCCCCCC(=O)[O-]
REMARK SMILES IDX 8 1 9 2 10 3 11 4 12 5 13 6 14 7 15 8 16 9 7 10 6 11 5 12
REMARK SMILES IDX 4 13 3 14 2 15 1 16
REMARK H PARENT
REMARK Flexibility Score: inf
ROOT
ATOM      1  C   UNL     1      31.159   1.248 -36.188  1.00  0.00     0.000 C 
ENDROOT
BRANCH   1   2
ATOM      2  C   UNL     1      30.991   0.292 -34.996  1.00  0.00     0.000 C 
BRANCH   2   3
ATOM      3  C   UNL     1      32.303   0.056 -34.232  1.00  0.00     0.000 C 
BRANCH   3   4
ATOM      4  C   UNL     1      33.420   0.961 -34.770  1.00  0.00     0.000 C 
BRANCH   4   5
ATOM      5  C   UNL     1      33.904   1.999 -33.740  1.00  0.00     0.006 C 
BRANCH   5   6
ATOM      6  C   UNL     1      32.845   3.050 -33.367  1.00  0.00     0.053 C 
BRANCH   6   7
ATOM      7  C   UNL     1      33.446   4.384 -33.042  1.00  0.00     0.041 C 
ATOM      8  O   UNL     1      32.734   5.295 -32.542  1.00  0.00    -0.550 OA
ATOM      9  O   UNL     1      34.783   4.635 -33.322  1.00  0.00    -0.550 OA
ENDBRANCH   6   7
ENDBRANCH   5   6
ENDBRANCH   4   5
ENDBRANCH   3   4
ENDBRANCH   2   3
ENDBRANCH   1   2
BRANCH   1  10
ATOM     10  C   UNL     1      30.605   0.663 -37.499  1.00  0.00     0.000 C 
BRANCH  10  11
ATOM     11  C   UNL     1      31.604   0.771 -38.662  1.00  0.00    -0.000 C 
BRANCH  11  12
ATOM     12  C   UNL     1      32.989   0.208 -38.309  1.00  0.00    -0.000 C 
BRANCH  12  13
ATOM     13  C   UNL     1      32.991  -1.325 -38.373  1.00  0.00    -0.000 C 
BRANCH  13  14
ATOM     14  C   UNL     1      33.635  -1.927 -37.116  1.00  0.00    -0.000 C 
BRANCH  14  15
ATOM     15  C   UNL     1      32.738  -2.970 -36.434  1.00  0.00    -0.003 C 
ATOM     16  C   UNL     1      31.291  -2.917 -36.924  1.00  0.00     0.004 C 
ENDBRANCH  14  15
ENDBRANCH  13  14
ENDBRANCH  12  13
ENDBRANCH  11  12
ENDBRANCH  10  11
ENDBRANCH   1  10
TORSDOF 12
ENDMDL
