MODEL 1
REMARK VINA RESULT:    -3.829      0.000      0.000
REMARK INTER + INTRA:          -5.496
REMARK INTER:                  -4.948
REMARK INTRA:                  -0.548
REMARK UNBOUND:                -0.548
REMARK SMILES C=CC(=O)CCCCC
REMARK SMILES IDX 6 1 7 2 8 3 9 4 5 5 3 6 4 7 2 8 1 9
REMARK H PARENT
REMARK Flexibility Score: inf
ROOT
ATOM      1  C   UNL     1      11.637 -30.277  22.190  1.00  0.00     0.008 C 
ENDROOT
BRANCH   1   2
ATOM      2  C   UNL     1      11.312 -28.996  22.968  1.00  0.00     0.000 C 
BRANCH   2   3
ATOM      3  C   UNL     1      12.302 -28.786  24.120  1.00  0.00    -0.003 C 
ATOM      4  C   UNL     1      12.976 -27.421  24.025  1.00  0.00     0.004 C 
ENDBRANCH   2   3
ENDBRANCH   1   2
BRANCH   1   5
ATOM      5  C   UNL     1      12.785 -31.051  22.856  1.00  0.00     0.080 C 
BRANCH   5   6
ATOM      6  C   UNL     1      13.927 -31.344  21.910  1.00  0.00     0.155 C 
ATOM      7  O   UNL     1      14.068 -32.501  21.427  1.00  0.00    -0.295 OA
BRANCH   6   8
ATOM      8  C   UNL     1      14.902 -30.305  21.520  1.00  0.00     0.039 C 
ATOM      9  C   UNL     1      15.609 -29.591  22.395  1.00  0.00     0.012 C 
ENDBRANCH   6   8
ENDBRANCH   5   6
ENDBRANCH   1   5
TORSDOF 5
ENDMDL
MODEL 2
REMARK VINA RESULT:    -3.682      1.568      2.465
REMARK INTER + INTRA:          -5.306
REMARK INTER:                  -4.938
REMARK INTRA:                  -0.368
REMARK UNBOUND:                -0.548
REMARK SMILES C=CC(=O)CCCCC
REMARK SMILES IDX 6 1 7 2 8 3 9 4 5 5 3 6 4 7 2 8 1 9
REMARK H PARENT
REMARK Flexibility Score: inf
ROOT
ATOM      1  C   UNL     1      15.039 -30.404  23.163  1.00  0.00     0.008 C 
ENDROOT
BRANCH   1   2
ATOM      2  C   UNL     1      14.106 -29.189  23.210  1.00  0.00     0.000 C 
BRANCH   2   3
ATOM      3  C   UNL     1      12.681 -29.604  23.596  1.00  0.00    -0.003 C 
ATOM      4  C   UNL     1      11.860 -28.400  24.050  1.00  0.00     0.004 C 
ENDBRANCH   2   3
ENDBRANCH   1   2
BRANCH   1   5
ATOM      5  C   UNL     1      14.278 -31.698  23.491  1.00  0.00     0.080 C 
BRANCH   5   6
ATOM      6  C   UNL     1      14.516 -32.796  22.480  1.00  0.00     0.155 C 
ATOM      7  O   UNL     1      14.940 -33.923  22.857  1.00  0.00    -0.295 OA
BRANCH   6   8
ATOM      8  C   UNL     1      14.265 -32.595  21.038  1.00  0.00     0.039 C 
ATOM      9  C   UNL     1      13.229 -31.907  20.559  1.00  0.00     0.012 C 
ENDBRANCH   6   8
ENDBRANCH   5   6
ENDBRANCH   1   5
TORSDOF 5
ENDMDL
MODEL 3
REMARK VINA RESULT:    -3.665      1.581      2.567
REMARK INTER + INTRA:          -5.285
REMARK INTER:                  -4.838
REMARK INTRA:                  -0.447
REMARK UNBOUND:                -0.548
REMARK SMILES C=CC(=O)CCCCC
REMARK SMILES IDX 6 1 7 2 8 3 9 4 5 5 3 6 4 7 2 8 1 9
REMARK H PARENT
REMARK Flexibility Score: inf
ROOT
ATOM      1  C   UNL     1      14.897 -30.242  21.765  1.00  0.00     0.008 C 
ENDROOT
BRANCH   1   2
ATOM      2  C   UNL     1      14.457 -29.315  22.904  1.00  0.00     0.000 C 
BRANCH   2   3
ATOM      3  C   UNL     1      13.142 -29.795  23.528  1.00  0.00    -0.003 C 
ATOM      4  C   UNL     1      12.359 -28.631  24.127  1.00  0.00     0.004 C 
ENDBRANCH   2   3
ENDBRANCH   1   2
BRANCH   1   5
ATOM      5  C   UNL     1      13.873 -31.365  21.541  1.00  0.00     0.080 C 
BRANCH   5   6
ATOM      6  C   UNL     1      14.492 -32.743  21.565  1.00  0.00     0.155 C 
ATOM      7  O   UNL     1      14.484 -33.459  20.526  1.00  0.00    -0.295 OA
BRANCH   6   8
ATOM      8  C   UNL     1      15.122 -33.294  22.782  1.00  0.00     0.039 C 
ATOM      9  C   UNL     1      14.581 -33.205  23.997  1.00  0.00     0.012 C 
ENDBRANCH   6   8
ENDBRANCH   5   6
ENDBRANCH   1   5
TORSDOF 5
ENDMDL
MODEL 4
REMARK VINA RESULT:    -3.588      2.153      2.910
REMARK INTER + INTRA:          -5.184
REMARK INTER:                  -5.069
REMARK INTRA:                  -0.115
REMARK UNBOUND:                -0.548
REMARK SMILES C=CC(=O)CCCCC
REMARK SMILES IDX 6 1 7 2 8 3 9 4 5 5 3 6 4 7 2 8 1 9
REMARK H PARENT
REMARK Flexibility Score: inf
ROOT
ATOM      1  C   UNL     1      13.478 -31.674  23.601  1.00  0.00     0.008 C 
ENDROOT
BRANCH   1   2
ATOM      2  C   UNL     1      13.747 -30.169  23.489  1.00  0.00     0.000 C 
BRANCH   2   3
ATOM      3  C   UNL     1      12.453 -29.398  23.205  1.00  0.00    -0.003 C 
ATOM      4  C   UNL     1      12.254 -28.266  24.208  1.00  0.00     0.004 C 
ENDBRANCH   2   3
ENDBRANCH   1   2
BRANCH   1   5
ATOM      5  C   UNL     1      14.738 -32.486  23.265  1.00  0.00     0.080 C 
BRANCH   5   6
ATOM      6  C   UNL     1      14.680 -33.131  21.900  1.00  0.00     0.155 C 
ATOM      7  O   UNL     1      13.920 -32.660  21.009  1.00  0.00    -0.295 OA
BRANCH   6   8
ATOM      8  C   UNL     1      15.497 -34.314  21.561  1.00  0.00     0.039 C 
ATOM      9  C   UNL     1      15.479 -34.905  20.366  1.00  0.00     0.012 C 
ENDBRANCH   6   8
ENDBRANCH   5   6
ENDBRANCH   1   5
TORSDOF 5
ENDMDL
MODEL 5
REMARK VINA RESULT:    -3.584      2.018      4.421
REMARK INTER + INTRA:          -5.179
REMARK INTER:                  -4.985
REMARK INTRA:                  -0.194
REMARK UNBOUND:                -0.548
REMARK SMILES C=CC(=O)CCCCC
REMARK SMILES IDX 6 1 7 2 8 3 9 4 5 5 3 6 4 7 2 8 1 9
REMARK H PARENT
REMARK Flexibility Score: inf
ROOT
ATOM      1  C   UNL     1      13.791 -32.127  24.035  1.00  0.00     0.008 C 
ENDROOT
BRANCH   1   2
ATOM      2  C   UNL     1      14.965 -32.943  23.479  1.00  0.00     0.000 C 
BRANCH   2   3
ATOM      3  C   UNL     1      14.917 -33.005  21.948  1.00  0.00    -0.003 C 
ATOM      4  C   UNL     1      15.258 -34.403  21.443  1.00  0.00     0.004 C 
ENDBRANCH   2   3
ENDBRANCH   1   2
BRANCH   1   5
ATOM      5  C   UNL     1      13.917 -30.645  23.647  1.00  0.00     0.080 C 
BRANCH   5   6
ATOM      6  C   UNL     1      12.625 -30.059  23.127  1.00  0.00     0.155 C 
ATOM      7  O   UNL     1      12.038 -30.590  22.144  1.00  0.00    -0.295 OA
BRANCH   6   8
ATOM      8  C   UNL     1      12.009 -28.864  23.740  1.00  0.00     0.039 C 
ATOM      9  C   UNL     1      12.706 -27.803  24.149  1.00  0.00     0.012 C 
ENDBRANCH   6   8
ENDBRANCH   5   6
ENDBRANCH   1   5
TORSDOF 5
ENDMDL
MODEL 6
REMARK VINA RESULT:    -3.582      1.389      2.187
REMARK INTER + INTRA:          -5.177
REMARK INTER:                  -4.883
REMARK INTRA:                  -0.294
REMARK UNBOUND:                -0.548
REMARK SMILES C=CC(=O)CCCCC
REMARK SMILES IDX 6 1 7 2 8 3 9 4 5 5 3 6 4 7 2 8 1 9
REMARK H PARENT
REMARK Flexibility Score: inf
ROOT
ATOM      1  C   UNL     1      13.857 -30.316  23.605  1.00  0.00     0.008 C 
ENDROOT
BRANCH   1   2
ATOM      2  C   UNL     1      12.605 -29.483  23.302  1.00  0.00     0.000 C 
BRANCH   2   3
ATOM      3  C   UNL     1      12.353 -28.448  24.404  1.00  0.00    -0.003 C 
ATOM      4  C   UNL     1      13.103 -27.150  24.123  1.00  0.00     0.004 C 
ENDBRANCH   2   3
ENDBRANCH   1   2
BRANCH   1   5
ATOM      5  C   UNL     1      14.971 -30.028  22.586  1.00  0.00     0.080 C 
BRANCH   5   6
ATOM      6  C   UNL     1      15.309 -31.224  21.727  1.00  0.00     0.155 C 
ATOM      7  O   UNL     1      16.492 -31.403  21.328  1.00  0.00    -0.295 OA
BRANCH   6   8
ATOM      8  C   UNL     1      14.285 -32.213  21.330  1.00  0.00     0.039 C 
ATOM      9  C   UNL     1      13.368 -31.987  20.390  1.00  0.00     0.012 C 
ENDBRANCH   6   8
ENDBRANCH   5   6
ENDBRANCH   1   5
TORSDOF 5
ENDMDL
MODEL 7
REMARK VINA RESULT:    -3.546      1.769      2.079
REMARK INTER + INTRA:          -5.130
REMARK INTER:                  -4.800
REMARK INTRA:                  -0.330
REMARK UNBOUND:                -0.548
REMARK SMILES C=CC(=O)CCCCC
REMARK SMILES IDX 6 1 7 2 8 3 9 4 5 5 3 6 4 7 2 8 1 9
REMARK H PARENT
REMARK Flexibility Score: inf
ROOT
ATOM      1  C   UNL     1      12.645 -30.621  22.587  1.00  0.00     0.008 C 
ENDROOT
BRANCH   1   2
ATOM      2  C   UNL     1      13.323 -29.424  23.266  1.00  0.00     0.000 C 
BRANCH   2   3
ATOM      3  C   UNL     1      12.320 -28.629  24.110  1.00  0.00    -0.003 C 
ATOM      4  C   UNL     1      11.016 -28.406  23.352  1.00  0.00     0.004 C 
ENDBRANCH   2   3
ENDBRANCH   1   2
BRANCH   1   5
ATOM      5  C   UNL     1      13.672 -31.709  22.235  1.00  0.00     0.080 C 
BRANCH   5   6
ATOM      6  C   UNL     1      14.386 -32.261  23.447  1.00  0.00     0.155 C 
ATOM      7  O   UNL     1      13.725 -32.732  24.412  1.00  0.00    -0.295 OA
BRANCH   6   8
ATOM      8  C   UNL     1      15.860 -32.272  23.544  1.00  0.00     0.039 C 
ATOM      9  C   UNL     1      16.601 -31.168  23.644  1.00  0.00     0.012 C 
ENDBRANCH   6   8
ENDBRANCH   5   6
ENDBRANCH   1   5
TORSDOF 5
ENDMDL
MODEL 8
REMARK VINA RESULT:    -3.530      1.792      3.769
REMARK INTER + INTRA:          -5.110
REMARK INTER:                  -4.840
REMARK INTRA:                  -0.270
REMARK UNBOUND:                -0.548
REMARK SMILES C=CC(=O)CCCCC
REMARK SMILES IDX 6 1 7 2 8 3 9 4 5 5 3 6 4 7 2 8 1 9
REMARK H PARENT
REMARK Flexibility Score: inf
ROOT
ATOM      1  C   UNL     1      13.354 -30.910  22.063  1.00  0.00     0.008 C 
ENDROOT
BRANCH   1   2
ATOM      2  C   UNL     1      14.828 -30.832  21.649  1.00  0.00     0.000 C 
BRANCH   2   3
ATOM      3  C   UNL     1      15.569 -29.756  22.451  1.00  0.00    -0.003 C 
ATOM      4  C   UNL     1      16.973 -29.527  21.901  1.00  0.00     0.004 C 
ENDBRANCH   2   3
ENDBRANCH   1   2
BRANCH   1   5
ATOM      5  C   UNL     1      13.158 -30.412  23.503  1.00  0.00     0.080 C 
BRANCH   5   6
ATOM      6  C   UNL     1      12.282 -29.183  23.589  1.00  0.00     0.155 C 
ATOM      7  O   UNL     1      11.267 -29.076  22.848  1.00  0.00    -0.295 OA
BRANCH   6   8
ATOM      8  C   UNL     1      12.576 -28.081  24.529  1.00  0.00     0.039 C 
ATOM      9  C   UNL     1      13.264 -26.990  24.195  1.00  0.00     0.012 C 
ENDBRANCH   6   8
ENDBRANCH   5   6
ENDBRANCH   1   5
TORSDOF 5
ENDMDL
MODEL 9
REMARK VINA RESULT:    -3.486      8.017      9.655
REMARK INTER + INTRA:          -5.053
REMARK INTER:                  -4.533
REMARK INTRA:                  -0.520
REMARK UNBOUND:                -0.548
REMARK SMILES C=CC(=O)CCCCC
REMARK SMILES IDX 6 1 7 2 8 3 9 4 5 5 3 6 4 7 2 8 1 9
REMARK H PARENT
REMARK Flexibility Score: inf
ROOT
ATOM      1  C   UNL     1      20.219 -26.755  21.270  1.00  0.00     0.008 C 
ENDROOT
BRANCH   1   2
ATOM      2  C   UNL     1      19.812 -28.073  20.600  1.00  0.00     0.000 C 
BRANCH   2   3
ATOM      3  C   UNL     1      20.734 -29.218  21.034  1.00  0.00    -0.003 C 
ATOM      4  C   UNL     1      21.751 -28.746  22.068  1.00  0.00     0.004 C 
ENDBRANCH   2   3
ENDBRANCH   1   2
BRANCH   1   5
ATOM      5  C   UNL     1      20.621 -25.705  20.223  1.00  0.00     0.080 C 
BRANCH   5   6
ATOM      6  C   UNL     1      22.062 -25.267  20.349  1.00  0.00     0.155 C 
ATOM      7  O   UNL     1      22.408 -24.488  21.279  1.00  0.00    -0.295 OA
BRANCH   6   8
ATOM      8  C   UNL     1      23.101 -25.728  19.405  1.00  0.00     0.039 C 
ATOM      9  C   UNL     1      23.707 -26.912  19.496  1.00  0.00     0.012 C 
ENDBRANCH   6   8
ENDBRANCH   5   6
ENDBRANCH   1   5
TORSDOF 5
ENDMDL
