MODEL 1
REMARK VINA RESULT:    -6.165      0.000      0.000
REMARK INTER + INTRA:          -9.121
REMARK INTER:                  -8.328
REMARK INTRA:                  -0.793
REMARK UNBOUND:                -0.793
REMARK SMILES CC(=O)CCC=C(C)CCC=C(C)C
REMARK SMILES IDX 7 1 6 2 8 3 9 4 10 5 11 6 13 7 12 8 14 9 5 10 4 11 2 12 3 13
REMARK SMILES IDX 1 14
REMARK H PARENT
REMARK Flexibility Score: inf
ROOT
ATOM      1  C   UNL     1     -11.402 -16.477  29.371  1.00  0.00    -0.077 C 
ATOM      2  C   UNL     1     -12.070 -16.621  30.536  1.00  0.00    -0.028 C 
ATOM      3  C   UNL     1     -10.304 -17.433  28.970  1.00  0.00     0.039 C 
ENDROOT
BRANCH   1   4
ATOM      4  C   UNL     1     -11.753 -15.325  28.453  1.00  0.00     0.034 C 
BRANCH   4   5
ATOM      5  C   UNL     1     -13.190 -15.435  27.929  1.00  0.00     0.032 C 
BRANCH   5   6
ATOM      6  C   UNL     1     -13.880 -14.089  27.953  1.00  0.00    -0.028 C 
ATOM      7  C   UNL     1     -15.033 -12.146  28.915  1.00  0.00     0.039 C 
ATOM      8  C   UNL     1     -14.436 -13.524  29.046  1.00  0.00    -0.080 C 
ATOM      9  C   UNL     1     -14.476 -14.226  30.383  1.00  0.00     0.039 C 
ENDBRANCH   5   6
ENDBRANCH   4   5
ENDBRANCH   1   4
BRANCH   2  10
ATOM     10  C   UNL     1     -11.772 -17.722  31.526  1.00  0.00     0.035 C 
BRANCH  10  11
ATOM     11  C   UNL     1     -12.961 -18.677  31.666  1.00  0.00     0.079 C 
BRANCH  11  12
ATOM     12  C   UNL     1     -12.759 -19.907  30.821  1.00  0.00     0.130 C 
ATOM     13  O   UNL     1     -12.221 -20.890  31.310  1.00  0.00    -0.300 OA
ATOM     14  C   UNL     1     -13.213 -19.959  29.392  1.00  0.00     0.087 C 
ENDBRANCH  11  12
ENDBRANCH  10  11
ENDBRANCH   2  10
TORSDOF 6
ENDMDL
MODEL 2
REMARK VINA RESULT:    -6.127      1.460      2.479
REMARK INTER + INTRA:          -9.069
REMARK INTER:                  -7.909
REMARK INTRA:                  -1.160
REMARK UNBOUND:                -0.793
REMARK SMILES CC(=O)CCC=C(C)CCC=C(C)C
REMARK SMILES IDX 7 1 6 2 8 3 9 4 10 5 11 6 13 7 12 8 14 9 5 10 4 11 2 12 3 13
REMARK SMILES IDX 1 14
REMARK H PARENT
REMARK Flexibility Score: inf
ROOT
ATOM      1  C   UNL     1     -12.839 -16.689  27.723  1.00  0.00    -0.077 C 
ATOM      2  C   UNL     1     -13.507 -17.798  28.106  1.00  0.00    -0.028 C 
ATOM      3  C   UNL     1     -11.355 -16.720  27.444  1.00  0.00     0.039 C 
ENDROOT
BRANCH   1   4
ATOM      4  C   UNL     1     -13.591 -15.381  27.584  1.00  0.00     0.034 C 
BRANCH   4   5
ATOM      5  C   UNL     1     -13.133 -14.350  28.624  1.00  0.00     0.032 C 
BRANCH   5   6
ATOM      6  C   UNL     1     -14.039 -14.360  29.834  1.00  0.00    -0.028 C 
ATOM      7  C   UNL     1     -14.769 -14.889  32.118  1.00  0.00     0.039 C 
ATOM      8  C   UNL     1     -13.792 -15.032  30.979  1.00  0.00    -0.080 C 
ATOM      9  C   UNL     1     -12.578 -15.913  31.149  1.00  0.00     0.039 C 
ENDBRANCH   5   6
ENDBRANCH   4   5
ENDBRANCH   1   4
BRANCH   2  10
ATOM     10  C   UNL     1     -12.838 -19.138  28.297  1.00  0.00     0.035 C 
BRANCH  10  11
ATOM     11  C   UNL     1     -13.272 -19.793  29.612  1.00  0.00     0.079 C 
BRANCH  11  12
ATOM     12  C   UNL     1     -12.139 -19.802  30.603  1.00  0.00     0.130 C 
ATOM     13  O   UNL     1     -12.271 -20.398  31.662  1.00  0.00    -0.300 OA
ATOM     14  C   UNL     1     -10.842 -19.103  30.315  1.00  0.00     0.087 C 
ENDBRANCH  11  12
ENDBRANCH  10  11
ENDBRANCH   2  10
TORSDOF 6
ENDMDL
MODEL 3
REMARK VINA RESULT:    -6.098      2.229      4.899
REMARK INTER + INTRA:          -9.029
REMARK INTER:                  -8.277
REMARK INTRA:                  -0.752
REMARK UNBOUND:                -0.793
REMARK SMILES CC(=O)CCC=C(C)CCC=C(C)C
REMARK SMILES IDX 7 1 6 2 8 3 9 4 10 5 11 6 13 7 12 8 14 9 5 10 4 11 2 12 3 13
REMARK SMILES IDX 1 14
REMARK H PARENT
REMARK Flexibility Score: inf
ROOT
ATOM      1  C   UNL     1     -14.052 -14.493  29.990  1.00  0.00    -0.077 C 
ATOM      2  C   UNL     1     -13.199 -15.321  29.350  1.00  0.00    -0.028 C 
ATOM      3  C   UNL     1     -14.691 -13.320  29.284  1.00  0.00     0.039 C 
ENDROOT
BRANCH   1   4
ATOM      4  C   UNL     1     -14.365 -14.736  31.452  1.00  0.00     0.034 C 
BRANCH   4   5
ATOM      5  C   UNL     1     -13.769 -16.060  31.946  1.00  0.00     0.032 C 
BRANCH   5   6
ATOM      6  C   UNL     1     -12.550 -15.820  32.807  1.00  0.00    -0.028 C 
ATOM      7  C   UNL     1     -10.191 -15.929  33.483  1.00  0.00     0.039 C 
ATOM      8  C   UNL     1     -11.317 -16.313  32.558  1.00  0.00    -0.080 C 
ATOM      9  C   UNL     1     -11.039 -17.230  31.391  1.00  0.00     0.039 C 
ENDBRANCH   5   6
ENDBRANCH   4   5
ENDBRANCH   1   4
BRANCH   2  10
ATOM     10  C   UNL     1     -12.808 -15.143  27.902  1.00  0.00     0.035 C 
BRANCH  10  11
ATOM     11  C   UNL     1     -13.162 -16.383  27.076  1.00  0.00     0.079 C 
BRANCH  11  12
ATOM     12  C   UNL     1     -11.999 -17.337  27.021  1.00  0.00     0.130 C 
ATOM     13  O   UNL     1     -11.916 -18.232  27.849  1.00  0.00    -0.300 OA
ATOM     14  C   UNL     1     -10.941 -17.222  25.963  1.00  0.00     0.087 C 
ENDBRANCH  11  12
ENDBRANCH  10  11
ENDBRANCH   2  10
TORSDOF 6
ENDMDL
MODEL 4
REMARK VINA RESULT:    -6.098      1.595      2.871
REMARK INTER + INTRA:          -9.029
REMARK INTER:                  -8.712
REMARK INTRA:                  -0.317
REMARK UNBOUND:                -0.793
REMARK SMILES CC(=O)CCC=C(C)CCC=C(C)C
REMARK SMILES IDX 7 1 6 2 8 3 9 4 10 5 11 6 13 7 12 8 14 9 5 10 4 11 2 12 3 13
REMARK SMILES IDX 1 14
REMARK H PARENT
REMARK Flexibility Score: inf
ROOT
ATOM      1  C   UNL     1     -12.921 -16.692  32.299  1.00  0.00    -0.077 C 
ATOM      2  C   UNL     1     -13.256 -17.879  31.749  1.00  0.00    -0.028 C 
ATOM      3  C   UNL     1     -11.477 -16.292  32.492  1.00  0.00     0.039 C 
ENDROOT
BRANCH   1   4
ATOM      4  C   UNL     1     -14.017 -15.746  32.745  1.00  0.00     0.034 C 
BRANCH   4   5
ATOM      5  C   UNL     1     -14.332 -14.697  31.672  1.00  0.00     0.032 C 
BRANCH   5   6
ATOM      6  C   UNL     1     -13.738 -15.089  30.338  1.00  0.00    -0.028 C 
ATOM      7  C   UNL     1     -13.156 -14.877  27.961  1.00  0.00     0.039 C 
ATOM      8  C   UNL     1     -13.862 -14.379  29.196  1.00  0.00    -0.080 C 
ATOM      9  C   UNL     1     -14.682 -13.112  29.123  1.00  0.00     0.039 C 
ENDBRANCH   5   6
ENDBRANCH   4   5
ENDBRANCH   1   4
BRANCH   2  10
ATOM     10  C   UNL     1     -12.234 -18.896  31.298  1.00  0.00     0.035 C 
BRANCH  10  11
ATOM     11  C   UNL     1     -12.897 -20.044  30.531  1.00  0.00     0.079 C 
BRANCH  11  12
ATOM     12  C   UNL     1     -12.951 -19.739  29.058  1.00  0.00     0.130 C 
ATOM     13  O   UNL     1     -13.617 -20.451  28.321  1.00  0.00    -0.300 OA
ATOM     14  C   UNL     1     -12.212 -18.572  28.472  1.00  0.00     0.087 C 
ENDBRANCH  11  12
ENDBRANCH  10  11
ENDBRANCH   2  10
TORSDOF 6
ENDMDL
MODEL 5
REMARK VINA RESULT:    -6.046      2.234      4.821
REMARK INTER + INTRA:          -8.959
REMARK INTER:                  -7.800
REMARK INTRA:                  -1.159
REMARK UNBOUND:                -0.793
REMARK SMILES CC(=O)CCC=C(C)CCC=C(C)C
REMARK SMILES IDX 7 1 6 2 8 3 9 4 10 5 11 6 13 7 12 8 14 9 5 10 4 11 2 12 3 13
REMARK SMILES IDX 1 14
REMARK H PARENT
REMARK Flexibility Score: inf
ROOT
ATOM      1  C   UNL     1     -12.403 -18.843  29.142  1.00  0.00    -0.077 C 
ATOM      2  C   UNL     1     -11.402 -17.953  28.966  1.00  0.00    -0.028 C 
ATOM      3  C   UNL     1     -13.645 -18.812  28.283  1.00  0.00     0.039 C 
ENDROOT
BRANCH   1   4
ATOM      4  C   UNL     1     -12.284 -19.885  30.235  1.00  0.00     0.034 C 
BRANCH   4   5
ATOM      5  C   UNL     1     -12.234 -19.245  31.627  1.00  0.00     0.032 C 
BRANCH   5   6
ATOM      6  C   UNL     1     -13.233 -18.116  31.742  1.00  0.00    -0.028 C 
ATOM      7  C   UNL     1     -14.031 -15.815  32.061  1.00  0.00     0.039 C 
ATOM      8  C   UNL     1     -12.923 -16.836  32.046  1.00  0.00    -0.080 C 
ATOM      9  C   UNL     1     -11.512 -16.405  32.370  1.00  0.00     0.039 C 
ENDBRANCH   5   6
ENDBRANCH   4   5
ENDBRANCH   1   4
BRANCH   2  10
ATOM     10  C   UNL     1     -11.443 -16.864  27.921  1.00  0.00     0.035 C 
BRANCH  10  11
ATOM     11  C   UNL     1     -11.832 -15.517  28.540  1.00  0.00     0.079 C 
BRANCH  11  12
ATOM     12  C   UNL     1     -13.163 -15.053  28.012  1.00  0.00     0.130 C 
ATOM     13  O   UNL     1     -13.640 -15.594  27.025  1.00  0.00    -0.300 OA
ATOM     14  C   UNL     1     -13.926 -13.946  28.677  1.00  0.00     0.087 C 
ENDBRANCH  11  12
ENDBRANCH  10  11
ENDBRANCH   2  10
TORSDOF 6
ENDMDL
MODEL 6
REMARK VINA RESULT:    -5.938      1.517      3.317
REMARK INTER + INTRA:          -8.814
REMARK INTER:                  -8.426
REMARK INTRA:                  -0.388
REMARK UNBOUND:                -0.793
REMARK SMILES CC(=O)CCC=C(C)CCC=C(C)C
REMARK SMILES IDX 7 1 6 2 8 3 9 4 10 5 11 6 13 7 12 8 14 9 5 10 4 11 2 12 3 13
REMARK SMILES IDX 1 14
REMARK H PARENT
REMARK Flexibility Score: inf
ROOT
ATOM      1  C   UNL     1     -13.073 -14.981  28.116  1.00  0.00    -0.077 C 
ATOM      2  C   UNL     1     -11.861 -15.244  28.649  1.00  0.00    -0.028 C 
ATOM      3  C   UNL     1     -13.653 -15.838  27.015  1.00  0.00     0.039 C 
ENDROOT
BRANCH   1   4
ATOM      4  C   UNL     1     -13.865 -13.794  28.623  1.00  0.00     0.034 C 
BRANCH   4   5
ATOM      5  C   UNL     1     -14.329 -13.998  30.071  1.00  0.00     0.032 C 
BRANCH   5   6
ATOM      6  C   UNL     1     -13.846 -15.324  30.613  1.00  0.00    -0.028 C 
ATOM      7  C   UNL     1     -13.398 -17.064  32.288  1.00  0.00     0.039 C 
ATOM      8  C   UNL     1     -13.859 -15.678  31.917  1.00  0.00    -0.080 C 
ATOM      9  C   UNL     1     -14.316 -14.732  33.002  1.00  0.00     0.039 C 
ENDBRANCH   5   6
ENDBRANCH   4   5
ENDBRANCH   1   4
BRANCH   2  10
ATOM     10  C   UNL     1     -10.990 -16.388  28.190  1.00  0.00     0.035 C 
BRANCH  10  11
ATOM     11  C   UNL     1     -10.385 -17.138  29.381  1.00  0.00     0.079 C 
BRANCH  11  12
ATOM     12  C   UNL     1     -11.113 -18.434  29.620  1.00  0.00     0.130 C 
ATOM     13  O   UNL     1     -10.659 -19.240  30.419  1.00  0.00    -0.300 OA
ATOM     14  C   UNL     1     -12.392 -18.757  28.906  1.00  0.00     0.087 C 
ENDBRANCH  11  12
ENDBRANCH  10  11
ENDBRANCH   2  10
TORSDOF 6
ENDMDL
MODEL 7
REMARK VINA RESULT:    -5.910      2.536      5.437
REMARK INTER + INTRA:          -8.776
REMARK INTER:                  -7.775
REMARK INTRA:                  -1.001
REMARK UNBOUND:                -0.793
REMARK SMILES CC(=O)CCC=C(C)CCC=C(C)C
REMARK SMILES IDX 7 1 6 2 8 3 9 4 10 5 11 6 13 7 12 8 14 9 5 10 4 11 2 12 3 13
REMARK SMILES IDX 1 14
REMARK H PARENT
REMARK Flexibility Score: inf
ROOT
ATOM      1  C   UNL     1     -11.227 -16.541  28.158  1.00  0.00    -0.077 C 
ATOM      2  C   UNL     1     -11.959 -15.498  28.602  1.00  0.00    -0.028 C 
ATOM      3  C   UNL     1     -11.690 -17.391  26.998  1.00  0.00     0.039 C 
ENDROOT
BRANCH   1   4
ATOM      4  C   UNL     1      -9.919 -16.875  28.844  1.00  0.00     0.034 C 
BRANCH   4   5
ATOM      5  C   UNL     1     -10.125 -17.205  30.328  1.00  0.00     0.032 C 
BRANCH   5   6
ATOM      6  C   UNL     1     -10.703 -18.591  30.500  1.00  0.00    -0.028 C 
ATOM      7  C   UNL     1     -12.389 -20.297  31.027  1.00  0.00     0.039 C 
ATOM      8  C   UNL     1     -11.940 -18.860  30.974  1.00  0.00    -0.080 C 
ATOM      9  C   UNL     1     -12.874 -17.772  31.448  1.00  0.00     0.039 C 
ENDBRANCH   5   6
ENDBRANCH   4   5
ENDBRANCH   1   4
BRANCH   2  10
ATOM     10  C   UNL     1     -13.287 -15.106  27.999  1.00  0.00     0.035 C 
BRANCH  10  11
ATOM     11  C   UNL     1     -13.717 -13.711  28.464  1.00  0.00     0.079 C 
BRANCH  11  12
ATOM     12  C   UNL     1     -14.757 -13.808  29.548  1.00  0.00     0.130 C 
ATOM     13  O   UNL     1     -15.895 -13.421  29.325  1.00  0.00    -0.300 OA
ATOM     14  C   UNL     1     -14.432 -14.381  30.896  1.00  0.00     0.087 C 
ENDBRANCH  11  12
ENDBRANCH  10  11
ENDBRANCH   2  10
TORSDOF 6
ENDMDL
MODEL 8
REMARK VINA RESULT:    -5.898      1.386      3.138
REMARK INTER + INTRA:          -8.760
REMARK INTER:                  -8.032
REMARK INTRA:                  -0.728
REMARK UNBOUND:                -0.793
REMARK SMILES CC(=O)CCC=C(C)CCC=C(C)C
REMARK SMILES IDX 7 1 6 2 8 3 9 4 10 5 11 6 13 7 12 8 14 9 5 10 4 11 2 12 3 13
REMARK SMILES IDX 1 14
REMARK H PARENT
REMARK Flexibility Score: inf
ROOT
ATOM      1  C   UNL     1     -14.048 -15.032  31.157  1.00  0.00    -0.077 C 
ATOM      2  C   UNL     1     -13.108 -15.974  30.926  1.00  0.00    -0.028 C 
ATOM      3  C   UNL     1     -14.752 -14.931  32.489  1.00  0.00     0.039 C 
ENDROOT
BRANCH   1   4
ATOM      4  C   UNL     1     -14.414 -14.063  30.051  1.00  0.00     0.034 C 
BRANCH   4   5
ATOM      5  C   UNL     1     -13.354 -14.041  28.943  1.00  0.00     0.032 C 
BRANCH   5   6
ATOM      6  C   UNL     1     -13.783 -14.886  27.765  1.00  0.00    -0.028 C 
ATOM      7  C   UNL     1     -13.658 -16.684  26.096  1.00  0.00     0.039 C 
ATOM      8  C   UNL     1     -13.060 -15.896  27.234  1.00  0.00    -0.080 C 
ATOM      9  C   UNL     1     -11.685 -16.256  27.743  1.00  0.00     0.039 C 
ENDBRANCH   5   6
ENDBRANCH   4   5
ENDBRANCH   1   4
BRANCH   2  10
ATOM     10  C   UNL     1     -12.697 -16.997  31.957  1.00  0.00     0.035 C 
BRANCH  10  11
ATOM     11  C   UNL     1     -13.244 -18.385  31.609  1.00  0.00     0.079 C 
BRANCH  11  12
ATOM     12  C   UNL     1     -12.122 -19.334  31.282  1.00  0.00     0.130 C 
ATOM     13  O   UNL     1     -12.183 -20.492  31.666  1.00  0.00    -0.300 OA
ATOM     14  C   UNL     1     -10.931 -18.892  30.484  1.00  0.00     0.087 C 
ENDBRANCH  11  12
ENDBRANCH  10  11
ENDBRANCH   2  10
TORSDOF 6
ENDMDL
MODEL 9
REMARK VINA RESULT:    -5.878      1.781      4.977
REMARK INTER + INTRA:          -8.733
REMARK INTER:                  -7.932
REMARK INTRA:                  -0.801
REMARK UNBOUND:                -0.793
REMARK SMILES CC(=O)CCC=C(C)CCC=C(C)C
REMARK SMILES IDX 7 1 6 2 8 3 9 4 10 5 11 6 13 7 12 8 14 9 5 10 4 11 2 12 3 13
REMARK SMILES IDX 1 14
REMARK H PARENT
REMARK Flexibility Score: inf
ROOT
ATOM      1  C   UNL     1     -13.989 -14.748  30.487  1.00  0.00    -0.077 C 
ATOM      2  C   UNL     1     -13.057 -15.311  29.688  1.00  0.00    -0.028 C 
ATOM      3  C   UNL     1     -14.865 -13.617  30.000  1.00  0.00     0.039 C 
ENDROOT
BRANCH   1   4
ATOM      4  C   UNL     1     -14.153 -15.252  31.905  1.00  0.00     0.034 C 
BRANCH   4   5
ATOM      5  C   UNL     1     -12.985 -16.155  32.324  1.00  0.00     0.032 C 
BRANCH   5   6
ATOM      6  C   UNL     1     -13.242 -17.592  31.932  1.00  0.00    -0.028 C 
ATOM      7  C   UNL     1     -12.722 -19.851  31.121  1.00  0.00     0.039 C 
ATOM      8  C   UNL     1     -12.321 -18.426  31.402  1.00  0.00    -0.080 C 
ATOM      9  C   UNL     1     -10.915 -17.975  31.087  1.00  0.00     0.039 C 
ENDBRANCH   5   6
ENDBRANCH   4   5
ENDBRANCH   1   4
BRANCH   2  10
ATOM     10  C   UNL     1     -12.805 -14.858  28.270  1.00  0.00     0.035 C 
BRANCH  10  11
ATOM     11  C   UNL     1     -13.274 -15.911  27.260  1.00  0.00     0.079 C 
BRANCH  11  12
ATOM     12  C   UNL     1     -12.647 -17.248  27.554  1.00  0.00     0.130 C 
ATOM     13  O   UNL     1     -13.346 -18.161  27.970  1.00  0.00    -0.300 OA
ATOM     14  C   UNL     1     -11.183 -17.491  27.338  1.00  0.00     0.087 C 
ENDBRANCH  11  12
ENDBRANCH  10  11
ENDBRANCH   2  10
TORSDOF 6
ENDMDL
