MODEL 1
REMARK VINA RESULT:    -4.222      0.000      0.000
REMARK INTER + INTRA:          -8.053
REMARK INTER:                  -6.690
REMARK INTRA:                  -1.363
REMARK UNBOUND:                -1.363
REMARK SMILES CCCCCCCCCCCC(=O)[O-]
REMARK SMILES IDX 7 1 8 2 9 3 10 4 11 5 12 6 13 7 14 8 6 9 5 10 4 11 3 12 2 13
REMARK SMILES IDX 1 14
REMARK H PARENT
REMARK Flexibility Score: inf
ROOT
ATOM      1  C   UNL     1     129.726 142.295 141.424  1.00  0.00     0.000 C 
ENDROOT
BRANCH   1   2
ATOM      2  C   UNL     1     128.398 141.695 141.906  1.00  0.00     0.000 C 
BRANCH   2   3
ATOM      3  C   UNL     1     127.210 142.318 141.159  1.00  0.00     0.000 C 
BRANCH   3   4
ATOM      4  C   UNL     1     127.612 142.934 139.807  1.00  0.00     0.006 C 
BRANCH   4   5
ATOM      5  C   UNL     1     126.427 143.395 138.944  1.00  0.00     0.053 C 
BRANCH   5   6
ATOM      6  C   UNL     1     126.161 144.862 139.095  1.00  0.00     0.041 C 
ATOM      7  O   UNL     1     126.272 145.414 140.221  1.00  0.00    -0.550 OA
ATOM      8  O   UNL     1     125.760 145.613 137.997  1.00  0.00    -0.550 OA
ENDBRANCH   5   6
ENDBRANCH   4   5
ENDBRANCH   3   4
ENDBRANCH   2   3
ENDBRANCH   1   2
BRANCH   1   9
ATOM      9  C   UNL     1     130.811 141.214 141.314  1.00  0.00     0.000 C 
BRANCH   9  10
ATOM     10  C   UNL     1     131.602 141.302 139.999  1.00  0.00    -0.000 C 
BRANCH  10  11
ATOM     11  C   UNL     1     130.689 141.385 138.764  1.00  0.00    -0.000 C 
BRANCH  11  12
ATOM     12  C   UNL     1     130.355 140.002 138.184  1.00  0.00    -0.000 C 
BRANCH  12  13
ATOM     13  C   UNL     1     128.846 139.718 138.165  1.00  0.00    -0.003 C 
ATOM     14  C   UNL     1     128.411 138.981 139.428  1.00  0.00     0.004 C 
ENDBRANCH  12  13
ENDBRANCH  11  12
ENDBRANCH  10  11
ENDBRANCH   9  10
ENDBRANCH   1   9
TORSDOF 10
ENDMDL
MODEL 2
REMARK VINA RESULT:    -4.179      2.897      5.279
REMARK INTER + INTRA:          -7.985
REMARK INTER:                  -7.020
REMARK INTRA:                  -0.965
REMARK UNBOUND:                -1.363
REMARK SMILES CCCCCCCCCCCC(=O)[O-]
REMARK SMILES IDX 7 1 8 2 9 3 10 4 11 5 12 6 13 7 14 8 6 9 5 10 4 11 3 12 2 13
REMARK SMILES IDX 1 14
REMARK H PARENT
REMARK Flexibility Score: inf
ROOT
ATOM      1  C   UNL     1     129.403 140.696 141.638  1.00  0.00     0.000 C 
ENDROOT
BRANCH   1   2
ATOM      2  C   UNL     1     130.595 141.608 141.319  1.00  0.00     0.000 C 
BRANCH   2   3
ATOM      3  C   UNL     1     131.461 141.011 140.200  1.00  0.00     0.000 C 
BRANCH   3   4
ATOM      4  C   UNL     1     130.868 141.243 138.799  1.00  0.00     0.006 C 
BRANCH   4   5
ATOM      5  C   UNL     1     130.824 139.987 137.915  1.00  0.00     0.053 C 
BRANCH   5   6
ATOM      6  C   UNL     1     129.554 139.215 138.101  1.00  0.00     0.041 C 
ATOM      7  O   UNL     1     129.555 137.960 137.998  1.00  0.00    -0.550 OA
ATOM      8  O   UNL     1     128.364 139.883 138.356  1.00  0.00    -0.550 OA
ENDBRANCH   5   6
ENDBRANCH   4   5
ENDBRANCH   3   4
ENDBRANCH   2   3
ENDBRANCH   1   2
BRANCH   1   9
ATOM      9  C   UNL     1     128.083 141.480 141.596  1.00  0.00     0.000 C 
BRANCH   9  10
ATOM     10  C   UNL     1     128.239 142.867 140.953  1.00  0.00    -0.000 C 
BRANCH  10  11
ATOM     11  C   UNL     1     127.528 142.971 139.593  1.00  0.00    -0.000 C 
BRANCH  11  12
ATOM     12  C   UNL     1     126.089 143.495 139.718  1.00  0.00    -0.000 C 
BRANCH  12  13
ATOM     13  C   UNL     1     126.029 145.019 139.902  1.00  0.00    -0.003 C 
ATOM     14  C   UNL     1     125.957 145.731 138.554  1.00  0.00     0.004 C 
ENDBRANCH  12  13
ENDBRANCH  11  12
ENDBRANCH  10  11
ENDBRANCH   9  10
ENDBRANCH   1   9
TORSDOF 10
ENDMDL
MODEL 3
REMARK VINA RESULT:    -4.088      1.760      2.084
REMARK INTER + INTRA:          -7.841
REMARK INTER:                  -6.594
REMARK INTRA:                  -1.246
REMARK UNBOUND:                -1.363
REMARK SMILES CCCCCCCCCCCC(=O)[O-]
REMARK SMILES IDX 7 1 8 2 9 3 10 4 11 5 12 6 13 7 14 8 6 9 5 10 4 11 3 12 2 13
REMARK SMILES IDX 1 14
REMARK H PARENT
REMARK Flexibility Score: inf
ROOT
ATOM      1  C   UNL     1     129.624 142.336 141.683  1.00  0.00     0.000 C 
ENDROOT
BRANCH   1   2
ATOM      2  C   UNL     1     128.185 141.939 141.328  1.00  0.00     0.000 C 
BRANCH   2   3
ATOM      3  C   UNL     1     127.511 143.021 140.471  1.00  0.00     0.000 C 
BRANCH   3   4
ATOM      4  C   UNL     1     127.584 142.720 138.964  1.00  0.00     0.006 C 
BRANCH   4   5
ATOM      5  C   UNL     1     126.435 143.323 138.141  1.00  0.00     0.053 C 
BRANCH   5   6
ATOM      6  C   UNL     1     126.081 142.470 136.962  1.00  0.00     0.041 C 
ATOM      7  O   UNL     1     125.712 143.002 135.882  1.00  0.00    -0.550 OA
ATOM      8  O   UNL     1     126.127 141.086 137.066  1.00  0.00    -0.550 OA
ENDBRANCH   5   6
ENDBRANCH   4   5
ENDBRANCH   3   4
ENDBRANCH   2   3
ENDBRANCH   1   2
BRANCH   1   9
ATOM      9  C   UNL     1     130.589 141.163 141.461  1.00  0.00     0.000 C 
BRANCH   9  10
ATOM     10  C   UNL     1     131.611 141.439 140.347  1.00  0.00    -0.000 C 
BRANCH  10  11
ATOM     11  C   UNL     1     131.017 141.250 138.940  1.00  0.00    -0.000 C 
BRANCH  11  12
ATOM     12  C   UNL     1     130.584 139.800 138.673  1.00  0.00    -0.000 C 
BRANCH  12  13
ATOM     13  C   UNL     1     129.142 139.700 138.155  1.00  0.00    -0.003 C 
ATOM     14  C   UNL     1     128.328 138.711 138.984  1.00  0.00     0.004 C 
ENDBRANCH  12  13
ENDBRANCH  11  12
ENDBRANCH  10  11
ENDBRANCH   9  10
ENDBRANCH   1   9
TORSDOF 10
ENDMDL
MODEL 4
REMARK VINA RESULT:    -4.050      9.336     11.272
REMARK INTER + INTRA:          -7.780
REMARK INTER:                  -6.785
REMARK INTRA:                  -0.995
REMARK UNBOUND:                -1.363
REMARK SMILES CCCCCCCCCCCC(=O)[O-]
REMARK SMILES IDX 7 1 8 2 9 3 10 4 11 5 12 6 13 7 14 8 6 9 5 10 4 11 3 12 2 13
REMARK SMILES IDX 1 14
REMARK H PARENT
REMARK Flexibility Score: inf
ROOT
ATOM      1  C   UNL     1     139.225 136.993 139.814  1.00  0.00     0.000 C 
ENDROOT
BRANCH   1   2
ATOM      2  C   UNL     1     137.769 136.623 139.504  1.00  0.00     0.000 C 
BRANCH   2   3
ATOM      3  C   UNL     1     136.814 137.221 140.548  1.00  0.00     0.000 C 
BRANCH   3   4
ATOM      4  C   UNL     1     136.681 138.749 140.429  1.00  0.00     0.006 C 
BRANCH   4   5
ATOM      5  C   UNL     1     136.410 139.466 141.761  1.00  0.00     0.053 C 
BRANCH   5   6
ATOM      6  C   UNL     1     136.207 140.939 141.573  1.00  0.00     0.041 C 
ATOM      7  O   UNL     1     137.197 141.716 141.545  1.00  0.00    -0.550 OA
ATOM      8  O   UNL     1     134.923 141.456 141.463  1.00  0.00    -0.550 OA
ENDBRANCH   5   6
ENDBRANCH   4   5
ENDBRANCH   3   4
ENDBRANCH   2   3
ENDBRANCH   1   2
BRANCH   1   9
ATOM      9  C   UNL     1     139.693 136.339 141.123  1.00  0.00     0.000 C 
BRANCH   9  10
ATOM     10  C   UNL     1     140.491 135.047 140.886  1.00  0.00    -0.000 C 
BRANCH  10  11
ATOM     11  C   UNL     1     139.640 133.781 141.087  1.00  0.00    -0.000 C 
BRANCH  11  12
ATOM     12  C   UNL     1     139.375 133.033 139.771  1.00  0.00    -0.000 C 
BRANCH  12  13
ATOM     13  C   UNL     1     140.359 133.426 138.660  1.00  0.00    -0.003 C 
ATOM     14  C   UNL     1     139.619 133.823 137.387  1.00  0.00     0.004 C 
ENDBRANCH  12  13
ENDBRANCH  11  12
ENDBRANCH  10  11
ENDBRANCH   9  10
ENDBRANCH   1   9
TORSDOF 10
ENDMDL
MODEL 5
REMARK VINA RESULT:    -4.027      9.718     11.770
REMARK INTER + INTRA:          -7.744
REMARK INTER:                  -6.431
REMARK INTRA:                  -1.313
REMARK UNBOUND:                -1.363
REMARK SMILES CCCCCCCCCCCC(=O)[O-]
REMARK SMILES IDX 7 1 8 2 9 3 10 4 11 5 12 6 13 7 14 8 6 9 5 10 4 11 3 12 2 13
REMARK SMILES IDX 1 14
REMARK H PARENT
REMARK Flexibility Score: inf
ROOT
ATOM      1  C   UNL     1     140.461 136.175 140.410  1.00  0.00     0.000 C 
ENDROOT
BRANCH   1   2
ATOM      2  C   UNL     1     139.651 136.675 139.207  1.00  0.00     0.000 C 
BRANCH   2   3
ATOM      3  C   UNL     1     138.230 137.077 139.629  1.00  0.00     0.000 C 
BRANCH   3   4
ATOM      4  C   UNL     1     138.201 137.867 140.949  1.00  0.00     0.006 C 
BRANCH   4   5
ATOM      5  C   UNL     1     136.791 138.246 141.430  1.00  0.00     0.053 C 
BRANCH   5   6
ATOM      6  C   UNL     1     136.390 139.613 140.968  1.00  0.00     0.041 C 
ATOM      7  O   UNL     1     135.752 139.758 139.892  1.00  0.00    -0.550 OA
ATOM      8  O   UNL     1     136.750 140.732 141.710  1.00  0.00    -0.550 OA
ENDBRANCH   5   6
ENDBRANCH   4   5
ENDBRANCH   3   4
ENDBRANCH   2   3
ENDBRANCH   1   2
BRANCH   1   9
ATOM      9  C   UNL     1     141.126 134.825 140.103  1.00  0.00     0.000 C 
BRANCH   9  10
ATOM     10  C   UNL     1     140.372 134.025 139.028  1.00  0.00    -0.000 C 
BRANCH  10  11
ATOM     11  C   UNL     1     139.541 132.875 139.623  1.00  0.00    -0.000 C 
BRANCH  11  12
ATOM     12  C   UNL     1     138.171 133.342 140.138  1.00  0.00    -0.000 C 
BRANCH  12  13
ATOM     13  C   UNL     1     138.132 133.486 141.667  1.00  0.00    -0.003 C 
ATOM     14  C   UNL     1     137.087 134.513 142.095  1.00  0.00     0.004 C 
ENDBRANCH  12  13
ENDBRANCH  11  12
ENDBRANCH  10  11
ENDBRANCH   9  10
ENDBRANCH   1   9
TORSDOF 10
ENDMDL
MODEL 6
REMARK VINA RESULT:    -3.980      9.630     11.555
REMARK INTER + INTRA:          -7.669
REMARK INTER:                  -6.391
REMARK INTRA:                  -1.278
REMARK UNBOUND:                -1.363
REMARK SMILES CCCCCCCCCCCC(=O)[O-]
REMARK SMILES IDX 7 1 8 2 9 3 10 4 11 5 12 6 13 7 14 8 6 9 5 10 4 11 3 12 2 13
REMARK SMILES IDX 1 14
REMARK H PARENT
REMARK Flexibility Score: inf
ROOT
ATOM      1  C   UNL     1     140.348 136.252 139.942  1.00  0.00     0.000 C 
ENDROOT
BRANCH   1   2
ATOM      2  C   UNL     1     138.946 136.703 140.372  1.00  0.00     0.000 C 
BRANCH   2   3
ATOM      3  C   UNL     1     138.029 136.889 139.154  1.00  0.00     0.000 C 
BRANCH   3   4
ATOM      4  C   UNL     1     136.580 137.227 139.544  1.00  0.00     0.006 C 
BRANCH   4   5
ATOM      5  C   UNL     1     136.156 138.668 139.218  1.00  0.00     0.053 C 
BRANCH   5   6
ATOM      6  C   UNL     1     135.923 139.478 140.457  1.00  0.00     0.041 C 
ATOM      7  O   UNL     1     136.873 139.713 141.249  1.00  0.00    -0.550 OA
ATOM      8  O   UNL     1     134.648 139.945 140.753  1.00  0.00    -0.550 OA
ENDBRANCH   5   6
ENDBRANCH   4   5
ENDBRANCH   3   4
ENDBRANCH   2   3
ENDBRANCH   1   2
BRANCH   1   9
ATOM      9  C   UNL     1     140.857 135.111 140.834  1.00  0.00     0.000 C 
BRANCH   9  10
ATOM     10  C   UNL     1     139.774 134.060 141.127  1.00  0.00    -0.000 C 
BRANCH  10  11
ATOM     11  C   UNL     1     139.604 133.051 139.977  1.00  0.00    -0.000 C 
BRANCH  11  12
ATOM     12  C   UNL     1     138.211 133.121 139.332  1.00  0.00    -0.000 C 
BRANCH  12  13
ATOM     13  C   UNL     1     138.273 133.358 137.817  1.00  0.00    -0.003 C 
ATOM     14  C   UNL     1     139.679 133.759 137.381  1.00  0.00     0.004 C 
ENDBRANCH  12  13
ENDBRANCH  11  12
ENDBRANCH  10  11
ENDBRANCH   9  10
ENDBRANCH   1   9
TORSDOF 10
ENDMDL
MODEL 7
REMARK VINA RESULT:    -3.959      3.536      5.722
REMARK INTER + INTRA:          -7.636
REMARK INTER:                  -6.501
REMARK INTRA:                  -1.135
REMARK UNBOUND:                -1.363
REMARK SMILES CCCCCCCCCCCC(=O)[O-]
REMARK SMILES IDX 7 1 8 2 9 3 10 4 11 5 12 6 13 7 14 8 6 9 5 10 4 11 3 12 2 13
REMARK SMILES IDX 1 14
REMARK H PARENT
REMARK Flexibility Score: inf
ROOT
ATOM      1  C   UNL     1     128.553 139.632 140.690  1.00  0.00     0.000 C 
ENDROOT
BRANCH   1   2
ATOM      2  C   UNL     1     130.009 139.384 140.277  1.00  0.00     0.000 C 
BRANCH   2   3
ATOM      3  C   UNL     1     130.402 140.267 139.083  1.00  0.00     0.000 C 
BRANCH   3   4
ATOM      4  C   UNL     1     131.395 141.379 139.465  1.00  0.00     0.006 C 
BRANCH   4   5
ATOM      5  C   UNL     1     131.816 141.371 140.943  1.00  0.00     0.053 C 
BRANCH   5   6
ATOM      6  C   UNL     1     133.303 141.287 141.101  1.00  0.00     0.041 C 
ATOM      7  O   UNL     1     133.964 142.307 141.433  1.00  0.00    -0.550 OA
ATOM      8  O   UNL     1     133.964 140.091 140.851  1.00  0.00    -0.550 OA
ENDBRANCH   5   6
ENDBRANCH   4   5
ENDBRANCH   3   4
ENDBRANCH   2   3
ENDBRANCH   1   2
BRANCH   1   9
ATOM      9  C   UNL     1     128.478 140.484 141.965  1.00  0.00     0.000 C 
BRANCH   9  10
ATOM     10  C   UNL     1     127.593 141.729 141.794  1.00  0.00    -0.000 C 
BRANCH  10  11
ATOM     11  C   UNL     1     128.244 142.798 140.900  1.00  0.00    -0.000 C 
BRANCH  11  12
ATOM     12  C   UNL     1     127.546 142.933 139.537  1.00  0.00    -0.000 C 
BRANCH  12  13
ATOM     13  C   UNL     1     126.118 143.486 139.656  1.00  0.00    -0.003 C 
ATOM     14  C   UNL     1     126.133 144.987 139.928  1.00  0.00     0.004 C 
ENDBRANCH  12  13
ENDBRANCH  11  12
ENDBRANCH  10  11
ENDBRANCH   9  10
ENDBRANCH   1   9
TORSDOF 10
ENDMDL
MODEL 8
REMARK VINA RESULT:    -3.940      9.814     11.719
REMARK INTER + INTRA:          -7.606
REMARK INTER:                  -6.222
REMARK INTRA:                  -1.384
REMARK UNBOUND:                -1.363
REMARK SMILES CCCCCCCCCCCC(=O)[O-]
REMARK SMILES IDX 7 1 8 2 9 3 10 4 11 5 12 6 13 7 14 8 6 9 5 10 4 11 3 12 2 13
REMARK SMILES IDX 1 14
REMARK H PARENT
REMARK Flexibility Score: inf
ROOT
ATOM      1  C   UNL     1     138.851 136.611 141.619  1.00  0.00     0.000 C 
ENDROOT
BRANCH   1   2
ATOM      2  C   UNL     1     138.856 137.151 140.183  1.00  0.00     0.000 C 
BRANCH   2   3
ATOM      3  C   UNL     1     137.691 136.566 139.371  1.00  0.00     0.000 C 
BRANCH   3   4
ATOM      4  C   UNL     1     136.673 135.814 140.246  1.00  0.00     0.006 C 
BRANCH   4   5
ATOM      5  C   UNL     1     135.397 136.611 140.558  1.00  0.00     0.053 C 
BRANCH   5   6
ATOM      6  C   UNL     1     134.479 136.686 139.377  1.00  0.00     0.041 C 
ATOM      7  O   UNL     1     134.422 137.735 138.683  1.00  0.00    -0.550 OA
ATOM      8  O   UNL     1     133.662 135.607 139.061  1.00  0.00    -0.550 OA
ENDBRANCH   5   6
ENDBRANCH   4   5
ENDBRANCH   3   4
ENDBRANCH   2   3
ENDBRANCH   1   2
BRANCH   1   9
ATOM      9  C   UNL     1     140.241 136.092 142.016  1.00  0.00     0.000 C 
BRANCH   9  10
ATOM     10  C   UNL     1     140.648 134.832 141.235  1.00  0.00    -0.000 C 
BRANCH  10  11
ATOM     11  C   UNL     1     139.567 133.738 141.273  1.00  0.00    -0.000 C 
BRANCH  11  12
ATOM     12  C   UNL     1     139.359 133.066 139.907  1.00  0.00    -0.000 C 
BRANCH  12  13
ATOM     13  C   UNL     1     140.253 133.666 138.812  1.00  0.00    -0.003 C 
ATOM     14  C   UNL     1     139.512 133.742 137.480  1.00  0.00     0.004 C 
ENDBRANCH  12  13
ENDBRANCH  11  12
ENDBRANCH  10  11
ENDBRANCH   9  10
ENDBRANCH   1   9
TORSDOF 10
ENDMDL
MODEL 9
REMARK VINA RESULT:    -3.902     10.288     12.856
REMARK INTER + INTRA:          -7.547
REMARK INTER:                  -6.816
REMARK INTRA:                  -0.731
REMARK UNBOUND:                -1.363
REMARK SMILES CCCCCCCCCCCC(=O)[O-]
REMARK SMILES IDX 7 1 8 2 9 3 10 4 11 5 12 6 13 7 14 8 6 9 5 10 4 11 3 12 2 13
REMARK SMILES IDX 1 14
REMARK H PARENT
REMARK Flexibility Score: inf
ROOT
ATOM      1  C   UNL     1     139.280 136.380 138.783  1.00  0.00     0.000 C 
ENDROOT
BRANCH   1   2
ATOM      2  C   UNL     1     140.428 136.366 139.801  1.00  0.00     0.000 C 
BRANCH   2   3
ATOM      3  C   UNL     1     140.735 134.934 140.263  1.00  0.00     0.000 C 
BRANCH   3   4
ATOM      4  C   UNL     1     140.545 133.893 139.146  1.00  0.00     0.006 C 
BRANCH   4   5
ATOM      5  C   UNL     1     139.663 132.698 139.539  1.00  0.00     0.053 C 
BRANCH   5   6
ATOM      6  C   UNL     1     138.209 133.059 139.566  1.00  0.00     0.041 C 
ATOM      7  O   UNL     1     137.517 132.984 138.516  1.00  0.00    -0.550 OA
ATOM      8  O   UNL     1     137.626 133.510 140.743  1.00  0.00    -0.550 OA
ENDBRANCH   5   6
ENDBRANCH   4   5
ENDBRANCH   3   4
ENDBRANCH   2   3
ENDBRANCH   1   2
BRANCH   1   9
ATOM      9  C   UNL     1     137.968 136.835 139.439  1.00  0.00     0.000 C 
BRANCH   9  10
ATOM     10  C   UNL     1     138.199 137.662 140.714  1.00  0.00    -0.000 C 
BRANCH  10  11
ATOM     11  C   UNL     1     136.884 138.142 141.353  1.00  0.00    -0.000 C 
BRANCH  11  12
ATOM     12  C   UNL     1     136.314 139.390 140.661  1.00  0.00    -0.000 C 
BRANCH  12  13
ATOM     13  C   UNL     1     136.665 140.688 141.403  1.00  0.00    -0.003 C 
ATOM     14  C   UNL     1     135.413 141.511 141.692  1.00  0.00     0.004 C 
ENDBRANCH  12  13
ENDBRANCH  11  12
ENDBRANCH  10  11
ENDBRANCH   9  10
ENDBRANCH   1   9
TORSDOF 10
ENDMDL
