MODEL 1
REMARK VINA RESULT:    -3.529      0.000      0.000
REMARK INTER + INTRA:          -4.539
REMARK INTER:                  -4.973
REMARK INTRA:                   0.433
REMARK UNBOUND:                 0.433
REMARK SMILES CC1=CCC(=C(C)C)C(=O)CC(C)=CCC1
REMARK SMILES IDX 12 1 14 2 13 3 15 4 16 5 2 6 1 7 3 8 11 10 9 11 10 12 5 13
REMARK SMILES IDX 6 14 7 15 8 16 4 17
REMARK H PARENT
REMARK Flexibility Score: 60.00
ROOT
ATOM      1  C   UNL     1      12.044 -22.774  40.406  1.00  0.00    -0.070 C 
ATOM      2  C   UNL     1      10.724 -22.554  40.612  1.00  0.00    -0.027 C 
ATOM      3  C   UNL     1      12.885 -21.598  39.972  1.00  0.00     0.039 C 
ENDROOT
BRANCH   2   4
ATOM      4  C   UNL     1       9.686 -23.600  40.944  1.00  0.00     0.032 C 
BRANCH   4   5
ATOM      5  C   UNL     1       9.379 -24.528  39.754  1.00  0.00     0.034 C 
BRANCH   5   6
ATOM      6  C   UNL     1       9.405 -25.991  40.148  1.00  0.00    -0.077 C 
ATOM      7  C   UNL     1       8.460 -26.460  41.226  1.00  0.00     0.039 C 
ATOM      8  C   UNL     1      10.212 -26.910  39.571  1.00  0.00    -0.023 CG0
ATOM      9  G   UNL     1      11.197 -26.644  38.457  1.00  0.00     0.000 G0
ENDBRANCH   5   6
ENDBRANCH   4   5
ENDBRANCH   2   4
BRANCH   1  10
ATOM     10  C   UNL     1      12.702 -24.140  40.521  1.00  0.00     0.111 C 
BRANCH  10  11
ATOM     11  C   UNL     1      12.810 -24.818  39.176  1.00  0.00     0.163 C 
ATOM     12  O   UNL     1      13.179 -24.125  38.191  1.00  0.00    -0.294 OA
BRANCH  11  13
ATOM     13  C   UNL     1      12.543 -26.280  39.004  1.00  0.00    -0.002 C 
ATOM     14  C   UNL     1      13.498 -27.222  39.272  1.00  0.00    -0.069 C 
ATOM     15  C   UNL     1      13.208 -28.700  39.132  1.00  0.00     0.039 C 
ATOM     16  C   UNL     1      14.899 -26.832  39.687  1.00  0.00     0.039 C 
BRANCH  13  17
ATOM     17  C   UNL     1      11.188 -26.673  38.446  1.00  0.00     0.066 CG0
ATOM     18  G   UNL     1      10.216 -26.908  39.578  1.00  0.00     0.000 G0
ENDBRANCH  13  17
ENDBRANCH  11  13
ENDBRANCH  10  11
ENDBRANCH   1  10
TORSDOF 0
ENDMDL
MODEL 2
REMARK VINA RESULT:    -3.509      2.311      4.090
REMARK INTER + INTRA:          -4.512
REMARK INTER:                  -5.089
REMARK INTRA:                   0.577
REMARK UNBOUND:                 0.433
REMARK SMILES CC1=CCC(=C(C)C)C(=O)CC(C)=CCC1
REMARK SMILES IDX 12 1 14 2 13 3 15 4 16 5 2 6 1 7 3 8 11 10 9 11 10 12 5 13
REMARK SMILES IDX 6 14 7 15 8 16 4 17
REMARK H PARENT
REMARK Flexibility Score: 60.00
ROOT
ATOM      1  C   UNL     1      10.695 -23.202  41.058  1.00  0.00    -0.070 C 
ATOM      2  C   UNL     1      11.341 -22.227  41.739  1.00  0.00    -0.027 C 
ATOM      3  C   UNL     1       9.437 -22.815  40.317  1.00  0.00     0.039 C 
ENDROOT
BRANCH   2   4
ATOM      4  C   UNL     1      12.548 -22.409  42.628  1.00  0.00     0.032 C 
BRANCH   4   5
ATOM      5  C   UNL     1      13.774 -21.619  42.132  1.00  0.00     0.034 C 
BRANCH   5   6
ATOM      6  C   UNL     1      14.016 -21.813  40.647  1.00  0.00    -0.077 C 
ATOM      7  C   UNL     1      13.959 -20.603  39.749  1.00  0.00     0.039 C 
ATOM      8  C   UNL     1      14.305 -23.007  40.083  1.00  0.00    -0.023 CG0
ATOM      9  G   UNL     1      14.439 -24.320  40.817  1.00  0.00     0.000 G0
ENDBRANCH   5   6
ENDBRANCH   4   5
ENDBRANCH   2   4
BRANCH   1  10
ATOM     10  C   UNL     1      11.124 -24.660  41.056  1.00  0.00     0.111 C 
BRANCH  10  11
ATOM     11  C   UNL     1      12.104 -24.948  39.944  1.00  0.00     0.163 C 
ATOM     12  O   UNL     1      11.717 -24.784  38.756  1.00  0.00    -0.294 OA
BRANCH  11  13
ATOM     13  C   UNL     1      13.514 -25.365  40.220  1.00  0.00    -0.002 C 
ATOM     14  C   UNL     1      13.938 -26.649  40.010  1.00  0.00    -0.069 C 
ATOM     15  C   UNL     1      15.375 -27.053  40.254  1.00  0.00     0.039 C 
ATOM     16  C   UNL     1      12.985 -27.733  39.558  1.00  0.00     0.039 C 
BRANCH  13  17
ATOM     17  C   UNL     1      14.439 -24.320  40.814  1.00  0.00     0.066 CG0
ATOM     18  G   UNL     1      14.284 -23.015  40.069  1.00  0.00     0.000 G0
ENDBRANCH  13  17
ENDBRANCH  11  13
ENDBRANCH  10  11
ENDBRANCH   1  10
TORSDOF 0
ENDMDL
MODEL 3
REMARK VINA RESULT:    -3.379      1.484      2.361
REMARK INTER + INTRA:          -4.329
REMARK INTER:                  -4.691
REMARK INTRA:                   0.363
REMARK UNBOUND:                 0.433
REMARK SMILES CC1=CCC(=C(C)C)C(=O)CC(C)=CCC1
REMARK SMILES IDX 12 1 14 2 13 3 15 4 16 5 2 6 1 7 3 8 11 10 9 11 10 12 5 13
REMARK SMILES IDX 6 14 7 15 8 16 4 17
REMARK H PARENT
REMARK Flexibility Score: 60.00
ROOT
ATOM      1  C   UNL     1      10.080 -24.335  40.790  1.00  0.00    -0.070 C 
ATOM      2  C   UNL     1       9.089 -25.232  41.006  1.00  0.00    -0.027 C 
ATOM      3  C   UNL     1       9.682 -22.968  40.289  1.00  0.00     0.039 C 
ENDROOT
BRANCH   2   4
ATOM      4  C   UNL     1       9.266 -26.679  41.402  1.00  0.00     0.032 C 
BRANCH   4   5
ATOM      5  C   UNL     1       9.583 -27.588  40.199  1.00  0.00     0.034 C 
BRANCH   5   6
ATOM      6  C   UNL     1      10.771 -28.492  40.464  1.00  0.00    -0.077 C 
ATOM      7  C   UNL     1      10.611 -29.611  41.462  1.00  0.00     0.039 C 
ATOM      8  C   UNL     1      11.963 -28.369  39.837  1.00  0.00    -0.023 CG0
ATOM      9  G   UNL     1      12.305 -27.338  38.787  1.00  0.00     0.000 G0
ENDBRANCH   5   6
ENDBRANCH   4   5
ENDBRANCH   2   4
BRANCH   1  10
ATOM     10  C   UNL     1      11.558 -24.650  40.957  1.00  0.00     0.111 C 
BRANCH  10  11
ATOM     11  C   UNL     1      12.220 -24.925  39.629  1.00  0.00     0.163 C 
ATOM     12  O   UNL     1      12.115 -24.055  38.723  1.00  0.00    -0.294 OA
BRANCH  11  13
ATOM     13  C   UNL     1      13.028 -26.160  39.388  1.00  0.00    -0.002 C 
ATOM     14  C   UNL     1      14.371 -26.204  39.645  1.00  0.00    -0.069 C 
ATOM     15  C   UNL     1      15.173 -27.469  39.435  1.00  0.00     0.039 C 
ATOM     16  C   UNL     1      15.126 -24.981  40.118  1.00  0.00     0.039 C 
BRANCH  13  17
ATOM     17  C   UNL     1      12.308 -27.347  38.773  1.00  0.00     0.066 CG0
ATOM     18  G   UNL     1      11.969 -28.353  39.847  1.00  0.00     0.000 G0
ENDBRANCH  13  17
ENDBRANCH  11  13
ENDBRANCH  10  11
ENDBRANCH   1  10
TORSDOF 0
ENDMDL
MODEL 4
REMARK VINA RESULT:    -3.330      1.900      3.854
REMARK INTER + INTRA:          -4.259
REMARK INTER:                  -4.778
REMARK INTRA:                   0.519
REMARK UNBOUND:                 0.433
REMARK SMILES CC1=CCC(=C(C)C)C(=O)CC(C)=CCC1
REMARK SMILES IDX 12 1 14 2 13 3 15 4 16 5 2 6 1 7 3 8 11 10 9 11 10 12 5 13
REMARK SMILES IDX 6 14 7 15 8 16 4 17
REMARK H PARENT
REMARK Flexibility Score: 60.00
ROOT
ATOM      1  C   UNL     1       9.346 -24.977  40.368  1.00  0.00    -0.070 C 
ATOM      2  C   UNL     1       9.480 -23.754  40.932  1.00  0.00    -0.027 C 
ATOM      3  C   UNL     1       8.401 -25.949  41.032  1.00  0.00     0.039 C 
ENDROOT
BRANCH   2   4
ATOM      4  C   UNL     1      10.441 -22.671  40.500  1.00  0.00     0.032 C 
BRANCH   4   5
ATOM      5  C   UNL     1      11.767 -22.711  41.282  1.00  0.00     0.034 C 
BRANCH   5   6
ATOM      6  C   UNL     1      12.973 -22.710  40.363  1.00  0.00    -0.077 C 
ATOM      7  C   UNL     1      13.462 -21.389  39.825  1.00  0.00     0.039 C 
ATOM      8  C   UNL     1      13.653 -23.826  40.015  1.00  0.00    -0.023 CG0
ATOM      9  G   UNL     1      13.340 -25.230  40.477  1.00  0.00     0.000 G0
ENDBRANCH   5   6
ENDBRANCH   4   5
ENDBRANCH   2   4
BRANCH   1  10
ATOM     10  C   UNL     1      10.138 -25.440  39.155  1.00  0.00     0.111 C 
BRANCH  10  11
ATOM     11  C   UNL     1      11.249 -26.384  39.546  1.00  0.00     0.163 C 
ATOM     12  O   UNL     1      10.933 -27.518  39.995  1.00  0.00    -0.294 OA
BRANCH  11  13
ATOM     13  C   UNL     1      12.691 -26.027  39.367  1.00  0.00    -0.002 C 
ATOM     14  C   UNL     1      13.406 -26.448  38.279  1.00  0.00    -0.069 C 
ATOM     15  C   UNL     1      14.853 -26.050  38.086  1.00  0.00     0.039 C 
ATOM     16  C   UNL     1      12.797 -27.359  37.236  1.00  0.00     0.039 C 
BRANCH  13  17
ATOM     17  C   UNL     1      13.351 -25.238  40.482  1.00  0.00     0.066 CG0
ATOM     18  G   UNL     1      13.641 -23.832  40.012  1.00  0.00     0.000 G0
ENDBRANCH  13  17
ENDBRANCH  11  13
ENDBRANCH  10  11
ENDBRANCH   1  10
TORSDOF 0
ENDMDL
MODEL 5
REMARK VINA RESULT:    -3.328      1.884      3.681
REMARK INTER + INTRA:          -4.257
REMARK INTER:                  -4.627
REMARK INTRA:                   0.370
REMARK UNBOUND:                 0.433
REMARK SMILES CC1=CCC(=C(C)C)C(=O)CC(C)=CCC1
REMARK SMILES IDX 12 1 14 2 13 3 15 4 16 5 2 6 1 7 3 8 11 10 9 11 10 12 5 13
REMARK SMILES IDX 6 14 7 15 8 16 4 17
REMARK H PARENT
REMARK Flexibility Score: 60.00
ROOT
ATOM      1  C   UNL     1       9.386 -27.280  41.306  1.00  0.00    -0.070 C 
ATOM      2  C   UNL     1       8.590 -26.224  41.017  1.00  0.00    -0.027 C 
ATOM      3  C   UNL     1       8.726 -28.631  41.445  1.00  0.00     0.039 C 
ENDROOT
BRANCH   2   4
ATOM      4  C   UNL     1       9.019 -24.778  40.938  1.00  0.00     0.032 C 
BRANCH   4   5
ATOM      5  C   UNL     1       9.846 -24.474  39.674  1.00  0.00     0.034 C 
BRANCH   5   6
ATOM      6  C   UNL     1      11.199 -23.878  40.007  1.00  0.00    -0.077 C 
ATOM      7  C   UNL     1      11.241 -22.593  40.796  1.00  0.00     0.039 C 
ATOM      8  C   UNL     1      12.376 -24.445  39.659  1.00  0.00    -0.023 CG0
ATOM      9  G   UNL     1      12.541 -25.742  38.903  1.00  0.00     0.000 G0
ENDBRANCH   5   6
ENDBRANCH   4   5
ENDBRANCH   2   4
BRANCH   1  10
ATOM     10  C   UNL     1      10.880 -27.168  41.561  1.00  0.00     0.111 C 
BRANCH  10  11
ATOM     11  C   UNL     1      11.683 -27.650  40.377  1.00  0.00     0.163 C 
ATOM     12  O   UNL     1      11.309 -28.705  39.797  1.00  0.00    -0.294 OA
BRANCH  11  13
ATOM     13  C   UNL     1      12.860 -26.888  39.855  1.00  0.00    -0.002 C 
ATOM     14  C   UNL     1      14.135 -27.160  40.269  1.00  0.00    -0.069 C 
ATOM     15  C   UNL     1      15.323 -26.410  39.707  1.00  0.00     0.039 C 
ATOM     16  C   UNL     1      14.416 -28.197  41.334  1.00  0.00     0.039 C 
BRANCH  13  17
ATOM     17  C   UNL     1      12.573 -25.746  38.897  1.00  0.00     0.066 CG0
ATOM     18  G   UNL     1      12.374 -24.465  39.674  1.00  0.00     0.000 G0
ENDBRANCH  13  17
ENDBRANCH  11  13
ENDBRANCH  10  11
ENDBRANCH   1  10
TORSDOF 0
ENDMDL
MODEL 6
REMARK VINA RESULT:    -3.228      1.870      2.634
REMARK INTER + INTRA:          -4.116
REMARK INTER:                  -4.527
REMARK INTRA:                   0.411
REMARK UNBOUND:                 0.433
REMARK SMILES CC1=CCC(=C(C)C)C(=O)CC(C)=CCC1
REMARK SMILES IDX 12 1 14 2 13 3 15 4 16 5 2 6 1 7 3 8 11 10 9 11 10 12 5 13
REMARK SMILES IDX 6 14 7 15 8 16 4 17
REMARK H PARENT
REMARK Flexibility Score: 60.00
ROOT
ATOM      1  C   UNL     1      10.233 -25.106  40.475  1.00  0.00    -0.070 C 
ATOM      2  C   UNL     1       9.071 -25.654  40.902  1.00  0.00    -0.027 C 
ATOM      3  C   UNL     1      10.159 -23.757  39.800  1.00  0.00     0.039 C 
ENDROOT
BRANCH   2   4
ATOM      4  C   UNL     1       8.900 -27.029  41.503  1.00  0.00     0.032 C 
BRANCH   4   5
ATOM      5  C   UNL     1       8.872 -28.141  40.437  1.00  0.00     0.034 C 
BRANCH   5   6
ATOM      6  C   UNL     1       9.869 -29.243  40.735  1.00  0.00    -0.077 C 
ATOM      7  C   UNL     1       9.622 -30.129  41.930  1.00  0.00     0.039 C 
ATOM      8  C   UNL     1      10.959 -29.496  39.974  1.00  0.00    -0.023 CG0
ATOM      9  G   UNL     1      11.356 -28.746  38.724  1.00  0.00     0.000 G0
ENDBRANCH   5   6
ENDBRANCH   4   5
ENDBRANCH   2   4
BRANCH   1  10
ATOM     10  C   UNL     1      11.582 -25.799  40.576  1.00  0.00     0.111 C 
BRANCH  10  11
ATOM     11  C   UNL     1      12.042 -26.315  39.234  1.00  0.00     0.163 C 
ATOM     12  O   UNL     1      12.110 -25.500  38.276  1.00  0.00    -0.294 OA
BRANCH  11  13
ATOM     13  C   UNL     1      12.462 -27.737  39.036  1.00  0.00    -0.002 C 
ATOM     14  C   UNL     1      13.778 -28.111  39.067  1.00  0.00    -0.069 C 
ATOM     15  C   UNL     1      14.190 -29.557  38.903  1.00  0.00     0.039 C 
ATOM     16  C   UNL     1      14.885 -27.093  39.230  1.00  0.00     0.039 C 
BRANCH  13  17
ATOM     17  C   UNL     1      11.368 -28.743  38.723  1.00  0.00     0.066 CG0
ATOM     18  G   UNL     1      10.986 -29.490  39.979  1.00  0.00     0.000 G0
ENDBRANCH  13  17
ENDBRANCH  11  13
ENDBRANCH  10  11
ENDBRANCH   1  10
TORSDOF 0
ENDMDL
MODEL 7
REMARK VINA RESULT:    -3.201      1.664      4.057
REMARK INTER + INTRA:          -4.078
REMARK INTER:                  -4.512
REMARK INTRA:                   0.433
REMARK UNBOUND:                 0.433
REMARK SMILES CC1=CCC(=C(C)C)C(=O)CC(C)=CCC1
REMARK SMILES IDX 12 1 14 2 13 3 15 4 16 5 2 6 1 7 3 8 11 10 9 11 10 12 5 13
REMARK SMILES IDX 6 14 7 15 8 16 4 17
REMARK H PARENT
REMARK Flexibility Score: 60.00
ROOT
ATOM      1  C   UNL     1      14.169 -25.800  39.300  1.00  0.00    -0.070 C 
ATOM      2  C   UNL     1      14.668 -24.546  39.409  1.00  0.00    -0.027 C 
ATOM      3  C   UNL     1      14.848 -26.736  38.329  1.00  0.00     0.039 C 
ENDROOT
BRANCH   2   4
ATOM      4  C   UNL     1      14.086 -23.422  40.233  1.00  0.00     0.032 C 
BRANCH   4   5
ATOM      5  C   UNL     1      12.759 -22.892  39.657  1.00  0.00     0.034 C 
BRANCH   5   6
ATOM      6  C   UNL     1      11.678 -22.788  40.715  1.00  0.00    -0.077 C 
ATOM      7  C   UNL     1      11.943 -21.932  41.928  1.00  0.00     0.039 C 
ATOM      8  C   UNL     1      10.475 -23.399  40.623  1.00  0.00    -0.023 CG0
ATOM      9  G   UNL     1      10.011 -24.265  39.475  1.00  0.00     0.000 G0
ENDBRANCH   5   6
ENDBRANCH   4   5
ENDBRANCH   2   4
BRANCH   1  10
ATOM     10  C   UNL     1      12.936 -26.287  40.044  1.00  0.00     0.111 C 
BRANCH  10  11
ATOM     11  C   UNL     1      11.696 -26.184  39.189  1.00  0.00     0.163 C 
ATOM     12  O   UNL     1      11.776 -26.543  37.983  1.00  0.00    -0.294 OA
BRANCH  11  13
ATOM     13  C   UNL     1      10.387 -25.724  39.746  1.00  0.00    -0.002 C 
ATOM     14  C   UNL     1       9.542 -26.579  40.399  1.00  0.00    -0.069 C 
ATOM     15  C   UNL     1       8.237 -26.096  40.993  1.00  0.00     0.039 C 
ATOM     16  C   UNL     1       9.854 -28.054  40.529  1.00  0.00     0.039 C 
BRANCH  13  17
ATOM     17  C   UNL     1       9.997 -24.279  39.491  1.00  0.00     0.066 CG0
ATOM     18  G   UNL     1      10.480 -23.411  40.629  1.00  0.00     0.000 G0
ENDBRANCH  13  17
ENDBRANCH  11  13
ENDBRANCH  10  11
ENDBRANCH   1  10
TORSDOF 0
ENDMDL
MODEL 8
REMARK VINA RESULT:    -3.085      1.761      4.500
REMARK INTER + INTRA:          -3.914
REMARK INTER:                  -4.506
REMARK INTRA:                   0.592
REMARK UNBOUND:                 0.433
REMARK SMILES CC1=CCC(=C(C)C)C(=O)CC(C)=CCC1
REMARK SMILES IDX 12 1 14 2 13 3 15 4 16 5 2 6 1 7 3 8 11 10 9 11 10 12 5 13
REMARK SMILES IDX 6 14 7 15 8 16 4 17
REMARK H PARENT
REMARK Flexibility Score: 60.00
ROOT
ATOM      1  C   UNL     1      14.514 -26.590  39.814  1.00  0.00    -0.070 C 
ATOM      2  C   UNL     1      14.741 -27.763  40.450  1.00  0.00    -0.027 C 
ATOM      3  C   UNL     1      15.445 -26.221  38.683  1.00  0.00     0.039 C 
ENDROOT
BRANCH   2   4
ATOM      4  C   UNL     1      14.006 -28.275  41.666  1.00  0.00     0.032 C 
BRANCH   4   5
ATOM      5  C   UNL     1      13.315 -29.628  41.414  1.00  0.00     0.034 C 
BRANCH   5   6
ATOM      6  C   UNL     1      12.451 -29.604  40.168  1.00  0.00    -0.077 C 
ATOM      7  C   UNL     1      12.742 -30.602  39.076  1.00  0.00     0.039 C 
ATOM      8  C   UNL     1      11.415 -28.754  39.988  1.00  0.00    -0.023 CG0
ATOM      9  G   UNL     1      10.948 -27.711  40.976  1.00  0.00     0.000 G0
ENDBRANCH   5   6
ENDBRANCH   4   5
ENDBRANCH   2   4
BRANCH   1  10
ATOM     10  C   UNL     1      13.428 -25.605  40.216  1.00  0.00     0.111 C 
BRANCH  10  11
ATOM     11  C   UNL     1      12.113 -25.927  39.550  1.00  0.00     0.163 C 
ATOM     12  O   UNL     1      12.060 -25.884  38.291  1.00  0.00    -0.294 OA
BRANCH  11  13
ATOM     13  C   UNL     1      10.908 -26.339  40.334  1.00  0.00    -0.002 C 
ATOM     14  C   UNL     1       9.845 -25.498  40.516  1.00  0.00    -0.069 C 
ATOM     15  C   UNL     1       8.614 -25.937  41.279  1.00  0.00     0.039 C 
ATOM     16  C   UNL     1       9.862 -24.078  39.996  1.00  0.00     0.039 C 
BRANCH  13  17
ATOM     17  C   UNL     1      10.945 -27.710  40.986  1.00  0.00     0.066 CG0
ATOM     18  G   UNL     1      11.430 -28.737  39.991  1.00  0.00     0.000 G0
ENDBRANCH  13  17
ENDBRANCH  11  13
ENDBRANCH  10  11
ENDBRANCH   1  10
TORSDOF 0
ENDMDL
MODEL 9
REMARK VINA RESULT:    -2.984      2.764      4.439
REMARK INTER + INTRA:          -3.771
REMARK INTER:                  -4.191
REMARK INTRA:                   0.420
REMARK UNBOUND:                 0.433
REMARK SMILES CC1=CCC(=C(C)C)C(=O)CC(C)=CCC1
REMARK SMILES IDX 12 1 14 2 13 3 15 4 16 5 2 6 1 7 3 8 11 10 9 11 10 12 5 13
REMARK SMILES IDX 6 14 7 15 8 16 4 17
REMARK H PARENT
REMARK Flexibility Score: 60.00
ROOT
ATOM      1  C   UNL     1       9.555 -27.054  41.103  1.00  0.00    -0.070 C 
ATOM      2  C   UNL     1       9.163 -27.971  42.018  1.00  0.00    -0.027 C 
ATOM      3  C   UNL     1       9.014 -25.651  41.248  1.00  0.00     0.039 C 
ENDROOT
BRANCH   2   4
ATOM      4  C   UNL     1       9.494 -29.444  42.003  1.00  0.00     0.032 C 
BRANCH   4   5
ATOM      5  C   UNL     1      10.811 -29.762  42.737  1.00  0.00     0.034 C 
BRANCH   5   6
ATOM      6  C   UNL     1      11.764 -30.568  41.877  1.00  0.00    -0.077 C 
ATOM      7  C   UNL     1      11.451 -32.022  41.629  1.00  0.00     0.039 C 
ATOM      8  C   UNL     1      12.871 -30.051  41.296  1.00  0.00    -0.023 CG0
ATOM      9  G   UNL     1      13.332 -28.616  41.396  1.00  0.00     0.000 G0
ENDBRANCH   5   6
ENDBRANCH   4   5
ENDBRANCH   2   4
BRANCH   1  10
ATOM     10  C   UNL     1      10.447 -27.373  39.914  1.00  0.00     0.111 C 
BRANCH  10  11
ATOM     11  C   UNL     1      11.866 -26.912  40.144  1.00  0.00     0.163 C 
ATOM     12  O   UNL     1      12.058 -25.695  40.409  1.00  0.00    -0.294 OA
BRANCH  11  13
ATOM     13  C   UNL     1      13.020 -27.863  40.119  1.00  0.00    -0.002 C 
ATOM     14  C   UNL     1      13.724 -28.109  38.972  1.00  0.00    -0.069 C 
ATOM     15  C   UNL     1      14.915 -29.043  38.963  1.00  0.00     0.039 C 
ATOM     16  C   UNL     1      13.326 -27.490  37.650  1.00  0.00     0.039 C 
BRANCH  13  17
ATOM     17  C   UNL     1      13.335 -28.602  41.407  1.00  0.00     0.066 CG0
ATOM     18  G   UNL     1      12.879 -30.038  41.297  1.00  0.00     0.000 G0
ENDBRANCH  13  17
ENDBRANCH  11  13
ENDBRANCH  10  11
ENDBRANCH   1  10
TORSDOF 0
ENDMDL
