MODEL 1
REMARK VINA RESULT:     4.070      0.000      0.000
REMARK INTER + INTRA:           4.367
REMARK INTER:                   4.665
REMARK INTRA:                  -0.297
REMARK UNBOUND:                -0.297
REMARK SMILES O=C1C[C@@H](c2ccc(O)cc2)Oc2cc(O)cc(O)c21
REMARK SMILES IDX 3 1 4 2 12 3 13 4 14 5 15 6 17 7 18 8 20 9 2 10 1 11 5 12
REMARK SMILES IDX 6 13 11 14 7 15 10 16 8 17 9 18 19 20 16 22
REMARK H PARENT 9 19 19 21 16 23
REMARK Flexibility Score: inf
ROOT
ATOM      1  C   UNL     1     162.240 145.539 171.465  1.00  0.00     0.131 C 
ATOM      2  C   UNL     1     161.398 144.715 172.447  1.00  0.00     0.211 C 
ATOM      3  O   UNL     1     160.016 145.037 172.297  1.00  0.00    -0.484 OA
ATOM      4  C   UNL     1     159.417 145.141 171.038  1.00  0.00     0.138 A 
ATOM      5  C   UNL     1     158.023 145.135 170.953  1.00  0.00     0.093 A 
ATOM      6  C   UNL     1     157.393 145.211 169.712  1.00  0.00     0.123 A 
ATOM      7  C   UNL     1     158.162 145.275 168.546  1.00  0.00     0.093 A 
ATOM      8  C   UNL     1     159.562 145.274 168.606  1.00  0.00     0.133 A 
ATOM      9  C   UNL     1     160.210 145.257 169.873  1.00  0.00     0.102 A 
ATOM     10  C   UNL     1     161.678 145.437 170.073  1.00  0.00     0.174 C 
ATOM     11  O   UNL     1     162.461 145.620 169.106  1.00  0.00    -0.294 OA
ENDROOT
BRANCH   2  12
ATOM     12  C   UNL     1     161.838 144.964 173.870  1.00  0.00    -0.007 A 
ATOM     13  C   UNL     1     161.139 144.377 174.938  1.00  0.00     0.011 A 
ATOM     14  C   UNL     1     162.981 145.737 174.141  1.00  0.00     0.011 A 
ATOM     15  C   UNL     1     161.562 144.581 176.256  1.00  0.00     0.046 A 
ATOM     16  C   UNL     1     163.402 145.938 175.459  1.00  0.00     0.046 A 
ATOM     17  C   UNL     1     162.693 145.364 176.519  1.00  0.00     0.115 A 
BRANCH  17  18
ATOM     18  O   UNL     1     163.123 145.574 177.827  1.00  0.00    -0.508 OA
ATOM     19  H   UNL     1     162.485 145.884 178.551  1.00  0.00     0.293 HD
ENDBRANCH  17  18
ENDBRANCH   2  12
BRANCH   8  20
ATOM     20  O   UNL     1     160.245 145.275 167.388  1.00  0.00    -0.507 OA
ATOM     21  H   UNL     1     160.228 146.034 166.723  1.00  0.00     0.293 HD
ENDBRANCH   8  20
BRANCH   6  22
ATOM     22  O   UNL     1     156.001 145.210 169.646  1.00  0.00    -0.508 OA
ATOM     23  H   UNL     1     155.454 144.444 170.018  1.00  0.00     0.293 HD
ENDBRANCH   6  22
TORSDOF 4
ENDMDL
MODEL 2
REMARK VINA RESULT:     4.518      2.335      2.478
REMARK INTER + INTRA:           4.882
REMARK INTER:                   5.170
REMARK INTRA:                  -0.289
REMARK UNBOUND:                -0.297
REMARK SMILES O=C1C[C@@H](c2ccc(O)cc2)Oc2cc(O)cc(O)c21
REMARK SMILES IDX 3 1 4 2 12 3 13 4 14 5 15 6 17 7 18 8 20 9 2 10 1 11 5 12
REMARK SMILES IDX 6 13 11 14 7 15 10 16 8 17 9 18 19 20 16 22
REMARK H PARENT 9 19 19 21 16 23
REMARK Flexibility Score: inf
ROOT
ATOM      1  C   UNL     1     161.417 144.832 171.977  1.00  0.00     0.131 C 
ATOM      2  C   UNL     1     160.621 145.477 173.119  1.00  0.00     0.211 C 
ATOM      3  O   UNL     1     160.524 146.885 172.914  1.00  0.00    -0.484 OA
ATOM      4  C   UNL     1     160.201 147.427 171.665  1.00  0.00     0.138 A 
ATOM      5  C   UNL     1     159.808 148.765 171.593  1.00  0.00     0.093 A 
ATOM      6  C   UNL     1     159.454 149.330 170.369  1.00  0.00     0.123 A 
ATOM      7  C   UNL     1     159.478 148.548 169.211  1.00  0.00     0.093 A 
ATOM      8  C   UNL     1     159.862 147.201 169.260  1.00  0.00     0.133 A 
ATOM      9  C   UNL     1     160.281 146.635 170.497  1.00  0.00     0.102 A 
ATOM     10  C   UNL     1     160.884 145.278 170.643  1.00  0.00     0.174 C 
ATOM     11  O   UNL     1     161.064 144.523 169.654  1.00  0.00    -0.294 OA
ENDROOT
BRANCH   2  12
ATOM     12  C   UNL     1     161.267 145.189 174.452  1.00  0.00    -0.007 A 
ATOM     13  C   UNL     1     160.670 144.283 175.346  1.00  0.00     0.011 A 
ATOM     14  C   UNL     1     162.498 145.777 174.794  1.00  0.00     0.011 A 
ATOM     15  C   UNL     1     161.280 143.991 176.569  1.00  0.00     0.046 A 
ATOM     16  C   UNL     1     163.106 145.482 176.018  1.00  0.00     0.046 A 
ATOM     17  C   UNL     1     162.500 144.591 176.909  1.00  0.00     0.115 A 
BRANCH  17  18
ATOM     18  O   UNL     1     163.117 144.308 178.125  1.00  0.00    -0.508 OA
ATOM     19  H   UNL     1     163.080 143.382 178.535  1.00  0.00     0.293 HD
ENDBRANCH  17  18
ENDBRANCH   2  12
BRANCH   8  20
ATOM     20  O   UNL     1     159.793 146.483 168.064  1.00  0.00    -0.507 OA
ATOM     21  H   UNL     1     158.943 146.306 167.551  1.00  0.00     0.293 HD
ENDBRANCH   8  20
BRANCH   6  22
ATOM     22  O   UNL     1     159.069 150.668 170.315  1.00  0.00    -0.508 OA
ATOM     23  H   UNL     1     159.722 151.416 170.514  1.00  0.00     0.293 HD
ENDBRANCH   6  22
TORSDOF 4
ENDMDL
MODEL 3
REMARK VINA RESULT:     4.689      2.340      2.704
REMARK INTER + INTRA:           5.077
REMARK INTER:                   5.366
REMARK INTRA:                  -0.289
REMARK UNBOUND:                -0.297
REMARK SMILES O=C1C[C@@H](c2ccc(O)cc2)Oc2cc(O)cc(O)c21
REMARK SMILES IDX 3 1 4 2 12 3 13 4 14 5 15 6 17 7 18 8 20 9 2 10 1 11 5 12
REMARK SMILES IDX 6 13 11 14 7 15 10 16 8 17 9 18 19 20 16 22
REMARK H PARENT 9 19 19 21 16 23
REMARK Flexibility Score: inf
ROOT
ATOM      1  C   UNL     1     161.435 144.840 171.916  1.00  0.00     0.131 C 
ATOM      2  C   UNL     1     160.644 145.456 173.076  1.00  0.00     0.211 C 
ATOM      3  O   UNL     1     160.536 146.868 172.901  1.00  0.00    -0.484 OA
ATOM      4  C   UNL     1     160.200 147.433 171.666  1.00  0.00     0.138 A 
ATOM      5  C   UNL     1     159.796 148.769 171.625  1.00  0.00     0.093 A 
ATOM      6  C   UNL     1     159.429 149.357 170.416  1.00  0.00     0.123 A 
ATOM      7  C   UNL     1     159.449 148.598 169.241  1.00  0.00     0.093 A 
ATOM      8  C   UNL     1     159.843 147.253 169.259  1.00  0.00     0.133 A 
ATOM      9  C   UNL     1     160.276 146.665 170.482  1.00  0.00     0.102 A 
ATOM     10  C   UNL     1     160.889 145.309 170.595  1.00  0.00     0.174 C 
ATOM     11  O   UNL     1     161.066 144.576 169.589  1.00  0.00    -0.294 OA
ENDROOT
BRANCH   2  12
ATOM     12  C   UNL     1     161.303 145.145 174.399  1.00  0.00    -0.007 A 
ATOM     13  C   UNL     1     162.505 145.779 174.756  1.00  0.00     0.011 A 
ATOM     14  C   UNL     1     160.696 144.263 175.311  1.00  0.00     0.011 A 
ATOM     15  C   UNL     1     163.103 145.517 175.992  1.00  0.00     0.046 A 
ATOM     16  C   UNL     1     161.296 144.004 176.547  1.00  0.00     0.046 A 
ATOM     17  C   UNL     1     162.500 144.627 176.890  1.00  0.00     0.115 A 
BRANCH  17  18
ATOM     18  O   UNL     1     163.086 144.357 178.125  1.00  0.00    -0.508 OA
ATOM     19  H   UNL     1     163.952 144.801 178.408  1.00  0.00     0.293 HD
ENDBRANCH  17  18
ENDBRANCH   2  12
BRANCH   8  20
ATOM     20  O   UNL     1     159.769 146.559 168.050  1.00  0.00    -0.507 OA
ATOM     21  H   UNL     1     158.916 146.387 167.540  1.00  0.00     0.293 HD
ENDBRANCH   8  20
BRANCH   6  22
ATOM     22  O   UNL     1     159.034 150.692 170.392  1.00  0.00    -0.508 OA
ATOM     23  H   UNL     1     159.163 151.269 169.569  1.00  0.00     0.293 HD
ENDBRANCH   6  22
TORSDOF 4
ENDMDL
MODEL 4
REMARK VINA RESULT:     4.979      1.372      3.119
REMARK INTER + INTRA:           5.409
REMARK INTER:                   5.711
REMARK INTRA:                  -0.302
REMARK UNBOUND:                -0.297
REMARK SMILES O=C1C[C@@H](c2ccc(O)cc2)Oc2cc(O)cc(O)c21
REMARK SMILES IDX 3 1 4 2 12 3 13 4 14 5 15 6 17 7 18 8 20 9 2 10 1 11 5 12
REMARK SMILES IDX 6 13 11 14 7 15 10 16 8 17 9 18 19 20 16 22
REMARK H PARENT 9 19 19 21 16 23
REMARK Flexibility Score: inf
ROOT
ATOM      1  C   UNL     1     159.495 144.838 172.326  1.00  0.00     0.131 C 
ATOM      2  C   UNL     1     160.781 145.529 172.793  1.00  0.00     0.211 C 
ATOM      3  O   UNL     1     161.861 145.197 171.922  1.00  0.00    -0.484 OA
ATOM      4  C   UNL     1     161.717 145.220 170.530  1.00  0.00     0.138 A 
ATOM      5  C   UNL     1     162.865 145.205 169.735  1.00  0.00     0.093 A 
ATOM      6  C   UNL     1     162.760 145.253 168.346  1.00  0.00     0.123 A 
ATOM      7  C   UNL     1     161.498 145.335 167.748  1.00  0.00     0.093 A 
ATOM      8  C   UNL     1     160.333 145.360 168.526  1.00  0.00     0.133 A 
ATOM      9  C   UNL     1     160.432 145.250 169.942  1.00  0.00     0.102 A 
ATOM     10  C   UNL     1     159.267 145.080 170.859  1.00  0.00     0.174 C 
ATOM     11  O   UNL     1     158.087 145.023 170.427  1.00  0.00    -0.294 OA
ENDROOT
BRANCH   2  12
ATOM     12  C   UNL     1     161.118 145.134 174.211  1.00  0.00    -0.007 A 
ATOM     13  C   UNL     1     160.237 144.323 174.947  1.00  0.00     0.011 A 
ATOM     14  C   UNL     1     162.337 145.524 174.793  1.00  0.00     0.011 A 
ATOM     15  C   UNL     1     160.559 143.930 176.249  1.00  0.00     0.046 A 
ATOM     16  C   UNL     1     162.656 145.129 176.096  1.00  0.00     0.046 A 
ATOM     17  C   UNL     1     161.769 144.334 176.828  1.00  0.00     0.115 A 
BRANCH  17  18
ATOM     18  O   UNL     1     162.100 143.949 178.125  1.00  0.00    -0.508 OA
ATOM     19  H   UNL     1     162.164 142.972 178.387  1.00  0.00     0.293 HD
ENDBRANCH  17  18
ENDBRANCH   2  12
BRANCH   8  20
ATOM     20  O   UNL     1     159.123 145.507 167.844  1.00  0.00    -0.507 OA
ATOM     21  H   UNL     1     158.256 145.069 168.116  1.00  0.00     0.293 HD
ENDBRANCH   8  20
BRANCH   6  22
ATOM     22  O   UNL     1     163.915 145.231 167.568  1.00  0.00    -0.508 OA
ATOM     23  H   UNL     1     163.881 145.370 166.565  1.00  0.00     0.293 HD
ENDBRANCH   6  22
TORSDOF 4
ENDMDL
MODEL 5
REMARK VINA RESULT:     5.434      1.610      7.193
REMARK INTER + INTRA:           5.931
REMARK INTER:                   6.234
REMARK INTRA:                  -0.303
REMARK UNBOUND:                -0.297
REMARK SMILES O=C1C[C@@H](c2ccc(O)cc2)Oc2cc(O)cc(O)c21
REMARK SMILES IDX 3 1 4 2 12 3 13 4 14 5 15 6 17 7 18 8 20 9 2 10 1 11 5 12
REMARK SMILES IDX 6 13 11 14 7 15 10 16 8 17 9 18 19 20 16 22
REMARK H PARENT 9 19 19 21 16 23
REMARK Flexibility Score: inf
ROOT
ATOM      1  C   UNL     1     159.341 144.611 172.915  1.00  0.00     0.131 C 
ATOM      2  C   UNL     1     160.480 144.630 171.888  1.00  0.00     0.211 C 
ATOM      3  O   UNL     1     161.510 145.521 172.315  1.00  0.00    -0.484 OA
ATOM      4  C   UNL     1     161.980 145.525 173.633  1.00  0.00     0.138 A 
ATOM      5  C   UNL     1     163.185 146.171 173.916  1.00  0.00     0.093 A 
ATOM      6  C   UNL     1     163.695 146.172 175.213  1.00  0.00     0.123 A 
ATOM      7  C   UNL     1     163.004 145.508 176.232  1.00  0.00     0.093 A 
ATOM      8  C   UNL     1     161.797 144.847 175.970  1.00  0.00     0.133 A 
ATOM      9  C   UNL     1     161.241 144.893 174.659  1.00  0.00     0.102 A 
ATOM     10  C   UNL     1     159.883 144.389 174.301  1.00  0.00     0.174 C 
ATOM     11  O   UNL     1     159.119 143.875 175.158  1.00  0.00    -0.294 OA
ENDROOT
BRANCH   2  12
ATOM     12  C   UNL     1     159.969 145.042 170.528  1.00  0.00    -0.007 A 
ATOM     13  C   UNL     1     160.872 145.398 169.512  1.00  0.00     0.011 A 
ATOM     14  C   UNL     1     158.591 145.020 170.245  1.00  0.00     0.011 A 
ATOM     15  C   UNL     1     160.404 145.751 168.243  1.00  0.00     0.046 A 
ATOM     16  C   UNL     1     158.127 145.373 168.974  1.00  0.00     0.046 A 
ATOM     17  C   UNL     1     159.029 145.741 167.971  1.00  0.00     0.115 A 
BRANCH  17  18
ATOM     18  O   UNL     1     158.551 146.090 166.710  1.00  0.00    -0.508 OA
ATOM     19  H   UNL     1     158.664 145.476 165.912  1.00  0.00     0.293 HD
ENDBRANCH  17  18
ENDBRANCH   2  12
BRANCH   8  20
ATOM     20  O   UNL     1     161.212 144.158 177.034  1.00  0.00    -0.507 OA
ATOM     21  H   UNL     1     161.330 144.400 178.007  1.00  0.00     0.293 HD
ENDBRANCH   8  20
BRANCH   6  22
ATOM     22  O   UNL     1     164.896 146.826 175.479  1.00  0.00    -0.508 OA
ATOM     23  H   UNL     1     165.055 147.782 175.183  1.00  0.00     0.293 HD
ENDBRANCH   6  22
TORSDOF 4
ENDMDL
MODEL 6
REMARK VINA RESULT:     6.057      2.608      7.263
REMARK INTER + INTRA:           6.645
REMARK INTER:                   6.937
REMARK INTRA:                  -0.292
REMARK UNBOUND:                -0.297
REMARK SMILES O=C1C[C@@H](c2ccc(O)cc2)Oc2cc(O)cc(O)c21
REMARK SMILES IDX 3 1 4 2 12 3 13 4 14 5 15 6 17 7 18 8 20 9 2 10 1 11 5 12
REMARK SMILES IDX 6 13 11 14 7 15 10 16 8 17 9 18 19 20 16 22
REMARK H PARENT 9 19 19 21 16 23
REMARK Flexibility Score: inf
ROOT
ATOM      1  C   UNL     1     159.523 147.456 169.292  1.00  0.00     0.131 C 
ATOM      2  C   UNL     1     159.481 145.924 169.265  1.00  0.00     0.211 C 
ATOM      3  O   UNL     1     160.526 145.391 170.079  1.00  0.00    -0.484 OA
ATOM      4  C   UNL     1     160.794 145.895 171.356  1.00  0.00     0.138 A 
ATOM      5  C   UNL     1     161.592 145.144 172.222  1.00  0.00     0.093 A 
ATOM      6  C   UNL     1     161.858 145.604 173.510  1.00  0.00     0.123 A 
ATOM      7  C   UNL     1     161.309 146.816 173.942  1.00  0.00     0.093 A 
ATOM      8  C   UNL     1     160.500 147.582 173.093  1.00  0.00     0.133 A 
ATOM      9  C   UNL     1     160.273 147.147 171.756  1.00  0.00     0.102 A 
ATOM     10  C   UNL     1     159.588 147.959 170.709  1.00  0.00     0.174 C 
ATOM     11  O   UNL     1     159.152 149.114 170.946  1.00  0.00    -0.294 OA
ENDROOT
BRANCH   2  12
ATOM     12  C   UNL     1     159.610 145.409 167.852  1.00  0.00    -0.007 A 
ATOM     13  C   UNL     1     160.869 145.355 167.231  1.00  0.00     0.011 A 
ATOM     14  C   UNL     1     158.484 144.927 167.161  1.00  0.00     0.011 A 
ATOM     15  C   UNL     1     160.996 144.851 165.933  1.00  0.00     0.046 A 
ATOM     16  C   UNL     1     158.614 144.423 165.863  1.00  0.00     0.046 A 
ATOM     17  C   UNL     1     159.868 144.385 165.245  1.00  0.00     0.115 A 
BRANCH  17  18
ATOM     18  O   UNL     1     159.983 143.881 163.952  1.00  0.00    -0.508 OA
ATOM     19  H   UNL     1     159.344 144.160 163.216  1.00  0.00     0.293 HD
ENDBRANCH  17  18
ENDBRANCH   2  12
BRANCH   8  20
ATOM     20  O   UNL     1     159.944 148.745 173.633  1.00  0.00    -0.507 OA
ATOM     21  H   UNL     1     159.308 149.355 173.143  1.00  0.00     0.293 HD
ENDBRANCH   8  20
BRANCH   6  22
ATOM     22  O   UNL     1     162.661 144.845 174.359  1.00  0.00    -0.508 OA
ATOM     23  H   UNL     1     163.614 145.115 174.569  1.00  0.00     0.293 HD
ENDBRANCH   6  22
TORSDOF 4
ENDMDL
