MODEL 1
REMARK VINA RESULT:    -3.737      0.000      0.000
REMARK INTER + INTRA:          -7.322
REMARK INTER:                  -6.358
REMARK INTRA:                  -0.964
REMARK UNBOUND:                -0.964
REMARK SMILES CCCCCCCCCCCCCC(=O)[O-]
REMARK SMILES IDX 8 1 9 2 10 3 11 4 12 5 13 6 14 7 15 8 16 9 7 10 6 11 5 12
REMARK SMILES IDX 4 13 3 14 2 15 1 16
REMARK H PARENT
REMARK Flexibility Score: inf
ROOT
ATOM      1  C   UNL     1      59.966  27.683  49.548  1.00  0.00     0.000 C 
ENDROOT
BRANCH   1   2
ATOM      2  C   UNL     1      61.348  27.365  50.145  1.00  0.00     0.000 C 
BRANCH   2   3
ATOM      3  C   UNL     1      61.480  25.896  50.577  1.00  0.00     0.000 C 
BRANCH   3   4
ATOM      4  C   UNL     1      60.120  25.181  50.671  1.00  0.00     0.000 C 
BRANCH   4   5
ATOM      5  C   UNL     1      60.257  23.693  51.041  1.00  0.00     0.006 C 
BRANCH   5   6
ATOM      6  C   UNL     1      61.698  23.161  50.997  1.00  0.00     0.053 C 
BRANCH   6   7
ATOM      7  C   UNL     1      61.819  21.932  50.149  1.00  0.00     0.041 C 
ATOM      8  O   UNL     1      62.553  20.977  50.518  1.00  0.00    -0.550 OA
ATOM      9  O   UNL     1      61.092  21.825  48.970  1.00  0.00    -0.550 OA
ENDBRANCH   6   7
ENDBRANCH   5   6
ENDBRANCH   4   5
ENDBRANCH   3   4
ENDBRANCH   2   3
ENDBRANCH   1   2
BRANCH   1  10
ATOM     10  C   UNL     1      59.454  29.083  49.934  1.00  0.00     0.000 C 
BRANCH  10  11
ATOM     11  C   UNL     1      58.006  29.129  50.456  1.00  0.00    -0.000 C 
BRANCH  11  12
ATOM     12  C   UNL     1      57.772  28.203  51.659  1.00  0.00    -0.000 C 
BRANCH  12  13
ATOM     13  C   UNL     1      56.473  27.401  51.488  1.00  0.00    -0.000 C 
BRANCH  13  14
ATOM     14  C   UNL     1      55.411  28.150  50.661  1.00  0.00    -0.000 C 
BRANCH  14  15
ATOM     15  C   UNL     1      54.218  27.288  50.211  1.00  0.00    -0.003 C 
ATOM     16  C   UNL     1      54.630  25.896  49.734  1.00  0.00     0.004 C 
ENDBRANCH  14  15
ENDBRANCH  13  14
ENDBRANCH  12  13
ENDBRANCH  11  12
ENDBRANCH  10  11
ENDBRANCH   1  10
TORSDOF 12
ENDMDL
MODEL 2
REMARK VINA RESULT:    -3.676     11.146     12.566
REMARK INTER + INTRA:          -7.218
REMARK INTER:                  -5.539
REMARK INTRA:                  -1.679
REMARK UNBOUND:                -0.964
REMARK SMILES CCCCCCCCCCCCCC(=O)[O-]
REMARK SMILES IDX 8 1 9 2 10 3 11 4 12 5 13 6 14 7 15 8 16 9 7 10 6 11 5 12
REMARK SMILES IDX 4 13 3 14 2 15 1 16
REMARK H PARENT
REMARK Flexibility Score: inf
ROOT
ATOM      1  C   UNL     1      62.126  32.455  58.514  1.00  0.00     0.000 C 
ENDROOT
BRANCH   1   2
ATOM      2  C   UNL     1      61.335  31.166  58.228  1.00  0.00     0.000 C 
BRANCH   2   3
ATOM      3  C   UNL     1      60.410  30.774  59.391  1.00  0.00     0.000 C 
BRANCH   3   4
ATOM      4  C   UNL     1      60.864  31.364  60.737  1.00  0.00     0.000 C 
BRANCH   4   5
ATOM      5  C   UNL     1      61.434  30.298  61.691  1.00  0.00     0.006 C 
BRANCH   5   6
ATOM      6  C   UNL     1      62.833  29.789  61.307  1.00  0.00     0.053 C 
BRANCH   6   7
ATOM      7  C   UNL     1      62.810  28.356  60.871  1.00  0.00     0.041 C 
ATOM      8  O   UNL     1      62.066  27.527  61.460  1.00  0.00    -0.550 OA
ATOM      9  O   UNL     1      63.582  27.943  59.793  1.00  0.00    -0.550 OA
ENDBRANCH   6   7
ENDBRANCH   5   6
ENDBRANCH   4   5
ENDBRANCH   3   4
ENDBRANCH   2   3
ENDBRANCH   1   2
BRANCH   1  10
ATOM     10  C   UNL     1      63.644  32.279  58.333  1.00  0.00     0.000 C 
BRANCH  10  11
ATOM     11  C   UNL     1      64.519  33.176  59.228  1.00  0.00    -0.000 C 
BRANCH  11  12
ATOM     12  C   UNL     1      64.067  33.181  60.696  1.00  0.00    -0.000 C 
BRANCH  12  13
ATOM     13  C   UNL     1      64.206  34.584  61.307  1.00  0.00    -0.000 C 
BRANCH  13  14
ATOM     14  C   UNL     1      63.475  35.667  60.492  1.00  0.00    -0.000 C 
BRANCH  14  15
ATOM     15  C   UNL     1      62.100  36.076  61.049  1.00  0.00    -0.003 C 
ATOM     16  C   UNL     1      60.940  35.331  60.388  1.00  0.00     0.004 C 
ENDBRANCH  14  15
ENDBRANCH  13  14
ENDBRANCH  12  13
ENDBRANCH  11  12
ENDBRANCH  10  11
ENDBRANCH   1  10
TORSDOF 12
ENDMDL
MODEL 3
REMARK VINA RESULT:    -3.588      4.339      6.793
REMARK INTER + INTRA:          -7.068
REMARK INTER:                  -5.133
REMARK INTRA:                  -1.935
REMARK UNBOUND:                -0.964
REMARK SMILES CCCCCCCCCCCCCC(=O)[O-]
REMARK SMILES IDX 8 1 9 2 10 3 11 4 12 5 13 6 14 7 15 8 16 9 7 10 6 11 5 12
REMARK SMILES IDX 4 13 3 14 2 15 1 16
REMARK H PARENT
REMARK Flexibility Score: inf
ROOT
ATOM      1  C   UNL     1      57.922  25.716  52.211  1.00  0.00     0.000 C 
ENDROOT
BRANCH   1   2
ATOM      2  C   UNL     1      56.436  25.759  51.815  1.00  0.00     0.000 C 
BRANCH   2   3
ATOM      3  C   UNL     1      56.218  26.347  50.412  1.00  0.00     0.000 C 
BRANCH   3   4
ATOM      4  C   UNL     1      54.812  26.056  49.858  1.00  0.00     0.000 C 
BRANCH   4   5
ATOM      5  C   UNL     1      53.782  27.128  50.258  1.00  0.00     0.006 C 
BRANCH   5   6
ATOM      6  C   UNL     1      54.375  28.534  50.444  1.00  0.00     0.053 C 
BRANCH   6   7
ATOM      7  C   UNL     1      54.012  29.126  51.771  1.00  0.00     0.041 C 
ATOM      8  O   UNL     1      53.918  28.390  52.789  1.00  0.00    -0.550 OA
ATOM      9  O   UNL     1      53.812  30.496  51.892  1.00  0.00    -0.550 OA
ENDBRANCH   6   7
ENDBRANCH   5   6
ENDBRANCH   4   5
ENDBRANCH   3   4
ENDBRANCH   2   3
ENDBRANCH   1   2
BRANCH   1  10
ATOM     10  C   UNL     1      58.863  25.601  50.998  1.00  0.00     0.000 C 
BRANCH  10  11
ATOM     11  C   UNL     1      59.939  26.697  50.897  1.00  0.00    -0.000 C 
BRANCH  11  12
ATOM     12  C   UNL     1      59.815  27.544  49.623  1.00  0.00    -0.000 C 
BRANCH  12  13
ATOM     13  C   UNL     1      59.050  28.847  49.902  1.00  0.00    -0.000 C 
BRANCH  13  14
ATOM     14  C   UNL     1      59.067  29.243  51.390  1.00  0.00    -0.000 C 
BRANCH  14  15
ATOM     15  C   UNL     1      57.678  29.463  52.015  1.00  0.00    -0.003 C 
ATOM     16  C   UNL     1      57.635  29.141  53.509  1.00  0.00     0.004 C 
ENDBRANCH  14  15
ENDBRANCH  13  14
ENDBRANCH  12  13
ENDBRANCH  11  12
ENDBRANCH  10  11
ENDBRANCH   1  10
TORSDOF 12
ENDMDL
MODEL 4
REMARK VINA RESULT:    -3.577     12.147     14.055
REMARK INTER + INTRA:          -7.051
REMARK INTER:                  -5.591
REMARK INTRA:                  -1.459
REMARK UNBOUND:                -0.964
REMARK SMILES CCCCCCCCCCCCCC(=O)[O-]
REMARK SMILES IDX 8 1 9 2 10 3 11 4 12 5 13 6 14 7 15 8 16 9 7 10 6 11 5 12
REMARK SMILES IDX 4 13 3 14 2 15 1 16
REMARK H PARENT
REMARK Flexibility Score: inf
ROOT
ATOM      1  C   UNL     1      60.932  32.129  59.383  1.00  0.00     0.000 C 
ENDROOT
BRANCH   1   2
ATOM      2  C   UNL     1      61.582  33.363  58.732  1.00  0.00     0.000 C 
BRANCH   2   3
ATOM      3  C   UNL     1      60.717  34.626  58.873  1.00  0.00     0.000 C 
BRANCH   3   4
ATOM      4  C   UNL     1      61.500  35.821  59.445  1.00  0.00     0.000 C 
BRANCH   4   5
ATOM      5  C   UNL     1      61.926  35.604  60.909  1.00  0.00     0.006 C 
BRANCH   5   6
ATOM      6  C   UNL     1      63.246  36.293  61.291  1.00  0.00     0.053 C 
BRANCH   6   7
ATOM      7  C   UNL     1      64.394  35.331  61.325  1.00  0.00     0.041 C 
ATOM      8  O   UNL     1      64.180  34.089  61.306  1.00  0.00    -0.550 OA
ATOM      9  O   UNL     1      65.699  35.804  61.339  1.00  0.00    -0.550 OA
ENDBRANCH   6   7
ENDBRANCH   5   6
ENDBRANCH   4   5
ENDBRANCH   3   4
ENDBRANCH   2   3
ENDBRANCH   1   2
BRANCH   1  10
ATOM     10  C   UNL     1      61.383  31.911  60.838  1.00  0.00     0.000 C 
BRANCH  10  11
ATOM     11  C   UNL     1      60.854  30.627  61.503  1.00  0.00    -0.000 C 
BRANCH  11  12
ATOM     12  C   UNL     1      61.855  29.463  61.442  1.00  0.00    -0.000 C 
BRANCH  12  13
ATOM     13  C   UNL     1      63.299  29.984  61.393  1.00  0.00    -0.000 C 
BRANCH  13  14
ATOM     14  C   UNL     1      64.135  29.326  60.279  1.00  0.00    -0.000 C 
BRANCH  14  15
ATOM     15  C   UNL     1      64.127  30.078  58.936  1.00  0.00    -0.003 C 
ATOM     16  C   UNL     1      64.838  31.429  59.002  1.00  0.00     0.004 C 
ENDBRANCH  14  15
ENDBRANCH  13  14
ENDBRANCH  12  13
ENDBRANCH  11  12
ENDBRANCH  10  11
ENDBRANCH   1  10
TORSDOF 12
ENDMDL
MODEL 5
REMARK VINA RESULT:    -3.522      2.533      4.065
REMARK INTER + INTRA:          -6.957
REMARK INTER:                  -5.153
REMARK INTRA:                  -1.804
REMARK UNBOUND:                -0.964
REMARK SMILES CCCCCCCCCCCCCC(=O)[O-]
REMARK SMILES IDX 8 1 9 2 10 3 11 4 12 5 13 6 14 7 15 8 16 9 7 10 6 11 5 12
REMARK SMILES IDX 4 13 3 14 2 15 1 16
REMARK H PARENT
REMARK Flexibility Score: inf
ROOT
ATOM      1  C   UNL     1      58.175  27.604  52.982  1.00  0.00     0.000 C 
ENDROOT
BRANCH   1   2
ATOM      2  C   UNL     1      58.077  29.122  52.752  1.00  0.00     0.000 C 
BRANCH   2   3
ATOM      3  C   UNL     1      58.967  29.601  51.595  1.00  0.00     0.000 C 
BRANCH   3   4
ATOM      4  C   UNL     1      58.462  29.128  50.221  1.00  0.00     0.000 C 
BRANCH   4   5
ATOM      5  C   UNL     1      59.506  28.287  49.463  1.00  0.00     0.006 C 
BRANCH   5   6
ATOM      6  C   UNL     1      60.813  28.053  50.237  1.00  0.00     0.053 C 
BRANCH   6   7
ATOM      7  C   UNL     1      61.160  26.599  50.329  1.00  0.00     0.041 C 
ATOM      8  O   UNL     1      62.356  26.243  50.496  1.00  0.00    -0.550 OA
ATOM      9  O   UNL     1      60.158  25.639  50.266  1.00  0.00    -0.550 OA
ENDBRANCH   6   7
ENDBRANCH   5   6
ENDBRANCH   4   5
ENDBRANCH   3   4
ENDBRANCH   2   3
ENDBRANCH   1   2
BRANCH   1  10
ATOM     10  C   UNL     1      56.894  27.004  53.589  1.00  0.00     0.000 C 
BRANCH  10  11
ATOM     11  C   UNL     1      56.107  26.063  52.660  1.00  0.00    -0.000 C 
BRANCH  11  12
ATOM     12  C   UNL     1      56.759  25.899  51.279  1.00  0.00    -0.000 C 
BRANCH  12  13
ATOM     13  C   UNL     1      55.802  26.347  50.163  1.00  0.00    -0.000 C 
BRANCH  13  14
ATOM     14  C   UNL     1      54.652  27.231  50.680  1.00  0.00    -0.000 C 
BRANCH  14  15
ATOM     15  C   UNL     1      54.943  28.742  50.664  1.00  0.00    -0.003 C 
ATOM     16  C   UNL     1      53.772  29.583  51.172  1.00  0.00     0.004 C 
ENDBRANCH  14  15
ENDBRANCH  13  14
ENDBRANCH  12  13
ENDBRANCH  11  12
ENDBRANCH  10  11
ENDBRANCH   1  10
TORSDOF 12
ENDMDL
MODEL 6
REMARK VINA RESULT:    -3.485      2.289      3.640
REMARK INTER + INTRA:          -6.893
REMARK INTER:                  -5.180
REMARK INTRA:                  -1.713
REMARK UNBOUND:                -0.964
REMARK SMILES CCCCCCCCCCCCCC(=O)[O-]
REMARK SMILES IDX 8 1 9 2 10 3 11 4 12 5 13 6 14 7 15 8 16 9 7 10 6 11 5 12
REMARK SMILES IDX 4 13 3 14 2 15 1 16
REMARK H PARENT
REMARK Flexibility Score: inf
ROOT
ATOM      1  C   UNL     1      58.616  28.276  53.237  1.00  0.00     0.000 C 
ENDROOT
BRANCH   1   2
ATOM      2  C   UNL     1      58.965  29.671  52.689  1.00  0.00     0.000 C 
BRANCH   2   3
ATOM      3  C   UNL     1      59.930  29.610  51.495  1.00  0.00     0.000 C 
BRANCH   3   4
ATOM      4  C   UNL     1      59.226  29.223  50.182  1.00  0.00     0.000 C 
BRANCH   4   5
ATOM      5  C   UNL     1      59.796  27.934  49.562  1.00  0.00     0.006 C 
BRANCH   5   6
ATOM      6  C   UNL     1      59.030  26.657  49.943  1.00  0.00     0.053 C 
BRANCH   6   7
ATOM      7  C   UNL     1      59.874  25.712  50.742  1.00  0.00     0.041 C 
ATOM      8  O   UNL     1      61.011  26.069  51.149  1.00  0.00    -0.550 OA
ATOM      9  O   UNL     1      59.390  24.452  51.068  1.00  0.00    -0.550 OA
ENDBRANCH   6   7
ENDBRANCH   5   6
ENDBRANCH   4   5
ENDBRANCH   3   4
ENDBRANCH   2   3
ENDBRANCH   1   2
BRANCH   1  10
ATOM     10  C   UNL     1      57.152  27.879  52.978  1.00  0.00     0.000 C 
BRANCH  10  11
ATOM     11  C   UNL     1      56.104  28.915  53.422  1.00  0.00    -0.000 C 
BRANCH  11  12
ATOM     12  C   UNL     1      55.423  29.624  52.242  1.00  0.00    -0.000 C 
BRANCH  12  13
ATOM     13  C   UNL     1      55.545  28.791  50.957  1.00  0.00    -0.000 C 
BRANCH  13  14
ATOM     14  C   UNL     1      54.179  28.354  50.395  1.00  0.00    -0.000 C 
BRANCH  14  15
ATOM     15  C   UNL     1      54.064  26.853  50.075  1.00  0.00    -0.003 C 
ATOM     16  C   UNL     1      55.397  26.113  50.188  1.00  0.00     0.004 C 
ENDBRANCH  14  15
ENDBRANCH  13  14
ENDBRANCH  12  13
ENDBRANCH  11  12
ENDBRANCH  10  11
ENDBRANCH   1  10
TORSDOF 12
ENDMDL
MODEL 7
REMARK VINA RESULT:    -3.480     12.120     13.613
REMARK INTER + INTRA:          -6.885
REMARK INTER:                  -4.845
REMARK INTRA:                  -2.040
REMARK UNBOUND:                -0.964
REMARK SMILES CCCCCCCCCCCCCC(=O)[O-]
REMARK SMILES IDX 8 1 9 2 10 3 11 4 12 5 13 6 14 7 15 8 16 9 7 10 6 11 5 12
REMARK SMILES IDX 4 13 3 14 2 15 1 16
REMARK H PARENT
REMARK Flexibility Score: inf
ROOT
ATOM      1  C   UNL     1      63.946  32.016  58.005  1.00  0.00     0.000 C 
ENDROOT
BRANCH   1   2
ATOM      2  C   UNL     1      62.413  31.878  57.988  1.00  0.00     0.000 C 
BRANCH   2   3
ATOM      3  C   UNL     1      61.707  33.075  58.645  1.00  0.00     0.000 C 
BRANCH   3   4
ATOM      4  C   UNL     1      62.691  34.164  59.107  1.00  0.00     0.000 C 
BRANCH   4   5
ATOM      5  C   UNL     1      62.753  34.295  60.640  1.00  0.00     0.006 C 
BRANCH   5   6
ATOM      6  C   UNL     1      64.168  34.171  61.229  1.00  0.00     0.053 C 
BRANCH   6   7
ATOM      7  C   UNL     1      64.875  35.490  61.274  1.00  0.00     0.041 C 
ATOM      8  O   UNL     1      65.635  35.834  60.330  1.00  0.00    -0.550 OA
ATOM      9  O   UNL     1      64.669  36.355  62.341  1.00  0.00    -0.550 OA
ENDBRANCH   6   7
ENDBRANCH   5   6
ENDBRANCH   4   5
ENDBRANCH   3   4
ENDBRANCH   2   3
ENDBRANCH   1   2
BRANCH   1  10
ATOM     10  C   UNL     1      64.651  30.793  58.619  1.00  0.00     0.000 C 
BRANCH  10  11
ATOM     11  C   UNL     1      64.562  30.688  60.152  1.00  0.00    -0.000 C 
BRANCH  11  12
ATOM     12  C   UNL     1      64.238  29.268  60.639  1.00  0.00    -0.000 C 
BRANCH  12  13
ATOM     13  C   UNL     1      62.811  29.195  61.206  1.00  0.00    -0.000 C 
BRANCH  13  14
ATOM     14  C   UNL     1      62.240  30.579  61.567  1.00  0.00    -0.000 C 
BRANCH  14  15
ATOM     15  C   UNL     1      60.726  30.732  61.334  1.00  0.00    -0.003 C 
ATOM     16  C   UNL     1      60.199  29.838  60.212  1.00  0.00     0.004 C 
ENDBRANCH  14  15
ENDBRANCH  13  14
ENDBRANCH  12  13
ENDBRANCH  11  12
ENDBRANCH  10  11
ENDBRANCH   1  10
TORSDOF 12
ENDMDL
MODEL 8
REMARK VINA RESULT:    -3.452     12.191     13.824
REMARK INTER + INTRA:          -6.836
REMARK INTER:                  -5.286
REMARK INTRA:                  -1.550
REMARK UNBOUND:                -0.964
REMARK SMILES CCCCCCCCCCCCCC(=O)[O-]
REMARK SMILES IDX 8 1 9 2 10 3 11 4 12 5 13 6 14 7 15 8 16 9 7 10 6 11 5 12
REMARK SMILES IDX 4 13 3 14 2 15 1 16
REMARK H PARENT
REMARK Flexibility Score: inf
ROOT
ATOM      1  C   UNL     1      60.944  35.239  60.498  1.00  0.00     0.000 C 
ENDROOT
BRANCH   1   2
ATOM      2  C   UNL     1      61.432  36.695  60.588  1.00  0.00     0.000 C 
BRANCH   2   3
ATOM      3  C   UNL     1      62.965  36.801  60.637  1.00  0.00     0.000 C 
BRANCH   3   4
ATOM      4  C   UNL     1      63.601  35.765  61.581  1.00  0.00     0.000 C 
BRANCH   4   5
ATOM      5  C   UNL     1      64.745  34.979  60.914  1.00  0.00     0.006 C 
BRANCH   5   6
ATOM      6  C   UNL     1      65.106  35.464  59.501  1.00  0.00     0.053 C 
BRANCH   6   7
ATOM      7  C   UNL     1      64.824  34.424  58.460  1.00  0.00     0.041 C 
ATOM      8  O   UNL     1      64.439  34.767  57.311  1.00  0.00    -0.550 OA
ATOM      9  O   UNL     1      65.020  33.080  58.748  1.00  0.00    -0.550 OA
ENDBRANCH   6   7
ENDBRANCH   5   6
ENDBRANCH   4   5
ENDBRANCH   3   4
ENDBRANCH   2   3
ENDBRANCH   1   2
BRANCH   1  10
ATOM     10  C   UNL     1      61.131  34.629  59.097  1.00  0.00     0.000 C 
BRANCH  10  11
ATOM     11  C   UNL     1      61.507  33.136  59.078  1.00  0.00    -0.000 C 
BRANCH  11  12
ATOM     12  C   UNL     1      61.839  32.582  60.471  1.00  0.00    -0.000 C 
BRANCH  12  13
ATOM     13  C   UNL     1      60.847  31.480  60.874  1.00  0.00    -0.000 C 
BRANCH  13  14
ATOM     14  C   UNL     1      61.509  30.340  61.669  1.00  0.00    -0.000 C 
BRANCH  14  15
ATOM     15  C   UNL     1      62.295  29.329  60.815  1.00  0.00    -0.003 C 
ATOM     16  C   UNL     1      63.808  29.434  61.005  1.00  0.00     0.004 C 
ENDBRANCH  14  15
ENDBRANCH  13  14
ENDBRANCH  12  13
ENDBRANCH  11  12
ENDBRANCH  10  11
ENDBRANCH   1  10
TORSDOF 12
ENDMDL
MODEL 9
REMARK VINA RESULT:    -3.425     12.098     13.702
REMARK INTER + INTRA:          -6.791
REMARK INTER:                  -5.080
REMARK INTRA:                  -1.711
REMARK UNBOUND:                -0.964
REMARK SMILES CCCCCCCCCCCCCC(=O)[O-]
REMARK SMILES IDX 8 1 9 2 10 3 11 4 12 5 13 6 14 7 15 8 16 9 7 10 6 11 5 12
REMARK SMILES IDX 4 13 3 14 2 15 1 16
REMARK H PARENT
REMARK Flexibility Score: inf
ROOT
ATOM      1  C   UNL     1      62.681  32.697  58.472  1.00  0.00     0.000 C 
ENDROOT
BRANCH   1   2
ATOM      2  C   UNL     1      63.797  32.546  59.521  1.00  0.00     0.000 C 
BRANCH   2   3
ATOM      3  C   UNL     1      63.503  33.329  60.810  1.00  0.00     0.000 C 
BRANCH   3   4
ATOM      4  C   UNL     1      64.437  34.538  60.997  1.00  0.00     0.000 C 
BRANCH   4   5
ATOM      5  C   UNL     1      63.670  35.843  61.279  1.00  0.00     0.006 C 
BRANCH   5   6
ATOM      6  C   UNL     1      62.163  35.767  60.983  1.00  0.00     0.053 C 
BRANCH   6   7
ATOM      7  C   UNL     1      61.810  36.437  59.691  1.00  0.00     0.041 C 
ATOM      8  O   UNL     1      62.719  36.856  58.926  1.00  0.00    -0.550 OA
ATOM      9  O   UNL     1      60.479  36.567  59.315  1.00  0.00    -0.550 OA
ENDBRANCH   6   7
ENDBRANCH   5   6
ENDBRANCH   4   5
ENDBRANCH   3   4
ENDBRANCH   2   3
ENDBRANCH   1   2
BRANCH   1  10
ATOM     10  C   UNL     1      61.276  32.772  59.097  1.00  0.00     0.000 C 
BRANCH  10  11
ATOM     11  C   UNL     1      60.318  31.637  58.692  1.00  0.00    -0.000 C 
BRANCH  11  12
ATOM     12  C   UNL     1      60.406  30.416  59.619  1.00  0.00    -0.000 C 
BRANCH  12  13
ATOM     13  C   UNL     1      60.695  30.846  61.066  1.00  0.00    -0.000 C 
BRANCH  13  14
ATOM     14  C   UNL     1      61.833  30.037  61.715  1.00  0.00    -0.000 C 
BRANCH  14  15
ATOM     15  C   UNL     1      62.651  29.174  60.737  1.00  0.00    -0.003 C 
ATOM     16  C   UNL     1      62.530  27.676  61.014  1.00  0.00     0.004 C 
ENDBRANCH  14  15
ENDBRANCH  13  14
ENDBRANCH  12  13
ENDBRANCH  11  12
ENDBRANCH  10  11
ENDBRANCH   1  10
TORSDOF 12
ENDMDL
