MODEL 1
REMARK VINA RESULT:    -4.772      0.000      0.000
REMARK INTER + INTRA:          -8.008
REMARK INTER:                  -7.421
REMARK INTRA:                  -0.586
REMARK UNBOUND:                -0.586
REMARK SMILES COc1cc(CNC(=O)CCCCC=CC(C)C)ccc1O
REMARK SMILES IDX 11 1 12 2 13 3 14 4 15 5 16 6 17 7 18 8 10 9 8 10 9 11 7 12
REMARK SMILES IDX 6 14 5 15 4 16 19 17 3 18 20 19 21 20 2 21 1 22 22 23
REMARK H PARENT 7 13 22 24
REMARK Flexibility Score: inf
ROOT
ATOM      1  C   UNL     1     114.128 256.137 337.316  1.00  0.00     0.010 C 
ENDROOT
BRANCH   1   2
ATOM      2  C   UNL     1     113.496 257.515 337.054  1.00  0.00     0.005 C 
BRANCH   2   3
ATOM      3  C   UNL     1     112.127 257.398 336.368  1.00  0.00     0.027 C 
BRANCH   3   4
ATOM      4  C   UNL     1     112.223 257.553 334.873  1.00  0.00    -0.031 C 
ATOM      5  C   UNL     1     112.229 256.489 334.055  1.00  0.00    -0.028 C 
BRANCH   5   6
ATOM      6  C   UNL     1     112.350 256.649 332.557  1.00  0.00     0.005 C 
ATOM      7  C   UNL     1     111.922 258.058 332.133  1.00  0.00     0.012 C 
ATOM      8  C   UNL     1     113.785 256.368 332.095  1.00  0.00     0.012 C 
ENDBRANCH   5   6
ENDBRANCH   3   4
ENDBRANCH   2   3
ENDBRANCH   1   2
BRANCH   1   9
ATOM      9  C   UNL     1     115.538 256.247 337.911  1.00  0.00     0.100 C 
BRANCH   9  10
ATOM     10  C   UNL     1     115.794 255.180 338.934  1.00  0.00     0.220 C 
ATOM     11  O   UNL     1     116.729 254.354 338.748  1.00  0.00    -0.275 OA
ATOM     12  N   UNL     1     115.009 255.126 340.134  1.00  0.00    -0.352 N 
ATOM     13  H   UNL     1     114.261 255.840 340.284  1.00  0.00     0.163 HD
BRANCH  12  14
ATOM     14  C   UNL     1     115.238 254.130 341.177  1.00  0.00     0.151 C 
BRANCH  14  15
ATOM     15  C   UNL     1     114.095 254.123 342.156  1.00  0.00    -0.025 A 
ATOM     16  C   UNL     1     114.126 254.934 343.302  1.00  0.00     0.056 A 
ATOM     17  C   UNL     1     112.993 253.285 341.936  1.00  0.00     0.009 A 
ATOM     18  C   UNL     1     113.060 254.916 344.223  1.00  0.00     0.160 A 
ATOM     19  C   UNL     1     111.935 253.260 342.845  1.00  0.00     0.050 A 
ATOM     20  C   UNL     1     111.962 254.069 343.986  1.00  0.00     0.157 A 
BRANCH  18  21
ATOM     21  O   UNL     1     113.062 255.718 345.376  1.00  0.00    -0.493 OA
ATOM     22  C   UNL     1     114.139 256.560 345.773  1.00  0.00     0.278 C 
ENDBRANCH  18  21
BRANCH  20  23
ATOM     23  O   UNL     1     110.888 254.017 344.874  1.00  0.00    -0.504 OA
ATOM     24  H   UNL     1     110.300 254.820 345.059  1.00  0.00     0.293 HD
ENDBRANCH  20  23
ENDBRANCH  14  15
ENDBRANCH  12  14
ENDBRANCH   9  10
ENDBRANCH   1   9
TORSDOF 10
ENDMDL
MODEL 2
REMARK VINA RESULT:    -4.578     13.977     16.183
REMARK INTER + INTRA:          -7.707
REMARK INTER:                  -7.240
REMARK INTRA:                  -0.467
REMARK UNBOUND:                -0.586
REMARK SMILES COc1cc(CNC(=O)CCCCC=CC(C)C)ccc1O
REMARK SMILES IDX 11 1 12 2 13 3 14 4 15 5 16 6 17 7 18 8 10 9 8 10 9 11 7 12
REMARK SMILES IDX 6 14 5 15 4 16 19 17 3 18 20 19 21 20 2 21 1 22 22 23
REMARK H PARENT 7 13 22 24
REMARK Flexibility Score: inf
ROOT
ATOM      1  C   UNL     1     118.225 244.610 346.286  1.00  0.00     0.010 C 
ENDROOT
BRANCH   1   2
ATOM      2  C   UNL     1     117.446 245.096 345.052  1.00  0.00     0.005 C 
BRANCH   2   3
ATOM      3  C   UNL     1     118.293 245.025 343.773  1.00  0.00     0.027 C 
BRANCH   3   4
ATOM      4  C   UNL     1     117.608 244.254 342.677  1.00  0.00    -0.031 C 
ATOM      5  C   UNL     1     117.006 244.874 341.650  1.00  0.00    -0.028 C 
BRANCH   5   6
ATOM      6  C   UNL     1     116.300 244.095 340.565  1.00  0.00     0.005 C 
ATOM      7  C   UNL     1     116.640 244.667 339.186  1.00  0.00     0.012 C 
ATOM      8  C   UNL     1     116.676 242.609 340.632  1.00  0.00     0.012 C 
ENDBRANCH   5   6
ENDBRANCH   3   4
ENDBRANCH   2   3
ENDBRANCH   1   2
BRANCH   1   9
ATOM      9  C   UNL     1     117.765 245.303 347.576  1.00  0.00     0.100 C 
BRANCH   9  10
ATOM     10  C   UNL     1     118.200 244.549 348.798  1.00  0.00     0.220 C 
ATOM     11  O   UNL     1     117.329 244.061 349.568  1.00  0.00    -0.275 OA
ATOM     12  N   UNL     1     119.595 244.348 349.064  1.00  0.00    -0.352 N 
ATOM     13  H   UNL     1     120.301 244.732 348.396  1.00  0.00     0.163 HD
BRANCH  12  14
ATOM     14  C   UNL     1     120.073 243.594 350.220  1.00  0.00     0.151 C 
BRANCH  14  15
ATOM     15  C   UNL     1     121.576 243.638 350.291  1.00  0.00    -0.025 A 
ATOM     16  C   UNL     1     122.302 242.548 350.798  1.00  0.00     0.056 A 
ATOM     17  C   UNL     1     122.262 244.784 349.865  1.00  0.00     0.009 A 
ATOM     18  C   UNL     1     123.708 242.597 350.876  1.00  0.00     0.160 A 
ATOM     19  C   UNL     1     123.654 244.840 349.941  1.00  0.00     0.050 A 
ATOM     20  C   UNL     1     124.380 243.755 350.443  1.00  0.00     0.157 A 
BRANCH  18  21
ATOM     21  O   UNL     1     124.462 241.523 351.375  1.00  0.00    -0.493 OA
ATOM     22  C   UNL     1     123.923 240.435 352.121  1.00  0.00     0.278 C 
ENDBRANCH  18  21
BRANCH  20  23
ATOM     23  O   UNL     1     125.770 243.847 350.505  1.00  0.00    -0.504 OA
ATOM     24  H   UNL     1     126.244 244.427 351.187  1.00  0.00     0.293 HD
ENDBRANCH  20  23
ENDBRANCH  14  15
ENDBRANCH  12  14
ENDBRANCH   9  10
ENDBRANCH   1   9
TORSDOF 10
ENDMDL
MODEL 3
REMARK VINA RESULT:    -4.377      4.088      7.097
REMARK INTER + INTRA:          -7.395
REMARK INTER:                  -6.817
REMARK INTRA:                  -0.578
REMARK UNBOUND:                -0.586
REMARK SMILES COc1cc(CNC(=O)CCCCC=CC(C)C)ccc1O
REMARK SMILES IDX 11 1 12 2 13 3 14 4 15 5 16 6 17 7 18 8 10 9 8 10 9 11 7 12
REMARK SMILES IDX 6 14 5 15 4 16 19 17 3 18 20 19 21 20 2 21 1 22 22 23
REMARK H PARENT 7 13 22 24
REMARK Flexibility Score: inf
ROOT
ATOM      1  C   UNL     1     113.002 253.640 342.759  1.00  0.00     0.010 C 
ENDROOT
BRANCH   1   2
ATOM      2  C   UNL     1     113.872 254.661 342.007  1.00  0.00     0.005 C 
BRANCH   2   3
ATOM      3  C   UNL     1     115.228 254.069 341.597  1.00  0.00     0.027 C 
BRANCH   3   4
ATOM      4  C   UNL     1     115.818 254.770 340.402  1.00  0.00    -0.031 C 
ATOM      5  C   UNL     1     117.131 254.708 340.127  1.00  0.00    -0.028 C 
BRANCH   5   6
ATOM      6  C   UNL     1     117.721 255.433 338.940  1.00  0.00     0.005 C 
ATOM      7  C   UNL     1     116.612 255.901 337.993  1.00  0.00     0.012 C 
ATOM      8  C   UNL     1     118.567 256.627 339.400  1.00  0.00     0.012 C 
ENDBRANCH   5   6
ENDBRANCH   3   4
ENDBRANCH   2   3
ENDBRANCH   1   2
BRANCH   1   9
ATOM      9  C   UNL     1     113.114 253.787 344.282  1.00  0.00     0.100 C 
BRANCH   9  10
ATOM     10  C   UNL     1     113.029 255.223 344.709  1.00  0.00     0.220 C 
ATOM     11  O   UNL     1     111.949 255.854 344.548  1.00  0.00    -0.275 OA
ATOM     12  N   UNL     1     114.153 255.859 345.334  1.00  0.00    -0.352 N 
ATOM     13  H   UNL     1     115.027 255.308 345.489  1.00  0.00     0.163 HD
BRANCH  12  14
ATOM     14  C   UNL     1     114.112 257.243 345.799  1.00  0.00     0.151 C 
BRANCH  14  15
ATOM     15  C   UNL     1     114.991 257.416 347.009  1.00  0.00    -0.025 A 
ATOM     16  C   UNL     1     114.437 257.456 348.298  1.00  0.00     0.056 A 
ATOM     17  C   UNL     1     116.377 257.559 346.850  1.00  0.00     0.009 A 
ATOM     18  C   UNL     1     115.261 257.632 349.428  1.00  0.00     0.160 A 
ATOM     19  C   UNL     1     117.198 257.734 347.964  1.00  0.00     0.050 A 
ATOM     20  C   UNL     1     116.649 257.773 349.250  1.00  0.00     0.157 A 
BRANCH  18  21
ATOM     21  O   UNL     1     114.736 257.673 350.730  1.00  0.00    -0.493 OA
ATOM     22  C   UNL     1     114.258 256.538 351.445  1.00  0.00     0.278 C 
ENDBRANCH  18  21
BRANCH  20  23
ATOM     23  O   UNL     1     117.501 257.952 350.340  1.00  0.00    -0.504 OA
ATOM     24  H   UNL     1     118.417 257.523 350.387  1.00  0.00     0.293 HD
ENDBRANCH  20  23
ENDBRANCH  14  15
ENDBRANCH  12  14
ENDBRANCH   9  10
ENDBRANCH   1   9
TORSDOF 10
ENDMDL
MODEL 4
REMARK VINA RESULT:    -4.126      2.852      8.915
REMARK INTER + INTRA:          -7.003
REMARK INTER:                  -6.587
REMARK INTRA:                  -0.417
REMARK UNBOUND:                -0.586
REMARK SMILES COc1cc(CNC(=O)CCCCC=CC(C)C)ccc1O
REMARK SMILES IDX 11 1 12 2 13 3 14 4 15 5 16 6 17 7 18 8 10 9 8 10 9 11 7 12
REMARK SMILES IDX 6 14 5 15 4 16 19 17 3 18 20 19 21 20 2 21 1 22 22 23
REMARK H PARENT 7 13 22 24
REMARK Flexibility Score: inf
ROOT
ATOM      1  C   UNL     1     117.061 254.513 339.829  1.00  0.00     0.010 C 
ENDROOT
BRANCH   1   2
ATOM      2  C   UNL     1     116.314 254.377 341.167  1.00  0.00     0.005 C 
BRANCH   2   3
ATOM      3  C   UNL     1     114.793 254.309 340.971  1.00  0.00     0.027 C 
BRANCH   3   4
ATOM      4  C   UNL     1     114.044 254.449 342.270  1.00  0.00    -0.031 C 
ATOM      5  C   UNL     1     112.976 253.687 342.552  1.00  0.00    -0.028 C 
BRANCH   5   6
ATOM      6  C   UNL     1     112.214 253.849 343.847  1.00  0.00     0.005 C 
ATOM      7  C   UNL     1     112.747 255.049 344.636  1.00  0.00     0.012 C 
ATOM      8  C   UNL     1     110.713 254.016 343.576  1.00  0.00     0.012 C 
ENDBRANCH   5   6
ENDBRANCH   3   4
ENDBRANCH   2   3
ENDBRANCH   1   2
BRANCH   1   9
ATOM      9  C   UNL     1     116.122 254.387 338.622  1.00  0.00     0.100 C 
BRANCH   9  10
ATOM     10  C   UNL     1     115.633 255.725 338.155  1.00  0.00     0.220 C 
ATOM     11  O   UNL     1     116.379 256.734 338.275  1.00  0.00    -0.275 OA
ATOM     12  N   UNL     1     114.343 255.849 337.539  1.00  0.00    -0.352 N 
ATOM     13  H   UNL     1     113.753 254.994 337.419  1.00  0.00     0.163 HD
BRANCH  12  14
ATOM     14  C   UNL     1     113.831 257.121 337.037  1.00  0.00     0.151 C 
BRANCH  14  15
ATOM     15  C   UNL     1     112.944 256.896 335.842  1.00  0.00    -0.025 A 
ATOM     16  C   UNL     1     113.495 256.713 334.564  1.00  0.00     0.056 A 
ATOM     17  C   UNL     1     111.550 256.887 335.999  1.00  0.00     0.009 A 
ATOM     18  C   UNL     1     112.661 256.515 333.445  1.00  0.00     0.160 A 
ATOM     19  C   UNL     1     110.719 256.693 334.896  1.00  0.00     0.050 A 
ATOM     20  C   UNL     1     111.265 256.508 333.621  1.00  0.00     0.157 A 
BRANCH  18  21
ATOM     21  O   UNL     1     113.183 256.327 332.155  1.00  0.00    -0.493 OA
ATOM     22  C   UNL     1     114.513 255.904 331.875  1.00  0.00     0.278 C 
ENDBRANCH  18  21
BRANCH  20  23
ATOM     23  O   UNL     1     110.403 256.319 332.541  1.00  0.00    -0.504 OA
ATOM     24  H   UNL     1     109.808 257.059 332.188  1.00  0.00     0.293 HD
ENDBRANCH  20  23
ENDBRANCH  14  15
ENDBRANCH  12  14
ENDBRANCH   9  10
ENDBRANCH   1   9
TORSDOF 10
ENDMDL
MODEL 5
REMARK VINA RESULT:    -4.060     13.941     16.051
REMARK INTER + INTRA:          -6.902
REMARK INTER:                  -6.331
REMARK INTRA:                  -0.571
REMARK UNBOUND:                -0.586
REMARK SMILES COc1cc(CNC(=O)CCCCC=CC(C)C)ccc1O
REMARK SMILES IDX 11 1 12 2 13 3 14 4 15 5 16 6 17 7 18 8 10 9 8 10 9 11 7 12
REMARK SMILES IDX 6 14 5 15 4 16 19 17 3 18 20 19 21 20 2 21 1 22 22 23
REMARK H PARENT 7 13 22 24
REMARK Flexibility Score: inf
ROOT
ATOM      1  C   UNL     1     117.932 245.681 345.949  1.00  0.00     0.010 C 
ENDROOT
BRANCH   1   2
ATOM      2  C   UNL     1     117.430 245.358 344.532  1.00  0.00     0.005 C 
BRANCH   2   3
ATOM      3  C   UNL     1     118.241 244.229 343.878  1.00  0.00     0.027 C 
BRANCH   3   4
ATOM      4  C   UNL     1     117.616 243.746 342.597  1.00  0.00    -0.031 C 
ATOM      5  C   UNL     1     117.011 244.590 341.747  1.00  0.00    -0.028 C 
BRANCH   5   6
ATOM      6  C   UNL     1     116.364 244.096 340.474  1.00  0.00     0.005 C 
ATOM      7  C   UNL     1     116.787 244.965 339.286  1.00  0.00     0.012 C 
ATOM      8  C   UNL     1     116.729 242.628 340.215  1.00  0.00     0.012 C 
ENDBRANCH   5   6
ENDBRANCH   3   4
ENDBRANCH   2   3
ENDBRANCH   1   2
BRANCH   1   9
ATOM      9  C   UNL     1     117.890 244.458 346.875  1.00  0.00     0.100 C 
BRANCH   9  10
ATOM     10  C   UNL     1     118.441 244.771 348.235  1.00  0.00     0.220 C 
ATOM     11  O   UNL     1     117.657 245.135 349.153  1.00  0.00    -0.275 OA
ATOM     12  N   UNL     1     119.843 244.618 348.499  1.00  0.00    -0.352 N 
ATOM     13  H   UNL     1     120.471 244.284 347.734  1.00  0.00     0.163 HD
BRANCH  12  14
ATOM     14  C   UNL     1     120.427 244.877 349.813  1.00  0.00     0.151 C 
BRANCH  14  15
ATOM     15  C   UNL     1     121.238 243.694 350.269  1.00  0.00    -0.025 A 
ATOM     16  C   UNL     1     122.524 243.464 349.755  1.00  0.00     0.056 A 
ATOM     17  C   UNL     1     120.699 242.797 351.204  1.00  0.00     0.009 A 
ATOM     18  C   UNL     1     123.275 242.349 350.174  1.00  0.00     0.160 A 
ATOM     19  C   UNL     1     121.438 241.690 351.622  1.00  0.00     0.050 A 
ATOM     20  C   UNL     1     122.720 241.460 351.113  1.00  0.00     0.157 A 
BRANCH  18  21
ATOM     21  O   UNL     1     124.565 242.095 349.680  1.00  0.00    -0.493 OA
ATOM     22  C   UNL     1     125.760 242.655 350.214  1.00  0.00     0.278 C 
ENDBRANCH  18  21
BRANCH  20  23
ATOM     23  O   UNL     1     123.428 240.341 351.552  1.00  0.00    -0.504 OA
ATOM     24  H   UNL     1     123.527 240.116 352.534  1.00  0.00     0.293 HD
ENDBRANCH  20  23
ENDBRANCH  14  15
ENDBRANCH  12  14
ENDBRANCH   9  10
ENDBRANCH   1   9
TORSDOF 10
ENDMDL
MODEL 6
REMARK VINA RESULT:    -3.900     12.943     17.301
REMARK INTER + INTRA:          -6.652
REMARK INTER:                  -6.023
REMARK INTRA:                  -0.629
REMARK UNBOUND:                -0.586
REMARK SMILES COc1cc(CNC(=O)CCCCC=CC(C)C)ccc1O
REMARK SMILES IDX 11 1 12 2 13 3 14 4 15 5 16 6 17 7 18 8 10 9 8 10 9 11 7 12
REMARK SMILES IDX 6 14 5 15 4 16 19 17 3 18 20 19 21 20 2 21 1 22 22 23
REMARK H PARENT 7 13 22 24
REMARK Flexibility Score: inf
ROOT
ATOM      1  C   UNL     1     117.877 244.293 349.753  1.00  0.00     0.010 C 
ENDROOT
BRANCH   1   2
ATOM      2  C   UNL     1     117.142 243.118 350.421  1.00  0.00     0.005 C 
BRANCH   2   3
ATOM      3  C   UNL     1     118.005 242.433 351.490  1.00  0.00     0.027 C 
BRANCH   3   4
ATOM      4  C   UNL     1     119.455 242.827 351.391  1.00  0.00    -0.031 C 
ATOM      5  C   UNL     1     120.440 241.928 351.539  1.00  0.00    -0.028 C 
BRANCH   5   6
ATOM      6  C   UNL     1     121.894 242.334 351.462  1.00  0.00     0.005 C 
ATOM      7  C   UNL     1     122.731 241.215 350.837  1.00  0.00     0.012 C 
ATOM      8  C   UNL     1     122.053 243.630 350.657  1.00  0.00     0.012 C 
ENDBRANCH   5   6
ENDBRANCH   3   4
ENDBRANCH   2   3
ENDBRANCH   1   2
BRANCH   1   9
ATOM      9  C   UNL     1     118.385 243.941 348.349  1.00  0.00     0.100 C 
BRANCH   9  10
ATOM     10  C   UNL     1     117.939 244.945 347.328  1.00  0.00     0.220 C 
ATOM     11  O   UNL     1     117.566 246.088 347.706  1.00  0.00    -0.275 OA
ATOM     12  N   UNL     1     117.977 244.621 345.931  1.00  0.00    -0.352 N 
ATOM     13  H   UNL     1     118.321 243.679 345.637  1.00  0.00     0.163 HD
BRANCH  12  14
ATOM     14  C   UNL     1     117.586 245.572 344.894  1.00  0.00     0.151 C 
BRANCH  14  15
ATOM     15  C   UNL     1     117.471 244.879 343.562  1.00  0.00    -0.025 A 
ATOM     16  C   UNL     1     118.093 243.639 343.343  1.00  0.00     0.056 A 
ATOM     17  C   UNL     1     116.753 245.483 342.520  1.00  0.00     0.009 A 
ATOM     18  C   UNL     1     117.995 242.999 342.091  1.00  0.00     0.160 A 
ATOM     19  C   UNL     1     116.654 244.855 341.278  1.00  0.00     0.050 A 
ATOM     20  C   UNL     1     117.271 243.620 341.058  1.00  0.00     0.157 A 
BRANCH  18  21
ATOM     21  O   UNL     1     118.603 241.758 341.844  1.00  0.00    -0.493 OA
ATOM     22  C   UNL     1     117.967 240.496 342.020  1.00  0.00     0.278 C 
ENDBRANCH  18  21
BRANCH  20  23
ATOM     23  O   UNL     1     117.151 243.023 339.803  1.00  0.00    -0.504 OA
ATOM     24  H   UNL     1     117.928 242.558 339.349  1.00  0.00     0.293 HD
ENDBRANCH  20  23
ENDBRANCH  14  15
ENDBRANCH  12  14
ENDBRANCH   9  10
ENDBRANCH   1   9
TORSDOF 10
ENDMDL
MODEL 7
REMARK VINA RESULT:    -3.840     12.562     13.650
REMARK INTER + INTRA:          -6.559
REMARK INTER:                  -6.028
REMARK INTRA:                  -0.532
REMARK UNBOUND:                -0.586
REMARK SMILES COc1cc(CNC(=O)CCCCC=CC(C)C)ccc1O
REMARK SMILES IDX 11 1 12 2 13 3 14 4 15 5 16 6 17 7 18 8 10 9 8 10 9 11 7 12
REMARK SMILES IDX 6 14 5 15 4 16 19 17 3 18 20 19 21 20 2 21 1 22 22 23
REMARK H PARENT 7 13 22 24
REMARK Flexibility Score: inf
ROOT
ATOM      1  C   UNL     1     115.548 243.590 333.632  1.00  0.00     0.010 C 
ENDROOT
BRANCH   1   2
ATOM      2  C   UNL     1     116.222 242.699 332.575  1.00  0.00     0.005 C 
BRANCH   2   3
ATOM      3  C   UNL     1     115.305 241.554 332.119  1.00  0.00     0.027 C 
BRANCH   3   4
ATOM      4  C   UNL     1     113.905 241.698 332.653  1.00  0.00    -0.031 C 
ATOM      5  C   UNL     1     113.230 240.649 333.149  1.00  0.00    -0.028 C 
BRANCH   5   6
ATOM      6  C   UNL     1     111.816 240.795 333.661  1.00  0.00     0.005 C 
ATOM      7  C   UNL     1     111.032 241.787 332.797  1.00  0.00     0.012 C 
ATOM      8  C   UNL     1     111.105 239.435 333.686  1.00  0.00     0.012 C 
ENDBRANCH   5   6
ENDBRANCH   3   4
ENDBRANCH   2   3
ENDBRANCH   1   2
BRANCH   1   9
ATOM      9  C   UNL     1     115.841 243.121 335.063  1.00  0.00     0.100 C 
BRANCH   9  10
ATOM     10  C   UNL     1     116.106 244.275 335.983  1.00  0.00     0.220 C 
ATOM     11  O   UNL     1     116.248 245.432 335.501  1.00  0.00    -0.275 OA
ATOM     12  N   UNL     1     116.156 244.071 337.403  1.00  0.00    -0.352 N 
ATOM     13  H   UNL     1     116.003 243.110 337.784  1.00  0.00     0.163 HD
BRANCH  12  14
ATOM     14  C   UNL     1     116.377 245.165 338.345  1.00  0.00     0.151 C 
BRANCH  14  15
ATOM     15  C   UNL     1     116.791 244.625 339.688  1.00  0.00    -0.025 A 
ATOM     16  C   UNL     1     116.758 243.245 339.947  1.00  0.00     0.056 A 
ATOM     17  C   UNL     1     117.195 245.506 340.701  1.00  0.00     0.009 A 
ATOM     18  C   UNL     1     117.133 242.744 341.210  1.00  0.00     0.160 A 
ATOM     19  C   UNL     1     117.566 245.016 341.953  1.00  0.00     0.050 A 
ATOM     20  C   UNL     1     117.536 243.643 342.214  1.00  0.00     0.157 A 
BRANCH  18  21
ATOM     21  O   UNL     1     117.113 241.369 341.498  1.00  0.00    -0.493 OA
ATOM     22  C   UNL     1     118.258 240.523 341.477  1.00  0.00     0.278 C 
ENDBRANCH  18  21
BRANCH  20  23
ATOM     23  O   UNL     1     117.912 243.189 343.478  1.00  0.00    -0.504 OA
ATOM     24  H   UNL     1     117.353 242.530 344.004  1.00  0.00     0.293 HD
ENDBRANCH  20  23
ENDBRANCH  14  15
ENDBRANCH  12  14
ENDBRANCH   9  10
ENDBRANCH   1   9
TORSDOF 10
ENDMDL
MODEL 8
REMARK VINA RESULT:    -3.641     13.545     16.233
REMARK INTER + INTRA:          -6.250
REMARK INTER:                  -5.821
REMARK INTRA:                  -0.429
REMARK UNBOUND:                -0.586
REMARK SMILES COc1cc(CNC(=O)CCCCC=CC(C)C)ccc1O
REMARK SMILES IDX 11 1 12 2 13 3 14 4 15 5 16 6 17 7 18 8 10 9 8 10 9 11 7 12
REMARK SMILES IDX 6 14 5 15 4 16 19 17 3 18 20 19 21 20 2 21 1 22 22 23
REMARK H PARENT 7 13 22 24
REMARK Flexibility Score: inf
ROOT
ATOM      1  C   UNL     1     116.006 244.532 336.509  1.00  0.00     0.010 C 
ENDROOT
BRANCH   1   2
ATOM      2  C   UNL     1     116.383 243.802 337.809  1.00  0.00     0.005 C 
BRANCH   2   3
ATOM      3  C   UNL     1     116.367 244.744 339.022  1.00  0.00     0.027 C 
BRANCH   3   4
ATOM      4  C   UNL     1     116.737 244.037 340.298  1.00  0.00    -0.031 C 
ATOM      5  C   UNL     1     116.945 244.709 341.441  1.00  0.00    -0.028 C 
BRANCH   5   6
ATOM      6  C   UNL     1     117.339 243.996 342.713  1.00  0.00     0.005 C 
ATOM      7  C   UNL     1     118.565 243.110 342.472  1.00  0.00     0.012 C 
ATOM      8  C   UNL     1     117.624 245.004 343.834  1.00  0.00     0.012 C 
ENDBRANCH   5   6
ENDBRANCH   3   4
ENDBRANCH   2   3
ENDBRANCH   1   2
BRANCH   1   9
ATOM      9  C   UNL     1     116.381 243.726 335.258  1.00  0.00     0.100 C 
BRANCH   9  10
ATOM     10  C   UNL     1     115.384 243.917 334.154  1.00  0.00     0.220 C 
ATOM     11  O   UNL     1     115.512 244.893 333.366  1.00  0.00    -0.275 OA
ATOM     12  N   UNL     1     114.318 242.974 333.971  1.00  0.00    -0.352 N 
ATOM     13  H   UNL     1     114.249 242.154 334.615  1.00  0.00     0.163 HD
BRANCH  12  14
ATOM     14  C   UNL     1     113.341 243.094 332.892  1.00  0.00     0.151 C 
BRANCH  14  15
ATOM     15  C   UNL     1     112.448 241.883 332.855  1.00  0.00    -0.025 A 
ATOM     16  C   UNL     1     112.971 240.600 333.081  1.00  0.00     0.056 A 
ATOM     17  C   UNL     1     111.082 242.030 332.574  1.00  0.00     0.009 A 
ATOM     18  C   UNL     1     112.135 239.466 333.033  1.00  0.00     0.160 A 
ATOM     19  C   UNL     1     110.250 240.912 332.523  1.00  0.00     0.050 A 
ATOM     20  C   UNL     1     110.767 239.632 332.749  1.00  0.00     0.157 A 
BRANCH  18  21
ATOM     21  O   UNL     1     112.629 238.170 333.257  1.00  0.00    -0.493 OA
ATOM     22  C   UNL     1     113.937 237.875 333.735  1.00  0.00     0.278 C 
ENDBRANCH  18  21
BRANCH  20  23
ATOM     23  O   UNL     1     109.905 238.537 332.689  1.00  0.00    -0.504 OA
ATOM     24  H   UNL     1     109.639 238.107 331.812  1.00  0.00     0.293 HD
ENDBRANCH  20  23
ENDBRANCH  14  15
ENDBRANCH  12  14
ENDBRANCH   9  10
ENDBRANCH   1   9
TORSDOF 10
ENDMDL
MODEL 9
REMARK VINA RESULT:    -3.054      2.766     10.416
REMARK INTER + INTRA:          -5.336
REMARK INTER:                  -4.815
REMARK INTRA:                  -0.521
REMARK UNBOUND:                -0.586
REMARK SMILES COc1cc(CNC(=O)CCCCC=CC(C)C)ccc1O
REMARK SMILES IDX 11 1 12 2 13 3 14 4 15 5 16 6 17 7 18 8 10 9 8 10 9 11 7 12
REMARK SMILES IDX 6 14 5 15 4 16 19 17 3 18 20 19 21 20 2 21 1 22 22 23
REMARK H PARENT 7 13 22 24
REMARK Flexibility Score: inf
ROOT
ATOM      1  C   UNL     1     114.498 256.058 345.715  1.00  0.00     0.010 C 
ENDROOT
BRANCH   1   2
ATOM      2  C   UNL     1     114.661 257.520 346.163  1.00  0.00     0.005 C 
BRANCH   2   3
ATOM      3  C   UNL     1     115.955 257.736 346.961  1.00  0.00     0.027 C 
BRANCH   3   4
ATOM      4  C   UNL     1     115.686 258.125 348.390  1.00  0.00    -0.031 C 
ATOM      5  C   UNL     1     115.394 257.208 349.326  1.00  0.00    -0.028 C 
BRANCH   5   6
ATOM      6  C   UNL     1     115.102 257.607 350.754  1.00  0.00     0.005 C 
ATOM      7  C   UNL     1     114.277 256.523 351.455  1.00  0.00     0.012 C 
ATOM      8  C   UNL     1     116.404 257.865 351.523  1.00  0.00     0.012 C 
ENDBRANCH   5   6
ENDBRANCH   3   4
ENDBRANCH   2   3
ENDBRANCH   1   2
BRANCH   1   9
ATOM      9  C   UNL     1     113.151 255.806 345.025  1.00  0.00     0.100 C 
BRANCH   9  10
ATOM     10  C   UNL     1     113.257 254.751 343.964  1.00  0.00     0.220 C 
ATOM     11  O   UNL     1     112.530 253.723 344.038  1.00  0.00    -0.275 OA
ATOM     12  N   UNL     1     114.149 254.929 342.855  1.00  0.00    -0.352 N 
ATOM     13  H   UNL     1     114.719 255.803 342.796  1.00  0.00     0.163 HD
BRANCH  12  14
ATOM     14  C   UNL     1     114.268 253.949 341.778  1.00  0.00     0.151 C 
BRANCH  14  15
ATOM     15  C   UNL     1     115.302 254.391 340.778  1.00  0.00    -0.025 A 
ATOM     16  C   UNL     1     114.931 255.120 339.637  1.00  0.00     0.056 A 
ATOM     17  C   UNL     1     116.650 254.057 340.973  1.00  0.00     0.009 A 
ATOM     18  C   UNL     1     115.900 255.521 338.695  1.00  0.00     0.160 A 
ATOM     19  C   UNL     1     117.614 254.449 340.044  1.00  0.00     0.050 A 
ATOM     20  C   UNL     1     117.247 255.177 338.908  1.00  0.00     0.157 A 
BRANCH  18  21
ATOM     21  O   UNL     1     115.559 256.253 337.547  1.00  0.00    -0.493 OA
ATOM     22  C   UNL     1     114.228 256.466 337.088  1.00  0.00     0.278 C 
ENDBRANCH  18  21
BRANCH  20  23
ATOM     23  O   UNL     1     118.238 255.551 338.000  1.00  0.00    -0.504 OA
ATOM     24  H   UNL     1     118.965 256.214 338.236  1.00  0.00     0.293 HD
ENDBRANCH  20  23
ENDBRANCH  14  15
ENDBRANCH  12  14
ENDBRANCH   9  10
ENDBRANCH   1   9
TORSDOF 10
ENDMDL
