MODEL 1
REMARK VINA RESULT:    -3.267      0.000      0.000
REMARK INTER + INTRA:          -4.096
REMARK INTER:                  -3.840
REMARK INTRA:                  -0.256
REMARK UNBOUND:                -0.256
REMARK SMILES COc1cc2ccc(=O)oc2c(OC)c1OC
REMARK SMILES IDX 3 1 15 2 12 3 11 4 5 5 4 6 6 7 7 8 8 9 9 10 10 11 2 12 1 13
REMARK SMILES IDX 16 14 17 15 13 16 14 17
REMARK H PARENT
REMARK Flexibility Score: inf
ROOT
ATOM      1  C   UNL     1      -4.962  -1.057 -10.008  1.00  0.00     0.165 A 
ATOM      2  C   UNL     1      -6.311  -0.616 -10.051  1.00  0.00     0.207 A 
ATOM      3  C   UNL     1      -7.360  -1.554 -10.083  1.00  0.00     0.208 A 
ATOM      4  C   UNL     1      -7.070  -2.939 -10.072  1.00  0.00     0.184 A 
ATOM      5  C   UNL     1      -5.726  -3.369 -10.029  1.00  0.00     0.025 A 
ATOM      6  C   UNL     1      -4.688  -2.436  -9.997  1.00  0.00     0.062 A 
ATOM      7  C   UNL     1      -5.459  -4.743 -10.019  1.00  0.00     0.020 A 
ATOM      8  C   UNL     1      -6.516  -5.648 -10.051  1.00  0.00     0.094 A 
ATOM      9  C   UNL     1      -7.822  -5.156 -10.093  1.00  0.00     0.336 A 
ATOM     10  O   UNL     1      -8.794  -5.954 -10.123  1.00  0.00    -0.246 OA
ATOM     11  O   UNL     1      -8.045  -3.845 -10.102  1.00  0.00    -0.419 OA
ENDROOT
BRANCH   1  12
ATOM     12  O   UNL     1      -3.918  -0.119  -9.975  1.00  0.00    -0.493 OA
ATOM     13  C   UNL     1      -3.249   0.322  -8.798  1.00  0.00     0.278 C 
ENDBRANCH   1  12
BRANCH   2  14
ATOM     14  O   UNL     1      -6.684   0.743 -10.065  1.00  0.00    -0.490 OA
ATOM     15  C   UNL     1      -6.891   1.581  -8.934  1.00  0.00     0.278 C 
ENDBRANCH   2  14
BRANCH   3  16
ATOM     16  O   UNL     1      -8.671  -1.038 -10.125  1.00  0.00    -0.490 OA
ATOM     17  C   UNL     1      -9.618  -1.043  -9.062  1.00  0.00     0.278 C 
ENDBRANCH   3  16
TORSDOF 3
ENDMDL
MODEL 2
REMARK VINA RESULT:    -3.239      1.977      4.518
REMARK INTER + INTRA:          -4.063
REMARK INTER:                  -4.194
REMARK INTRA:                   0.131
REMARK UNBOUND:                -0.256
REMARK SMILES COc1cc2ccc(=O)oc2c(OC)c1OC
REMARK SMILES IDX 3 1 15 2 12 3 11 4 5 5 4 6 6 7 7 8 8 9 9 10 10 11 2 12 1 13
REMARK SMILES IDX 16 14 17 15 13 16 14 17
REMARK H PARENT
REMARK Flexibility Score: inf
ROOT
ATOM      1  C   UNL     1      -5.493  -2.191 -10.018  1.00  0.00     0.165 A 
ATOM      2  C   UNL     1      -4.965  -0.888  -9.827  1.00  0.00     0.207 A 
ATOM      3  C   UNL     1      -5.831   0.217  -9.719  1.00  0.00     0.208 A 
ATOM      4  C   UNL     1      -7.231   0.027  -9.801  1.00  0.00     0.184 A 
ATOM      5  C   UNL     1      -7.748  -1.273  -9.991  1.00  0.00     0.025 A 
ATOM      6  C   UNL     1      -6.886  -2.365 -10.098  1.00  0.00     0.062 A 
ATOM      7  C   UNL     1      -9.135  -1.441 -10.070  1.00  0.00     0.020 A 
ATOM      8  C   UNL     1      -9.969  -0.331  -9.959  1.00  0.00     0.094 A 
ATOM      9  C   UNL     1      -9.392   0.927  -9.773  1.00  0.00     0.336 A 
ATOM     10  O   UNL     1     -10.124   1.946  -9.670  1.00  0.00    -0.246 OA
ATOM     11  O   UNL     1      -8.071   1.056  -9.702  1.00  0.00    -0.419 OA
ENDROOT
BRANCH   1  12
ATOM     12  O   UNL     1      -4.626  -3.290 -10.125  1.00  0.00    -0.493 OA
ATOM     13  C   UNL     1      -4.959  -4.633  -9.785  1.00  0.00     0.278 C 
ENDBRANCH   1  12
BRANCH   2  14
ATOM     14  O   UNL     1      -3.586  -0.614  -9.735  1.00  0.00    -0.490 OA
ATOM     15  C   UNL     1      -2.752  -0.809  -8.599  1.00  0.00     0.278 C 
ENDBRANCH   2  14
BRANCH   3  16
ATOM     16  O   UNL     1      -5.231   1.478  -9.530  1.00  0.00    -0.490 OA
ATOM     17  C   UNL     1      -5.653   2.712 -10.101  1.00  0.00     0.278 C 
ENDBRANCH   3  16
TORSDOF 3
ENDMDL
MODEL 3
REMARK VINA RESULT:    -3.128      1.851      4.252
REMARK INTER + INTRA:          -3.933
REMARK INTER:                  -4.033
REMARK INTRA:                   0.100
REMARK UNBOUND:                -0.256
REMARK SMILES COc1cc2ccc(=O)oc2c(OC)c1OC
REMARK SMILES IDX 3 1 15 2 12 3 11 4 5 5 4 6 6 7 7 8 8 9 9 10 10 11 2 12 1 13
REMARK SMILES IDX 16 14 17 15 13 16 14 17
REMARK H PARENT
REMARK Flexibility Score: inf
ROOT
ATOM      1  C   UNL     1      -4.042   0.480  -9.157  1.00  0.00     0.165 A 
ATOM      2  C   UNL     1      -4.238  -0.858  -9.589  1.00  0.00     0.207 A 
ATOM      3  C   UNL     1      -5.540  -1.385  -9.689  1.00  0.00     0.208 A 
ATOM      4  C   UNL     1      -6.655  -0.577  -9.359  1.00  0.00     0.184 A 
ATOM      5  C   UNL     1      -6.451   0.752  -8.931  1.00  0.00     0.025 A 
ATOM      6  C   UNL     1      -5.159   1.270  -8.833  1.00  0.00     0.062 A 
ATOM      7  C   UNL     1      -7.566   1.534  -8.610  1.00  0.00     0.020 A 
ATOM      8  C   UNL     1      -8.842   0.988  -8.718  1.00  0.00     0.094 A 
ATOM      9  C   UNL     1      -8.974  -0.334  -9.147  1.00  0.00     0.336 A 
ATOM     10  O   UNL     1     -10.117  -0.850  -9.254  1.00  0.00    -0.246 OA
ATOM     11  O   UNL     1      -7.896  -1.053  -9.446  1.00  0.00    -0.419 OA
ENDROOT
BRANCH   1  12
ATOM     12  O   UNL     1      -2.742   1.001  -9.059  1.00  0.00    -0.493 OA
ATOM     13  C   UNL     1      -1.738   0.895 -10.064  1.00  0.00     0.278 C 
ENDBRANCH   1  12
BRANCH   2  14
ATOM     14  O   UNL     1      -3.183  -1.725  -9.935  1.00  0.00    -0.490 OA
ATOM     15  C   UNL     1      -2.428  -2.543  -9.049  1.00  0.00     0.278 C 
ENDBRANCH   2  14
BRANCH   3  16
ATOM     16  O   UNL     1      -5.653  -2.720 -10.125  1.00  0.00    -0.490 OA
ATOM     17  C   UNL     1      -6.036  -3.840  -9.334  1.00  0.00     0.278 C 
ENDBRANCH   3  16
TORSDOF 3
ENDMDL
MODEL 4
REMARK VINA RESULT:    -2.926      2.082      3.842
REMARK INTER + INTRA:          -3.695
REMARK INTER:                  -3.957
REMARK INTRA:                   0.261
REMARK UNBOUND:                -0.256
REMARK SMILES COc1cc2ccc(=O)oc2c(OC)c1OC
REMARK SMILES IDX 3 1 15 2 12 3 11 4 5 5 4 6 6 7 7 8 8 9 9 10 10 11 2 12 1 13
REMARK SMILES IDX 16 14 17 15 13 16 14 17
REMARK H PARENT
REMARK Flexibility Score: inf
ROOT
ATOM      1  C   UNL     1      -7.882   0.146 -10.014  1.00  0.00     0.165 A 
ATOM      2  C   UNL     1      -6.618   0.790  -9.971  1.00  0.00     0.207 A 
ATOM      3  C   UNL     1      -5.435   0.027  -9.978  1.00  0.00     0.208 A 
ATOM      4  C   UNL     1      -5.508  -1.386 -10.028  1.00  0.00     0.184 A 
ATOM      5  C   UNL     1      -6.768  -2.018 -10.070  1.00  0.00     0.025 A 
ATOM      6  C   UNL     1      -7.939  -1.258 -10.063  1.00  0.00     0.062 A 
ATOM      7  C   UNL     1      -6.819  -3.416 -10.119  1.00  0.00     0.020 A 
ATOM      8  C   UNL     1      -5.634  -4.146 -10.125  1.00  0.00     0.094 A 
ATOM      9  C   UNL     1      -4.420  -3.459 -10.081  1.00  0.00     0.336 A 
ATOM     10  O   UNL     1      -3.335  -4.096 -10.085  1.00  0.00    -0.246 OA
ATOM     11  O   UNL     1      -4.403  -2.130 -10.035  1.00  0.00    -0.419 OA
ENDROOT
BRANCH   1  12
ATOM     12  O   UNL     1      -9.059   0.912 -10.007  1.00  0.00    -0.493 OA
ATOM     13  C   UNL     1      -9.655   1.489  -8.850  1.00  0.00     0.278 C 
ENDBRANCH   1  12
BRANCH   2  14
ATOM     14  O   UNL     1      -6.460   2.190  -9.920  1.00  0.00    -0.490 OA
ATOM     15  C   UNL     1      -5.943   2.949  -8.834  1.00  0.00     0.278 C 
ENDBRANCH   2  14
BRANCH   3  16
ATOM     16  O   UNL     1      -4.220   0.739  -9.934  1.00  0.00    -0.490 OA
ATOM     17  C   UNL     1      -3.120   0.486  -9.066  1.00  0.00     0.278 C 
ENDBRANCH   3  16
TORSDOF 3
ENDMDL
MODEL 5
REMARK VINA RESULT:    -2.743      1.493      3.352
REMARK INTER + INTRA:          -3.480
REMARK INTER:                  -3.251
REMARK INTRA:                  -0.229
REMARK UNBOUND:                -0.256
REMARK SMILES COc1cc2ccc(=O)oc2c(OC)c1OC
REMARK SMILES IDX 3 1 15 2 12 3 11 4 5 5 4 6 6 7 7 8 8 9 9 10 10 11 2 12 1 13
REMARK SMILES IDX 16 14 17 15 13 16 14 17
REMARK H PARENT
REMARK Flexibility Score: inf
ROOT
ATOM      1  C   UNL     1      -8.300  -0.739 -10.115  1.00  0.00     0.165 A 
ATOM      2  C   UNL     1      -6.880  -0.771 -10.110  1.00  0.00     0.207 A 
ATOM      3  C   UNL     1      -6.201  -2.004 -10.108  1.00  0.00     0.208 A 
ATOM      4  C   UNL     1      -6.935  -3.214 -10.113  1.00  0.00     0.184 A 
ATOM      5  C   UNL     1      -8.346  -3.174 -10.117  1.00  0.00     0.025 A 
ATOM      6  C   UNL     1      -9.016  -1.949 -10.119  1.00  0.00     0.062 A 
ATOM      7  C   UNL     1      -9.054  -4.381 -10.122  1.00  0.00     0.020 A 
ATOM      8  C   UNL     1      -8.357  -5.586 -10.120  1.00  0.00     0.094 A 
ATOM      9  C   UNL     1      -6.961  -5.556 -10.115  1.00  0.00     0.336 A 
ATOM     10  O   UNL     1      -6.308  -6.631 -10.113  1.00  0.00    -0.246 OA
ATOM     11  O   UNL     1      -6.316  -4.393 -10.111  1.00  0.00    -0.419 OA
ENDROOT
BRANCH   1  12
ATOM     12  O   UNL     1      -8.973   0.493 -10.117  1.00  0.00    -0.493 OA
ATOM     13  C   UNL     1     -10.102   0.811  -9.309  1.00  0.00     0.278 C 
ENDBRANCH   1  12
BRANCH   2  14
ATOM     14  O   UNL     1      -6.077   0.387 -10.106  1.00  0.00    -0.490 OA
ATOM     15  C   UNL     1      -5.850   1.262  -9.007  1.00  0.00     0.278 C 
ENDBRANCH   2  14
BRANCH   3  16
ATOM     16  O   UNL     1      -4.793  -1.953 -10.104  1.00  0.00    -0.490 OA
ATOM     17  C   UNL     1      -3.939  -2.214  -8.995  1.00  0.00     0.278 C 
ENDBRANCH   3  16
TORSDOF 3
ENDMDL
MODEL 6
REMARK VINA RESULT:    -2.653      1.613      4.822
REMARK INTER + INTRA:          -3.374
REMARK INTER:                  -4.009
REMARK INTRA:                   0.635
REMARK UNBOUND:                -0.256
REMARK SMILES COc1cc2ccc(=O)oc2c(OC)c1OC
REMARK SMILES IDX 3 1 15 2 12 3 11 4 5 5 4 6 6 7 7 8 8 9 9 10 10 11 2 12 1 13
REMARK SMILES IDX 16 14 17 15 13 16 14 17
REMARK H PARENT
REMARK Flexibility Score: inf
ROOT
ATOM      1  C   UNL     1      -7.461   0.168  -9.368  1.00  0.00     0.165 A 
ATOM      2  C   UNL     1      -7.459  -1.223  -9.649  1.00  0.00     0.207 A 
ATOM      3  C   UNL     1      -6.241  -1.902  -9.849  1.00  0.00     0.208 A 
ATOM      4  C   UNL     1      -5.018  -1.194  -9.769  1.00  0.00     0.184 A 
ATOM      5  C   UNL     1      -5.030   0.189  -9.490  1.00  0.00     0.025 A 
ATOM      6  C   UNL     1      -6.239   0.858  -9.292  1.00  0.00     0.062 A 
ATOM      7  C   UNL     1      -3.810   0.871  -9.414  1.00  0.00     0.020 A 
ATOM      8  C   UNL     1      -2.621   0.175  -9.616  1.00  0.00     0.094 A 
ATOM      9  C   UNL     1      -2.680  -1.193  -9.890  1.00  0.00     0.336 A 
ATOM     10  O   UNL     1      -1.619  -1.844 -10.076  1.00  0.00    -0.246 OA
ATOM     11  O   UNL     1      -3.854  -1.813  -9.955  1.00  0.00    -0.419 OA
ENDROOT
BRANCH   1  12
ATOM     12  O   UNL     1      -8.678   0.841  -9.169  1.00  0.00    -0.493 OA
ATOM     13  C   UNL     1      -9.267   1.758 -10.086  1.00  0.00     0.278 C 
ENDBRANCH   1  12
BRANCH   2  14
ATOM     14  O   UNL     1      -8.631  -1.999  -9.746  1.00  0.00    -0.490 OA
ATOM     15  C   UNL     1      -9.936  -1.628  -9.316  1.00  0.00     0.278 C 
ENDBRANCH   2  14
BRANCH   3  16
ATOM     16  O   UNL     1      -6.322  -3.282 -10.124  1.00  0.00    -0.490 OA
ATOM     17  C   UNL     1      -5.569  -4.315  -9.497  1.00  0.00     0.278 C 
ENDBRANCH   3  16
TORSDOF 3
ENDMDL
