MODEL 1
REMARK VINA RESULT:    -4.389      0.000      0.000
REMARK INTER + INTRA:         -13.808
REMARK INTER:                 -10.035
REMARK INTRA:                  -3.773
REMARK UNBOUND:                -3.773
REMARK SMILES CCCCCCCCCCCCCCCCCCCCCCCC(=O)[O-]
REMARK SMILES IDX 13 1 14 2 15 3 16 4 17 5 18 6 19 7 20 8 21 9 22 10 23 11
REMARK SMILES IDX 24 12 25 13 26 14 12 15 11 16 10 17 9 18 8 19 7 20 6 21 5 22
REMARK SMILES IDX 4 23 3 24 2 25 1 26
REMARK H PARENT
REMARK Flexibility Score: inf
ROOT
ATOM      1  C   UNL     1      29.191  11.879 -14.717  1.00  0.00     0.000 C 
ENDROOT
BRANCH   1   2
ATOM      2  C   UNL     1      28.945  13.169 -15.528  1.00  0.00     0.000 C 
BRANCH   2   3
ATOM      3  C   UNL     1      28.488  12.958 -16.984  1.00  0.00     0.000 C 
BRANCH   3   4
ATOM      4  C   UNL     1      29.524  13.434 -18.018  1.00  0.00     0.000 C 
BRANCH   4   5
ATOM      5  C   UNL     1      30.810  12.589 -18.009  1.00  0.00     0.000 C 
BRANCH   5   6
ATOM      6  C   UNL     1      30.701  11.220 -18.706  1.00  0.00     0.000 C 
BRANCH   6   7
ATOM      7  C   UNL     1      31.042  10.045 -17.775  1.00  0.00     0.000 C 
BRANCH   7   8
ATOM      8  C   UNL     1      29.791   9.263 -17.338  1.00  0.00     0.000 C 
BRANCH   8   9
ATOM      9  C   UNL     1      30.049   7.748 -17.240  1.00  0.00     0.000 C 
BRANCH   9  10
ATOM     10  C   UNL     1      29.160   6.936 -18.195  1.00  0.00     0.006 C 
BRANCH  10  11
ATOM     11  C   UNL     1      27.682   6.945 -17.782  1.00  0.00     0.053 C 
BRANCH  11  12
ATOM     12  C   UNL     1      27.366   5.741 -16.951  1.00  0.00     0.041 C 
ATOM     13  O   UNL     1      28.234   4.846 -16.776  1.00  0.00    -0.550 OA
ATOM     14  O   UNL     1      26.095   5.583 -16.412  1.00  0.00    -0.550 OA
ENDBRANCH  11  12
ENDBRANCH  10  11
ENDBRANCH   9  10
ENDBRANCH   8   9
ENDBRANCH   7   8
ENDBRANCH   6   7
ENDBRANCH   5   6
ENDBRANCH   4   5
ENDBRANCH   3   4
ENDBRANCH   2   3
ENDBRANCH   1   2
BRANCH   1  15
ATOM     15  C   UNL     1      30.668  11.567 -14.401  1.00  0.00     0.000 C 
BRANCH  15  16
ATOM     16  C   UNL     1      30.921  10.157 -13.840  1.00  0.00     0.000 C 
BRANCH  16  17
ATOM     17  C   UNL     1      29.627   9.331 -13.722  1.00  0.00     0.000 C 
BRANCH  17  18
ATOM     18  C   UNL     1      29.336   8.904 -12.272  1.00  0.00    -0.000 C 
BRANCH  18  19
ATOM     19  C   UNL     1      30.611   8.720 -11.415  1.00  0.00    -0.000 C 
BRANCH  19  20
ATOM     20  C   UNL     1      30.597   9.524 -10.103  1.00  0.00    -0.000 C 
BRANCH  20  21
ATOM     21  C   UNL     1      29.560  10.658 -10.114  1.00  0.00    -0.000 C 
BRANCH  21  22
ATOM     22  C   UNL     1      30.158  12.011 -10.535  1.00  0.00    -0.000 C 
BRANCH  22  23
ATOM     23  C   UNL     1      29.177  12.901 -11.329  1.00  0.00    -0.000 C 
BRANCH  23  24
ATOM     24  C   UNL     1      27.728  12.388 -11.246  1.00  0.00    -0.000 C 
BRANCH  24  25
ATOM     25  C   UNL     1      26.705  13.427 -11.730  1.00  0.00    -0.003 C 
ATOM     26  C   UNL     1      27.334  14.796 -11.995  1.00  0.00     0.004 C 
ENDBRANCH  24  25
ENDBRANCH  23  24
ENDBRANCH  22  23
ENDBRANCH  21  22
ENDBRANCH  20  21
ENDBRANCH  19  20
ENDBRANCH  18  19
ENDBRANCH  17  18
ENDBRANCH  16  17
ENDBRANCH  15  16
ENDBRANCH   1  15
TORSDOF 22
ENDMDL
MODEL 2
REMARK VINA RESULT:    -4.168      2.893      7.924
REMARK INTER + INTRA:         -13.302
REMARK INTER:                  -9.935
REMARK INTRA:                  -3.368
REMARK UNBOUND:                -3.773
REMARK SMILES CCCCCCCCCCCCCCCCCCCCCCCC(=O)[O-]
REMARK SMILES IDX 13 1 14 2 15 3 16 4 17 5 18 6 19 7 20 8 21 9 22 10 23 11
REMARK SMILES IDX 24 12 25 13 26 14 12 15 11 16 10 17 9 18 8 19 7 20 6 21 5 22
REMARK SMILES IDX 4 23 3 24 2 25 1 26
REMARK H PARENT
REMARK Flexibility Score: inf
ROOT
ATOM      1  C   UNL     1      29.156  11.979 -15.248  1.00  0.00     0.000 C 
ENDROOT
BRANCH   1   2
ATOM      2  C   UNL     1      30.492  11.777 -14.501  1.00  0.00     0.000 C 
BRANCH   2   3
ATOM      3  C   UNL     1      30.792  10.332 -14.061  1.00  0.00     0.000 C 
BRANCH   3   4
ATOM      4  C   UNL     1      29.539   9.440 -14.019  1.00  0.00     0.000 C 
BRANCH   4   5
ATOM      5  C   UNL     1      29.127   9.055 -12.587  1.00  0.00     0.000 C 
BRANCH   5   6
ATOM      6  C   UNL     1      30.269   8.536 -11.693  1.00  0.00     0.000 C 
BRANCH   6   7
ATOM      7  C   UNL     1      30.459   9.376 -10.418  1.00  0.00     0.000 C 
BRANCH   7   8
ATOM      8  C   UNL     1      29.402  10.485 -10.286  1.00  0.00     0.000 C 
BRANCH   8   9
ATOM      9  C   UNL     1      29.974  11.882 -10.594  1.00  0.00     0.000 C 
BRANCH   9  10
ATOM     10  C   UNL     1      29.002  12.753 -11.404  1.00  0.00     0.006 C 
BRANCH  10  11
ATOM     11  C   UNL     1      27.534  12.356 -11.194  1.00  0.00     0.053 C 
BRANCH  11  12
ATOM     12  C   UNL     1      26.638  13.531 -11.433  1.00  0.00     0.041 C 
ATOM     13  O   UNL     1      26.835  14.288 -12.420  1.00  0.00    -0.550 OA
ATOM     14  O   UNL     1      25.616  13.819 -10.537  1.00  0.00    -0.550 OA
ENDBRANCH  11  12
ENDBRANCH  10  11
ENDBRANCH   9  10
ENDBRANCH   8   9
ENDBRANCH   7   8
ENDBRANCH   6   7
ENDBRANCH   5   6
ENDBRANCH   4   5
ENDBRANCH   3   4
ENDBRANCH   2   3
ENDBRANCH   1   2
BRANCH   1  15
ATOM     15  C   UNL     1      29.092  13.215 -16.168  1.00  0.00     0.000 C 
BRANCH  15  16
ATOM     16  C   UNL     1      29.231  12.907 -17.669  1.00  0.00     0.000 C 
BRANCH  16  17
ATOM     17  C   UNL     1      30.655  12.462 -18.049  1.00  0.00     0.000 C 
BRANCH  17  18
ATOM     18  C   UNL     1      30.668  11.114 -18.792  1.00  0.00    -0.000 C 
BRANCH  18  19
ATOM     19  C   UNL     1      30.972   9.906 -17.874  1.00  0.00    -0.000 C 
BRANCH  19  20
ATOM     20  C   UNL     1      29.744   9.028 -17.579  1.00  0.00    -0.000 C 
BRANCH  20  21
ATOM     21  C   UNL     1      30.123   7.588 -17.198  1.00  0.00    -0.000 C 
BRANCH  21  22
ATOM     22  C   UNL     1      31.019   6.907 -18.245  1.00  0.00    -0.000 C 
BRANCH  22  23
ATOM     23  C   UNL     1      30.339   6.728 -19.620  1.00  0.00    -0.000 C 
BRANCH  23  24
ATOM     24  C   UNL     1      29.500   5.439 -19.690  1.00  0.00    -0.000 C 
BRANCH  24  25
ATOM     25  C   UNL     1      27.996   5.704 -19.522  1.00  0.00    -0.003 C 
ATOM     26  C   UNL     1      27.395   4.959 -18.328  1.00  0.00     0.004 C 
ENDBRANCH  24  25
ENDBRANCH  23  24
ENDBRANCH  22  23
ENDBRANCH  21  22
ENDBRANCH  20  21
ENDBRANCH  19  20
ENDBRANCH  18  19
ENDBRANCH  17  18
ENDBRANCH  16  17
ENDBRANCH  15  16
ENDBRANCH   1  15
TORSDOF 22
ENDMDL
MODEL 3
REMARK VINA RESULT:    -4.100      3.117      7.382
REMARK INTER + INTRA:         -13.147
REMARK INTER:                  -9.811
REMARK INTRA:                  -3.335
REMARK UNBOUND:                -3.773
REMARK SMILES CCCCCCCCCCCCCCCCCCCCCCCC(=O)[O-]
REMARK SMILES IDX 13 1 14 2 15 3 16 4 17 5 18 6 19 7 20 8 21 9 22 10 23 11
REMARK SMILES IDX 24 12 25 13 26 14 12 15 11 16 10 17 9 18 8 19 7 20 6 21 5 22
REMARK SMILES IDX 4 23 3 24 2 25 1 26
REMARK H PARENT
REMARK Flexibility Score: inf
ROOT
ATOM      1  C   UNL     1      28.436  12.547 -16.201  1.00  0.00     0.000 C 
ENDROOT
BRANCH   1   2
ATOM      2  C   UNL     1      29.047  12.097 -14.856  1.00  0.00     0.000 C 
BRANCH   2   3
ATOM      3  C   UNL     1      29.310  10.585 -14.723  1.00  0.00     0.000 C 
BRANCH   3   4
ATOM      4  C   UNL     1      30.772  10.254 -14.378  1.00  0.00     0.000 C 
BRANCH   4   5
ATOM      5  C   UNL     1      30.903   9.308 -13.172  1.00  0.00     0.000 C 
BRANCH   5   6
ATOM      6  C   UNL     1      29.629   9.148 -12.322  1.00  0.00     0.000 C 
BRANCH   6   7
ATOM      7  C   UNL     1      29.855   9.481 -10.837  1.00  0.00     0.000 C 
BRANCH   7   8
ATOM      8  C   UNL     1      29.177  10.798 -10.422  1.00  0.00     0.000 C 
BRANCH   8   9
ATOM      9  C   UNL     1      29.696  12.004 -11.227  1.00  0.00     0.000 C 
BRANCH   9  10
ATOM     10  C   UNL     1      28.657  13.131 -11.338  1.00  0.00     0.006 C 
BRANCH  10  11
ATOM     11  C   UNL     1      27.213  12.619 -11.232  1.00  0.00     0.053 C 
BRANCH  11  12
ATOM     12  C   UNL     1      26.253  13.767 -11.234  1.00  0.00     0.041 C 
ATOM     13  O   UNL     1      25.521  13.982 -10.233  1.00  0.00    -0.550 OA
ATOM     14  O   UNL     1      26.130  14.568 -12.362  1.00  0.00    -0.550 OA
ENDBRANCH  11  12
ENDBRANCH  10  11
ENDBRANCH   9  10
ENDBRANCH   8   9
ENDBRANCH   7   8
ENDBRANCH   6   7
ENDBRANCH   5   6
ENDBRANCH   4   5
ENDBRANCH   3   4
ENDBRANCH   2   3
ENDBRANCH   1   2
BRANCH   1  15
ATOM     15  C   UNL     1      29.188  13.686 -16.920  1.00  0.00     0.000 C 
BRANCH  15  16
ATOM     16  C   UNL     1      29.875  13.273 -18.234  1.00  0.00     0.000 C 
BRANCH  16  17
ATOM     17  C   UNL     1      30.978  12.222 -18.015  1.00  0.00     0.000 C 
BRANCH  17  18
ATOM     18  C   UNL     1      30.722  10.931 -18.813  1.00  0.00    -0.000 C 
BRANCH  18  19
ATOM     19  C   UNL     1      31.022   9.641 -18.015  1.00  0.00    -0.000 C 
BRANCH  19  20
ATOM     20  C   UNL     1      30.818   8.349 -18.824  1.00  0.00    -0.000 C 
BRANCH  20  21
ATOM     21  C   UNL     1      29.663   7.489 -18.288  1.00  0.00    -0.000 C 
BRANCH  21  22
ATOM     22  C   UNL     1      30.141   6.350 -17.372  1.00  0.00    -0.000 C 
BRANCH  22  23
ATOM     23  C   UNL     1      30.268   6.760 -15.888  1.00  0.00    -0.000 C 
BRANCH  23  24
ATOM     24  C   UNL     1      28.896   6.923 -15.210  1.00  0.00    -0.000 C 
BRANCH  24  25
ATOM     25  C   UNL     1      28.691   5.937 -14.049  1.00  0.00    -0.003 C 
ATOM     26  C   UNL     1      27.270   5.979 -13.485  1.00  0.00     0.004 C 
ENDBRANCH  24  25
ENDBRANCH  23  24
ENDBRANCH  22  23
ENDBRANCH  21  22
ENDBRANCH  20  21
ENDBRANCH  19  20
ENDBRANCH  18  19
ENDBRANCH  17  18
ENDBRANCH  16  17
ENDBRANCH  15  16
ENDBRANCH   1  15
TORSDOF 22
ENDMDL
MODEL 4
REMARK VINA RESULT:    -4.027      2.891      5.842
REMARK INTER + INTRA:         -12.980
REMARK INTER:                  -9.401
REMARK INTRA:                  -3.579
REMARK UNBOUND:                -3.773
REMARK SMILES CCCCCCCCCCCCCCCCCCCCCCCC(=O)[O-]
REMARK SMILES IDX 13 1 14 2 15 3 16 4 17 5 18 6 19 7 20 8 21 9 22 10 23 11
REMARK SMILES IDX 24 12 25 13 26 14 12 15 11 16 10 17 9 18 8 19 7 20 6 21 5 22
REMARK SMILES IDX 4 23 3 24 2 25 1 26
REMARK H PARENT
REMARK Flexibility Score: inf
ROOT
ATOM      1  C   UNL     1      27.051  13.111 -12.104  1.00  0.00     0.000 C 
ENDROOT
BRANCH   1   2
ATOM      2  C   UNL     1      27.498  14.588 -12.084  1.00  0.00     0.000 C 
BRANCH   2   3
ATOM      3  C   UNL     1      28.512  14.987 -13.173  1.00  0.00     0.000 C 
BRANCH   3   4
ATOM      4  C   UNL     1      28.899  13.819 -14.095  1.00  0.00     0.000 C 
BRANCH   4   5
ATOM      5  C   UNL     1      30.246  13.178 -13.714  1.00  0.00     0.000 C 
BRANCH   5   6
ATOM      6  C   UNL     1      30.555  11.839 -14.409  1.00  0.00     0.000 C 
BRANCH   6   7
ATOM      7  C   UNL     1      29.289  11.031 -14.742  1.00  0.00     0.000 C 
BRANCH   7   8
ATOM      8  C   UNL     1      29.353  10.394 -16.140  1.00  0.00     0.000 C 
BRANCH   8   9
ATOM      9  C   UNL     1      30.664  10.727 -16.878  1.00  0.00     0.000 C 
BRANCH   9  10
ATOM     10  C   UNL     1      30.442  11.647 -18.088  1.00  0.00     0.006 C 
BRANCH  10  11
ATOM     11  C   UNL     1      30.819  13.107 -17.801  1.00  0.00     0.053 C 
BRANCH  11  12
ATOM     12  C   UNL     1      29.588  13.930 -17.584  1.00  0.00     0.041 C 
ATOM     13  O   UNL     1      28.456  13.378 -17.544  1.00  0.00    -0.550 OA
ATOM     14  O   UNL     1      29.685  15.311 -17.477  1.00  0.00    -0.550 OA
ENDBRANCH  11  12
ENDBRANCH  10  11
ENDBRANCH   9  10
ENDBRANCH   8   9
ENDBRANCH   7   8
ENDBRANCH   6   7
ENDBRANCH   5   6
ENDBRANCH   4   5
ENDBRANCH   3   4
ENDBRANCH   2   3
ENDBRANCH   1   2
BRANCH   1  15
ATOM     15  C   UNL     1      27.478  12.274 -10.880  1.00  0.00     0.000 C 
BRANCH  15  16
ATOM     16  C   UNL     1      28.423  11.103 -11.201  1.00  0.00     0.000 C 
BRANCH  16  17
ATOM     17  C   UNL     1      29.358  10.762 -10.026  1.00  0.00     0.000 C 
BRANCH  17  18
ATOM     18  C   UNL     1      30.099   9.429 -10.236  1.00  0.00    -0.000 C 
BRANCH  18  19
ATOM     19  C   UNL     1      30.556   9.201 -11.696  1.00  0.00    -0.000 C 
BRANCH  19  20
ATOM     20  C   UNL     1      30.174   7.820 -12.256  1.00  0.00    -0.000 C 
BRANCH  20  21
ATOM     21  C   UNL     1      28.928   7.869 -13.155  1.00  0.00    -0.000 C 
BRANCH  21  22
ATOM     22  C   UNL     1      28.451   6.474 -13.592  1.00  0.00    -0.000 C 
BRANCH  22  23
ATOM     23  C   UNL     1      28.411   6.285 -15.124  1.00  0.00    -0.000 C 
BRANCH  23  24
ATOM     24  C   UNL     1      29.721   6.730 -15.799  1.00  0.00    -0.000 C 
BRANCH  24  25
ATOM     25  C   UNL     1      29.834   6.236 -17.250  1.00  0.00    -0.003 C 
ATOM     26  C   UNL     1      29.797   7.378 -18.267  1.00  0.00     0.004 C 
ENDBRANCH  24  25
ENDBRANCH  23  24
ENDBRANCH  22  23
ENDBRANCH  21  22
ENDBRANCH  20  21
ENDBRANCH  19  20
ENDBRANCH  18  19
ENDBRANCH  17  18
ENDBRANCH  16  17
ENDBRANCH  15  16
ENDBRANCH   1  15
TORSDOF 22
ENDMDL
MODEL 5
REMARK VINA RESULT:    -4.003      1.182      1.702
REMARK INTER + INTRA:         -12.924
REMARK INTER:                  -9.590
REMARK INTRA:                  -3.334
REMARK UNBOUND:                -3.773
REMARK SMILES CCCCCCCCCCCCCCCCCCCCCCCC(=O)[O-]
REMARK SMILES IDX 13 1 14 2 15 3 16 4 17 5 18 6 19 7 20 8 21 9 22 10 23 11
REMARK SMILES IDX 24 12 25 13 26 14 12 15 11 16 10 17 9 18 8 19 7 20 6 21 5 22
REMARK SMILES IDX 4 23 3 24 2 25 1 26
REMARK H PARENT
REMARK Flexibility Score: inf
ROOT
ATOM      1  C   UNL     1      28.756  12.997 -14.902  1.00  0.00     0.000 C 
ENDROOT
BRANCH   1   2
ATOM      2  C   UNL     1      29.776  13.891 -15.641  1.00  0.00     0.000 C 
BRANCH   2   3
ATOM      3  C   UNL     1      29.763  13.779 -17.177  1.00  0.00     0.000 C 
BRANCH   3   4
ATOM      4  C   UNL     1      30.869  12.862 -17.726  1.00  0.00     0.000 C 
BRANCH   4   5
ATOM      5  C   UNL     1      30.336  11.800 -18.704  1.00  0.00     0.000 C 
BRANCH   5   6
ATOM      6  C   UNL     1      30.996  10.413 -18.591  1.00  0.00     0.000 C 
BRANCH   6   7
ATOM      7  C   UNL     1      30.349   9.530 -17.510  1.00  0.00     0.000 C 
BRANCH   7   8
ATOM      8  C   UNL     1      30.081   8.099 -18.008  1.00  0.00     0.000 C 
BRANCH   8   9
ATOM      9  C   UNL     1      28.716   7.561 -17.542  1.00  0.00     0.000 C 
BRANCH   9  10
ATOM     10  C   UNL     1      28.819   6.720 -16.260  1.00  0.00     0.006 C 
BRANCH  10  11
ATOM     11  C   UNL     1      27.710   5.665 -16.151  1.00  0.00     0.053 C 
BRANCH  11  12
ATOM     12  C   UNL     1      27.374   5.408 -14.715  1.00  0.00     0.041 C 
ATOM     13  O   UNL     1      27.679   6.253 -13.833  1.00  0.00    -0.550 OA
ATOM     14  O   UNL     1      26.769   4.214 -14.346  1.00  0.00    -0.550 OA
ENDBRANCH  11  12
ENDBRANCH  10  11
ENDBRANCH   9  10
ENDBRANCH   8   9
ENDBRANCH   7   8
ENDBRANCH   6   7
ENDBRANCH   5   6
ENDBRANCH   4   5
ENDBRANCH   3   4
ENDBRANCH   2   3
ENDBRANCH   1   2
BRANCH   1  15
ATOM     15  C   UNL     1      29.181  11.527 -14.712  1.00  0.00     0.000 C 
BRANCH  15  16
ATOM     16  C   UNL     1      30.670  11.327 -14.377  1.00  0.00     0.000 C 
BRANCH  16  17
ATOM     17  C   UNL     1      30.968   9.914 -13.843  1.00  0.00     0.000 C 
BRANCH  17  18
ATOM     18  C   UNL     1      29.693   9.180 -13.390  1.00  0.00    -0.000 C 
BRANCH  18  19
ATOM     19  C   UNL     1      29.879   8.363 -12.089  1.00  0.00    -0.000 C 
BRANCH  19  20
ATOM     20  C   UNL     1      30.797   9.042 -11.058  1.00  0.00    -0.000 C 
BRANCH  20  21
ATOM     21  C   UNL     1      30.040   9.507  -9.805  1.00  0.00    -0.000 C 
BRANCH  21  22
ATOM     22  C   UNL     1      30.296  10.985  -9.465  1.00  0.00    -0.000 C 
BRANCH  22  23
ATOM     23  C   UNL     1      30.575  11.866 -10.701  1.00  0.00    -0.000 C 
BRANCH  23  24
ATOM     24  C   UNL     1      29.317  12.609 -11.183  1.00  0.00    -0.000 C 
BRANCH  24  25
ATOM     25  C   UNL     1      28.028  11.807 -10.939  1.00  0.00    -0.003 C 
ATOM     26  C   UNL     1      26.766  12.657 -11.094  1.00  0.00     0.004 C 
ENDBRANCH  24  25
ENDBRANCH  23  24
ENDBRANCH  22  23
ENDBRANCH  21  22
ENDBRANCH  20  21
ENDBRANCH  19  20
ENDBRANCH  18  19
ENDBRANCH  17  18
ENDBRANCH  16  17
ENDBRANCH  15  16
ENDBRANCH   1  15
TORSDOF 22
ENDMDL
MODEL 6
REMARK VINA RESULT:    -3.944      1.561      4.675
REMARK INTER + INTRA:         -12.790
REMARK INTER:                  -9.611
REMARK INTRA:                  -3.180
REMARK UNBOUND:                -3.773
REMARK SMILES CCCCCCCCCCCCCCCCCCCCCCCC(=O)[O-]
REMARK SMILES IDX 13 1 14 2 15 3 16 4 17 5 18 6 19 7 20 8 21 9 22 10 23 11
REMARK SMILES IDX 24 12 25 13 26 14 12 15 11 16 10 17 9 18 8 19 7 20 6 21 5 22
REMARK SMILES IDX 4 23 3 24 2 25 1 26
REMARK H PARENT
REMARK Flexibility Score: inf
ROOT
ATOM      1  C   UNL     1      29.890   9.521 -16.784  1.00  0.00     0.000 C 
ENDROOT
BRANCH   1   2
ATOM      2  C   UNL     1      29.689  10.271 -15.449  1.00  0.00     0.000 C 
BRANCH   2   3
ATOM      3  C   UNL     1      30.970  10.845 -14.814  1.00  0.00     0.000 C 
BRANCH   3   4
ATOM      4  C   UNL     1      30.979  10.747 -13.279  1.00  0.00     0.000 C 
BRANCH   4   5
ATOM      5  C   UNL     1      29.651  10.220 -12.705  1.00  0.00     0.000 C 
BRANCH   5   6
ATOM      6  C   UNL     1      29.758   8.913 -11.898  1.00  0.00     0.000 C 
BRANCH   6   7
ATOM      7  C   UNL     1      30.622   7.848 -12.595  1.00  0.00     0.000 C 
BRANCH   7   8
ATOM      8  C   UNL     1      29.854   6.536 -12.832  1.00  0.00     0.000 C 
BRANCH   8   9
ATOM      9  C   UNL     1      28.954   6.600 -14.080  1.00  0.00     0.000 C 
BRANCH   9  10
ATOM     10  C   UNL     1      27.533   6.082 -13.809  1.00  0.00     0.006 C 
BRANCH  10  11
ATOM     11  C   UNL     1      27.134   4.928 -14.739  1.00  0.00     0.053 C 
BRANCH  11  12
ATOM     12  C   UNL     1      26.188   5.412 -15.793  1.00  0.00     0.041 C 
ATOM     13  O   UNL     1      24.946   5.398 -15.584  1.00  0.00    -0.550 OA
ATOM     14  O   UNL     1      26.674   5.831 -17.025  1.00  0.00    -0.550 OA
ENDBRANCH  11  12
ENDBRANCH  10  11
ENDBRANCH   9  10
ENDBRANCH   8   9
ENDBRANCH   7   8
ENDBRANCH   6   7
ENDBRANCH   5   6
ENDBRANCH   4   5
ENDBRANCH   3   4
ENDBRANCH   2   3
ENDBRANCH   1   2
BRANCH   1  15
ATOM     15  C   UNL     1      31.077  10.005 -17.642  1.00  0.00     0.000 C 
BRANCH  15  16
ATOM     16  C   UNL     1      30.717  11.071 -18.692  1.00  0.00     0.000 C 
BRANCH  16  17
ATOM     17  C   UNL     1      30.789  12.501 -18.128  1.00  0.00     0.000 C 
BRANCH  17  18
ATOM     18  C   UNL     1      29.436  13.231 -18.211  1.00  0.00    -0.000 C 
BRANCH  18  19
ATOM     19  C   UNL     1      28.848  13.600 -16.829  1.00  0.00    -0.000 C 
BRANCH  19  20
ATOM     20  C   UNL     1      29.906  14.033 -15.800  1.00  0.00    -0.000 C 
BRANCH  20  21
ATOM     21  C   UNL     1      29.286  14.570 -14.501  1.00  0.00    -0.000 C 
BRANCH  21  22
ATOM     22  C   UNL     1      28.455  13.514 -13.753  1.00  0.00    -0.000 C 
BRANCH  22  23
ATOM     23  C   UNL     1      28.346  13.774 -12.235  1.00  0.00    -0.000 C 
BRANCH  23  24
ATOM     24  C   UNL     1      27.340  12.828 -11.554  1.00  0.00    -0.000 C 
BRANCH  24  25
ATOM     25  C   UNL     1      26.196  13.584 -10.859  1.00  0.00    -0.003 C 
ATOM     26  C   UNL     1      25.398  14.463 -11.824  1.00  0.00     0.004 C 
ENDBRANCH  24  25
ENDBRANCH  23  24
ENDBRANCH  22  23
ENDBRANCH  21  22
ENDBRANCH  20  21
ENDBRANCH  19  20
ENDBRANCH  18  19
ENDBRANCH  17  18
ENDBRANCH  16  17
ENDBRANCH  15  16
ENDBRANCH   1  15
TORSDOF 22
ENDMDL
MODEL 7
REMARK VINA RESULT:    -3.925      1.996      5.593
REMARK INTER + INTRA:         -12.747
REMARK INTER:                  -9.607
REMARK INTRA:                  -3.140
REMARK UNBOUND:                -3.773
REMARK SMILES CCCCCCCCCCCCCCCCCCCCCCCC(=O)[O-]
REMARK SMILES IDX 13 1 14 2 15 3 16 4 17 5 18 6 19 7 20 8 21 9 22 10 23 11
REMARK SMILES IDX 24 12 25 13 26 14 12 15 11 16 10 17 9 18 8 19 7 20 6 21 5 22
REMARK SMILES IDX 4 23 3 24 2 25 1 26
REMARK H PARENT
REMARK Flexibility Score: inf
ROOT
ATOM      1  C   UNL     1      27.619  12.491 -11.310  1.00  0.00     0.000 C 
ENDROOT
BRANCH   1   2
ATOM      2  C   UNL     1      28.327  11.225 -10.780  1.00  0.00     0.000 C 
BRANCH   2   3
ATOM      3  C   UNL     1      29.801  11.412 -10.374  1.00  0.00     0.000 C 
BRANCH   3   4
ATOM      4  C   UNL     1      30.625  10.117 -10.476  1.00  0.00     0.000 C 
BRANCH   4   5
ATOM      5  C   UNL     1      29.939   9.037 -11.331  1.00  0.00     0.000 C 
BRANCH   5   6
ATOM      6  C   UNL     1      30.884   7.987 -11.944  1.00  0.00     0.000 C 
BRANCH   6   7
ATOM      7  C   UNL     1      30.363   7.418 -13.275  1.00  0.00     0.000 C 
BRANCH   7   8
ATOM      8  C   UNL     1      28.831   7.496 -13.384  1.00  0.00     0.000 C 
BRANCH   8   9
ATOM      9  C   UNL     1      28.250   6.399 -14.296  1.00  0.00     0.000 C 
BRANCH   9  10
ATOM     10  C   UNL     1      27.369   5.400 -13.530  1.00  0.00     0.006 C 
BRANCH  10  11
ATOM     11  C   UNL     1      25.903   5.847 -13.445  1.00  0.00     0.053 C 
BRANCH  11  12
ATOM     12  C   UNL     1      25.087   5.161 -14.496  1.00  0.00     0.041 C 
ATOM     13  O   UNL     1      23.883   5.483 -14.674  1.00  0.00    -0.550 OA
ATOM     14  O   UNL     1      25.644   4.133 -15.246  1.00  0.00    -0.550 OA
ENDBRANCH  11  12
ENDBRANCH  10  11
ENDBRANCH   9  10
ENDBRANCH   8   9
ENDBRANCH   7   8
ENDBRANCH   6   7
ENDBRANCH   5   6
ENDBRANCH   4   5
ENDBRANCH   3   4
ENDBRANCH   2   3
ENDBRANCH   1   2
BRANCH   1  15
ATOM     15  C   UNL     1      28.496  13.430 -12.163  1.00  0.00     0.000 C 
BRANCH  15  16
ATOM     16  C   UNL     1      28.500  13.113 -13.668  1.00  0.00     0.000 C 
BRANCH  16  17
ATOM     17  C   UNL     1      29.816  12.458 -14.128  1.00  0.00     0.000 C 
BRANCH  17  18
ATOM     18  C   UNL     1      29.654  10.951 -14.398  1.00  0.00    -0.000 C 
BRANCH  18  19
ATOM     19  C   UNL     1      29.248  10.625 -15.854  1.00  0.00    -0.000 C 
BRANCH  19  20
ATOM     20  C   UNL     1      30.443  10.438 -16.804  1.00  0.00    -0.000 C 
BRANCH  20  21
ATOM     21  C   UNL     1      30.362  11.341 -18.044  1.00  0.00    -0.000 C 
BRANCH  21  22
ATOM     22  C   UNL     1      30.640  12.820 -17.727  1.00  0.00    -0.000 C 
BRANCH  22  23
ATOM     23  C   UNL     1      29.380  13.711 -17.776  1.00  0.00    -0.000 C 
BRANCH  23  24
ATOM     24  C   UNL     1      29.680  15.165 -17.372  1.00  0.00    -0.000 C 
BRANCH  24  25
ATOM     25  C   UNL     1      30.909  15.283 -16.457  1.00  0.00    -0.003 C 
ATOM     26  C   UNL     1      30.583  15.934 -15.112  1.00  0.00     0.004 C 
ENDBRANCH  24  25
ENDBRANCH  23  24
ENDBRANCH  22  23
ENDBRANCH  21  22
ENDBRANCH  20  21
ENDBRANCH  19  20
ENDBRANCH  18  19
ENDBRANCH  17  18
ENDBRANCH  16  17
ENDBRANCH  15  16
ENDBRANCH   1  15
TORSDOF 22
ENDMDL
MODEL 8
REMARK VINA RESULT:    -3.915      1.529      5.205
REMARK INTER + INTRA:         -12.722
REMARK INTER:                  -9.235
REMARK INTRA:                  -3.487
REMARK UNBOUND:                -3.773
REMARK SMILES CCCCCCCCCCCCCCCCCCCCCCCC(=O)[O-]
REMARK SMILES IDX 13 1 14 2 15 3 16 4 17 5 18 6 19 7 20 8 21 9 22 10 23 11
REMARK SMILES IDX 24 12 25 13 26 14 12 15 11 16 10 17 9 18 8 19 7 20 6 21 5 22
REMARK SMILES IDX 4 23 3 24 2 25 1 26
REMARK H PARENT
REMARK Flexibility Score: inf
ROOT
ATOM      1  C   UNL     1      28.902  10.859 -10.138  1.00  0.00     0.000 C 
ENDROOT
BRANCH   1   2
ATOM      2  C   UNL     1      30.387  11.062 -10.508  1.00  0.00     0.000 C 
BRANCH   2   3
ATOM      3  C   UNL     1      31.042   9.900 -11.279  1.00  0.00     0.000 C 
BRANCH   3   4
ATOM      4  C   UNL     1      30.060   8.761 -11.604  1.00  0.00     0.000 C 
BRANCH   4   5
ATOM      5  C   UNL     1      30.753   7.530 -12.214  1.00  0.00     0.000 C 
BRANCH   5   6
ATOM      6  C   UNL     1      30.583   7.370 -13.737  1.00  0.00     0.000 C 
BRANCH   6   7
ATOM      7  C   UNL     1      29.111   7.422 -14.183  1.00  0.00     0.000 C 
BRANCH   7   8
ATOM      8  C   UNL     1      28.793   6.382 -15.270  1.00  0.00     0.000 C 
BRANCH   8   9
ATOM      9  C   UNL     1      29.421   6.742 -16.630  1.00  0.00     0.000 C 
BRANCH   9  10
ATOM     10  C   UNL     1      28.414   7.388 -17.593  1.00  0.00     0.006 C 
BRANCH  10  11
ATOM     11  C   UNL     1      27.133   6.558 -17.758  1.00  0.00     0.053 C 
BRANCH  11  12
ATOM     12  C   UNL     1      27.372   5.413 -18.691  1.00  0.00     0.041 C 
ATOM     13  O   UNL     1      27.799   5.625 -19.857  1.00  0.00    -0.550 OA
ATOM     14  O   UNL     1      27.074   4.117 -18.291  1.00  0.00    -0.550 OA
ENDBRANCH  11  12
ENDBRANCH  10  11
ENDBRANCH   9  10
ENDBRANCH   8   9
ENDBRANCH   7   8
ENDBRANCH   6   7
ENDBRANCH   5   6
ENDBRANCH   4   5
ENDBRANCH   3   4
ENDBRANCH   2   3
ENDBRANCH   1   2
BRANCH   1  15
ATOM     15  C   UNL     1      27.905  11.772 -10.881  1.00  0.00     0.000 C 
BRANCH  15  16
ATOM     16  C   UNL     1      28.549  12.955 -11.625  1.00  0.00     0.000 C 
BRANCH  16  17
ATOM     17  C   UNL     1      27.739  13.382 -12.863  1.00  0.00     0.000 C 
BRANCH  17  18
ATOM     18  C   UNL     1      28.537  13.215 -14.169  1.00  0.00    -0.000 C 
BRANCH  18  19
ATOM     19  C   UNL     1      29.850  12.417 -13.993  1.00  0.00    -0.000 C 
BRANCH  19  20
ATOM     20  C   UNL     1      29.792  10.994 -14.575  1.00  0.00    -0.000 C 
BRANCH  20  21
ATOM     21  C   UNL     1      29.210  10.958 -15.997  1.00  0.00    -0.000 C 
BRANCH  21  22
ATOM     22  C   UNL     1      30.223  10.471 -17.046  1.00  0.00    -0.000 C 
BRANCH  22  23
ATOM     23  C   UNL     1      30.816  11.606 -17.908  1.00  0.00    -0.000 C 
BRANCH  23  24
ATOM     24  C   UNL     1      29.998  12.905 -17.803  1.00  0.00    -0.000 C 
BRANCH  24  25
ATOM     25  C   UNL     1      30.810  14.068 -17.212  1.00  0.00    -0.003 C 
ATOM     26  C   UNL     1      29.946  15.288 -16.889  1.00  0.00     0.004 C 
ENDBRANCH  24  25
ENDBRANCH  23  24
ENDBRANCH  22  23
ENDBRANCH  21  22
ENDBRANCH  20  21
ENDBRANCH  19  20
ENDBRANCH  18  19
ENDBRANCH  17  18
ENDBRANCH  16  17
ENDBRANCH  15  16
ENDBRANCH   1  15
TORSDOF 22
ENDMDL
MODEL 9
REMARK VINA RESULT:    -3.882      1.538      3.056
REMARK INTER + INTRA:         -12.648
REMARK INTER:                  -9.441
REMARK INTRA:                  -3.208
REMARK UNBOUND:                -3.773
REMARK SMILES CCCCCCCCCCCCCCCCCCCCCCCC(=O)[O-]
REMARK SMILES IDX 13 1 14 2 15 3 16 4 17 5 18 6 19 7 20 8 21 9 22 10 23 11
REMARK SMILES IDX 24 12 25 13 26 14 12 15 11 16 10 17 9 18 8 19 7 20 6 21 5 22
REMARK SMILES IDX 4 23 3 24 2 25 1 26
REMARK H PARENT
REMARK Flexibility Score: inf
ROOT
ATOM      1  C   UNL     1      28.801  13.645 -17.103  1.00  0.00     0.000 C 
ENDROOT
BRANCH   1   2
ATOM      2  C   UNL     1      29.623  13.261 -18.351  1.00  0.00     0.000 C 
BRANCH   2   3
ATOM      3  C   UNL     1      30.838  12.350 -18.088  1.00  0.00     0.000 C 
BRANCH   3   4
ATOM      4  C   UNL     1      30.742  10.993 -18.806  1.00  0.00     0.000 C 
BRANCH   4   5
ATOM      5  C   UNL     1      31.032   9.802 -17.874  1.00  0.00     0.000 C 
BRANCH   5   6
ATOM      6  C   UNL     1      30.379   8.470 -18.289  1.00  0.00     0.000 C 
BRANCH   6   7
ATOM      7  C   UNL     1      29.875   7.652 -17.088  1.00  0.00     0.000 C 
BRANCH   7   8
ATOM      8  C   UNL     1      28.385   7.292 -17.211  1.00  0.00     0.000 C 
BRANCH   8   9
ATOM      9  C   UNL     1      28.073   5.886 -16.665  1.00  0.00     0.000 C 
BRANCH   9  10
ATOM     10  C   UNL     1      28.990   4.806 -17.258  1.00  0.00     0.006 C 
BRANCH  10  11
ATOM     11  C   UNL     1      28.249   3.854 -18.208  1.00  0.00     0.053 C 
BRANCH  11  12
ATOM     12  C   UNL     1      28.599   4.162 -19.630  1.00  0.00     0.041 C 
ATOM     13  O   UNL     1      28.576   5.350 -20.046  1.00  0.00    -0.550 OA
ATOM     14  O   UNL     1      28.901   3.130 -20.510  1.00  0.00    -0.550 OA
ENDBRANCH  11  12
ENDBRANCH  10  11
ENDBRANCH   9  10
ENDBRANCH   8   9
ENDBRANCH   7   8
ENDBRANCH   6   7
ENDBRANCH   5   6
ENDBRANCH   4   5
ENDBRANCH   3   4
ENDBRANCH   2   3
ENDBRANCH   1   2
BRANCH   1  15
ATOM     15  C   UNL     1      29.606  14.276 -15.948  1.00  0.00     0.000 C 
BRANCH  15  16
ATOM     16  C   UNL     1      29.406  13.600 -14.581  1.00  0.00     0.000 C 
BRANCH  16  17
ATOM     17  C   UNL     1      30.270  12.335 -14.419  1.00  0.00     0.000 C 
BRANCH  17  18
ATOM     18  C   UNL     1      29.454  11.043 -14.601  1.00  0.00    -0.000 C 
BRANCH  18  19
ATOM     19  C   UNL     1      30.201   9.770 -14.137  1.00  0.00    -0.000 C 
BRANCH  19  20
ATOM     20  C   UNL     1      29.286   8.716 -13.490  1.00  0.00    -0.000 C 
BRANCH  20  21
ATOM     21  C   UNL     1      29.754   8.307 -12.085  1.00  0.00    -0.000 C 
BRANCH  21  22
ATOM     22  C   UNL     1      30.578   9.401 -11.386  1.00  0.00    -0.000 C 
BRANCH  22  23
ATOM     23  C   UNL     1      29.779  10.202 -10.335  1.00  0.00    -0.000 C 
BRANCH  23  24
ATOM     24  C   UNL     1      29.409  11.610 -10.834  1.00  0.00    -0.000 C 
BRANCH  24  25
ATOM     25  C   UNL     1      27.925  11.729 -11.216  1.00  0.00    -0.003 C 
ATOM     26  C   UNL     1      27.466  13.181 -11.353  1.00  0.00     0.004 C 
ENDBRANCH  24  25
ENDBRANCH  23  24
ENDBRANCH  22  23
ENDBRANCH  21  22
ENDBRANCH  20  21
ENDBRANCH  19  20
ENDBRANCH  18  19
ENDBRANCH  17  18
ENDBRANCH  16  17
ENDBRANCH  15  16
ENDBRANCH   1  15
TORSDOF 22
ENDMDL
