MODEL 1
REMARK VINA RESULT:    -1.789      0.000      0.000
REMARK INTER + INTRA:          -1.789
REMARK INTER:                  -1.789
REMARK INTRA:                   0.000
REMARK UNBOUND:                 0.000
REMARK SMILES CC(=O)[O-]
REMARK SMILES IDX 1 1 2 2 3 3 4 4
REMARK H PARENT
REMARK Flexibility Score: inf
ROOT
ATOM      1  C   UNL     1      58.838  29.205  49.040  1.00  0.00     0.063 C 
ATOM      2  C   UNL     1      59.656  27.963  49.147  1.00  0.00     0.038 C 
ATOM      3  O   UNL     1      60.913  28.033  49.165  1.00  0.00    -0.550 OA
ATOM      4  O   UNL     1      59.033  26.728  49.281  1.00  0.00    -0.550 OA
ENDROOT
TORSDOF 0
ENDMDL
MODEL 2
REMARK VINA RESULT:    -1.752     14.684     15.057
REMARK INTER + INTRA:          -1.752
REMARK INTER:                  -1.752
REMARK INTRA:                   0.000
REMARK UNBOUND:                 0.000
REMARK SMILES CC(=O)[O-]
REMARK SMILES IDX 1 1 2 2 3 3 4 4
REMARK H PARENT
REMARK Flexibility Score: inf
ROOT
ATOM      1  C   UNL     1      62.602  35.924  61.108  1.00  0.00     0.063 C 
ATOM      2  C   UNL     1      63.891  35.285  61.499  1.00  0.00     0.038 C 
ATOM      3  O   UNL     1      64.129  34.092  61.175  1.00  0.00    -0.550 OA
ATOM      4  O   UNL     1      64.857  36.022  62.172  1.00  0.00    -0.550 OA
ENDROOT
TORSDOF 0
ENDMDL
MODEL 3
REMARK VINA RESULT:    -1.731      5.022      5.696
REMARK INTER + INTRA:          -1.731
REMARK INTER:                  -1.731
REMARK INTRA:                   0.000
REMARK UNBOUND:                 0.000
REMARK SMILES CC(=O)[O-]
REMARK SMILES IDX 1 1 2 2 3 3 4 4
REMARK H PARENT
REMARK Flexibility Score: inf
ROOT
ATOM      1  C   UNL     1      53.720  27.798  49.749  1.00  0.00     0.063 C 
ATOM      2  C   UNL     1      54.345  26.463  49.521  1.00  0.00     0.038 C 
ATOM      3  O   UNL     1      53.663  25.520  49.040  1.00  0.00    -0.550 OA
ATOM      4  O   UNL     1      55.695  26.271  49.787  1.00  0.00    -0.550 OA
ENDROOT
TORSDOF 0
ENDMDL
MODEL 4
REMARK VINA RESULT:    -1.707     12.994     13.077
REMARK INTER + INTRA:          -1.707
REMARK INTER:                  -1.707
REMARK INTRA:                   0.000
REMARK UNBOUND:                 0.000
REMARK SMILES CC(=O)[O-]
REMARK SMILES IDX 1 1 2 2 3 3 4 4
REMARK H PARENT
REMARK Flexibility Score: inf
ROOT
ATOM      1  C   UNL     1      61.051  31.126  61.740  1.00  0.00     0.063 C 
ATOM      2  C   UNL     1      62.227  30.209  61.766  1.00  0.00     0.038 C 
ATOM      3  O   UNL     1      63.395  30.680  61.791  1.00  0.00    -0.550 OA
ATOM      4  O   UNL     1      62.037  28.834  61.820  1.00  0.00    -0.550 OA
ENDROOT
TORSDOF 0
ENDMDL
MODEL 5
REMARK VINA RESULT:    -1.698      5.073      5.595
REMARK INTER + INTRA:          -1.698
REMARK INTER:                  -1.698
REMARK INTRA:                   0.000
REMARK UNBOUND:                 0.000
REMARK SMILES CC(=O)[O-]
REMARK SMILES IDX 1 1 2 2 3 3 4 4
REMARK H PARENT
REMARK Flexibility Score: inf
ROOT
ATOM      1  C   UNL     1      53.494  25.726  49.039  1.00  0.00     0.063 C 
ATOM      2  C   UNL     1      54.524  26.639  49.613  1.00  0.00     0.038 C 
ATOM      3  O   UNL     1      55.656  26.192  49.936  1.00  0.00    -0.550 OA
ATOM      4  O   UNL     1      54.257  27.996  49.741  1.00  0.00    -0.550 OA
ENDROOT
TORSDOF 0
ENDMDL
MODEL 6
REMARK VINA RESULT:    -1.617     17.702     18.211
REMARK INTER + INTRA:          -1.617
REMARK INTER:                  -1.617
REMARK INTRA:                   0.000
REMARK UNBOUND:                 0.000
REMARK SMILES CC(=O)[O-]
REMARK SMILES IDX 1 1 2 2 3 3 4 4
REMARK H PARENT
REMARK Flexibility Score: inf
ROOT
ATOM      1  C   UNL     1      72.902  31.326  60.448  1.00  0.00     0.063 C 
ATOM      2  C   UNL     1      72.299  30.864  61.731  1.00  0.00     0.038 C 
ATOM      3  O   UNL     1      71.120  30.426  61.753  1.00  0.00    -0.550 OA
ATOM      4  O   UNL     1      73.056  30.865  62.896  1.00  0.00    -0.550 OA
ENDROOT
TORSDOF 0
ENDMDL
MODEL 7
REMARK VINA RESULT:    -1.612     16.864     17.161
REMARK INTER + INTRA:          -1.612
REMARK INTER:                  -1.612
REMARK INTRA:                   0.000
REMARK UNBOUND:                 0.000
REMARK SMILES CC(=O)[O-]
REMARK SMILES IDX 1 1 2 2 3 3 4 4
REMARK H PARENT
REMARK Flexibility Score: inf
ROOT
ATOM      1  C   UNL     1      70.967  33.725  58.841  1.00  0.00     0.063 C 
ATOM      2  C   UNL     1      71.251  33.790  60.304  1.00  0.00     0.038 C 
ATOM      3  O   UNL     1      70.857  34.776  60.980  1.00  0.00    -0.550 OA
ATOM      4  O   UNL     1      71.903  32.738  60.934  1.00  0.00    -0.550 OA
ENDROOT
TORSDOF 0
ENDMDL
MODEL 8
REMARK VINA RESULT:    -1.593     10.028     10.408
REMARK INTER + INTRA:          -1.593
REMARK INTER:                  -1.593
REMARK INTRA:                   0.000
REMARK UNBOUND:                 0.000
REMARK SMILES CC(=O)[O-]
REMARK SMILES IDX 1 1 2 2 3 3 4 4
REMARK H PARENT
REMARK Flexibility Score: inf
ROOT
ATOM      1  C   UNL     1      58.129  16.875  48.237  1.00  0.00     0.063 C 
ATOM      2  C   UNL     1      58.171  17.820  49.390  1.00  0.00     0.038 C 
ATOM      3  O   UNL     1      59.258  18.360  49.725  1.00  0.00    -0.550 OA
ATOM      4  O   UNL     1      57.002  18.150  50.063  1.00  0.00    -0.550 OA
ENDROOT
TORSDOF 0
ENDMDL
MODEL 9
REMARK VINA RESULT:    -1.588      9.995     10.060
REMARK INTER + INTRA:          -1.588
REMARK INTER:                  -1.588
REMARK INTRA:                   0.000
REMARK UNBOUND:                 0.000
REMARK SMILES CC(=O)[O-]
REMARK SMILES IDX 1 1 2 2 3 3 4 4
REMARK H PARENT
REMARK Flexibility Score: inf
ROOT
ATOM      1  C   UNL     1      55.847  19.294  52.181  1.00  0.00     0.063 C 
ATOM      2  C   UNL     1      55.679  19.030  50.723  1.00  0.00     0.038 C 
ATOM      3  O   UNL     1      54.673  19.475  50.112  1.00  0.00    -0.550 OA
ATOM      4  O   UNL     1      56.660  18.338  50.023  1.00  0.00    -0.550 OA
ENDROOT
TORSDOF 0
ENDMDL
