MODEL 1
REMARK VINA RESULT:    17.038      0.000      0.000
REMARK INTER + INTRA:          22.314
REMARK INTER:                  22.516
REMARK INTRA:                  -0.202
REMARK UNBOUND:                -0.202
REMARK SMILES CC(C)=CCC[C@@H](C(=O)[O-])[C@H]1CC[C@]2(C)C3=C(CC[C@]12C)[C@@]1(C)CC[C@@H](O)C(C)(C)[C@@H]1CC3
REMARK SMILES IDX 6 1 7 2 8 3 9 4 10 5 11 6 12 7 20 8 13 9 14 10 19 11 21 12
REMARK SMILES IDX 15 13 16 14 18 15 17 16 33 17 22 18 32 19 31 20 24 21 23 22
REMARK SMILES IDX 28 23 25 24 26 25 29 26 30 27 27 28 5 30 4 31 2 32 1 33 3 34
REMARK H PARENT 27 29
REMARK Flexibility Score: inf
ROOT
ATOM      1  C   UNL     1      80.033  35.682  52.291  1.00  0.00     0.014 C 
ENDROOT
BRANCH   1   2
ATOM      2  C   UNL     1      79.056  34.512  51.996  1.00  0.00     0.039 C 
BRANCH   2   3
ATOM      3  C   UNL     1      79.708  33.155  52.163  1.00  0.00     0.045 C 
ATOM      4  O   UNL     1      79.034  32.105  51.979  1.00  0.00    -0.550 OA
ATOM      5  O   UNL     1      81.063  33.043  52.451  1.00  0.00    -0.550 OA
ENDBRANCH   2   3
BRANCH   2   6
ATOM      6  C   UNL     1      77.675  34.686  52.718  1.00  0.00     0.004 C 
ATOM      7  C   UNL     1      77.404  36.125  53.139  1.00  0.00     0.006 C 
ATOM      8  C   UNL     1      76.315  34.150  52.111  1.00  0.00    -0.020 C 
ATOM      9  C   UNL     1      75.963  36.115  53.600  1.00  0.00     0.012 C 
ATOM     10  C   UNL     1      75.207  35.203  52.608  1.00  0.00    -0.006 C 
ATOM     11  C   UNL     1      76.022  32.724  52.654  1.00  0.00     0.012 C 
ATOM     12  C   UNL     1      76.360  34.006  50.564  1.00  0.00     0.012 C 
ATOM     13  C   UNL     1      74.699  36.125  51.451  1.00  0.00     0.017 C 
ATOM     14  C   UNL     1      74.000  34.567  53.368  1.00  0.00    -0.064 C 
ATOM     15  C   UNL     1      75.508  32.732  54.087  1.00  0.00     0.032 C 
ATOM     16  C   UNL     1      74.189  33.471  54.174  1.00  0.00    -0.064 C 
ATOM     17  C   UNL     1      72.683  35.346  53.390  1.00  0.00     0.032 C 
ATOM     18  C   UNL     1      73.064  32.888  55.065  1.00  0.00    -0.008 C 
ATOM     19  C   UNL     1      71.541  34.732  54.202  1.00  0.00     0.009 C 
ATOM     20  C   UNL     1      72.089  34.053  55.463  1.00  0.00     0.007 C 
ATOM     21  C   UNL     1      73.663  32.301  56.380  1.00  0.00     0.014 C 
ATOM     22  C   UNL     1      72.412  31.749  54.235  1.00  0.00     0.016 C 
ATOM     23  C   UNL     1      71.009  33.750  56.580  1.00  0.00    -0.006 C 
ATOM     24  C   UNL     1      72.607  31.913  57.423  1.00  0.00     0.033 C 
ATOM     25  C   UNL     1      71.716  33.103  57.814  1.00  0.00     0.120 C 
ATOM     26  C   UNL     1      69.845  32.843  56.095  1.00  0.00     0.014 C 
ATOM     27  C   UNL     1      70.355  35.082  57.052  1.00  0.00     0.014 C 
BRANCH  25  28
ATOM     28  O   UNL     1      72.501  34.062  58.483  1.00  0.00    -0.393 OA
ATOM     29  H   UNL     1      73.140  34.431  57.818  1.00  0.00     0.210 HD
ENDBRANCH  25  28
ENDBRANCH   2   6
ENDBRANCH   1   2
BRANCH   1  30
ATOM     30  C   UNL     1      80.870  36.091  51.064  1.00  0.00     0.028 C 
BRANCH  30  31
ATOM     31  C   UNL     1      81.064  34.945  50.097  1.00  0.00    -0.028 C 
ATOM     32  C   UNL     1      80.447  34.879  48.901  1.00  0.00    -0.080 C 
ATOM     33  C   UNL     1      80.697  33.678  48.024  1.00  0.00     0.039 C 
ATOM     34  C   UNL     1      79.497  35.960  48.437  1.00  0.00     0.039 C 
ENDBRANCH  30  31
ENDBRANCH   1  30
TORSDOF 6
ENDMDL
MODEL 2
REMARK VINA RESULT:    17.954      1.378      2.243
REMARK INTER + INTRA:          23.525
REMARK INTER:                  21.523
REMARK INTRA:                   2.002
REMARK UNBOUND:                -0.202
REMARK SMILES CC(C)=CCC[C@@H](C(=O)[O-])[C@H]1CC[C@]2(C)C3=C(CC[C@]12C)[C@@]1(C)CC[C@@H](O)C(C)(C)[C@@H]1CC3
REMARK SMILES IDX 6 1 7 2 8 3 9 4 10 5 11 6 12 7 20 8 13 9 14 10 19 11 21 12
REMARK SMILES IDX 15 13 16 14 18 15 17 16 33 17 22 18 32 19 31 20 24 21 23 22
REMARK SMILES IDX 28 23 25 24 26 25 29 26 30 27 27 28 5 30 4 31 2 32 1 33 3 34
REMARK H PARENT 27 29
REMARK Flexibility Score: inf
ROOT
ATOM      1  C   UNL     1      79.702  33.151  51.994  1.00  0.00     0.014 C 
ENDROOT
BRANCH   1   2
ATOM      2  C   UNL     1      79.065  34.556  51.815  1.00  0.00     0.039 C 
BRANCH   2   3
ATOM      3  C   UNL     1      79.047  35.006  50.370  1.00  0.00     0.045 C 
ATOM      4  O   UNL     1      79.780  34.430  49.520  1.00  0.00    -0.550 OA
ATOM      5  O   UNL     1      78.182  36.006  49.943  1.00  0.00    -0.550 OA
ENDBRANCH   2   3
BRANCH   2   6
ATOM      6  C   UNL     1      77.701  34.698  52.578  1.00  0.00     0.004 C 
ATOM      7  C   UNL     1      77.425  36.125  53.035  1.00  0.00     0.006 C 
ATOM      8  C   UNL     1      76.332  34.158  51.997  1.00  0.00    -0.020 C 
ATOM      9  C   UNL     1      75.997  36.087  53.535  1.00  0.00     0.012 C 
ATOM     10  C   UNL     1      75.226  35.186  52.545  1.00  0.00    -0.006 C 
ATOM     11  C   UNL     1      76.071  32.717  52.519  1.00  0.00     0.012 C 
ATOM     12  C   UNL     1      76.337  34.044  50.448  1.00  0.00     0.012 C 
ATOM     13  C   UNL     1      74.675  36.124  51.422  1.00  0.00     0.017 C 
ATOM     14  C   UNL     1      74.048  34.520  53.325  1.00  0.00    -0.064 C 
ATOM     15  C   UNL     1      75.597  32.691  53.966  1.00  0.00     0.032 C 
ATOM     16  C   UNL     1      74.272  33.411  54.104  1.00  0.00    -0.064 C 
ATOM     17  C   UNL     1      72.722  35.282  53.399  1.00  0.00     0.032 C 
ATOM     18  C   UNL     1      73.179  32.796  55.013  1.00  0.00    -0.008 C 
ATOM     19  C   UNL     1      71.611  34.638  54.229  1.00  0.00     0.009 C 
ATOM     20  C   UNL     1      72.201  33.941  55.461  1.00  0.00     0.007 C 
ATOM     21  C   UNL     1      73.821  32.191  56.300  1.00  0.00     0.014 C 
ATOM     22  C   UNL     1      72.518  31.665  54.178  1.00  0.00     0.016 C 
ATOM     23  C   UNL     1      71.156  33.602  56.600  1.00  0.00    -0.006 C 
ATOM     24  C   UNL     1      72.799  31.769  57.363  1.00  0.00     0.033 C 
ATOM     25  C   UNL     1      71.904  32.940  57.802  1.00  0.00     0.120 C 
ATOM     26  C   UNL     1      69.990  32.691  56.130  1.00  0.00     0.014 C 
ATOM     27  C   UNL     1      70.499  34.916  57.116  1.00  0.00     0.014 C 
BRANCH  25  28
ATOM     28  O   UNL     1      72.696  33.896  58.468  1.00  0.00    -0.393 OA
ATOM     29  H   UNL     1      72.767  34.685  57.868  1.00  0.00     0.210 HD
ENDBRANCH  25  28
ENDBRANCH   2   6
ENDBRANCH   1   2
BRANCH   1  30
ATOM     30  C   UNL     1      81.241  33.181  51.968  1.00  0.00     0.028 C 
BRANCH  30  31
ATOM     31  C   UNL     1      81.822  33.772  53.233  1.00  0.00    -0.028 C 
ATOM     32  C   UNL     1      81.813  35.094  53.500  1.00  0.00    -0.080 C 
ATOM     33  C   UNL     1      82.440  35.576  54.783  1.00  0.00     0.039 C 
ATOM     34  C   UNL     1      81.219  36.093  52.534  1.00  0.00     0.039 C 
ENDBRANCH  30  31
ENDBRANCH   1  30
TORSDOF 6
ENDMDL
MODEL 3
REMARK VINA RESULT:    18.337      1.804      8.757
REMARK INTER + INTRA:          24.031
REMARK INTER:                  23.335
REMARK INTRA:                   0.696
REMARK UNBOUND:                -0.202
REMARK SMILES CC(C)=CCC[C@@H](C(=O)[O-])[C@H]1CC[C@]2(C)C3=C(CC[C@]12C)[C@@]1(C)CC[C@@H](O)C(C)(C)[C@@H]1CC3
REMARK SMILES IDX 6 1 7 2 8 3 9 4 10 5 11 6 12 7 20 8 13 9 14 10 19 11 21 12
REMARK SMILES IDX 15 13 16 14 18 15 17 16 33 17 22 18 32 19 31 20 24 21 23 22
REMARK SMILES IDX 28 23 25 24 26 25 29 26 30 27 27 28 5 30 4 31 2 32 1 33 3 34
REMARK H PARENT 27 29
REMARK Flexibility Score: inf
ROOT
ATOM      1  C   UNL     1      73.018  33.487  55.958  1.00  0.00     0.014 C 
ENDROOT
BRANCH   1   2
ATOM      2  C   UNL     1      72.518  33.223  54.512  1.00  0.00     0.039 C 
BRANCH   2   3
ATOM      3  C   UNL     1      71.177  33.869  54.234  1.00  0.00     0.045 C 
ATOM      4  O   UNL     1      70.870  34.205  53.058  1.00  0.00    -0.550 OA
ATOM      5  O   UNL     1      70.240  34.037  55.247  1.00  0.00    -0.550 OA
ENDBRANCH   2   3
BRANCH   2   6
ATOM      6  C   UNL     1      73.627  33.491  53.434  1.00  0.00     0.004 C 
ATOM      7  C   UNL     1      73.194  33.095  52.028  1.00  0.00     0.006 C 
ATOM      8  C   UNL     1      74.359  34.886  53.284  1.00  0.00    -0.020 C 
ATOM      9  C   UNL     1      74.291  33.631  51.135  1.00  0.00     0.012 C 
ATOM     10  C   UNL     1      74.672  35.012  51.714  1.00  0.00    -0.006 C 
ATOM     11  C   UNL     1      75.668  34.886  54.123  1.00  0.00     0.012 C 
ATOM     12  C   UNL     1      73.516  36.072  53.829  1.00  0.00     0.012 C 
ATOM     13  C   UNL     1      73.755  36.062  51.005  1.00  0.00     0.017 C 
ATOM     14  C   UNL     1      76.172  35.277  51.368  1.00  0.00    -0.064 C 
ATOM     15  C   UNL     1      76.792  34.098  53.462  1.00  0.00     0.032 C 
ATOM     16  C   UNL     1      77.168  34.722  52.134  1.00  0.00    -0.064 C 
ATOM     17  C   UNL     1      76.486  35.943  50.027  1.00  0.00     0.032 C 
ATOM     18  C   UNL     1      78.667  34.828  51.757  1.00  0.00    -0.008 C 
ATOM     19  C   UNL     1      77.966  36.125  49.685  1.00  0.00     0.009 C 
ATOM     20  C   UNL     1      78.781  34.929  50.194  1.00  0.00     0.007 C 
ATOM     21  C   UNL     1      79.430  33.543  52.206  1.00  0.00     0.014 C 
ATOM     22  C   UNL     1      79.214  36.058  52.531  1.00  0.00     0.016 C 
ATOM     23  C   UNL     1      80.224  34.786  49.558  1.00  0.00    -0.006 C 
ATOM     24  C   UNL     1      80.866  33.457  51.670  1.00  0.00     0.033 C 
ATOM     25  C   UNL     1      80.913  33.508  50.134  1.00  0.00     0.120 C 
ATOM     26  C   UNL     1      81.131  36.028  49.778  1.00  0.00     0.014 C 
ATOM     27  C   UNL     1      80.101  34.605  48.017  1.00  0.00     0.014 C 
BRANCH  25  28
ATOM     28  O   UNL     1      80.300  32.350  49.618  1.00  0.00    -0.393 OA
ATOM     29  H   UNL     1      79.700  32.641  48.881  1.00  0.00     0.210 HD
ENDBRANCH  25  28
ENDBRANCH   2   6
ENDBRANCH   1   2
BRANCH   1  30
ATOM     30  C   UNL     1      73.586  32.227  56.637  1.00  0.00     0.028 C 
BRANCH  30  31
ATOM     31  C   UNL     1      73.368  32.238  58.133  1.00  0.00    -0.028 C 
ATOM     32  C   UNL     1      72.150  32.347  58.700  1.00  0.00    -0.080 C 
ATOM     33  C   UNL     1      72.052  32.368  60.204  1.00  0.00     0.039 C 
ATOM     34  C   UNL     1      70.896  32.474  57.866  1.00  0.00     0.039 C 
ENDBRANCH  30  31
ENDBRANCH   1  30
TORSDOF 6
ENDMDL
