MODEL 1
REMARK VINA RESULT:    -5.032      0.000      0.000
REMARK INTER + INTRA:          -6.543
REMARK INTER:                  -6.062
REMARK INTRA:                  -0.482
REMARK UNBOUND:                -0.482
REMARK SMILES O=c1c(O)c(-c2ccc(O)cc2O)oc2cc(O)cc(O)c12
REMARK SMILES IDX 5 1 3 2 2 3 1 4 22 5 20 6 19 7 17 8 16 9 15 10 14 11 6 12
REMARK SMILES IDX 8 13 7 14 9 15 11 16 12 17 10 18 13 20 4 22 21 24 18 26
REMARK H PARENT 10 19 13 21 4 23 21 25 18 27
REMARK Flexibility Score: inf
ROOT
ATOM      1  C   UNL     1     118.610 105.868 122.208  1.00  0.00     0.184 A 
ATOM      2  C   UNL     1     119.070 104.869 121.334  1.00  0.00     0.208 A 
ATOM      3  C   UNL     1     120.439 104.812 121.025  1.00  0.00     0.238 A 
ATOM      4  O   UNL     1     120.836 103.951 120.196  1.00  0.00    -0.285 OA
ATOM      5  C   UNL     1     121.332 105.742 121.609  1.00  0.00     0.111 A 
ATOM      6  C   UNL     1     122.745 105.752 121.398  1.00  0.00     0.134 A 
ATOM      7  C   UNL     1     123.514 106.797 121.926  1.00  0.00     0.093 A 
ATOM      8  C   UNL     1     122.931 107.795 122.711  1.00  0.00     0.123 A 
ATOM      9  C   UNL     1     121.564 107.760 122.973  1.00  0.00     0.094 A 
ATOM     10  C   UNL     1     120.765 106.751 122.429  1.00  0.00     0.146 A 
ATOM     11  O   UNL     1     119.463 106.763 122.693  1.00  0.00    -0.451 OA
ENDROOT
BRANCH   1  12
ATOM     12  C   UNL     1     117.185 105.970 122.596  1.00  0.00     0.063 A 
ATOM     13  C   UNL     1     115.315 105.237 123.972  1.00  0.00     0.047 A 
ATOM     14  C   UNL     1     116.653 105.123 123.585  1.00  0.00     0.020 A 
ATOM     15  C   UNL     1     114.493 106.203 123.386  1.00  0.00     0.119 A 
ATOM     16  C   UNL     1     115.015 107.060 122.410  1.00  0.00     0.093 A 
ATOM     17  C   UNL     1     116.357 106.952 122.014  1.00  0.00     0.130 A 
BRANCH  15  18
ATOM     18  O   UNL     1     113.161 106.303 123.783  1.00  0.00    -0.508 OA
ATOM     19  H   UNL     1     112.580 107.083 123.494  1.00  0.00     0.293 HD
ENDBRANCH  15  18
BRANCH  17  20
ATOM     20  O   UNL     1     116.862 107.808 121.035  1.00  0.00    -0.507 OA
ATOM     21  H   UNL     1     117.016 108.792 121.218  1.00  0.00     0.293 HD
ENDBRANCH  17  20
ENDBRANCH   1  12
BRANCH   2  22
ATOM     22  O   UNL     1     118.168 103.970 120.759  1.00  0.00    -0.502 OA
ATOM     23  H   UNL     1     117.443 104.264 120.116  1.00  0.00     0.293 HD
ENDBRANCH   2  22
BRANCH   6  24
ATOM     24  O   UNL     1     123.438 104.755 120.706  1.00  0.00    -0.507 OA
ATOM     25  H   UNL     1     123.941 103.996 121.142  1.00  0.00     0.293 HD
ENDBRANCH   6  24
BRANCH   8  26
ATOM     26  O   UNL     1     123.707 108.821 123.246  1.00  0.00    -0.508 OA
ATOM     27  H   UNL     1     123.355 109.425 123.980  1.00  0.00     0.293 HD
ENDBRANCH   8  26
TORSDOF 6
ENDMDL
MODEL 2
REMARK VINA RESULT:    -5.002      0.811      1.478
REMARK INTER + INTRA:          -6.508
REMARK INTER:                  -6.114
REMARK INTRA:                  -0.393
REMARK UNBOUND:                -0.482
REMARK SMILES O=c1c(O)c(-c2ccc(O)cc2O)oc2cc(O)cc(O)c12
REMARK SMILES IDX 5 1 3 2 2 3 1 4 22 5 20 6 19 7 17 8 16 9 15 10 14 11 6 12
REMARK SMILES IDX 8 13 7 14 9 15 11 16 12 17 10 18 13 20 4 22 21 24 18 26
REMARK H PARENT 10 19 13 21 4 23 21 25 18 27
REMARK Flexibility Score: inf
ROOT
ATOM      1  C   UNL     1     118.792 106.171 122.097  1.00  0.00     0.184 A 
ATOM      2  C   UNL     1     119.293 105.237 121.175  1.00  0.00     0.208 A 
ATOM      3  C   UNL     1     120.673 105.210 120.915  1.00  0.00     0.238 A 
ATOM      4  O   UNL     1     121.108 104.410 120.045  1.00  0.00    -0.285 OA
ATOM      5  C   UNL     1     121.535 106.102 121.595  1.00  0.00     0.111 A 
ATOM      6  C   UNL     1     122.954 106.136 121.439  1.00  0.00     0.134 A 
ATOM      7  C   UNL     1     123.694 107.147 122.065  1.00  0.00     0.093 A 
ATOM      8  C   UNL     1     123.074 108.084 122.895  1.00  0.00     0.123 A 
ATOM      9  C   UNL     1     121.698 108.024 123.101  1.00  0.00     0.094 A 
ATOM     10  C   UNL     1     120.929 107.050 122.460  1.00  0.00     0.146 A 
ATOM     11  O   UNL     1     119.619 107.035 122.674  1.00  0.00    -0.451 OA
ENDROOT
BRANCH   1  12
ATOM     12  C   UNL     1     117.352 106.237 122.438  1.00  0.00     0.063 A 
ATOM     13  C   UNL     1     115.132 107.155 122.046  1.00  0.00     0.047 A 
ATOM     14  C   UNL     1     116.495 107.111 121.744  1.00  0.00     0.020 A 
ATOM     15  C   UNL     1     114.603 106.323 123.035  1.00  0.00     0.119 A 
ATOM     16  C   UNL     1     115.443 105.439 123.723  1.00  0.00     0.093 A 
ATOM     17  C   UNL     1     116.815 105.389 123.427  1.00  0.00     0.130 A 
BRANCH  15  18
ATOM     18  O   UNL     1     113.241 106.378 123.324  1.00  0.00    -0.508 OA
ATOM     19  H   UNL     1     112.545 106.435 122.588  1.00  0.00     0.293 HD
ENDBRANCH  15  18
BRANCH  17  20
ATOM     20  O   UNL     1     117.642 104.509 124.125  1.00  0.00    -0.507 OA
ATOM     21  H   UNL     1     118.353 103.962 123.655  1.00  0.00     0.293 HD
ENDBRANCH  17  20
ENDBRANCH   1  12
BRANCH   2  22
ATOM     22  O   UNL     1     118.420 104.375 120.506  1.00  0.00    -0.502 OA
ATOM     23  H   UNL     1     117.514 104.673 120.168  1.00  0.00     0.293 HD
ENDBRANCH   2  22
BRANCH   6  24
ATOM     24  O   UNL     1     123.681 105.193 120.707  1.00  0.00    -0.507 OA
ATOM     25  H   UNL     1     123.974 104.293 121.058  1.00  0.00     0.293 HD
ENDBRANCH   6  24
BRANCH   8  26
ATOM     26  O   UNL     1     123.820 109.076 123.528  1.00  0.00    -0.508 OA
ATOM     27  H   UNL     1     124.165 109.884 123.023  1.00  0.00     0.293 HD
ENDBRANCH   8  26
TORSDOF 6
ENDMDL
MODEL 3
REMARK VINA RESULT:    -4.504     15.874     18.353
REMARK INTER + INTRA:          -5.907
REMARK INTER:                  -5.492
REMARK INTRA:                  -0.415
REMARK UNBOUND:                -0.482
REMARK SMILES O=c1c(O)c(-c2ccc(O)cc2O)oc2cc(O)cc(O)c12
REMARK SMILES IDX 5 1 3 2 2 3 1 4 22 5 20 6 19 7 17 8 16 9 15 10 14 11 6 12
REMARK SMILES IDX 8 13 7 14 9 15 11 16 12 17 10 18 13 20 4 22 21 24 18 26
REMARK H PARENT 10 19 13 21 4 23 21 25 18 27
REMARK Flexibility Score: inf
ROOT
ATOM      1  C   UNL     1     126.192 115.952 109.495  1.00  0.00     0.184 A 
ATOM      2  C   UNL     1     126.224 114.700 108.860  1.00  0.00     0.208 A 
ATOM      3  C   UNL     1     125.035 113.961 108.752  1.00  0.00     0.238 A 
ATOM      4  O   UNL     1     125.082 112.814 108.233  1.00  0.00    -0.285 OA
ATOM      5  C   UNL     1     123.826 114.493 109.260  1.00  0.00     0.111 A 
ATOM      6  C   UNL     1     122.555 113.849 109.169  1.00  0.00     0.134 A 
ATOM      7  C   UNL     1     121.449 114.409 109.821  1.00  0.00     0.093 A 
ATOM      8  C   UNL     1     121.555 115.623 110.504  1.00  0.00     0.123 A 
ATOM      9  C   UNL     1     122.777 116.289 110.548  1.00  0.00     0.094 A 
ATOM     10  C   UNL     1     123.906 115.737 109.939  1.00  0.00     0.146 A 
ATOM     11  O   UNL     1     125.055 116.398 110.016  1.00  0.00    -0.451 OA
ENDROOT
BRANCH   1  12
ATOM     12  C   UNL     1     127.403 116.795 109.623  1.00  0.00     0.063 A 
ATOM     13  C   UNL     1     129.597 117.204 110.596  1.00  0.00     0.047 A 
ATOM     14  C   UNL     1     128.442 116.424 110.495  1.00  0.00     0.020 A 
ATOM     15  C   UNL     1     129.736 118.358 109.822  1.00  0.00     0.119 A 
ATOM     16  C   UNL     1     128.715 118.731 108.939  1.00  0.00     0.093 A 
ATOM     17  C   UNL     1     127.551 117.954 108.833  1.00  0.00     0.130 A 
BRANCH  15  18
ATOM     18  O   UNL     1     130.894 119.125 109.934  1.00  0.00    -0.508 OA
ATOM     19  H   UNL     1     130.970 119.873 110.614  1.00  0.00     0.293 HD
ENDBRANCH  15  18
BRANCH  17  20
ATOM     20  O   UNL     1     126.538 118.340 107.955  1.00  0.00    -0.507 OA
ATOM     21  H   UNL     1     125.824 119.006 108.226  1.00  0.00     0.293 HD
ENDBRANCH  17  20
ENDBRANCH   1  12
BRANCH   2  22
ATOM     22  O   UNL     1     127.432 114.189 108.377  1.00  0.00    -0.502 OA
ATOM     23  H   UNL     1     128.267 114.756 108.294  1.00  0.00     0.293 HD
ENDBRANCH   2  22
BRANCH   6  24
ATOM     24  O   UNL     1     122.322 112.682 108.435  1.00  0.00    -0.507 OA
ATOM     25  H   UNL     1     121.412 112.278 108.271  1.00  0.00     0.293 HD
ENDBRANCH   6  24
BRANCH   8  26
ATOM     26  O   UNL     1     120.445 116.181 111.135  1.00  0.00    -0.508 OA
ATOM     27  H   UNL     1     119.753 116.711 110.620  1.00  0.00     0.293 HD
ENDBRANCH   8  26
TORSDOF 6
ENDMDL
MODEL 4
REMARK VINA RESULT:    -4.437     14.871     17.370
REMARK INTER + INTRA:          -5.826
REMARK INTER:                  -5.352
REMARK INTRA:                  -0.475
REMARK UNBOUND:                -0.482
REMARK SMILES O=c1c(O)c(-c2ccc(O)cc2O)oc2cc(O)cc(O)c12
REMARK SMILES IDX 5 1 3 2 2 3 1 4 22 5 20 6 19 7 17 8 16 9 15 10 14 11 6 12
REMARK SMILES IDX 8 13 7 14 9 15 11 16 12 17 10 18 13 20 4 22 21 24 18 26
REMARK H PARENT 10 19 13 21 4 23 21 25 18 27
REMARK Flexibility Score: inf
ROOT
ATOM      1  C   UNL     1     125.968 114.573 109.473  1.00  0.00     0.184 A 
ATOM      2  C   UNL     1     124.971 114.609 108.484  1.00  0.00     0.208 A 
ATOM      3  C   UNL     1     124.114 113.505 108.341  1.00  0.00     0.238 A 
ATOM      4  O   UNL     1     123.260 113.520 107.416  1.00  0.00    -0.285 OA
ATOM      5  C   UNL     1     124.252 112.390 109.201  1.00  0.00     0.111 A 
ATOM      6  C   UNL     1     123.414 111.234 109.171  1.00  0.00     0.134 A 
ATOM      7  C   UNL     1     123.723 110.136 109.983  1.00  0.00     0.093 A 
ATOM      8  C   UNL     1     124.802 110.177 110.871  1.00  0.00     0.123 A 
ATOM      9  C   UNL     1     125.590 111.323 110.950  1.00  0.00     0.094 A 
ATOM     10  C   UNL     1     125.328 112.420 110.126  1.00  0.00     0.146 A 
ATOM     11  O   UNL     1     126.112 113.487 110.225  1.00  0.00    -0.451 OA
ENDROOT
BRANCH   1  12
ATOM     12  C   UNL     1     126.889 115.711 109.695  1.00  0.00     0.063 A 
ATOM     13  C   UNL     1     127.364 117.874 110.706  1.00  0.00     0.047 A 
ATOM     14  C   UNL     1     126.487 116.812 110.473  1.00  0.00     0.020 A 
ATOM     15  C   UNL     1     128.657 117.848 110.177  1.00  0.00     0.119 A 
ATOM     16  C   UNL     1     129.073 116.752 109.412  1.00  0.00     0.093 A 
ATOM     17  C   UNL     1     128.198 115.681 109.171  1.00  0.00     0.130 A 
BRANCH  15  18
ATOM     18  O   UNL     1     129.520 118.915 110.419  1.00  0.00    -0.508 OA
ATOM     19  H   UNL     1     130.196 118.888 111.173  1.00  0.00     0.293 HD
ENDBRANCH  15  18
BRANCH  17  20
ATOM     20  O   UNL     1     128.623 114.598 108.402  1.00  0.00    -0.507 OA
ATOM     21  H   UNL     1     129.432 114.660 107.797  1.00  0.00     0.293 HD
ENDBRANCH  17  20
ENDBRANCH   1  12
BRANCH   2  22
ATOM     22  O   UNL     1     124.862 115.716 107.638  1.00  0.00    -0.502 OA
ATOM     23  H   UNL     1     124.062 115.862 107.035  1.00  0.00     0.293 HD
ENDBRANCH   2  22
BRANCH   6  24
ATOM     24  O   UNL     1     122.261 111.126 108.389  1.00  0.00    -0.507 OA
ATOM     25  H   UNL     1     122.064 110.366 107.755  1.00  0.00     0.293 HD
ENDBRANCH   6  24
BRANCH   8  26
ATOM     26  O   UNL     1     125.092 109.086 111.687  1.00  0.00    -0.508 OA
ATOM     27  H   UNL     1     125.568 109.199 112.574  1.00  0.00     0.293 HD
ENDBRANCH   8  26
TORSDOF 6
ENDMDL
MODEL 5
REMARK VINA RESULT:    -4.369      2.693      4.292
REMARK INTER + INTRA:          -5.744
REMARK INTER:                  -5.488
REMARK INTRA:                  -0.256
REMARK UNBOUND:                -0.482
REMARK SMILES O=c1c(O)c(-c2ccc(O)cc2O)oc2cc(O)cc(O)c12
REMARK SMILES IDX 5 1 3 2 2 3 1 4 22 5 20 6 19 7 17 8 16 9 15 10 14 11 6 12
REMARK SMILES IDX 8 13 7 14 9 15 11 16 12 17 10 18 13 20 4 22 21 24 18 26
REMARK H PARENT 10 19 13 21 4 23 21 25 18 27
REMARK Flexibility Score: inf
ROOT
ATOM      1  C   UNL     1     120.277 106.534 121.888  1.00  0.00     0.184 A 
ATOM      2  C   UNL     1     119.424 107.570 121.473  1.00  0.00     0.208 A 
ATOM      3  C   UNL     1     119.926 108.880 121.407  1.00  0.00     0.238 A 
ATOM      4  O   UNL     1     119.141 109.813 121.090  1.00  0.00    -0.285 OA
ATOM      5  C   UNL     1     121.279 109.133 121.735  1.00  0.00     0.111 A 
ATOM      6  C   UNL     1     121.905 110.414 121.665  1.00  0.00     0.134 A 
ATOM      7  C   UNL     1     123.215 110.570 122.137  1.00  0.00     0.093 A 
ATOM      8  C   UNL     1     123.943 109.477 122.615  1.00  0.00     0.123 A 
ATOM      9  C   UNL     1     123.362 108.212 122.632  1.00  0.00     0.094 A 
ATOM     10  C   UNL     1     122.044 108.032 122.202  1.00  0.00     0.146 A 
ATOM     11  O   UNL     1     121.525 106.811 122.247  1.00  0.00    -0.451 OA
ENDROOT
BRANCH   1  12
ATOM     12  C   UNL     1     119.820 105.127 121.956  1.00  0.00     0.063 A 
ATOM     13  C   UNL     1     119.982 102.817 121.205  1.00  0.00     0.047 A 
ATOM     14  C   UNL     1     120.392 104.149 121.122  1.00  0.00     0.020 A 
ATOM     15  C   UNL     1     119.003 102.438 122.127  1.00  0.00     0.119 A 
ATOM     16  C   UNL     1     118.435 103.399 122.972  1.00  0.00     0.093 A 
ATOM     17  C   UNL     1     118.841 104.741 122.895  1.00  0.00     0.130 A 
BRANCH  15  18
ATOM     18  O   UNL     1     118.604 101.105 122.198  1.00  0.00    -0.508 OA
ATOM     19  H   UNL     1     118.584 100.604 123.079  1.00  0.00     0.293 HD
ENDBRANCH  15  18
BRANCH  17  20
ATOM     20  O   UNL     1     118.262 105.689 123.738  1.00  0.00    -0.507 OA
ATOM     21  H   UNL     1     117.834 105.428 124.617  1.00  0.00     0.293 HD
ENDBRANCH  17  20
ENDBRANCH   1  12
BRANCH   2  22
ATOM     22  O   UNL     1     118.088 107.298 121.167  1.00  0.00    -0.502 OA
ATOM     23  H   UNL     1     117.668 107.562 120.284  1.00  0.00     0.293 HD
ENDBRANCH   2  22
BRANCH   6  24
ATOM     24  O   UNL     1     121.299 111.550 121.121  1.00  0.00    -0.507 OA
ATOM     25  H   UNL     1     121.759 112.215 120.517  1.00  0.00     0.293 HD
ENDBRANCH   6  24
BRANCH   8  26
ATOM     26  O   UNL     1     125.251 109.639 123.066  1.00  0.00    -0.508 OA
ATOM     27  H   UNL     1     125.701 108.941 123.647  1.00  0.00     0.293 HD
ENDBRANCH   8  26
TORSDOF 6
ENDMDL
MODEL 6
REMARK VINA RESULT:    -4.313     15.734     18.348
REMARK INTER + INTRA:          -5.677
REMARK INTER:                  -5.366
REMARK INTRA:                  -0.311
REMARK UNBOUND:                -0.482
REMARK SMILES O=c1c(O)c(-c2ccc(O)cc2O)oc2cc(O)cc(O)c12
REMARK SMILES IDX 5 1 3 2 2 3 1 4 22 5 20 6 19 7 17 8 16 9 15 10 14 11 6 12
REMARK SMILES IDX 8 13 7 14 9 15 11 16 12 17 10 18 13 20 4 22 21 24 18 26
REMARK H PARENT 10 19 13 21 4 23 21 25 18 27
REMARK Flexibility Score: inf
ROOT
ATOM      1  C   UNL     1     126.213 115.890 109.615  1.00  0.00     0.184 A 
ATOM      2  C   UNL     1     124.948 116.333 110.034  1.00  0.00     0.208 A 
ATOM      3  C   UNL     1     123.852 115.459 109.934  1.00  0.00     0.238 A 
ATOM      4  O   UNL     1     122.711 115.882 110.257  1.00  0.00    -0.285 OA
ATOM      5  C   UNL     1     124.041 114.148 109.436  1.00  0.00     0.111 A 
ATOM      6  C   UNL     1     123.010 113.165 109.328  1.00  0.00     0.134 A 
ATOM      7  C   UNL     1     123.284 111.943 108.702  1.00  0.00     0.093 A 
ATOM      8  C   UNL     1     124.568 111.643 108.238  1.00  0.00     0.123 A 
ATOM      9  C   UNL     1     125.594 112.572 108.392  1.00  0.00     0.094 A 
ATOM     10  C   UNL     1     125.343 113.814 108.980  1.00  0.00     0.146 A 
ATOM     11  O   UNL     1     126.347 114.674 109.096  1.00  0.00    -0.451 OA
ENDROOT
BRANCH   1  12
ATOM     12  C   UNL     1     127.415 116.749 109.716  1.00  0.00     0.063 A 
ATOM     13  C   UNL     1     129.594 117.223 110.691  1.00  0.00     0.047 A 
ATOM     14  C   UNL     1     128.448 116.429 110.615  1.00  0.00     0.020 A 
ATOM     15  C   UNL     1     129.731 118.342 109.866  1.00  0.00     0.119 A 
ATOM     16  C   UNL     1     128.715 118.664 108.958  1.00  0.00     0.093 A 
ATOM     17  C   UNL     1     127.559 117.872 108.875  1.00  0.00     0.130 A 
BRANCH  15  18
ATOM     18  O   UNL     1     130.880 119.125 109.954  1.00  0.00    -0.508 OA
ATOM     19  H   UNL     1     131.005 119.949 109.377  1.00  0.00     0.293 HD
ENDBRANCH  15  18
BRANCH  17  20
ATOM     20  O   UNL     1     126.552 118.208 107.970  1.00  0.00    -0.507 OA
ATOM     21  H   UNL     1     126.237 117.558 107.260  1.00  0.00     0.293 HD
ENDBRANCH  17  20
ENDBRANCH   1  12
BRANCH   2  22
ATOM     22  O   UNL     1     124.783 117.637 110.510  1.00  0.00    -0.502 OA
ATOM     23  H   UNL     1     124.013 117.903 111.111  1.00  0.00     0.293 HD
ENDBRANCH   2  22
BRANCH   6  24
ATOM     24  O   UNL     1     121.720 113.329 109.840  1.00  0.00    -0.507 OA
ATOM     25  H   UNL     1     121.105 114.097 109.615  1.00  0.00     0.293 HD
ENDBRANCH   6  24
BRANCH   8  26
ATOM     26  O   UNL     1     124.835 110.418 107.631  1.00  0.00    -0.508 OA
ATOM     27  H   UNL     1     125.520 109.776 108.012  1.00  0.00     0.293 HD
ENDBRANCH   8  26
TORSDOF 6
ENDMDL
MODEL 7
REMARK VINA RESULT:    -4.304     15.348     17.083
REMARK INTER + INTRA:          -5.667
REMARK INTER:                  -5.233
REMARK INTRA:                  -0.434
REMARK UNBOUND:                -0.482
REMARK SMILES O=c1c(O)c(-c2ccc(O)cc2O)oc2cc(O)cc(O)c12
REMARK SMILES IDX 5 1 3 2 2 3 1 4 22 5 20 6 19 7 17 8 16 9 15 10 14 11 6 12
REMARK SMILES IDX 8 13 7 14 9 15 11 16 12 17 10 18 13 20 4 22 21 24 18 26
REMARK H PARENT 10 19 13 21 4 23 21 25 18 27
REMARK Flexibility Score: inf
ROOT
ATOM      1  C   UNL     1     125.214 114.060 109.340  1.00  0.00     0.184 A 
ATOM      2  C   UNL     1     126.336 114.845 109.029  1.00  0.00     0.208 A 
ATOM      3  C   UNL     1     126.305 116.220 109.316  1.00  0.00     0.238 A 
ATOM      4  O   UNL     1     127.292 116.929 108.983  1.00  0.00    -0.285 OA
ATOM      5  C   UNL     1     125.161 116.786 109.927  1.00  0.00     0.111 A 
ATOM      6  C   UNL     1     125.036 118.160 110.298  1.00  0.00     0.134 A 
ATOM      7  C   UNL     1     123.811 118.636 110.780  1.00  0.00     0.093 A 
ATOM      8  C   UNL     1     122.726 117.775 110.964  1.00  0.00     0.123 A 
ATOM      9  C   UNL     1     122.856 116.422 110.661  1.00  0.00     0.094 A 
ATOM     10  C   UNL     1     124.055 115.925 110.145  1.00  0.00     0.146 A 
ATOM     11  O   UNL     1     124.133 114.631 109.858  1.00  0.00    -0.451 OA
ENDROOT
BRANCH   1  12
ATOM     12  C   UNL     1     125.188 112.600 109.088  1.00  0.00     0.063 A 
ATOM     13  C   UNL     1     126.008 110.361 109.574  1.00  0.00     0.047 A 
ATOM     14  C   UNL     1     126.050 111.740 109.791  1.00  0.00     0.020 A 
ATOM     15  C   UNL     1     125.099 109.819 108.662  1.00  0.00     0.119 A 
ATOM     16  C   UNL     1     124.227 110.664 107.965  1.00  0.00     0.093 A 
ATOM     17  C   UNL     1     124.263 112.052 108.176  1.00  0.00     0.130 A 
BRANCH  15  18
ATOM     18  O   UNL     1     125.069 108.441 108.457  1.00  0.00    -0.508 OA
ATOM     19  H   UNL     1     125.581 108.008 107.696  1.00  0.00     0.293 HD
ENDBRANCH  15  18
BRANCH  17  20
ATOM     20  O   UNL     1     123.393 112.883 107.470  1.00  0.00    -0.507 OA
ATOM     21  H   UNL     1     122.766 113.521 107.944  1.00  0.00     0.293 HD
ENDBRANCH  17  20
ENDBRANCH   1  12
BRANCH   2  22
ATOM     22  O   UNL     1     127.449 114.266 108.414  1.00  0.00    -0.502 OA
ATOM     23  H   UNL     1     128.181 113.803 108.939  1.00  0.00     0.293 HD
ENDBRANCH   2  22
BRANCH   6  24
ATOM     24  O   UNL     1     126.085 119.082 110.239  1.00  0.00    -0.507 OA
ATOM     25  H   UNL     1     126.071 119.996 110.667  1.00  0.00     0.293 HD
ENDBRANCH   6  24
BRANCH   8  26
ATOM     26  O   UNL     1     121.515 118.255 111.459  1.00  0.00    -0.508 OA
ATOM     27  H   UNL     1     120.897 117.668 112.008  1.00  0.00     0.293 HD
ENDBRANCH   8  26
TORSDOF 6
ENDMDL
MODEL 8
REMARK VINA RESULT:    -4.291      1.569      6.285
REMARK INTER + INTRA:          -5.650
REMARK INTER:                  -5.384
REMARK INTRA:                  -0.266
REMARK UNBOUND:                -0.482
REMARK SMILES O=c1c(O)c(-c2ccc(O)cc2O)oc2cc(O)cc(O)c12
REMARK SMILES IDX 5 1 3 2 2 3 1 4 22 5 20 6 19 7 17 8 16 9 15 10 14 11 6 12
REMARK SMILES IDX 8 13 7 14 9 15 11 16 12 17 10 18 13 20 4 22 21 24 18 26
REMARK H PARENT 10 19 13 21 4 23 21 25 18 27
REMARK Flexibility Score: inf
ROOT
ATOM      1  C   UNL     1     118.834 106.288 122.329  1.00  0.00     0.184 A 
ATOM      2  C   UNL     1     118.999 104.945 121.951  1.00  0.00     0.208 A 
ATOM      3  C   UNL     1     117.885 104.090 121.974  1.00  0.00     0.238 A 
ATOM      4  O   UNL     1     118.051 102.874 121.690  1.00  0.00    -0.285 OA
ATOM      5  C   UNL     1     116.618 104.593 122.354  1.00  0.00     0.111 A 
ATOM      6  C   UNL     1     115.414 103.827 122.375  1.00  0.00     0.134 A 
ATOM      7  C   UNL     1     114.242 104.394 122.892  1.00  0.00     0.093 A 
ATOM      8  C   UNL     1     114.217 105.722 123.327  1.00  0.00     0.123 A 
ATOM      9  C   UNL     1     115.372 106.497 123.254  1.00  0.00     0.094 A 
ATOM     10  C   UNL     1     116.564 105.947 122.779  1.00  0.00     0.146 A 
ATOM     11  O   UNL     1     117.645 106.716 122.738  1.00  0.00    -0.451 OA
ENDROOT
BRANCH   1  12
ATOM     12  C   UNL     1     119.960 107.250 122.304  1.00  0.00     0.063 A 
ATOM     13  C   UNL     1     122.228 107.861 122.941  1.00  0.00     0.047 A 
ATOM     14  C   UNL     1     121.156 106.966 122.986  1.00  0.00     0.020 A 
ATOM     15  C   UNL     1     122.126 109.045 122.207  1.00  0.00     0.119 A 
ATOM     16  C   UNL     1     120.945 109.333 121.513  1.00  0.00     0.093 A 
ATOM     17  C   UNL     1     119.862 108.441 121.554  1.00  0.00     0.130 A 
BRANCH  15  18
ATOM     18  O   UNL     1     123.205 109.927 122.172  1.00  0.00    -0.508 OA
ATOM     19  H   UNL     1     123.639 110.266 123.023  1.00  0.00     0.293 HD
ENDBRANCH  15  18
BRANCH  17  20
ATOM     20  O   UNL     1     118.688 108.743 120.863  1.00  0.00    -0.507 OA
ATOM     21  H   UNL     1     118.632 108.674 119.855  1.00  0.00     0.293 HD
ENDBRANCH  17  20
ENDBRANCH   1  12
BRANCH   2  22
ATOM     22  O   UNL     1     120.262 104.468 121.592  1.00  0.00    -0.502 OA
ATOM     23  H   UNL     1     120.598 104.484 120.637  1.00  0.00     0.293 HD
ENDBRANCH   2  22
BRANCH   6  24
ATOM     24  O   UNL     1     115.310 102.524 121.881  1.00  0.00    -0.507 OA
ATOM     25  H   UNL     1     116.028 101.819 121.960  1.00  0.00     0.293 HD
ENDBRANCH   6  24
BRANCH   8  26
ATOM     26  O   UNL     1     113.043 106.284 123.823  1.00  0.00    -0.508 OA
ATOM     27  H   UNL     1     112.757 107.223 123.572  1.00  0.00     0.293 HD
ENDBRANCH   8  26
TORSDOF 6
ENDMDL
MODEL 9
REMARK VINA RESULT:    -4.192     15.746     17.751
REMARK INTER + INTRA:          -5.532
REMARK INTER:                  -5.261
REMARK INTRA:                  -0.271
REMARK UNBOUND:                -0.482
REMARK SMILES O=c1c(O)c(-c2ccc(O)cc2O)oc2cc(O)cc(O)c12
REMARK SMILES IDX 5 1 3 2 2 3 1 4 22 5 20 6 19 7 17 8 16 9 15 10 14 11 6 12
REMARK SMILES IDX 8 13 7 14 9 15 11 16 12 17 10 18 13 20 4 22 21 24 18 26
REMARK H PARENT 10 19 13 21 4 23 21 25 18 27
REMARK Flexibility Score: inf
ROOT
ATOM      1  C   UNL     1     126.669 114.989 109.633  1.00  0.00     0.184 A 
ATOM      2  C   UNL     1     126.501 116.285 110.149  1.00  0.00     0.208 A 
ATOM      3  C   UNL     1     127.638 117.069 110.402  1.00  0.00     0.238 A 
ATOM      4  O   UNL     1     127.484 118.208 110.918  1.00  0.00    -0.285 OA
ATOM      5  C   UNL     1     128.925 116.556 110.117  1.00  0.00     0.111 A 
ATOM      6  C   UNL     1     130.144 117.278 110.297  1.00  0.00     0.134 A 
ATOM      7  C   UNL     1     131.368 116.625 110.103  1.00  0.00     0.093 A 
ATOM      8  C   UNL     1     131.416 115.297 109.673  1.00  0.00     0.123 A 
ATOM      9  C   UNL     1     130.232 114.602 109.437  1.00  0.00     0.094 A 
ATOM     10  C   UNL     1     128.996 115.215 109.657  1.00  0.00     0.146 A 
ATOM     11  O   UNL     1     127.892 114.513 109.432  1.00  0.00    -0.451 OA
ENDROOT
BRANCH   1  12
ATOM     12  C   UNL     1     125.513 114.118 109.319  1.00  0.00     0.063 A 
ATOM     13  C   UNL     1     124.149 112.163 109.813  1.00  0.00     0.047 A 
ATOM     14  C   UNL     1     125.254 112.971 110.091  1.00  0.00     0.020 A 
ATOM     15  C   UNL     1     123.282 112.492 108.768  1.00  0.00     0.119 A 
ATOM     16  C   UNL     1     123.522 113.638 108.001  1.00  0.00     0.093 A 
ATOM     17  C   UNL     1     124.630 114.455 108.273  1.00  0.00     0.130 A 
BRANCH  15  18
ATOM     18  O   UNL     1     122.184 111.676 108.504  1.00  0.00    -0.508 OA
ATOM     19  H   UNL     1     121.357 112.035 108.040  1.00  0.00     0.293 HD
ENDBRANCH  15  18
BRANCH  17  20
ATOM     20  O   UNL     1     124.861 115.591 107.496  1.00  0.00    -0.507 OA
ATOM     21  H   UNL     1     124.100 116.161 107.149  1.00  0.00     0.293 HD
ENDBRANCH  17  20
ENDBRANCH   1  12
BRANCH   2  22
ATOM     22  O   UNL     1     125.220 116.765 110.435  1.00  0.00    -0.502 OA
ATOM     23  H   UNL     1     125.060 117.683 110.831  1.00  0.00     0.293 HD
ENDBRANCH   2  22
BRANCH   6  24
ATOM     24  O   UNL     1     130.206 118.632 110.636  1.00  0.00    -0.507 OA
ATOM     25  H   UNL     1     130.084 118.998 111.569  1.00  0.00     0.293 HD
ENDBRANCH   6  24
BRANCH   8  26
ATOM     26  O   UNL     1     132.638 114.661 109.467  1.00  0.00    -0.508 OA
ATOM     27  H   UNL     1     132.948 113.901 110.062  1.00  0.00     0.293 HD
ENDBRANCH   8  26
TORSDOF 6
ENDMDL
