MODEL 1
REMARK VINA RESULT:    -3.174      0.000      0.000
REMARK INTER + INTRA:          -5.316
REMARK INTER:                  -4.287
REMARK INTRA:                  -1.029
REMARK UNBOUND:                -1.029
REMARK SMILES CC(=O)CCC=C(C)CCC=C(C)C
REMARK SMILES IDX 7 1 6 2 8 3 9 4 10 5 11 6 13 7 12 8 14 9 5 10 4 11 2 12 3 13
REMARK SMILES IDX 1 14
REMARK H PARENT
REMARK Flexibility Score: inf
ROOT
ATOM      1  C   UNL     1      79.907   2.824  66.705  1.00  0.00    -0.077 C 
ATOM      2  C   UNL     1      80.418   3.016  65.468  1.00  0.00    -0.028 C 
ATOM      3  C   UNL     1      78.426   2.644  66.937  1.00  0.00     0.039 C 
ENDROOT
BRANCH   1   4
ATOM      4  C   UNL     1      80.851   2.766  67.886  1.00  0.00     0.034 C 
BRANCH   4   5
ATOM      5  C   UNL     1      80.757   1.408  68.592  1.00  0.00     0.032 C 
BRANCH   5   6
ATOM      6  C   UNL     1      81.772   0.443  68.034  1.00  0.00    -0.028 C 
ATOM      7  C   UNL     1      80.069  -0.830  66.710  1.00  0.00     0.039 C 
ATOM      8  C   UNL     1      81.474  -0.584  67.207  1.00  0.00    -0.080 C 
ATOM      9  C   UNL     1      82.591  -1.492  66.758  1.00  0.00     0.039 C 
ENDBRANCH   5   6
ENDBRANCH   4   5
ENDBRANCH   1   4
BRANCH   2  10
ATOM     10  C   UNL     1      79.591   3.141  64.213  1.00  0.00     0.035 C 
BRANCH  10  11
ATOM     11  C   UNL     1      79.497   4.604  63.770  1.00  0.00     0.079 C 
BRANCH  11  12
ATOM     12  C   UNL     1      78.099   5.130  63.963  1.00  0.00     0.130 C 
ATOM     13  O   UNL     1      77.172   4.342  64.082  1.00  0.00    -0.300 OA
ATOM     14  C   UNL     1      77.818   6.602  64.025  1.00  0.00     0.087 C 
ENDBRANCH  11  12
ENDBRANCH  10  11
ENDBRANCH   2  10
TORSDOF 6
ENDMDL
MODEL 2
REMARK VINA RESULT:    -3.092      2.323      6.370
REMARK INTER + INTRA:          -5.206
REMARK INTER:                  -4.356
REMARK INTRA:                  -0.849
REMARK UNBOUND:                -1.029
REMARK SMILES CC(=O)CCC=C(C)CCC=C(C)C
REMARK SMILES IDX 7 1 6 2 8 3 9 4 10 5 11 6 13 7 12 8 14 9 5 10 4 11 2 12 3 13
REMARK SMILES IDX 1 14
REMARK H PARENT
REMARK Flexibility Score: inf
ROOT
ATOM      1  C   UNL     1      79.717   2.904  66.236  1.00  0.00    -0.077 C 
ATOM      2  C   UNL     1      80.648   2.866  67.217  1.00  0.00    -0.028 C 
ATOM      3  C   UNL     1      78.258   2.633  66.511  1.00  0.00     0.039 C 
ENDROOT
BRANCH   1   4
ATOM      4  C   UNL     1      80.151   3.253  64.828  1.00  0.00     0.034 C 
BRANCH   4   5
ATOM      5  C   UNL     1      78.941   3.624  63.962  1.00  0.00     0.032 C 
BRANCH   5   6
ATOM      6  C   UNL     1      78.747   5.119  63.925  1.00  0.00    -0.028 C 
ATOM      7  C   UNL     1      76.281   4.969  64.338  1.00  0.00     0.039 C 
ATOM      8  C   UNL     1      77.554   5.736  64.068  1.00  0.00    -0.080 C 
ATOM      9  C   UNL     1      77.507   7.240  63.970  1.00  0.00     0.039 C 
ENDBRANCH   5   6
ENDBRANCH   4   5
ENDBRANCH   1   4
BRANCH   2  10
ATOM     10  C   UNL     1      80.364   2.488  68.648  1.00  0.00     0.035 C 
BRANCH  10  11
ATOM     11  C   UNL     1      81.334   1.403  69.125  1.00  0.00     0.079 C 
BRANCH  11  12
ATOM     12  C   UNL     1      81.197   0.161  68.285  1.00  0.00     0.130 C 
ATOM     13  O   UNL     1      82.174  -0.278  67.695  1.00  0.00    -0.300 OA
ATOM     14  C   UNL     1      79.888  -0.563  68.163  1.00  0.00     0.087 C 
ENDBRANCH  11  12
ENDBRANCH  10  11
ENDBRANCH   2  10
TORSDOF 6
ENDMDL
MODEL 3
REMARK VINA RESULT:    -3.060      2.441      4.068
REMARK INTER + INTRA:          -5.163
REMARK INTER:                  -4.245
REMARK INTRA:                  -0.918
REMARK UNBOUND:                -1.029
REMARK SMILES CC(=O)CCC=C(C)CCC=C(C)C
REMARK SMILES IDX 7 1 6 2 8 3 9 4 10 5 11 6 13 7 12 8 14 9 5 10 4 11 2 12 3 13
REMARK SMILES IDX 1 14
REMARK H PARENT
REMARK Flexibility Score: inf
ROOT
ATOM      1  C   UNL     1      78.320   4.958  64.105  1.00  0.00    -0.077 C 
ATOM      2  C   UNL     1      78.286   6.298  63.921  1.00  0.00    -0.028 C 
ATOM      3  C   UNL     1      77.081   4.170  64.453  1.00  0.00     0.039 C 
ENDROOT
BRANCH   1   4
ATOM      4  C   UNL     1      79.635   4.228  63.932  1.00  0.00     0.034 C 
BRANCH   4   5
ATOM      5  C   UNL     1      79.611   2.882  64.666  1.00  0.00     0.032 C 
BRANCH   5   6
ATOM      6  C   UNL     1      80.461   2.937  65.911  1.00  0.00    -0.028 C 
ATOM      7  C   UNL     1      78.529   2.483  67.440  1.00  0.00     0.039 C 
ATOM      8  C   UNL     1      79.984   2.784  67.166  1.00  0.00    -0.080 C 
ATOM      9  C   UNL     1      80.948   2.901  68.320  1.00  0.00     0.039 C 
ENDBRANCH   5   6
ENDBRANCH   4   5
ENDBRANCH   1   4
BRANCH   2  10
ATOM     10  C   UNL     1      77.059   7.153  64.106  1.00  0.00     0.035 C 
BRANCH  10  11
ATOM     11  C   UNL     1      76.857   8.078  62.902  1.00  0.00     0.079 C 
BRANCH  11  12
ATOM     12  C   UNL     1      76.568   7.279  61.659  1.00  0.00     0.130 C 
ATOM     13  O   UNL     1      77.269   7.432  60.669  1.00  0.00    -0.300 OA
ATOM     14  C   UNL     1      75.444   6.285  61.611  1.00  0.00     0.087 C 
ENDBRANCH  11  12
ENDBRANCH  10  11
ENDBRANCH   2  10
TORSDOF 6
ENDMDL
MODEL 4
REMARK VINA RESULT:    -3.009      1.877      2.852
REMARK INTER + INTRA:          -5.093
REMARK INTER:                  -3.700
REMARK INTRA:                  -1.393
REMARK UNBOUND:                -1.029
REMARK SMILES CC(=O)CCC=C(C)CCC=C(C)C
REMARK SMILES IDX 7 1 6 2 8 3 9 4 10 5 11 6 13 7 12 8 14 9 5 10 4 11 2 12 3 13
REMARK SMILES IDX 1 14
REMARK H PARENT
REMARK Flexibility Score: inf
ROOT
ATOM      1  C   UNL     1      79.837   2.729  67.097  1.00  0.00    -0.077 C 
ATOM      2  C   UNL     1      80.310   2.914  65.843  1.00  0.00    -0.028 C 
ATOM      3  C   UNL     1      78.382   2.431  67.364  1.00  0.00     0.039 C 
ENDROOT
BRANCH   1   4
ATOM      4  C   UNL     1      80.802   2.801  68.260  1.00  0.00     0.034 C 
BRANCH   4   5
ATOM      5  C   UNL     1      80.831   1.473  69.026  1.00  0.00     0.032 C 
BRANCH   5   6
ATOM      6  C   UNL     1      81.780   0.499  68.373  1.00  0.00    -0.028 C 
ATOM      7  C   UNL     1      79.940  -1.004  67.577  1.00  0.00     0.039 C 
ATOM      8  C   UNL     1      81.395  -0.632  67.740  1.00  0.00    -0.080 C 
ATOM      9  C   UNL     1      82.461  -1.531  67.166  1.00  0.00     0.039 C 
ENDBRANCH   5   6
ENDBRANCH   4   5
ENDBRANCH   1   4
BRANCH   2  10
ATOM     10  C   UNL     1      79.455   2.916  64.601  1.00  0.00     0.035 C 
BRANCH  10  11
ATOM     11  C   UNL     1      79.984   1.907  63.577  1.00  0.00     0.079 C 
BRANCH  11  12
ATOM     12  C   UNL     1      79.736   0.497  64.044  1.00  0.00     0.130 C 
ATOM     13  O   UNL     1      78.635   0.192  64.479  1.00  0.00    -0.300 OA
ATOM     14  C   UNL     1      80.808  -0.551  63.974  1.00  0.00     0.087 C 
ENDBRANCH  11  12
ENDBRANCH  10  11
ENDBRANCH   2  10
TORSDOF 6
ENDMDL
MODEL 5
REMARK VINA RESULT:    -2.975     19.282     20.491
REMARK INTER + INTRA:          -5.048
REMARK INTER:                  -4.005
REMARK INTRA:                  -1.043
REMARK UNBOUND:                -1.029
REMARK SMILES CC(=O)CCC=C(C)CCC=C(C)C
REMARK SMILES IDX 7 1 6 2 8 3 9 4 10 5 11 6 13 7 12 8 14 9 5 10 4 11 2 12 3 13
REMARK SMILES IDX 1 14
REMARK H PARENT
REMARK Flexibility Score: inf
ROOT
ATOM      1  C   UNL     1      68.956  -9.084  53.980  1.00  0.00    -0.077 C 
ATOM      2  C   UNL     1      67.683  -9.214  53.541  1.00  0.00    -0.028 C 
ATOM      3  C   UNL     1      69.475  -7.783  54.544  1.00  0.00     0.039 C 
ENDROOT
BRANCH   1   4
ATOM      4  C   UNL     1      69.876 -10.284  53.927  1.00  0.00     0.034 C 
BRANCH   4   5
ATOM      5  C   UNL     1      71.303  -9.861  53.563  1.00  0.00     0.032 C 
BRANCH   5   6
ATOM      6  C   UNL     1      71.664 -10.329  52.175  1.00  0.00    -0.028 C 
ATOM      7  C   UNL     1      71.131  -8.120  51.120  1.00  0.00     0.039 C 
ATOM      8  C   UNL     1      71.567  -9.565  51.064  1.00  0.00    -0.080 C 
ATOM      9  C   UNL     1      71.928 -10.181  49.736  1.00  0.00     0.039 C 
ENDBRANCH   5   6
ENDBRANCH   4   5
ENDBRANCH   1   4
BRANCH   2  10
ATOM     10  C   UNL     1      66.677  -8.092  53.495  1.00  0.00     0.035 C 
BRANCH  10  11
ATOM     11  C   UNL     1      65.524  -8.358  54.466  1.00  0.00     0.079 C 
BRANCH  11  12
ATOM     12  C   UNL     1      65.922  -8.006  55.875  1.00  0.00     0.130 C 
ATOM     13  O   UNL     1      65.938  -8.879  56.731  1.00  0.00    -0.300 OA
ATOM     14  C   UNL     1      66.315  -6.608  56.252  1.00  0.00     0.087 C 
ENDBRANCH  11  12
ENDBRANCH  10  11
ENDBRANCH   2  10
TORSDOF 6
ENDMDL
MODEL 6
REMARK VINA RESULT:    -2.866     19.370     20.741
REMARK INTER + INTRA:          -4.901
REMARK INTER:                  -3.735
REMARK INTRA:                  -1.166
REMARK UNBOUND:                -1.029
REMARK SMILES CC(=O)CCC=C(C)CCC=C(C)C
REMARK SMILES IDX 7 1 6 2 8 3 9 4 10 5 11 6 13 7 12 8 14 9 5 10 4 11 2 12 3 13
REMARK SMILES IDX 1 14
REMARK H PARENT
REMARK Flexibility Score: inf
ROOT
ATOM      1  C   UNL     1      71.617  -9.619  50.904  1.00  0.00    -0.077 C 
ATOM      2  C   UNL     1      71.705 -10.334  52.049  1.00  0.00    -0.028 C 
ATOM      3  C   UNL     1      71.258  -8.153  50.905  1.00  0.00     0.039 C 
ENDROOT
BRANCH   1   4
ATOM      4  C   UNL     1      71.911 -10.306  49.588  1.00  0.00     0.034 C 
BRANCH   4   5
ATOM      5  C   UNL     1      73.369 -10.777  49.532  1.00  0.00     0.032 C 
BRANCH   5   6
ATOM      6  C   UNL     1      74.286  -9.637  49.169  1.00  0.00    -0.028 C 
ATOM      7  C   UNL     1      75.320  -9.532  51.449  1.00  0.00     0.039 C 
ATOM      8  C   UNL     1      75.151  -9.050  50.027  1.00  0.00    -0.080 C 
ATOM      9  C   UNL     1      75.980  -7.893  49.531  1.00  0.00     0.039 C 
ENDBRANCH   5   6
ENDBRANCH   4   5
ENDBRANCH   1   4
BRANCH   2  10
ATOM     10  C   UNL     1      71.395  -9.789  53.420  1.00  0.00     0.035 C 
BRANCH  10  11
ATOM     11  C   UNL     1      70.005 -10.239  53.879  1.00  0.00     0.079 C 
BRANCH  11  12
ATOM     12  C   UNL     1      69.025  -9.099  53.803  1.00  0.00     0.130 C 
ATOM     13  O   UNL     1      67.868  -9.321  53.474  1.00  0.00    -0.300 OA
ATOM     14  C   UNL     1      69.430  -7.693  54.136  1.00  0.00     0.087 C 
ENDBRANCH  11  12
ENDBRANCH  10  11
ENDBRANCH   2  10
TORSDOF 6
ENDMDL
MODEL 7
REMARK VINA RESULT:    -2.802      2.310      4.931
REMARK INTER + INTRA:          -4.815
REMARK INTER:                  -3.523
REMARK INTRA:                  -1.292
REMARK UNBOUND:                -1.029
REMARK SMILES CC(=O)CCC=C(C)CCC=C(C)C
REMARK SMILES IDX 7 1 6 2 8 3 9 4 10 5 11 6 13 7 12 8 14 9 5 10 4 11 2 12 3 13
REMARK SMILES IDX 1 14
REMARK H PARENT
REMARK Flexibility Score: inf
ROOT
ATOM      1  C   UNL     1      80.968   0.069  68.431  1.00  0.00    -0.077 C 
ATOM      2  C   UNL     1      81.830  -0.614  67.643  1.00  0.00    -0.028 C 
ATOM      3  C   UNL     1      79.551  -0.399  68.655  1.00  0.00     0.039 C 
ENDROOT
BRANCH   1   4
ATOM      4  C   UNL     1      81.449   1.325  69.125  1.00  0.00     0.034 C 
BRANCH   4   5
ATOM      5  C   UNL     1      80.637   2.544  68.670  1.00  0.00     0.032 C 
BRANCH   5   6
ATOM      6  C   UNL     1      80.833   2.798  67.197  1.00  0.00    -0.028 C 
ATOM      7  C   UNL     1      78.391   2.597  66.676  1.00  0.00     0.039 C 
ATOM      8  C   UNL     1      79.835   2.800  66.284  1.00  0.00    -0.080 C 
ATOM      9  C   UNL     1      80.187   3.032  64.837  1.00  0.00     0.039 C 
ENDBRANCH   5   6
ENDBRANCH   4   5
ENDBRANCH   1   4
BRANCH   2  10
ATOM     10  C   UNL     1      81.471  -1.850  66.858  1.00  0.00     0.035 C 
BRANCH  10  11
ATOM     11  C   UNL     1      81.752  -1.645  65.367  1.00  0.00     0.079 C 
BRANCH  11  12
ATOM     12  C   UNL     1      80.596  -0.948  64.699  1.00  0.00     0.130 C 
ATOM     13  O   UNL     1      80.813  -0.165  63.786  1.00  0.00    -0.300 OA
ATOM     14  C   UNL     1      79.178  -1.203  65.120  1.00  0.00     0.087 C 
ENDBRANCH  11  12
ENDBRANCH  10  11
ENDBRANCH   2  10
TORSDOF 6
ENDMDL
MODEL 8
REMARK VINA RESULT:    -2.791      7.883      9.888
REMARK INTER + INTRA:          -4.799
REMARK INTER:                  -3.525
REMARK INTRA:                  -1.274
REMARK UNBOUND:                -1.029
REMARK SMILES CC(=O)CCC=C(C)CCC=C(C)C
REMARK SMILES IDX 7 1 6 2 8 3 9 4 10 5 11 6 13 7 12 8 14 9 5 10 4 11 2 12 3 13
REMARK SMILES IDX 1 14
REMARK H PARENT
REMARK Flexibility Score: inf
ROOT
ATOM      1  C   UNL     1      81.447   5.252  55.977  1.00  0.00    -0.077 C 
ATOM      2  C   UNL     1      81.981   6.494  55.993  1.00  0.00    -0.028 C 
ATOM      3  C   UNL     1      79.984   5.017  55.684  1.00  0.00     0.039 C 
ENDROOT
BRANCH   1   4
ATOM      4  C   UNL     1      82.347   4.064  56.239  1.00  0.00     0.034 C 
BRANCH   4   5
ATOM      5  C   UNL     1      82.143   3.528  57.661  1.00  0.00     0.032 C 
BRANCH   5   6
ATOM      6  C   UNL     1      82.769   4.451  58.675  1.00  0.00    -0.028 C 
ATOM      7  C   UNL     1      80.562   5.178  59.611  1.00  0.00     0.039 C 
ATOM      8  C   UNL     1      82.070   5.218  59.542  1.00  0.00    -0.080 C 
ATOM      9  C   UNL     1      82.833   6.123  60.476  1.00  0.00     0.039 C 
ENDBRANCH   5   6
ENDBRANCH   4   5
ENDBRANCH   1   4
BRANCH   2  10
ATOM     10  C   UNL     1      81.194   7.765  55.796  1.00  0.00     0.035 C 
BRANCH  10  11
ATOM     11  C   UNL     1      81.904   8.950  56.455  1.00  0.00     0.079 C 
BRANCH  11  12
ATOM     12  C   UNL     1      81.724   8.913  57.950  1.00  0.00     0.130 C 
ATOM     13  O   UNL     1      82.694   9.075  58.677  1.00  0.00    -0.300 OA
ATOM     14  C   UNL     1      80.376   8.696  58.572  1.00  0.00     0.087 C 
ENDBRANCH  11  12
ENDBRANCH  10  11
ENDBRANCH   2  10
TORSDOF 6
ENDMDL
