MODEL 1
REMARK VINA RESULT:    -6.175      0.000      0.000
REMARK INTER + INTRA:          -7.853
REMARK INTER:                  -7.439
REMARK INTRA:                  -0.414
REMARK UNBOUND:                -0.414
REMARK SMILES O=c1c(O)c(-c2ccc(O)cc2O)oc2cc(O)cc(O)c12
REMARK SMILES IDX 5 1 3 2 2 3 1 4 22 5 20 6 19 7 17 8 16 9 15 10 14 11 6 12
REMARK SMILES IDX 8 13 7 14 9 15 11 16 12 17 10 18 13 20 4 22 21 24 18 26
REMARK H PARENT 10 19 13 21 4 23 21 25 18 27
REMARK Flexibility Score: inf
ROOT
ATOM      1  C   UNL     1       9.133  11.764  38.405  1.00  0.00     0.184 A 
ATOM      2  C   UNL     1       9.013  11.254  39.706  1.00  0.00     0.208 A 
ATOM      3  C   UNL     1       9.354   9.913  39.946  1.00  0.00     0.238 A 
ATOM      4  O   UNL     1       9.297   9.476  41.124  1.00  0.00    -0.285 OA
ATOM      5  C   UNL     1       9.793   9.097  38.875  1.00  0.00     0.111 A 
ATOM      6  C   UNL     1      10.126   7.714  38.993  1.00  0.00     0.134 A 
ATOM      7  C   UNL     1      10.673   7.039  37.896  1.00  0.00     0.093 A 
ATOM      8  C   UNL     1      10.837   7.680  36.665  1.00  0.00     0.123 A 
ATOM      9  C   UNL     1      10.461   9.012  36.523  1.00  0.00     0.094 A 
ATOM     10  C   UNL     1       9.946   9.723  37.609  1.00  0.00     0.146 A 
ATOM     11  O   UNL     1       9.609  10.996  37.433  1.00  0.00    -0.451 OA
ENDROOT
BRANCH   1  12
ATOM     12  C   UNL     1       8.775  13.162  38.082  1.00  0.00     0.063 A 
ATOM     13  C   UNL     1       9.389  15.514  38.075  1.00  0.00     0.047 A 
ATOM     14  C   UNL     1       9.693  14.184  38.372  1.00  0.00     0.020 A 
ATOM     15  C   UNL     1       8.170  15.840  37.474  1.00  0.00     0.119 A 
ATOM     16  C   UNL     1       7.256  14.825  37.160  1.00  0.00     0.093 A 
ATOM     17  C   UNL     1       7.557  13.486  37.450  1.00  0.00     0.130 A 
BRANCH  15  18
ATOM     18  O   UNL     1       7.879  17.172  37.188  1.00  0.00    -0.508 OA
ATOM     19  H   UNL     1       7.091  17.428  36.605  1.00  0.00     0.293 HD
ENDBRANCH  15  18
BRANCH  17  20
ATOM     20  O   UNL     1       6.660  12.480  37.088  1.00  0.00    -0.507 OA
ATOM     21  H   UNL     1       6.973  11.540  36.876  1.00  0.00     0.293 HD
ENDBRANCH  17  20
ENDBRANCH   1  12
BRANCH   2  22
ATOM     22  O   UNL     1       8.595  12.086  40.748  1.00  0.00    -0.502 OA
ATOM     23  H   UNL     1       7.766  12.664  40.683  1.00  0.00     0.293 HD
ENDBRANCH   2  22
BRANCH   6  24
ATOM     24  O   UNL     1       9.915   6.957  40.150  1.00  0.00    -0.507 OA
ATOM     25  H   UNL     1       9.008   6.713  40.519  1.00  0.00     0.293 HD
ENDBRANCH   6  24
BRANCH   8  26
ATOM     26  O   UNL     1      11.367   6.995  35.573  1.00  0.00    -0.508 OA
ATOM     27  H   UNL     1      12.123   6.328  35.681  1.00  0.00     0.293 HD
ENDBRANCH   8  26
TORSDOF 6
ENDMDL
MODEL 2
REMARK VINA RESULT:    -6.029      1.883      6.913
REMARK INTER + INTRA:          -7.677
REMARK INTER:                  -7.430
REMARK INTRA:                  -0.248
REMARK UNBOUND:                -0.414
REMARK SMILES O=c1c(O)c(-c2ccc(O)cc2O)oc2cc(O)cc(O)c12
REMARK SMILES IDX 5 1 3 2 2 3 1 4 22 5 20 6 19 7 17 8 16 9 15 10 14 11 6 12
REMARK SMILES IDX 8 13 7 14 9 15 11 16 12 17 10 18 13 20 4 22 21 24 18 26
REMARK H PARENT 10 19 13 21 4 23 21 25 18 27
REMARK Flexibility Score: inf
ROOT
ATOM      1  C   UNL     1      10.207   7.999  38.104  1.00  0.00     0.184 A 
ATOM      2  C   UNL     1       9.852   8.131  39.455  1.00  0.00     0.208 A 
ATOM      3  C   UNL     1       9.410   9.378  39.923  1.00  0.00     0.238 A 
ATOM      4  O   UNL     1       9.042   9.478  41.122  1.00  0.00    -0.285 OA
ATOM      5  C   UNL     1       9.346  10.481  39.036  1.00  0.00     0.111 A 
ATOM      6  C   UNL     1       8.952  11.800  39.410  1.00  0.00     0.134 A 
ATOM      7  C   UNL     1       8.800  12.781  38.423  1.00  0.00     0.093 A 
ATOM      8  C   UNL     1       9.092  12.508  37.084  1.00  0.00     0.123 A 
ATOM      9  C   UNL     1       9.534  11.240  36.718  1.00  0.00     0.094 A 
ATOM     10  C   UNL     1       9.660  10.229  37.674  1.00  0.00     0.146 A 
ATOM     11  O   UNL     1      10.075   9.031  37.280  1.00  0.00    -0.451 OA
ENDROOT
BRANCH   1  12
ATOM     12  C   UNL     1      10.696   6.718  37.551  1.00  0.00     0.063 A 
ATOM     13  C   UNL     1      12.520   5.435  36.581  1.00  0.00     0.047 A 
ATOM     14  C   UNL     1      12.024   6.632  37.104  1.00  0.00     0.020 A 
ATOM     15  C   UNL     1      11.700   4.306  36.509  1.00  0.00     0.119 A 
ATOM     16  C   UNL     1      10.380   4.375  36.974  1.00  0.00     0.093 A 
ATOM     17  C   UNL     1       9.877   5.571  37.506  1.00  0.00     0.130 A 
BRANCH  15  18
ATOM     18  O   UNL     1      12.207   3.120  35.982  1.00  0.00    -0.508 OA
ATOM     19  H   UNL     1      12.716   2.460  36.558  1.00  0.00     0.293 HD
ENDBRANCH  15  18
BRANCH  17  20
ATOM     20  O   UNL     1       8.576   5.613  38.010  1.00  0.00    -0.507 OA
ATOM     21  H   UNL     1       8.088   4.771  38.291  1.00  0.00     0.293 HD
ENDBRANCH  17  20
ENDBRANCH   1  12
BRANCH   2  22
ATOM     22  O   UNL     1       9.907   7.023  40.304  1.00  0.00    -0.502 OA
ATOM     23  H   UNL     1       9.300   6.924  41.109  1.00  0.00     0.293 HD
ENDBRANCH   2  22
BRANCH   6  24
ATOM     24  O   UNL     1       8.726  12.202  40.731  1.00  0.00    -0.507 OA
ATOM     25  H   UNL     1       9.160  11.785  41.540  1.00  0.00     0.293 HD
ENDBRANCH   6  24
BRANCH   8  26
ATOM     26  O   UNL     1       8.954  13.496  36.111  1.00  0.00    -0.508 OA
ATOM     27  H   UNL     1       8.515  13.302  35.218  1.00  0.00     0.293 HD
ENDBRANCH   8  26
TORSDOF 6
ENDMDL
MODEL 3
REMARK VINA RESULT:    -6.024      1.603      2.060
REMARK INTER + INTRA:          -7.671
REMARK INTER:                  -7.275
REMARK INTRA:                  -0.396
REMARK UNBOUND:                -0.414
REMARK SMILES O=c1c(O)c(-c2ccc(O)cc2O)oc2cc(O)cc(O)c12
REMARK SMILES IDX 5 1 3 2 2 3 1 4 22 5 20 6 19 7 17 8 16 9 15 10 14 11 6 12
REMARK SMILES IDX 8 13 7 14 9 15 11 16 12 17 10 18 13 20 4 22 21 24 18 26
REMARK H PARENT 10 19 13 21 4 23 21 25 18 27
REMARK Flexibility Score: inf
ROOT
ATOM      1  C   UNL     1       9.446  11.697  37.170  1.00  0.00     0.184 A 
ATOM      2  C   UNL     1       9.044  11.514  38.502  1.00  0.00     0.208 A 
ATOM      3  C   UNL     1       9.272  10.274  39.118  1.00  0.00     0.238 A 
ATOM      4  O   UNL     1       8.959  10.133  40.328  1.00  0.00    -0.285 OA
ATOM      5  C   UNL     1       9.883   9.226  38.385  1.00  0.00     0.111 A 
ATOM      6  C   UNL     1      10.125   7.916  38.894  1.00  0.00     0.134 A 
ATOM      7  C   UNL     1      10.853   7.000  38.125  1.00  0.00     0.093 A 
ATOM      8  C   UNL     1      11.290   7.327  36.838  1.00  0.00     0.123 A 
ATOM      9  C   UNL     1      11.007   8.583  36.310  1.00  0.00     0.094 A 
ATOM     10  C   UNL     1      10.315   9.531  37.067  1.00  0.00     0.146 A 
ATOM     11  O   UNL     1      10.075  10.721  36.529  1.00  0.00    -0.451 OA
ENDROOT
BRANCH   1  12
ATOM     12  C   UNL     1       9.220  12.974  36.459  1.00  0.00     0.063 A 
ATOM     13  C   UNL     1       7.805  14.326  35.016  1.00  0.00     0.047 A 
ATOM     14  C   UNL     1       8.052  13.131  35.697  1.00  0.00     0.020 A 
ATOM     15  C   UNL     1       8.716  15.383  35.099  1.00  0.00     0.119 A 
ATOM     16  C   UNL     1       9.874  15.244  35.875  1.00  0.00     0.093 A 
ATOM     17  C   UNL     1      10.125  14.049  36.566  1.00  0.00     0.130 A 
BRANCH  15  18
ATOM     18  O   UNL     1       8.458  16.567  34.412  1.00  0.00    -0.508 OA
ATOM     19  H   UNL     1       9.199  17.086  33.955  1.00  0.00     0.293 HD
ENDBRANCH  15  18
BRANCH  17  20
ATOM     20  O   UNL     1      11.257  13.941  37.375  1.00  0.00    -0.507 OA
ATOM     21  H   UNL     1      11.711  14.758  37.766  1.00  0.00     0.293 HD
ENDBRANCH  17  20
ENDBRANCH   1  12
BRANCH   2  22
ATOM     22  O   UNL     1       8.460  12.570  39.208  1.00  0.00    -0.502 OA
ATOM     23  H   UNL     1       8.818  12.893  40.099  1.00  0.00     0.293 HD
ENDBRANCH   2  22
BRANCH   6  24
ATOM     24  O   UNL     1       9.652   7.458  40.128  1.00  0.00    -0.507 OA
ATOM     25  H   UNL     1       9.290   8.050  40.860  1.00  0.00     0.293 HD
ENDBRANCH   6  24
BRANCH   8  26
ATOM     26  O   UNL     1      12.000   6.403  36.074  1.00  0.00    -0.508 OA
ATOM     27  H   UNL     1      12.100   6.510  35.071  1.00  0.00     0.293 HD
ENDBRANCH   8  26
TORSDOF 6
ENDMDL
MODEL 4
REMARK VINA RESULT:    -5.927      7.693     11.381
REMARK INTER + INTRA:          -7.555
REMARK INTER:                  -7.133
REMARK INTRA:                  -0.422
REMARK UNBOUND:                -0.414
REMARK SMILES O=c1c(O)c(-c2ccc(O)cc2O)oc2cc(O)cc(O)c12
REMARK SMILES IDX 5 1 3 2 2 3 1 4 22 5 20 6 19 7 17 8 16 9 15 10 14 11 6 12
REMARK SMILES IDX 8 13 7 14 9 15 11 16 12 17 10 18 13 20 4 22 21 24 18 26
REMARK H PARENT 10 19 13 21 4 23 21 25 18 27
REMARK Flexibility Score: inf
ROOT
ATOM      1  C   UNL     1       0.612  12.372  37.809  1.00  0.00     0.184 A 
ATOM      2  C   UNL     1      -0.014  12.612  36.576  1.00  0.00     0.208 A 
ATOM      3  C   UNL     1      -0.967  13.638  36.484  1.00  0.00     0.238 A 
ATOM      4  O   UNL     1      -1.484  13.885  35.364  1.00  0.00    -0.285 OA
ATOM      5  C   UNL     1      -1.294  14.400  37.633  1.00  0.00     0.111 A 
ATOM      6  C   UNL     1      -2.274  15.436  37.667  1.00  0.00     0.134 A 
ATOM      7  C   UNL     1      -2.423  16.209  38.824  1.00  0.00     0.093 A 
ATOM      8  C   UNL     1      -1.672  15.940  39.971  1.00  0.00     0.123 A 
ATOM      9  C   UNL     1      -0.755  14.893  39.968  1.00  0.00     0.094 A 
ATOM     10  C   UNL     1      -0.558  14.127  38.816  1.00  0.00     0.146 A 
ATOM     11  O   UNL     1       0.335  13.144  38.853  1.00  0.00    -0.451 OA
ENDROOT
BRANCH   1  12
ATOM     12  C   UNL     1       1.612  11.297  37.977  1.00  0.00     0.063 A 
ATOM     13  C   UNL     1       2.088   8.931  38.275  1.00  0.00     0.047 A 
ATOM     14  C   UNL     1       1.170   9.972  38.119  1.00  0.00     0.020 A 
ATOM     15  C   UNL     1       3.459   9.198  38.277  1.00  0.00     0.119 A 
ATOM     16  C   UNL     1       3.912  10.514  38.113  1.00  0.00     0.093 A 
ATOM     17  C   UNL     1       2.996  11.564  37.950  1.00  0.00     0.130 A 
BRANCH  15  18
ATOM     18  O   UNL     1       4.363   8.150  38.436  1.00  0.00    -0.508 OA
ATOM     19  H   UNL     1       4.755   7.922  39.343  1.00  0.00     0.293 HD
ENDBRANCH  15  18
BRANCH  17  20
ATOM     20  O   UNL     1       3.460  12.862  37.739  1.00  0.00    -0.507 OA
ATOM     21  H   UNL     1       4.414  13.046  37.450  1.00  0.00     0.293 HD
ENDBRANCH  17  20
ENDBRANCH   1  12
BRANCH   2  22
ATOM     22  O   UNL     1       0.342  11.859  35.454  1.00  0.00    -0.502 OA
ATOM     23  H   UNL     1       0.948  11.049  35.512  1.00  0.00     0.293 HD
ENDBRANCH   2  22
BRANCH   6  24
ATOM     24  O   UNL     1      -3.140  15.726  36.607  1.00  0.00    -0.507 OA
ATOM     25  H   UNL     1      -3.707  15.045  36.126  1.00  0.00     0.293 HD
ENDBRANCH   6  24
BRANCH   8  26
ATOM     26  O   UNL     1      -1.838  16.704  41.125  1.00  0.00    -0.508 OA
ATOM     27  H   UNL     1      -1.154  16.690  41.873  1.00  0.00     0.293 HD
ENDBRANCH   8  26
TORSDOF 6
ENDMDL
MODEL 5
REMARK VINA RESULT:    -5.871      1.760      6.501
REMARK INTER + INTRA:          -7.487
REMARK INTER:                  -7.103
REMARK INTRA:                  -0.384
REMARK UNBOUND:                -0.414
REMARK SMILES O=c1c(O)c(-c2ccc(O)cc2O)oc2cc(O)cc(O)c12
REMARK SMILES IDX 5 1 3 2 2 3 1 4 22 5 20 6 19 7 17 8 16 9 15 10 14 11 6 12
REMARK SMILES IDX 8 13 7 14 9 15 11 16 12 17 10 18 13 20 4 22 21 24 18 26
REMARK H PARENT 10 19 13 21 4 23 21 25 18 27
REMARK Flexibility Score: inf
ROOT
ATOM      1  C   UNL     1       9.521   9.973  38.317  1.00  0.00     0.184 A 
ATOM      2  C   UNL     1       9.285  10.504  39.595  1.00  0.00     0.208 A 
ATOM      3  C   UNL     1       9.193  11.896  39.746  1.00  0.00     0.238 A 
ATOM      4  O   UNL     1       8.928  12.364  40.884  1.00  0.00    -0.285 OA
ATOM      5  C   UNL     1       9.356  12.739  38.620  1.00  0.00     0.111 A 
ATOM      6  C   UNL     1       9.323  14.165  38.663  1.00  0.00     0.134 A 
ATOM      7  C   UNL     1       9.365  14.893  37.468  1.00  0.00     0.093 A 
ATOM      8  C   UNL     1       9.505  14.249  36.236  1.00  0.00     0.123 A 
ATOM      9  C   UNL     1       9.597  12.861  36.188  1.00  0.00     0.094 A 
ATOM     10  C   UNL     1       9.521  12.104  37.360  1.00  0.00     0.146 A 
ATOM     11  O   UNL     1       9.603  10.782  37.269  1.00  0.00    -0.451 OA
ENDROOT
BRANCH   1  12
ATOM     12  C   UNL     1       9.645   8.517  38.092  1.00  0.00     0.063 A 
ATOM     13  C   UNL     1       8.593   6.325  38.047  1.00  0.00     0.047 A 
ATOM     14  C   UNL     1       8.512   7.704  38.257  1.00  0.00     0.020 A 
ATOM     15  C   UNL     1       9.802   5.743  37.656  1.00  0.00     0.119 A 
ATOM     16  C   UNL     1      10.932   6.549  37.467  1.00  0.00     0.093 A 
ATOM     17  C   UNL     1      10.857   7.935  37.670  1.00  0.00     0.130 A 
BRANCH  15  18
ATOM     18  O   UNL     1       9.868   4.366  37.454  1.00  0.00    -0.508 OA
ATOM     19  H   UNL     1       9.733   3.712  38.216  1.00  0.00     0.293 HD
ENDBRANCH  15  18
BRANCH  17  20
ATOM     20  O   UNL     1      11.977   8.733  37.430  1.00  0.00    -0.507 OA
ATOM     21  H   UNL     1      12.110   9.210  36.547  1.00  0.00     0.293 HD
ENDBRANCH  17  20
ENDBRANCH   1  12
BRANCH   2  22
ATOM     22  O   UNL     1       9.110   9.649  40.686  1.00  0.00    -0.502 OA
ATOM     23  H   UNL     1       9.550   9.815  41.583  1.00  0.00     0.293 HD
ENDBRANCH   2  22
BRANCH   6  24
ATOM     24  O   UNL     1       9.278  14.909  39.846  1.00  0.00    -0.507 OA
ATOM     25  H   UNL     1       9.363  15.913  39.897  1.00  0.00     0.293 HD
ENDBRANCH   6  24
BRANCH   8  26
ATOM     26  O   UNL     1       9.563  14.983  35.053  1.00  0.00    -0.508 OA
ATOM     27  H   UNL     1      10.419  15.058  34.517  1.00  0.00     0.293 HD
ENDBRANCH   8  26
TORSDOF 6
ENDMDL
MODEL 6
REMARK VINA RESULT:    -5.852      4.702      6.478
REMARK INTER + INTRA:          -7.463
REMARK INTER:                  -7.131
REMARK INTRA:                  -0.333
REMARK UNBOUND:                -0.414
REMARK SMILES O=c1c(O)c(-c2ccc(O)cc2O)oc2cc(O)cc(O)c12
REMARK SMILES IDX 5 1 3 2 2 3 1 4 22 5 20 6 19 7 17 8 16 9 15 10 14 11 6 12
REMARK SMILES IDX 8 13 7 14 9 15 11 16 12 17 10 18 13 20 4 22 21 24 18 26
REMARK H PARENT 10 19 13 21 4 23 21 25 18 27
REMARK Flexibility Score: inf
ROOT
ATOM      1  C   UNL     1       7.166   7.632  38.600  1.00  0.00     0.184 A 
ATOM      2  C   UNL     1       6.530   8.164  39.732  1.00  0.00     0.208 A 
ATOM      3  C   UNL     1       5.253   7.694  40.079  1.00  0.00     0.238 A 
ATOM      4  O   UNL     1       4.710   8.135  41.125  1.00  0.00    -0.285 OA
ATOM      5  C   UNL     1       4.623   6.711  39.276  1.00  0.00     0.111 A 
ATOM      6  C   UNL     1       3.315   6.192  39.508  1.00  0.00     0.134 A 
ATOM      7  C   UNL     1       2.844   5.129  38.728  1.00  0.00     0.093 A 
ATOM      8  C   UNL     1       3.610   4.612  37.680  1.00  0.00     0.123 A 
ATOM      9  C   UNL     1       4.865   5.150  37.408  1.00  0.00     0.094 A 
ATOM     10  C   UNL     1       5.376   6.187  38.192  1.00  0.00     0.146 A 
ATOM     11  O   UNL     1       6.581   6.665  37.905  1.00  0.00    -0.451 OA
ENDROOT
BRANCH   1  12
ATOM     12  C   UNL     1       8.503   8.095  38.172  1.00  0.00     0.063 A 
ATOM     13  C   UNL     1       9.937   9.921  37.450  1.00  0.00     0.047 A 
ATOM     14  C   UNL     1       8.685   9.449  37.853  1.00  0.00     0.020 A 
ATOM     15  C   UNL     1      11.025   9.048  37.372  1.00  0.00     0.119 A 
ATOM     16  C   UNL     1      10.860   7.699  37.710  1.00  0.00     0.093 A 
ATOM     17  C   UNL     1       9.607   7.219  38.122  1.00  0.00     0.130 A 
BRANCH  15  18
ATOM     18  O   UNL     1      12.266   9.532  36.965  1.00  0.00    -0.508 OA
ATOM     19  H   UNL     1      13.130   9.164  37.348  1.00  0.00     0.293 HD
ENDBRANCH  15  18
BRANCH  17  20
ATOM     20  O   UNL     1       9.467   5.884  38.503  1.00  0.00    -0.507 OA
ATOM     21  H   UNL     1       8.743   5.588  39.147  1.00  0.00     0.293 HD
ENDBRANCH  17  20
ENDBRANCH   1  12
BRANCH   2  22
ATOM     22  O   UNL     1       7.181   9.119  40.517  1.00  0.00    -0.502 OA
ATOM     23  H   UNL     1       6.753   9.534  41.336  1.00  0.00     0.293 HD
ENDBRANCH   2  22
BRANCH   6  24
ATOM     24  O   UNL     1       2.433   6.699  40.469  1.00  0.00    -0.507 OA
ATOM     25  H   UNL     1       2.705   7.021  41.385  1.00  0.00     0.293 HD
ENDBRANCH   6  24
BRANCH   8  26
ATOM     26  O   UNL     1       3.127   3.564  36.898  1.00  0.00    -0.508 OA
ATOM     27  H   UNL     1       3.731   3.056  36.261  1.00  0.00     0.293 HD
ENDBRANCH   8  26
TORSDOF 6
ENDMDL
MODEL 7
REMARK VINA RESULT:    -5.834      6.814      7.870
REMARK INTER + INTRA:          -7.442
REMARK INTER:                  -7.063
REMARK INTRA:                  -0.379
REMARK UNBOUND:                -0.414
REMARK SMILES O=c1c(O)c(-c2ccc(O)cc2O)oc2cc(O)cc(O)c12
REMARK SMILES IDX 5 1 3 2 2 3 1 4 22 5 20 6 19 7 17 8 16 9 15 10 14 11 6 12
REMARK SMILES IDX 8 13 7 14 9 15 11 16 12 17 10 18 13 20 4 22 21 24 18 26
REMARK H PARENT 10 19 13 21 4 23 21 25 18 27
REMARK Flexibility Score: inf
ROOT
ATOM      1  C   UNL     1       4.289   7.216  39.264  1.00  0.00     0.184 A 
ATOM      2  C   UNL     1       3.102   7.385  39.994  1.00  0.00     0.208 A 
ATOM      3  C   UNL     1       1.969   6.640  39.633  1.00  0.00     0.238 A 
ATOM      4  O   UNL     1       0.923   6.756  40.324  1.00  0.00    -0.285 OA
ATOM      5  C   UNL     1       2.034   5.747  38.535  1.00  0.00     0.111 A 
ATOM      6  C   UNL     1       0.937   4.971  38.055  1.00  0.00     0.134 A 
ATOM      7  C   UNL     1       1.150   4.025  37.045  1.00  0.00     0.093 A 
ATOM      8  C   UNL     1       2.406   3.874  36.453  1.00  0.00     0.123 A 
ATOM      9  C   UNL     1       3.470   4.668  36.874  1.00  0.00     0.094 A 
ATOM     10  C   UNL     1       3.298   5.595  37.905  1.00  0.00     0.146 A 
ATOM     11  O   UNL     1       4.341   6.324  38.283  1.00  0.00    -0.451 OA
ENDROOT
BRANCH   1  12
ATOM     12  C   UNL     1       5.512   7.982  39.582  1.00  0.00     0.063 A 
ATOM     13  C   UNL     1       7.335   8.439  41.125  1.00  0.00     0.047 A 
ATOM     14  C   UNL     1       6.173   7.737  40.796  1.00  0.00     0.020 A 
ATOM     15  C   UNL     1       7.858   9.386  40.241  1.00  0.00     0.119 A 
ATOM     16  C   UNL     1       7.219   9.623  39.017  1.00  0.00     0.093 A 
ATOM     17  C   UNL     1       6.055   8.917  38.677  1.00  0.00     0.130 A 
BRANCH  15  18
ATOM     18  O   UNL     1       9.015  10.081  40.585  1.00  0.00    -0.508 OA
ATOM     19  H   UNL     1       8.974  10.984  41.045  1.00  0.00     0.293 HD
ENDBRANCH  15  18
BRANCH  17  20
ATOM     20  O   UNL     1       5.456   9.126  37.434  1.00  0.00    -0.507 OA
ATOM     21  H   UNL     1       5.688   8.556  36.629  1.00  0.00     0.293 HD
ENDBRANCH  17  20
ENDBRANCH   1  12
BRANCH   2  22
ATOM     22  O   UNL     1       3.070   8.259  41.084  1.00  0.00    -0.502 OA
ATOM     23  H   UNL     1       2.518   9.109  41.084  1.00  0.00     0.293 HD
ENDBRANCH   2  22
BRANCH   6  24
ATOM     24  O   UNL     1      -0.377   5.110  38.514  1.00  0.00    -0.507 OA
ATOM     25  H   UNL     1      -0.640   5.572  39.371  1.00  0.00     0.293 HD
ENDBRANCH   6  24
BRANCH   8  26
ATOM     26  O   UNL     1       2.605   2.941  35.437  1.00  0.00    -0.508 OA
ATOM     27  H   UNL     1       3.006   3.206  34.545  1.00  0.00     0.293 HD
ENDBRANCH   8  26
TORSDOF 6
ENDMDL
MODEL 8
REMARK VINA RESULT:    -5.771      7.330      8.893
REMARK INTER + INTRA:          -7.367
REMARK INTER:                  -6.953
REMARK INTRA:                  -0.414
REMARK UNBOUND:                -0.414
REMARK SMILES O=c1c(O)c(-c2ccc(O)cc2O)oc2cc(O)cc(O)c12
REMARK SMILES IDX 5 1 3 2 2 3 1 4 22 5 20 6 19 7 17 8 16 9 15 10 14 11 6 12
REMARK SMILES IDX 8 13 7 14 9 15 11 16 12 17 10 18 13 20 4 22 21 24 18 26
REMARK H PARENT 10 19 13 21 4 23 21 25 18 27
REMARK Flexibility Score: inf
ROOT
ATOM      1  C   UNL     1       3.672   7.378  38.308  1.00  0.00     0.184 A 
ATOM      2  C   UNL     1       3.123   8.235  37.342  1.00  0.00     0.208 A 
ATOM      3  C   UNL     1       1.977   7.828  36.643  1.00  0.00     0.238 A 
ATOM      4  O   UNL     1       1.458   8.623  35.817  1.00  0.00    -0.285 OA
ATOM      5  C   UNL     1       1.404   6.559  36.908  1.00  0.00     0.111 A 
ATOM      6  C   UNL     1       0.267   6.026  36.232  1.00  0.00     0.134 A 
ATOM      7  C   UNL     1      -0.291   4.818  36.666  1.00  0.00     0.093 A 
ATOM      8  C   UNL     1       0.288   4.091  37.710  1.00  0.00     0.123 A 
ATOM      9  C   UNL     1       1.432   4.574  38.338  1.00  0.00     0.094 A 
ATOM     10  C   UNL     1       1.991   5.795  37.952  1.00  0.00     0.146 A 
ATOM     11  O   UNL     1       3.077   6.224  38.584  1.00  0.00    -0.451 OA
ENDROOT
BRANCH   1  12
ATOM     12  C   UNL     1       4.887   7.740  39.068  1.00  0.00     0.063 A 
ATOM     13  C   UNL     1       7.288   8.125  39.086  1.00  0.00     0.047 A 
ATOM     14  C   UNL     1       6.121   7.781  38.399  1.00  0.00     0.020 A 
ATOM     15  C   UNL     1       7.236   8.444  40.445  1.00  0.00     0.119 A 
ATOM     16  C   UNL     1       6.007   8.428  41.117  1.00  0.00     0.093 A 
ATOM     17  C   UNL     1       4.830   8.090  40.432  1.00  0.00     0.130 A 
BRANCH  15  18
ATOM     18  O   UNL     1       8.409   8.781  41.117  1.00  0.00    -0.508 OA
ATOM     19  H   UNL     1       8.471   8.740  42.128  1.00  0.00     0.293 HD
ENDBRANCH  15  18
BRANCH  17  20
ATOM     20  O   UNL     1       3.605   8.126  41.101  1.00  0.00    -0.507 OA
ATOM     21  H   UNL     1       3.480   8.659  41.953  1.00  0.00     0.293 HD
ENDBRANCH  17  20
ENDBRANCH   1  12
BRANCH   2  22
ATOM     22  O   UNL     1       3.697   9.489  37.113  1.00  0.00    -0.502 OA
ATOM     23  H   UNL     1       4.678   9.605  36.889  1.00  0.00     0.293 HD
ENDBRANCH   2  22
BRANCH   6  24
ATOM     24  O   UNL     1      -0.331   6.625  35.119  1.00  0.00    -0.507 OA
ATOM     25  H   UNL     1      -0.842   7.495  35.140  1.00  0.00     0.293 HD
ENDBRANCH   6  24
BRANCH   8  26
ATOM     26  O   UNL     1      -0.265   2.881  38.125  1.00  0.00    -0.508 OA
ATOM     27  H   UNL     1      -0.780   2.804  38.995  1.00  0.00     0.293 HD
ENDBRANCH   8  26
TORSDOF 6
ENDMDL
MODEL 9
REMARK VINA RESULT:    -5.660     13.826     15.395
REMARK INTER + INTRA:          -7.232
REMARK INTER:                  -6.804
REMARK INTRA:                  -0.428
REMARK UNBOUND:                -0.414
REMARK SMILES O=c1c(O)c(-c2ccc(O)cc2O)oc2cc(O)cc(O)c12
REMARK SMILES IDX 5 1 3 2 2 3 1 4 22 5 20 6 19 7 17 8 16 9 15 10 14 11 6 12
REMARK SMILES IDX 8 13 7 14 9 15 11 16 12 17 10 18 13 20 4 22 21 24 18 26
REMARK H PARENT 10 19 13 21 4 23 21 25 18 27
REMARK Flexibility Score: inf
ROOT
ATOM      1  C   UNL     1      14.214  16.230  24.465  1.00  0.00     0.184 A 
ATOM      2  C   UNL     1      13.525  15.881  23.293  1.00  0.00     0.208 A 
ATOM      3  C   UNL     1      13.211  14.533  23.064  1.00  0.00     0.238 A 
ATOM      4  O   UNL     1      12.545  14.233  22.039  1.00  0.00    -0.285 OA
ATOM      5  C   UNL     1      13.606  13.548  24.004  1.00  0.00     0.111 A 
ATOM      6  C   UNL     1      13.377  12.148  23.855  1.00  0.00     0.134 A 
ATOM      7  C   UNL     1      13.694  11.281  24.907  1.00  0.00     0.093 A 
ATOM      8  C   UNL     1      14.295  11.756  26.076  1.00  0.00     0.123 A 
ATOM      9  C   UNL     1      14.576  13.113  26.207  1.00  0.00     0.094 A 
ATOM     10  C   UNL     1      14.237  14.009  25.189  1.00  0.00     0.146 A 
ATOM     11  O   UNL     1      14.514  15.296  25.359  1.00  0.00    -0.451 OA
ENDROOT
BRANCH   1  12
ATOM     12  C   UNL     1      14.590  17.629  24.758  1.00  0.00     0.063 A 
ATOM     13  C   UNL     1      16.054  19.521  24.324  1.00  0.00     0.047 A 
ATOM     14  C   UNL     1      15.676  18.200  24.075  1.00  0.00     0.020 A 
ATOM     15  C   UNL     1      15.346  20.293  25.248  1.00  0.00     0.119 A 
ATOM     16  C   UNL     1      14.246  19.741  25.918  1.00  0.00     0.093 A 
ATOM     17  C   UNL     1      13.857  18.416  25.669  1.00  0.00     0.130 A 
BRANCH  15  18
ATOM     18  O   UNL     1      15.737  21.608  25.489  1.00  0.00    -0.508 OA
ATOM     19  H   UNL     1      15.434  22.108  26.317  1.00  0.00     0.293 HD
ENDBRANCH  15  18
BRANCH  17  20
ATOM     20  O   UNL     1      12.731  17.893  26.306  1.00  0.00    -0.507 OA
ATOM     21  H   UNL     1      12.561  18.043  27.294  1.00  0.00     0.293 HD
ENDBRANCH  17  20
ENDBRANCH   1  12
BRANCH   2  22
ATOM     22  O   UNL     1      13.131  16.874  22.392  1.00  0.00    -0.502 OA
ATOM     23  H   UNL     1      12.535  16.681  21.596  1.00  0.00     0.293 HD
ENDBRANCH   2  22
BRANCH   6  24
ATOM     24  O   UNL     1      12.868  11.559  22.692  1.00  0.00    -0.507 OA
ATOM     25  H   UNL     1      12.354  12.051  21.978  1.00  0.00     0.293 HD
ENDBRANCH   6  24
BRANCH   8  26
ATOM     26  O   UNL     1      14.622  10.883  27.112  1.00  0.00    -0.508 OA
ATOM     27  H   UNL     1      14.263  11.016  28.050  1.00  0.00     0.293 HD
ENDBRANCH   8  26
TORSDOF 6
ENDMDL
