MODEL 1
REMARK VINA RESULT:    -5.672      0.000      0.000
REMARK INTER + INTRA:         -11.276
REMARK INTER:                  -9.652
REMARK INTRA:                  -1.624
REMARK UNBOUND:                -1.624
REMARK SMILES CCCCCCCCCCCCCC(=O)[O-]
REMARK SMILES IDX 8 1 9 2 10 3 11 4 12 5 13 6 14 7 15 8 16 9 7 10 6 11 5 12
REMARK SMILES IDX 4 13 3 14 2 15 1 16
REMARK H PARENT
REMARK Flexibility Score: inf
ROOT
ATOM      1  C   UNL     1     220.048  -7.240  25.965  1.00  0.00     0.000 C 
ENDROOT
BRANCH   1   2
ATOM      2  C   UNL     1     221.134  -7.577  24.930  1.00  0.00     0.000 C 
BRANCH   2   3
ATOM      3  C   UNL     1     220.737  -7.161  23.503  1.00  0.00     0.000 C 
BRANCH   3   4
ATOM      4  C   UNL     1     221.326  -8.088  22.424  1.00  0.00     0.000 C 
BRANCH   4   5
ATOM      5  C   UNL     1     220.288  -8.812  21.541  1.00  0.00     0.006 C 
BRANCH   5   6
ATOM      6  C   UNL     1     218.833  -8.658  22.010  1.00  0.00     0.053 C 
BRANCH   6   7
ATOM      7  C   UNL     1     218.339  -9.882  22.719  1.00  0.00     0.041 C 
ATOM      8  O   UNL     1     217.123 -10.200  22.659  1.00  0.00    -0.550 OA
ATOM      9  O   UNL     1     219.228 -10.688  23.417  1.00  0.00    -0.550 OA
ENDBRANCH   6   7
ENDBRANCH   5   6
ENDBRANCH   4   5
ENDBRANCH   3   4
ENDBRANCH   2   3
ENDBRANCH   1   2
BRANCH   1  10
ATOM     10  C   UNL     1     218.771  -6.670  25.321  1.00  0.00     0.000 C 
BRANCH  10  11
ATOM     11  C   UNL     1     217.559  -7.599  25.499  1.00  0.00    -0.000 C 
BRANCH  11  12
ATOM     12  C   UNL     1     217.922  -8.910  26.218  1.00  0.00    -0.000 C 
BRANCH  12  13
ATOM     13  C   UNL     1     217.152  -9.097  27.536  1.00  0.00    -0.000 C 
BRANCH  13  14
ATOM     14  C   UNL     1     218.081  -9.118  28.762  1.00  0.00    -0.000 C 
BRANCH  14  15
ATOM     15  C   UNL     1     218.396  -7.707  29.285  1.00  0.00    -0.003 C 
ATOM     16  C   UNL     1     219.757  -7.621  29.975  1.00  0.00     0.004 C 
ENDBRANCH  14  15
ENDBRANCH  13  14
ENDBRANCH  12  13
ENDBRANCH  11  12
ENDBRANCH  10  11
ENDBRANCH   1  10
TORSDOF 12
ENDMDL
MODEL 2
REMARK VINA RESULT:    -5.643      2.652      5.802
REMARK INTER + INTRA:         -11.226
REMARK INTER:                  -9.341
REMARK INTRA:                  -1.885
REMARK UNBOUND:                -1.624
REMARK SMILES CCCCCCCCCCCCCC(=O)[O-]
REMARK SMILES IDX 8 1 9 2 10 3 11 4 12 5 13 6 14 7 15 8 16 9 7 10 6 11 5 12
REMARK SMILES IDX 4 13 3 14 2 15 1 16
REMARK H PARENT
REMARK Flexibility Score: inf
ROOT
ATOM      1  C   UNL     1     220.397  -8.070  25.634  1.00  0.00     0.000 C 
ENDROOT
BRANCH   1   2
ATOM      2  C   UNL     1     219.397  -6.903  25.580  1.00  0.00     0.000 C 
BRANCH   2   3
ATOM      3  C   UNL     1     217.948  -7.356  25.825  1.00  0.00     0.000 C 
BRANCH   3   4
ATOM      4  C   UNL     1     217.852  -8.806  26.332  1.00  0.00     0.000 C 
BRANCH   4   5
ATOM      5  C   UNL     1     217.429  -8.960  27.808  1.00  0.00     0.006 C 
BRANCH   5   6
ATOM      6  C   UNL     1     218.598  -9.090  28.798  1.00  0.00     0.053 C 
BRANCH   6   7
ATOM      7  C   UNL     1     219.100  -7.754  29.251  1.00  0.00     0.041 C 
ATOM      8  O   UNL     1     218.304  -6.786  29.373  1.00  0.00    -0.550 OA
ATOM      9  O   UNL     1     220.441  -7.586  29.570  1.00  0.00    -0.550 OA
ENDBRANCH   6   7
ENDBRANCH   5   6
ENDBRANCH   4   5
ENDBRANCH   3   4
ENDBRANCH   2   3
ENDBRANCH   1   2
BRANCH   1  10
ATOM     10  C   UNL     1     221.474  -7.980  24.538  1.00  0.00     0.000 C 
BRANCH  10  11
ATOM     11  C   UNL     1     220.933  -7.382  23.229  1.00  0.00    -0.000 C 
BRANCH  11  12
ATOM     12  C   UNL     1     221.134  -8.319  22.026  1.00  0.00    -0.000 C 
BRANCH  12  13
ATOM     13  C   UNL     1     219.876  -9.137  21.693  1.00  0.00    -0.000 C 
BRANCH  13  14
ATOM     14  C   UNL     1     218.599  -8.526  22.298  1.00  0.00    -0.000 C 
BRANCH  14  15
ATOM     15  C   UNL     1     217.555  -9.592  22.666  1.00  0.00    -0.003 C 
ATOM     16  C   UNL     1     218.177 -10.841  23.291  1.00  0.00     0.004 C 
ENDBRANCH  14  15
ENDBRANCH  13  14
ENDBRANCH  12  13
ENDBRANCH  11  12
ENDBRANCH  10  11
ENDBRANCH   1  10
TORSDOF 12
ENDMDL
MODEL 3
REMARK VINA RESULT:    -5.628      2.737      5.699
REMARK INTER + INTRA:         -11.201
REMARK INTER:                  -9.334
REMARK INTRA:                  -1.867
REMARK UNBOUND:                -1.624
REMARK SMILES CCCCCCCCCCCCCC(=O)[O-]
REMARK SMILES IDX 8 1 9 2 10 3 11 4 12 5 13 6 14 7 15 8 16 9 7 10 6 11 5 12
REMARK SMILES IDX 4 13 3 14 2 15 1 16
REMARK H PARENT
REMARK Flexibility Score: inf
ROOT
ATOM      1  C   UNL     1     219.536  -6.304  25.063  1.00  0.00     0.000 C 
ENDROOT
BRANCH   1   2
ATOM      2  C   UNL     1     218.317  -7.076  24.529  1.00  0.00     0.000 C 
BRANCH   2   3
ATOM      3  C   UNL     1     217.474  -7.697  25.655  1.00  0.00     0.000 C 
BRANCH   3   4
ATOM      4  C   UNL     1     218.267  -8.700  26.514  1.00  0.00     0.000 C 
BRANCH   4   5
ATOM      5  C   UNL     1     218.011  -8.611  28.033  1.00  0.00     0.006 C 
BRANCH   5   6
ATOM      6  C   UNL     1     218.553  -7.336  28.698  1.00  0.00     0.053 C 
BRANCH   6   7
ATOM      7  C   UNL     1     219.916  -7.544  29.283  1.00  0.00     0.041 C 
ATOM      8  O   UNL     1     220.915  -7.669  28.527  1.00  0.00    -0.550 OA
ATOM      9  O   UNL     1     220.087  -7.566  30.660  1.00  0.00    -0.550 OA
ENDBRANCH   6   7
ENDBRANCH   5   6
ENDBRANCH   4   5
ENDBRANCH   3   4
ENDBRANCH   2   3
ENDBRANCH   1   2
BRANCH   1  10
ATOM     10  C   UNL     1     220.873  -6.944  24.647  1.00  0.00     0.000 C 
BRANCH  10  11
ATOM     11  C   UNL     1     220.912  -7.302  23.152  1.00  0.00    -0.000 C 
BRANCH  11  12
ATOM     12  C   UNL     1     221.290  -8.774  22.909  1.00  0.00    -0.000 C 
BRANCH  12  13
ATOM     13  C   UNL     1     221.171  -9.635  24.177  1.00  0.00    -0.000 C 
BRANCH  13  14
ATOM     14  C   UNL     1     220.134 -10.761  24.029  1.00  0.00    -0.000 C 
BRANCH  14  15
ATOM     15  C   UNL     1     218.995 -10.388  23.066  1.00  0.00    -0.003 C 
ATOM     16  C   UNL     1     217.634 -10.908  23.528  1.00  0.00     0.004 C 
ENDBRANCH  14  15
ENDBRANCH  13  14
ENDBRANCH  12  13
ENDBRANCH  11  12
ENDBRANCH  10  11
ENDBRANCH   1  10
TORSDOF 12
ENDMDL
MODEL 4
REMARK VINA RESULT:    -5.531      2.677      5.511
REMARK INTER + INTRA:         -11.035
REMARK INTER:                  -9.087
REMARK INTRA:                  -1.947
REMARK UNBOUND:                -1.624
REMARK SMILES CCCCCCCCCCCCCC(=O)[O-]
REMARK SMILES IDX 8 1 9 2 10 3 11 4 12 5 13 6 14 7 15 8 16 9 7 10 6 11 5 12
REMARK SMILES IDX 4 13 3 14 2 15 1 16
REMARK H PARENT
REMARK Flexibility Score: inf
ROOT
ATOM      1  C   UNL     1     217.515  -7.421  24.361  1.00  0.00     0.000 C 
ENDROOT
BRANCH   1   2
ATOM      2  C   UNL     1     218.550  -6.752  25.280  1.00  0.00     0.000 C 
BRANCH   2   3
ATOM      3  C   UNL     1     218.525  -7.323  26.708  1.00  0.00     0.000 C 
BRANCH   3   4
ATOM      4  C   UNL     1     217.362  -8.305  26.941  1.00  0.00     0.000 C 
BRANCH   4   5
ATOM      5  C   UNL     1     217.581  -9.325  28.077  1.00  0.00     0.006 C 
BRANCH   5   6
ATOM      6  C   UNL     1     218.254  -8.749  29.333  1.00  0.00     0.053 C 
BRANCH   6   7
ATOM      7  C   UNL     1     219.515  -9.480  29.678  1.00  0.00     0.041 C 
ATOM      8  O   UNL     1     220.389  -9.685  28.795  1.00  0.00    -0.550 OA
ATOM      9  O   UNL     1     219.739  -9.904  30.981  1.00  0.00    -0.550 OA
ENDBRANCH   6   7
ENDBRANCH   5   6
ENDBRANCH   4   5
ENDBRANCH   3   4
ENDBRANCH   2   3
ENDBRANCH   1   2
BRANCH   1  10
ATOM     10  C   UNL     1     218.114  -7.855  23.011  1.00  0.00     0.000 C 
BRANCH  10  11
ATOM     11  C   UNL     1     217.977  -9.367  22.767  1.00  0.00    -0.000 C 
BRANCH  11  12
ATOM     12  C   UNL     1     218.429 -10.203  23.977  1.00  0.00    -0.000 C 
BRANCH  12  13
ATOM     13  C   UNL     1     219.928 -10.543  23.938  1.00  0.00    -0.000 C 
BRANCH  13  14
ATOM     14  C   UNL     1     220.724  -9.825  25.041  1.00  0.00    -0.000 C 
BRANCH  14  15
ATOM     15  C   UNL     1     221.578  -8.670  24.493  1.00  0.00    -0.003 C 
ATOM     16  C   UNL     1     221.762  -8.737  22.977  1.00  0.00     0.004 C 
ENDBRANCH  14  15
ENDBRANCH  13  14
ENDBRANCH  12  13
ENDBRANCH  11  12
ENDBRANCH  10  11
ENDBRANCH   1  10
TORSDOF 12
ENDMDL
MODEL 5
REMARK VINA RESULT:    -5.503      1.395      2.079
REMARK INTER + INTRA:         -10.988
REMARK INTER:                  -9.589
REMARK INTRA:                  -1.399
REMARK UNBOUND:                -1.624
REMARK SMILES CCCCCCCCCCCCCC(=O)[O-]
REMARK SMILES IDX 8 1 9 2 10 3 11 4 12 5 13 6 14 7 15 8 16 9 7 10 6 11 5 12
REMARK SMILES IDX 4 13 3 14 2 15 1 16
REMARK H PARENT
REMARK Flexibility Score: inf
ROOT
ATOM      1  C   UNL     1     220.503  -7.301  23.412  1.00  0.00     0.000 C 
ENDROOT
BRANCH   1   2
ATOM      2  C   UNL     1     221.830  -8.070  23.528  1.00  0.00     0.000 C 
BRANCH   2   3
ATOM      3  C   UNL     1     221.626  -9.541  23.928  1.00  0.00     0.000 C 
BRANCH   3   4
ATOM      4  C   UNL     1     220.218  -9.820  24.487  1.00  0.00     0.000 C 
BRANCH   4   5
ATOM      5  C   UNL     1     219.470 -10.995  23.825  1.00  0.00     0.006 C 
BRANCH   5   6
ATOM      6  C   UNL     1     217.998 -10.708  23.490  1.00  0.00     0.053 C 
BRANCH   6   7
ATOM      7  C   UNL     1     217.853  -9.568  22.530  1.00  0.00     0.041 C 
ATOM      8  O   UNL     1     217.112  -8.591  22.817  1.00  0.00    -0.550 OA
ATOM      9  O   UNL     1     218.561  -9.568  21.336  1.00  0.00    -0.550 OA
ENDBRANCH   6   7
ENDBRANCH   5   6
ENDBRANCH   4   5
ENDBRANCH   3   4
ENDBRANCH   2   3
ENDBRANCH   1   2
BRANCH   1  10
ATOM     10  C   UNL     1     220.213  -6.428  24.646  1.00  0.00     0.000 C 
BRANCH  10  11
ATOM     11  C   UNL     1     218.738  -6.492  25.077  1.00  0.00    -0.000 C 
BRANCH  11  12
ATOM     12  C   UNL     1     218.550  -7.194  26.433  1.00  0.00    -0.000 C 
BRANCH  12  13
ATOM     13  C   UNL     1     217.440  -8.256  26.403  1.00  0.00    -0.000 C 
BRANCH  13  14
ATOM     14  C   UNL     1     217.456  -9.161  27.648  1.00  0.00    -0.000 C 
BRANCH  14  15
ATOM     15  C   UNL     1     218.029  -8.449  28.884  1.00  0.00    -0.003 C 
ATOM     16  C   UNL     1     218.614  -9.420  29.909  1.00  0.00     0.004 C 
ENDBRANCH  14  15
ENDBRANCH  13  14
ENDBRANCH  12  13
ENDBRANCH  11  12
ENDBRANCH  10  11
ENDBRANCH   1  10
TORSDOF 12
ENDMDL
MODEL 6
REMARK VINA RESULT:    -5.469      3.097      5.361
REMARK INTER + INTRA:         -10.929
REMARK INTER:                  -9.064
REMARK INTRA:                  -1.865
REMARK UNBOUND:                -1.624
REMARK SMILES CCCCCCCCCCCCCC(=O)[O-]
REMARK SMILES IDX 8 1 9 2 10 3 11 4 12 5 13 6 14 7 15 8 16 9 7 10 6 11 5 12
REMARK SMILES IDX 4 13 3 14 2 15 1 16
REMARK H PARENT
REMARK Flexibility Score: inf
ROOT
ATOM      1  C   UNL     1     219.715  -6.532  24.902  1.00  0.00     0.000 C 
ENDROOT
BRANCH   1   2
ATOM      2  C   UNL     1     218.357  -6.939  24.306  1.00  0.00     0.000 C 
BRANCH   2   3
ATOM      3  C   UNL     1     217.468  -7.681  25.318  1.00  0.00     0.000 C 
BRANCH   3   4
ATOM      4  C   UNL     1     218.277  -8.520  26.324  1.00  0.00     0.000 C 
BRANCH   4   5
ATOM      5  C   UNL     1     217.856  -8.365  27.800  1.00  0.00     0.006 C 
BRANCH   5   6
ATOM      6  C   UNL     1     218.749  -7.424  28.623  1.00  0.00     0.053 C 
BRANCH   6   7
ATOM      7  C   UNL     1     219.187  -8.050  29.911  1.00  0.00     0.041 C 
ATOM      8  O   UNL     1     220.080  -7.502  30.610  1.00  0.00    -0.550 OA
ATOM      9  O   UNL     1     218.585  -9.219  30.357  1.00  0.00    -0.550 OA
ENDBRANCH   6   7
ENDBRANCH   5   6
ENDBRANCH   4   5
ENDBRANCH   3   4
ENDBRANCH   2   3
ENDBRANCH   1   2
BRANCH   1  10
ATOM     10  C   UNL     1     220.878  -6.720  23.911  1.00  0.00     0.000 C 
BRANCH  10  11
ATOM     11  C   UNL     1     220.565  -7.767  22.830  1.00  0.00    -0.000 C 
BRANCH  11  12
ATOM     12  C   UNL     1     221.300  -9.098  23.068  1.00  0.00    -0.000 C 
BRANCH  12  13
ATOM     13  C   UNL     1     220.479 -10.087  23.911  1.00  0.00    -0.000 C 
BRANCH  13  14
ATOM     14  C   UNL     1     221.269 -10.634  25.113  1.00  0.00    -0.000 C 
BRANCH  14  15
ATOM     15  C   UNL     1     221.754  -9.519  26.054  1.00  0.00    -0.003 C 
ATOM     16  C   UNL     1     221.565  -9.866  27.531  1.00  0.00     0.004 C 
ENDBRANCH  14  15
ENDBRANCH  13  14
ENDBRANCH  12  13
ENDBRANCH  11  12
ENDBRANCH  10  11
ENDBRANCH   1  10
TORSDOF 12
ENDMDL
MODEL 7
REMARK VINA RESULT:    -5.467      2.703      5.851
REMARK INTER + INTRA:         -10.926
REMARK INTER:                  -9.263
REMARK INTRA:                  -1.663
REMARK UNBOUND:                -1.624
REMARK SMILES CCCCCCCCCCCCCC(=O)[O-]
REMARK SMILES IDX 8 1 9 2 10 3 11 4 12 5 13 6 14 7 15 8 16 9 7 10 6 11 5 12
REMARK SMILES IDX 4 13 3 14 2 15 1 16
REMARK H PARENT
REMARK Flexibility Score: inf
ROOT
ATOM      1  C   UNL     1     217.489  -7.852  25.163  1.00  0.00     0.000 C 
ENDROOT
BRANCH   1   2
ATOM      2  C   UNL     1     217.968  -7.796  26.623  1.00  0.00     0.000 C 
BRANCH   2   3
ATOM      3  C   UNL     1     217.394  -8.941  27.475  1.00  0.00     0.000 C 
BRANCH   3   4
ATOM      4  C   UNL     1     218.149  -9.137  28.802  1.00  0.00     0.000 C 
BRANCH   4   5
ATOM      5  C   UNL     1     218.471  -7.839  29.573  1.00  0.00     0.006 C 
BRANCH   5   6
ATOM      6  C   UNL     1     219.884  -7.787  30.174  1.00  0.00     0.053 C 
BRANCH   6   7
ATOM      7  C   UNL     1     220.935  -8.146  29.170  1.00  0.00     0.041 C 
ATOM      8  O   UNL     1     221.177  -7.376  28.204  1.00  0.00    -0.550 OA
ATOM      9  O   UNL     1     221.671  -9.315  29.319  1.00  0.00    -0.550 OA
ENDBRANCH   6   7
ENDBRANCH   5   6
ENDBRANCH   4   5
ENDBRANCH   3   4
ENDBRANCH   2   3
ENDBRANCH   1   2
BRANCH   1  10
ATOM     10  C   UNL     1     218.278  -6.902  24.243  1.00  0.00     0.000 C 
BRANCH  10  11
ATOM     11  C   UNL     1     219.605  -6.444  24.872  1.00  0.00    -0.000 C 
BRANCH  11  12
ATOM     12  C   UNL     1     220.810  -6.683  23.945  1.00  0.00    -0.000 C 
BRANCH  12  13
ATOM     13  C   UNL     1     220.602  -7.875  22.997  1.00  0.00    -0.000 C 
BRANCH  13  14
ATOM     14  C   UNL     1     221.423  -9.108  23.412  1.00  0.00    -0.000 C 
BRANCH  14  15
ATOM     15  C   UNL     1     220.659 -10.023  24.383  1.00  0.00    -0.003 C 
ATOM     16  C   UNL     1     221.169  -9.920  25.820  1.00  0.00     0.004 C 
ENDBRANCH  14  15
ENDBRANCH  13  14
ENDBRANCH  12  13
ENDBRANCH  11  12
ENDBRANCH  10  11
ENDBRANCH   1  10
TORSDOF 12
ENDMDL
MODEL 8
REMARK VINA RESULT:    -5.457      2.679      5.557
REMARK INTER + INTRA:         -10.910
REMARK INTER:                  -9.179
REMARK INTRA:                  -1.731
REMARK UNBOUND:                -1.624
REMARK SMILES CCCCCCCCCCCCCC(=O)[O-]
REMARK SMILES IDX 8 1 9 2 10 3 11 4 12 5 13 6 14 7 15 8 16 9 7 10 6 11 5 12
REMARK SMILES IDX 4 13 3 14 2 15 1 16
REMARK H PARENT
REMARK Flexibility Score: inf
ROOT
ATOM      1  C   UNL     1     217.763  -9.206  23.247  1.00  0.00     0.000 C 
ENDROOT
BRANCH   1   2
ATOM      2  C   UNL     1     217.576  -7.695  23.458  1.00  0.00     0.000 C 
BRANCH   2   3
ATOM      3  C   UNL     1     217.921  -7.253  24.890  1.00  0.00     0.000 C 
BRANCH   3   4
ATOM      4  C   UNL     1     217.684  -8.361  25.932  1.00  0.00     0.000 C 
BRANCH   4   5
ATOM      5  C   UNL     1     218.296  -8.096  27.324  1.00  0.00     0.006 C 
BRANCH   5   6
ATOM      6  C   UNL     1     217.871  -9.097  28.410  1.00  0.00     0.053 C 
BRANCH   6   7
ATOM      7  C   UNL     1     218.989  -9.405  29.357  1.00  0.00     0.041 C 
ATOM      8  O   UNL     1     220.160  -9.564  28.923  1.00  0.00    -0.550 OA
ATOM      9  O   UNL     1     218.744  -9.484  30.721  1.00  0.00    -0.550 OA
ENDBRANCH   6   7
ENDBRANCH   5   6
ENDBRANCH   4   5
ENDBRANCH   3   4
ENDBRANCH   2   3
ENDBRANCH   1   2
BRANCH   1  10
ATOM     10  C   UNL     1     218.551  -9.534  21.965  1.00  0.00     0.000 C 
BRANCH  10  11
ATOM     11  C   UNL     1     219.483  -8.387  21.540  1.00  0.00    -0.000 C 
BRANCH  11  12
ATOM     12  C   UNL     1     220.912  -8.556  22.084  1.00  0.00    -0.000 C 
BRANCH  12  13
ATOM     13  C   UNL     1     221.243  -7.555  23.203  1.00  0.00    -0.000 C 
BRANCH  13  14
ATOM     14  C   UNL     1     221.478  -8.243  24.559  1.00  0.00    -0.000 C 
BRANCH  14  15
ATOM     15  C   UNL     1     221.309  -9.769  24.481  1.00  0.00    -0.003 C 
ATOM     16  C   UNL     1     221.666 -10.473  25.789  1.00  0.00     0.004 C 
ENDBRANCH  14  15
ENDBRANCH  13  14
ENDBRANCH  12  13
ENDBRANCH  11  12
ENDBRANCH  10  11
ENDBRANCH   1  10
TORSDOF 12
ENDMDL
MODEL 9
REMARK VINA RESULT:    -5.397      1.445      2.924
REMARK INTER + INTRA:         -10.808
REMARK INTER:                  -9.044
REMARK INTRA:                  -1.764
REMARK UNBOUND:                -1.624
REMARK SMILES CCCCCCCCCCCCCC(=O)[O-]
REMARK SMILES IDX 8 1 9 2 10 3 11 4 12 5 13 6 14 7 15 8 16 9 7 10 6 11 5 12
REMARK SMILES IDX 4 13 3 14 2 15 1 16
REMARK H PARENT
REMARK Flexibility Score: inf
ROOT
ATOM      1  C   UNL     1     217.523  -8.601  26.183  1.00  0.00     0.000 C 
ENDROOT
BRANCH   1   2
ATOM      2  C   UNL     1     218.272  -7.258  26.221  1.00  0.00     0.000 C 
BRANCH   2   3
ATOM      3  C   UNL     1     218.635  -6.746  24.818  1.00  0.00     0.000 C 
BRANCH   3   4
ATOM      4  C   UNL     1     220.153  -6.587  24.611  1.00  0.00     0.000 C 
BRANCH   4   5
ATOM      5  C   UNL     1     220.806  -7.646  23.700  1.00  0.00     0.006 C 
BRANCH   5   6
ATOM      6  C   UNL     1     219.981  -8.017  22.457  1.00  0.00     0.053 C 
BRANCH   6   7
ATOM      7  C   UNL     1     219.443  -9.412  22.537  1.00  0.00     0.041 C 
ATOM      8  O   UNL     1     218.828  -9.910  21.558  1.00  0.00    -0.550 OA
ATOM      9  O   UNL     1     219.649 -10.174  23.680  1.00  0.00    -0.550 OA
ENDBRANCH   6   7
ENDBRANCH   5   6
ENDBRANCH   4   5
ENDBRANCH   3   4
ENDBRANCH   2   3
ENDBRANCH   1   2
BRANCH   1  10
ATOM     10  C   UNL     1     217.188  -9.134  27.587  1.00  0.00     0.000 C 
BRANCH  10  11
ATOM     11  C   UNL     1     217.974  -8.411  28.693  1.00  0.00    -0.000 C 
BRANCH  11  12
ATOM     12  C   UNL     1     218.715  -9.387  29.624  1.00  0.00    -0.000 C 
BRANCH  12  13
ATOM     13  C   UNL     1     220.178  -8.980  29.867  1.00  0.00    -0.000 C 
BRANCH  13  14
ATOM     14  C   UNL     1     220.695  -7.983  28.816  1.00  0.00    -0.000 C 
BRANCH  14  15
ATOM     15  C   UNL     1     221.761  -8.599  27.896  1.00  0.00    -0.003 C 
ATOM     16  C   UNL     1     221.170  -9.554  26.860  1.00  0.00     0.004 C 
ENDBRANCH  14  15
ENDBRANCH  13  14
ENDBRANCH  12  13
ENDBRANCH  11  12
ENDBRANCH  10  11
ENDBRANCH   1  10
TORSDOF 12
ENDMDL
