MODEL 1
REMARK VINA RESULT:    -4.784      0.000      0.000
REMARK INTER + INTRA:          -9.602
REMARK INTER:                  -8.420
REMARK INTRA:                  -1.181
REMARK UNBOUND:                -1.181
REMARK SMILES CCCCCCC=CCCCCCCCC(=O)[O-]
REMARK SMILES IDX 10 1 11 2 12 3 13 4 14 5 15 6 16 7 17 8 18 9 9 10 8 11 7 12
REMARK SMILES IDX 6 13 5 14 4 15 3 16 2 17 1 18
REMARK H PARENT
REMARK Flexibility Score: inf
ROOT
ATOM      1  C   UNL     1       3.764   9.825  82.690  1.00  0.00     0.004 C 
ENDROOT
BRANCH   1   2
ATOM      2  C   UNL     1       4.657   8.663  82.241  1.00  0.00     0.000 C 
BRANCH   2   3
ATOM      3  C   UNL     1       6.135   9.080  82.220  1.00  0.00     0.000 C 
BRANCH   3   4
ATOM      4  C   UNL     1       6.766   8.954  80.824  1.00  0.00     0.000 C 
BRANCH   4   5
ATOM      5  C   UNL     1       6.954   7.494  80.389  1.00  0.00     0.006 C 
BRANCH   5   6
ATOM      6  C   UNL     1       8.156   7.352  79.452  1.00  0.00     0.053 C 
BRANCH   6   7
ATOM      7  C   UNL     1       8.779   5.999  79.599  1.00  0.00     0.041 C 
ATOM      8  O   UNL     1      10.000   5.831  79.340  1.00  0.00    -0.550 OA
ATOM      9  O   UNL     1       8.023   4.932  80.070  1.00  0.00    -0.550 OA
ENDBRANCH   6   7
ENDBRANCH   5   6
ENDBRANCH   4   5
ENDBRANCH   3   4
ENDBRANCH   2   3
ENDBRANCH   1   2
BRANCH   1  10
ATOM     10  C   UNL     1       2.731   9.361  83.724  1.00  0.00     0.027 C 
BRANCH  10  11
ATOM     11  C   UNL     1       2.320  10.514  84.610  1.00  0.00    -0.031 C 
ATOM     12  C   UNL     1       2.443  10.563  85.952  1.00  0.00    -0.031 C 
BRANCH  12  13
ATOM     13  C   UNL     1       2.985   9.460  86.833  1.00  0.00     0.027 C 
BRANCH  13  14
ATOM     14  C   UNL     1       1.972   9.017  87.899  1.00  0.00     0.004 C 
BRANCH  14  15
ATOM     15  C   UNL     1       0.812   8.203  87.310  1.00  0.00     0.000 C 
BRANCH  15  16
ATOM     16  C   UNL     1       1.203   6.733  87.106  1.00  0.00    -0.000 C 
BRANCH  16  17
ATOM     17  C   UNL     1       1.447   6.391  85.628  1.00  0.00    -0.003 C 
ATOM     18  C   UNL     1       2.907   6.053  85.328  1.00  0.00     0.004 C 
ENDBRANCH  16  17
ENDBRANCH  15  16
ENDBRANCH  14  15
ENDBRANCH  13  14
ENDBRANCH  12  13
ENDBRANCH  10  11
ENDBRANCH   1  10
TORSDOF 13
ENDMDL
MODEL 2
REMARK VINA RESULT:    -4.748      3.864      6.686
REMARK INTER + INTRA:          -9.538
REMARK INTER:                  -7.917
REMARK INTRA:                  -1.621
REMARK UNBOUND:                -1.181
REMARK SMILES CCCCCCC=CCCCCCCCC(=O)[O-]
REMARK SMILES IDX 10 1 11 2 12 3 13 4 14 5 15 6 16 7 17 8 18 9 9 10 8 11 7 12
REMARK SMILES IDX 6 13 5 14 4 15 3 16 2 17 1 18
REMARK H PARENT
REMARK Flexibility Score: inf
ROOT
ATOM      1  C   UNL     1       5.459   8.526  82.057  1.00  0.00     0.004 C 
ENDROOT
BRANCH   1   2
ATOM      2  C   UNL     1       6.428   8.287  80.893  1.00  0.00     0.000 C 
BRANCH   2   3
ATOM      3  C   UNL     1       7.714   9.108  81.069  1.00  0.00     0.000 C 
BRANCH   3   4
ATOM      4  C   UNL     1       8.860   8.614  80.173  1.00  0.00     0.000 C 
BRANCH   4   5
ATOM      5  C   UNL     1       8.383   7.638  79.087  1.00  0.00     0.006 C 
BRANCH   5   6
ATOM      6  C   UNL     1       9.368   6.478  78.923  1.00  0.00     0.053 C 
BRANCH   6   7
ATOM      7  C   UNL     1       8.889   5.274  79.671  1.00  0.00     0.041 C 
ATOM      8  O   UNL     1       7.671   5.152  79.964  1.00  0.00    -0.550 OA
ATOM      9  O   UNL     1       9.781   4.261  80.005  1.00  0.00    -0.550 OA
ENDBRANCH   6   7
ENDBRANCH   5   6
ENDBRANCH   4   5
ENDBRANCH   3   4
ENDBRANCH   2   3
ENDBRANCH   1   2
BRANCH   1  10
ATOM     10  C   UNL     1       5.451  10.001  82.475  1.00  0.00     0.027 C 
BRANCH  10  11
ATOM     11  C   UNL     1       4.297  10.725  81.821  1.00  0.00    -0.031 C 
ATOM     12  C   UNL     1       4.399  11.739  80.937  1.00  0.00    -0.031 C 
BRANCH  12  13
ATOM     13  C   UNL     1       5.686  12.368  80.454  1.00  0.00     0.027 C 
BRANCH  13  14
ATOM     14  C   UNL     1       6.160  11.773  79.119  1.00  0.00     0.004 C 
BRANCH  14  15
ATOM     15  C   UNL     1       6.861  12.806  78.227  1.00  0.00     0.000 C 
BRANCH  15  16
ATOM     16  C   UNL     1       5.901  13.924  77.799  1.00  0.00    -0.000 C 
BRANCH  16  17
ATOM     17  C   UNL     1       4.672  13.387  77.051  1.00  0.00    -0.003 C 
ATOM     18  C   UNL     1       3.367  14.049  77.494  1.00  0.00     0.004 C 
ENDBRANCH  16  17
ENDBRANCH  15  16
ENDBRANCH  14  15
ENDBRANCH  13  14
ENDBRANCH  12  13
ENDBRANCH  10  11
ENDBRANCH   1  10
TORSDOF 13
ENDMDL
MODEL 3
REMARK VINA RESULT:    -4.741      0.888      1.281
REMARK INTER + INTRA:          -9.526
REMARK INTER:                  -8.375
REMARK INTRA:                  -1.150
REMARK UNBOUND:                -1.181
REMARK SMILES CCCCCCC=CCCCCCCCC(=O)[O-]
REMARK SMILES IDX 10 1 11 2 12 3 13 4 14 5 15 6 16 7 17 8 18 9 9 10 8 11 7 12
REMARK SMILES IDX 6 13 5 14 4 15 3 16 2 17 1 18
REMARK H PARENT
REMARK Flexibility Score: inf
ROOT
ATOM      1  C   UNL     1       4.292   8.765  82.512  1.00  0.00     0.004 C 
ENDROOT
BRANCH   1   2
ATOM      2  C   UNL     1       5.563   9.482  82.040  1.00  0.00     0.000 C 
BRANCH   2   3
ATOM      3  C   UNL     1       6.575   8.483  81.460  1.00  0.00     0.000 C 
BRANCH   3   4
ATOM      4  C   UNL     1       7.317   9.036  80.233  1.00  0.00     0.000 C 
BRANCH   4   5
ATOM      5  C   UNL     1       7.608   7.956  79.180  1.00  0.00     0.006 C 
BRANCH   5   6
ATOM      6  C   UNL     1       8.822   7.115  79.580  1.00  0.00     0.053 C 
BRANCH   6   7
ATOM      7  C   UNL     1       8.446   5.672  79.697  1.00  0.00     0.041 C 
ATOM      8  O   UNL     1       7.234   5.334  79.745  1.00  0.00    -0.550 OA
ATOM      9  O   UNL     1       9.433   4.693  79.703  1.00  0.00    -0.550 OA
ENDBRANCH   6   7
ENDBRANCH   5   6
ENDBRANCH   4   5
ENDBRANCH   3   4
ENDBRANCH   2   3
ENDBRANCH   1   2
BRANCH   1  10
ATOM     10  C   UNL     1       3.171   9.768  82.808  1.00  0.00     0.027 C 
BRANCH  10  11
ATOM     11  C   UNL     1       3.633  10.790  83.821  1.00  0.00    -0.031 C 
ATOM     12  C   UNL     1       3.175  10.916  85.082  1.00  0.00    -0.031 C 
BRANCH  12  13
ATOM     13  C   UNL     1       2.086  10.082  85.718  1.00  0.00     0.027 C 
BRANCH  13  14
ATOM     14  C   UNL     1       2.468   9.602  87.126  1.00  0.00     0.004 C 
BRANCH  14  15
ATOM     15  C   UNL     1       1.980   8.176  87.417  1.00  0.00     0.000 C 
BRANCH  15  16
ATOM     16  C   UNL     1       0.999   7.687  86.342  1.00  0.00    -0.000 C 
BRANCH  16  17
ATOM     17  C   UNL     1       1.474   6.396  85.659  1.00  0.00    -0.003 C 
ATOM     18  C   UNL     1       2.958   6.427  85.292  1.00  0.00     0.004 C 
ENDBRANCH  16  17
ENDBRANCH  15  16
ENDBRANCH  14  15
ENDBRANCH  13  14
ENDBRANCH  12  13
ENDBRANCH  10  11
ENDBRANCH   1  10
TORSDOF 13
ENDMDL
MODEL 4
REMARK VINA RESULT:    -4.595      2.994      4.991
REMARK INTER + INTRA:          -9.269
REMARK INTER:                  -8.024
REMARK INTRA:                  -1.245
REMARK UNBOUND:                -1.181
REMARK SMILES CCCCCCC=CCCCCCCCC(=O)[O-]
REMARK SMILES IDX 10 1 11 2 12 3 13 4 14 5 15 6 16 7 17 8 18 9 9 10 8 11 7 12
REMARK SMILES IDX 6 13 5 14 4 15 3 16 2 17 1 18
REMARK H PARENT
REMARK Flexibility Score: inf
ROOT
ATOM      1  C   UNL     1       6.853   8.465  80.995  1.00  0.00     0.004 C 
ENDROOT
BRANCH   1   2
ATOM      2  C   UNL     1       7.088   9.369  79.779  1.00  0.00     0.000 C 
BRANCH   2   3
ATOM      3  C   UNL     1       8.578   9.713  79.630  1.00  0.00     0.000 C 
BRANCH   3   4
ATOM      4  C   UNL     1       9.496   8.663  80.274  1.00  0.00     0.000 C 
BRANCH   4   5
ATOM      5  C   UNL     1      10.105   7.699  79.246  1.00  0.00     0.006 C 
BRANCH   5   6
ATOM      6  C   UNL     1       9.042   6.750  78.687  1.00  0.00     0.053 C 
BRANCH   6   7
ATOM      7  C   UNL     1       8.958   5.508  79.517  1.00  0.00     0.041 C 
ATOM      8  O   UNL     1       9.997   4.844  79.772  1.00  0.00    -0.550 OA
ATOM      9  O   UNL     1       7.738   5.108  80.050  1.00  0.00    -0.550 OA
ENDBRANCH   6   7
ENDBRANCH   5   6
ENDBRANCH   4   5
ENDBRANCH   3   4
ENDBRANCH   2   3
ENDBRANCH   1   2
BRANCH   1  10
ATOM     10  C   UNL     1       6.038   9.191  82.073  1.00  0.00     0.027 C 
BRANCH  10  11
ATOM     11  C   UNL     1       4.742   8.458  82.333  1.00  0.00    -0.031 C 
ATOM     12  C   UNL     1       3.577   9.023  82.707  1.00  0.00    -0.031 C 
BRANCH  12  13
ATOM     13  C   UNL     1       3.349  10.495  82.970  1.00  0.00     0.027 C 
BRANCH  13  14
ATOM     14  C   UNL     1       2.114  11.033  82.232  1.00  0.00     0.004 C 
BRANCH  14  15
ATOM     15  C   UNL     1       2.374  12.382  81.549  1.00  0.00     0.000 C 
BRANCH  15  16
ATOM     16  C   UNL     1       2.538  12.221  80.031  1.00  0.00    -0.000 C 
BRANCH  16  17
ATOM     17  C   UNL     1       3.830  12.868  79.508  1.00  0.00    -0.003 C 
ATOM     18  C   UNL     1       5.082  12.358  80.221  1.00  0.00     0.004 C 
ENDBRANCH  16  17
ENDBRANCH  15  16
ENDBRANCH  14  15
ENDBRANCH  13  14
ENDBRANCH  12  13
ENDBRANCH  10  11
ENDBRANCH   1  10
TORSDOF 13
ENDMDL
MODEL 5
REMARK VINA RESULT:    -4.570      3.414      7.706
REMARK INTER + INTRA:          -9.225
REMARK INTER:                  -8.579
REMARK INTRA:                  -0.646
REMARK UNBOUND:                -1.181
REMARK SMILES CCCCCCC=CCCCCCCCC(=O)[O-]
REMARK SMILES IDX 10 1 11 2 12 3 13 4 14 5 15 6 16 7 17 8 18 9 9 10 8 11 7 12
REMARK SMILES IDX 6 13 5 14 4 15 3 16 2 17 1 18
REMARK H PARENT
REMARK Flexibility Score: inf
ROOT
ATOM      1  C   UNL     1       2.333  10.036  85.052  1.00  0.00     0.004 C 
ENDROOT
BRANCH   1   2
ATOM      2  C   UNL     1       1.469   8.777  84.912  1.00  0.00     0.000 C 
BRANCH   2   3
ATOM      3  C   UNL     1       1.881   7.711  85.938  1.00  0.00     0.000 C 
BRANCH   3   4
ATOM      4  C   UNL     1       1.316   6.320  85.605  1.00  0.00     0.000 C 
BRANCH   4   5
ATOM      5  C   UNL     1       2.278   5.185  85.985  1.00  0.00     0.006 C 
BRANCH   5   6
ATOM      6  C   UNL     1       1.680   4.306  87.086  1.00  0.00     0.053 C 
BRANCH   6   7
ATOM      7  C   UNL     1       2.551   3.116  87.340  1.00  0.00     0.041 C 
ATOM      8  O   UNL     1       3.612   2.955  86.681  1.00  0.00    -0.550 OA
ATOM      9  O   UNL     1       2.217   2.208  88.337  1.00  0.00    -0.550 OA
ENDBRANCH   6   7
ENDBRANCH   5   6
ENDBRANCH   4   5
ENDBRANCH   3   4
ENDBRANCH   2   3
ENDBRANCH   1   2
BRANCH   1  10
ATOM     10  C   UNL     1       3.229  10.232  83.823  1.00  0.00     0.027 C 
BRANCH  10  11
ATOM     11  C   UNL     1       3.396   8.925  83.083  1.00  0.00    -0.031 C 
ATOM     12  C   UNL     1       4.415   8.609  82.258  1.00  0.00    -0.031 C 
BRANCH  12  13
ATOM     13  C   UNL     1       5.569   9.513  81.889  1.00  0.00     0.027 C 
BRANCH  13  14
ATOM     14  C   UNL     1       6.894   8.744  81.769  1.00  0.00     0.004 C 
BRANCH  14  15
ATOM     15  C   UNL     1       7.255   8.411  80.315  1.00  0.00     0.000 C 
BRANCH  15  16
ATOM     16  C   UNL     1       7.049   6.920  80.012  1.00  0.00    -0.000 C 
BRANCH  16  17
ATOM     17  C   UNL     1       8.360   6.209  79.646  1.00  0.00    -0.003 C 
ATOM     18  C   UNL     1       9.393   7.148  79.023  1.00  0.00     0.004 C 
ENDBRANCH  16  17
ENDBRANCH  15  16
ENDBRANCH  14  15
ENDBRANCH  13  14
ENDBRANCH  12  13
ENDBRANCH  10  11
ENDBRANCH   1  10
TORSDOF 13
ENDMDL
MODEL 6
REMARK VINA RESULT:    -4.487      3.124      7.804
REMARK INTER + INTRA:          -9.078
REMARK INTER:                  -8.157
REMARK INTRA:                  -0.922
REMARK UNBOUND:                -1.181
REMARK SMILES CCCCCCC=CCCCCCCCC(=O)[O-]
REMARK SMILES IDX 10 1 11 2 12 3 13 4 14 5 15 6 16 7 17 8 18 9 9 10 8 11 7 12
REMARK SMILES IDX 6 13 5 14 4 15 3 16 2 17 1 18
REMARK H PARENT
REMARK Flexibility Score: inf
ROOT
ATOM      1  C   UNL     1       2.577   9.119  84.047  1.00  0.00     0.004 C 
ENDROOT
BRANCH   1   2
ATOM      2  C   UNL     1       2.879  10.150  85.141  1.00  0.00     0.000 C 
BRANCH   2   3
ATOM      3  C   UNL     1       2.737   9.527  86.538  1.00  0.00     0.000 C 
BRANCH   3   4
ATOM      4  C   UNL     1       1.309   9.640  87.095  1.00  0.00     0.000 C 
BRANCH   4   5
ATOM      5  C   UNL     1       0.566   8.296  87.096  1.00  0.00     0.006 C 
BRANCH   5   6
ATOM      6  C   UNL     1       1.551   7.126  87.026  1.00  0.00     0.053 C 
BRANCH   6   7
ATOM      7  C   UNL     1       1.271   6.275  85.828  1.00  0.00     0.041 C 
ATOM      8  O   UNL     1       2.088   5.384  85.477  1.00  0.00    -0.550 OA
ATOM      9  O   UNL     1       0.083   6.434  85.124  1.00  0.00    -0.550 OA
ENDBRANCH   6   7
ENDBRANCH   5   6
ENDBRANCH   4   5
ENDBRANCH   3   4
ENDBRANCH   2   3
ENDBRANCH   1   2
BRANCH   1  10
ATOM     10  C   UNL     1       2.764   9.724  82.651  1.00  0.00     0.027 C 
BRANCH  10  11
ATOM     11  C   UNL     1       4.033  10.542  82.599  1.00  0.00    -0.031 C 
ATOM     12  C   UNL     1       5.253  10.087  82.246  1.00  0.00    -0.031 C 
BRANCH  12  13
ATOM     13  C   UNL     1       5.592   8.664  81.867  1.00  0.00     0.027 C 
BRANCH  13  14
ATOM     14  C   UNL     1       7.014   8.536  81.300  1.00  0.00     0.004 C 
BRANCH  14  15
ATOM     15  C   UNL     1       7.093   7.564  80.115  1.00  0.00     0.000 C 
BRANCH  15  16
ATOM     16  C   UNL     1       8.329   7.836  79.246  1.00  0.00    -0.000 C 
BRANCH  16  17
ATOM     17  C   UNL     1       9.250   6.612  79.138  1.00  0.00    -0.003 C 
ATOM     18  C   UNL     1       8.610   5.334  79.680  1.00  0.00     0.004 C 
ENDBRANCH  16  17
ENDBRANCH  15  16
ENDBRANCH  14  15
ENDBRANCH  13  14
ENDBRANCH  12  13
ENDBRANCH  10  11
ENDBRANCH   1  10
TORSDOF 13
ENDMDL
MODEL 7
REMARK VINA RESULT:    -4.484      1.637      2.578
REMARK INTER + INTRA:          -9.073
REMARK INTER:                  -7.951
REMARK INTRA:                  -1.123
REMARK UNBOUND:                -1.181
REMARK SMILES CCCCCCC=CCCCCCCCC(=O)[O-]
REMARK SMILES IDX 10 1 11 2 12 3 13 4 14 5 15 6 16 7 17 8 18 9 9 10 8 11 7 12
REMARK SMILES IDX 6 13 5 14 4 15 3 16 2 17 1 18
REMARK H PARENT
REMARK Flexibility Score: inf
ROOT
ATOM      1  C   UNL     1       4.846  11.298  80.901  1.00  0.00     0.004 C 
ENDROOT
BRANCH   1   2
ATOM      2  C   UNL     1       5.134  10.528  82.195  1.00  0.00     0.000 C 
BRANCH   2   3
ATOM      3  C   UNL     1       5.364   9.036  81.909  1.00  0.00     0.000 C 
BRANCH   3   4
ATOM      4  C   UNL     1       6.810   8.730  81.488  1.00  0.00     0.000 C 
BRANCH   4   5
ATOM      5  C   UNL     1       6.906   7.541  80.521  1.00  0.00     0.006 C 
BRANCH   5   6
ATOM      6  C   UNL     1       7.921   7.819  79.410  1.00  0.00     0.053 C 
BRANCH   6   7
ATOM      7  C   UNL     1       8.883   6.680  79.280  1.00  0.00     0.041 C 
ATOM      8  O   UNL     1      10.088   6.898  78.988  1.00  0.00    -0.550 OA
ATOM      9  O   UNL     1       8.459   5.380  79.527  1.00  0.00    -0.550 OA
ENDBRANCH   6   7
ENDBRANCH   5   6
ENDBRANCH   4   5
ENDBRANCH   3   4
ENDBRANCH   2   3
ENDBRANCH   1   2
BRANCH   1  10
ATOM     10  C   UNL     1       3.543  12.099  81.013  1.00  0.00     0.027 C 
BRANCH  10  11
ATOM     11  C   UNL     1       3.329  12.557  82.437  1.00  0.00    -0.031 C 
ATOM     12  C   UNL     1       2.307  12.196  83.238  1.00  0.00    -0.031 C 
BRANCH  12  13
ATOM     13  C   UNL     1       1.159  11.289  82.856  1.00  0.00     0.027 C 
BRANCH  13  14
ATOM     14  C   UNL     1       1.519   9.803  83.001  1.00  0.00     0.004 C 
BRANCH  14  15
ATOM     15  C   UNL     1       1.260   9.266  84.415  1.00  0.00     0.000 C 
BRANCH  15  16
ATOM     16  C   UNL     1       2.566   8.853  85.107  1.00  0.00    -0.000 C 
BRANCH  16  17
ATOM     17  C   UNL     1       2.404   7.580  85.953  1.00  0.00    -0.003 C 
ATOM     18  C   UNL     1       2.980   6.337  85.274  1.00  0.00     0.004 C 
ENDBRANCH  16  17
ENDBRANCH  15  16
ENDBRANCH  14  15
ENDBRANCH  13  14
ENDBRANCH  12  13
ENDBRANCH  10  11
ENDBRANCH   1  10
TORSDOF 13
ENDMDL
MODEL 8
REMARK VINA RESULT:    -4.367      2.804      5.549
REMARK INTER + INTRA:          -8.868
REMARK INTER:                  -7.337
REMARK INTRA:                  -1.531
REMARK UNBOUND:                -1.181
REMARK SMILES CCCCCCC=CCCCCCCCC(=O)[O-]
REMARK SMILES IDX 10 1 11 2 12 3 13 4 14 5 15 6 16 7 17 8 18 9 9 10 8 11 7 12
REMARK SMILES IDX 6 13 5 14 4 15 3 16 2 17 1 18
REMARK H PARENT
REMARK Flexibility Score: inf
ROOT
ATOM      1  C   UNL     1       3.824   9.175  82.656  1.00  0.00     0.004 C 
ENDROOT
BRANCH   1   2
ATOM      2  C   UNL     1       4.930  10.194  82.355  1.00  0.00     0.000 C 
BRANCH   2   3
ATOM      3  C   UNL     1       6.080   9.542  81.572  1.00  0.00     0.000 C 
BRANCH   3   4
ATOM      4  C   UNL     1       5.889   8.028  81.389  1.00  0.00     0.000 C 
BRANCH   4   5
ATOM      5  C   UNL     1       6.911   7.415  80.421  1.00  0.00     0.006 C 
BRANCH   5   6
ATOM      6  C   UNL     1       7.674   8.507  79.666  1.00  0.00     0.053 C 
BRANCH   6   7
ATOM      7  C   UNL     1       9.131   8.177  79.596  1.00  0.00     0.041 C 
ATOM      8  O   UNL     1       9.989   9.001  80.009  1.00  0.00    -0.550 OA
ATOM      9  O   UNL     1       9.542   6.939  79.117  1.00  0.00    -0.550 OA
ENDBRANCH   6   7
ENDBRANCH   5   6
ENDBRANCH   4   5
ENDBRANCH   3   4
ENDBRANCH   2   3
ENDBRANCH   1   2
BRANCH   1  10
ATOM     10  C   UNL     1       2.692   9.814  83.469  1.00  0.00     0.027 C 
BRANCH  10  11
ATOM     11  C   UNL     1       1.427   9.879  82.645  1.00  0.00    -0.031 C 
ATOM     12  C   UNL     1       1.076  10.880  81.813  1.00  0.00    -0.031 C 
BRANCH  12  13
ATOM     13  C   UNL     1       1.865  12.147  81.567  1.00  0.00     0.027 C 
BRANCH  13  14
ATOM     14  C   UNL     1       2.323  12.273  80.107  1.00  0.00     0.004 C 
BRANCH  14  15
ATOM     15  C   UNL     1       3.330  13.413  79.899  1.00  0.00     0.000 C 
BRANCH  15  16
ATOM     16  C   UNL     1       4.451  13.004  78.933  1.00  0.00    -0.000 C 
BRANCH  16  17
ATOM     17  C   UNL     1       5.775  12.719  79.659  1.00  0.00    -0.003 C 
ATOM     18  C   UNL     1       6.790  11.986  78.781  1.00  0.00     0.004 C 
ENDBRANCH  16  17
ENDBRANCH  15  16
ENDBRANCH  14  15
ENDBRANCH  13  14
ENDBRANCH  12  13
ENDBRANCH  10  11
ENDBRANCH   1  10
TORSDOF 13
ENDMDL
MODEL 9
REMARK VINA RESULT:    -4.329      4.021      7.763
REMARK INTER + INTRA:          -8.800
REMARK INTER:                  -7.384
REMARK INTRA:                  -1.416
REMARK UNBOUND:                -1.181
REMARK SMILES CCCCCCC=CCCCCCCCC(=O)[O-]
REMARK SMILES IDX 10 1 11 2 12 3 13 4 14 5 15 6 16 7 17 8 18 9 9 10 8 11 7 12
REMARK SMILES IDX 6 13 5 14 4 15 3 16 2 17 1 18
REMARK H PARENT
REMARK Flexibility Score: inf
ROOT
ATOM      1  C   UNL     1       4.632  11.254  81.196  1.00  0.00     0.004 C 
ENDROOT
BRANCH   1   2
ATOM      2  C   UNL     1       5.266  10.404  82.303  1.00  0.00     0.000 C 
BRANCH   2   3
ATOM      3  C   UNL     1       5.489   8.960  81.828  1.00  0.00     0.000 C 
BRANCH   3   4
ATOM      4  C   UNL     1       6.961   8.663  81.503  1.00  0.00     0.000 C 
BRANCH   4   5
ATOM      5  C   UNL     1       7.165   8.204  80.052  1.00  0.00     0.006 C 
BRANCH   5   6
ATOM      6  C   UNL     1       7.164   6.676  79.956  1.00  0.00     0.053 C 
BRANCH   6   7
ATOM      7  C   UNL     1       8.519   6.173  79.569  1.00  0.00     0.041 C 
ATOM      8  O   UNL     1       8.855   4.989  79.832  1.00  0.00    -0.550 OA
ATOM      9  O   UNL     1       9.396   6.999  78.875  1.00  0.00    -0.550 OA
ENDBRANCH   6   7
ENDBRANCH   5   6
ENDBRANCH   4   5
ENDBRANCH   3   4
ENDBRANCH   2   3
ENDBRANCH   1   2
BRANCH   1  10
ATOM     10  C   UNL     1       5.703  12.003  80.394  1.00  0.00     0.027 C 
BRANCH  10  11
ATOM     11  C   UNL     1       5.160  12.405  79.042  1.00  0.00    -0.031 C 
ATOM     12  C   UNL     1       5.804  13.152  78.122  1.00  0.00    -0.031 C 
BRANCH  12  13
ATOM     13  C   UNL     1       7.179  13.760  78.278  1.00  0.00     0.027 C 
BRANCH  13  14
ATOM     14  C   UNL     1       8.100  13.428  77.094  1.00  0.00     0.004 C 
BRANCH  14  15
ATOM     15  C   UNL     1       9.561  13.228  77.519  1.00  0.00     0.000 C 
BRANCH  15  16
ATOM     16  C   UNL     1       9.745  13.457  79.025  1.00  0.00    -0.000 C 
BRANCH  16  17
ATOM     17  C   UNL     1      10.347  12.235  79.735  1.00  0.00    -0.003 C 
ATOM     18  C   UNL     1       9.531  10.960  79.520  1.00  0.00     0.004 C 
ENDBRANCH  16  17
ENDBRANCH  15  16
ENDBRANCH  14  15
ENDBRANCH  13  14
ENDBRANCH  12  13
ENDBRANCH  10  11
ENDBRANCH   1  10
TORSDOF 13
ENDMDL
