MODEL 1
REMARK VINA RESULT:    -5.622      0.000      0.000
REMARK INTER + INTRA:          -5.828
REMARK INTER:                  -6.115
REMARK INTRA:                   0.287
REMARK UNBOUND:                 0.287
REMARK SMILES CC1(C)CC[C@]2(C(=O)[O-])CC[C@]3(C)C(=CC[C@@H]4[C@@]5(C)CC[C@H](O)C(C)(C)[C@H]5CC[C@@]43C)[C@H]2C1
REMARK SMILES IDX 6 1 5 2 10 3 32 4 4 5 11 6 14 7 33 8 2 9 12 10 15 11 1 12
REMARK SMILES IDX 3 13 13 14 30 15 16 16 17 17 29 18 31 19 18 20 28 21 27 22
REMARK SMILES IDX 20 23 19 24 24 25 21 26 22 27 25 28 26 29 7 30 8 31 9 32
REMARK SMILES IDX 23 33
REMARK H PARENT 23 34
REMARK Flexibility Score: inf
ROOT
ATOM      1  C   UNL     1       8.419  10.084 -17.252  1.00  0.00     0.017 C 
ATOM      2  C   UNL     1       8.874   8.597 -17.257  1.00  0.00     0.014 C 
ATOM      3  C   UNL     1       9.288  10.894 -18.265  1.00  0.00     0.014 C 
ATOM      4  C   UNL     1       8.648  10.616 -15.795  1.00  0.00     0.028 C 
ATOM      5  C   UNL     1       8.089   7.743 -16.237  1.00  0.00     0.007 C 
ATOM      6  C   UNL     1       9.245  12.440 -18.073  1.00  0.00     0.013 C 
ATOM      7  C   UNL     1       8.532  12.142 -15.751  1.00  0.00    -0.064 C 
ATOM      8  C   UNL     1       7.817   9.818 -14.758  1.00  0.00     0.015 C 
ATOM      9  C   UNL     1       8.144   8.295 -14.783  1.00  0.00    -0.035 C 
ATOM     10  C   UNL     1       9.527  12.937 -16.607  1.00  0.00    -0.006 C 
ATOM     11  C   UNL     1       7.354  12.696 -15.430  1.00  0.00    -0.027 C 
ATOM     12  C   UNL     1       9.530   8.012 -14.151  1.00  0.00     0.011 C 
ATOM     13  C   UNL     1       7.087   7.555 -13.934  1.00  0.00     0.011 C 
ATOM     14  C   UNL     1      10.996  12.491 -16.272  1.00  0.00     0.017 C 
ATOM     15  C   UNL     1       9.382  14.570 -16.377  1.00  0.00    -0.020 C 
ATOM     16  C   UNL     1       6.895  13.955 -16.088  1.00  0.00     0.032 C 
ATOM     17  C   UNL     1       7.932  15.075 -15.902  1.00  0.00     0.006 C 
ATOM     18  C   UNL     1       9.784  15.284 -17.688  1.00  0.00     0.008 C 
ATOM     19  C   UNL     1      10.384  15.027 -15.257  1.00  0.00     0.012 C 
ATOM     20  C   UNL     1       7.425  16.578 -16.316  1.00  0.00    -0.025 C 
ATOM     21  C   UNL     1       9.607  16.788 -17.661  1.00  0.00     0.005 C 
ATOM     22  C   UNL     1       8.108  17.170 -17.628  1.00  0.00     0.003 C 
ATOM     23  C   UNL     1       7.706  17.542 -15.114  1.00  0.00     0.010 C 
ATOM     24  C   UNL     1       5.876  16.559 -16.515  1.00  0.00     0.012 C 
ATOM     25  C   UNL     1       7.894  18.744 -17.887  1.00  0.00    -0.006 C 
ATOM     26  C   UNL     1       7.379  19.014 -15.377  1.00  0.00     0.033 C 
ATOM     27  C   UNL     1       8.158  19.554 -16.579  1.00  0.00     0.120 C 
ATOM     28  C   UNL     1       6.467  19.047 -18.453  1.00  0.00     0.014 C 
ATOM     29  C   UNL     1       8.881  19.279 -18.969  1.00  0.00     0.014 C 
ENDROOT
BRANCH   1  30
ATOM     30  C   UNL     1       6.967  10.153 -17.738  1.00  0.00     0.048 C 
ATOM     31  O   UNL     1       6.726  10.272 -18.972  1.00  0.00    -0.550 OA
ATOM     32  O   UNL     1       5.892  10.140 -16.863  1.00  0.00    -0.550 OA
ENDBRANCH   1  30
BRANCH  27  33
ATOM     33  O   UNL     1       7.820  20.909 -16.755  1.00  0.00    -0.393 OA
ATOM     34  H   UNL     1       8.066  21.388 -15.920  1.00  0.00     0.210 HD
ENDBRANCH  27  33
TORSDOF 2
ENDMDL
MODEL 2
REMARK VINA RESULT:    -4.382      2.191      8.353
REMARK INTER + INTRA:          -4.479
REMARK INTER:                  -5.027
REMARK INTRA:                   0.548
REMARK UNBOUND:                 0.287
REMARK SMILES CC1(C)CC[C@]2(C(=O)[O-])CC[C@]3(C)C(=CC[C@@H]4[C@@]5(C)CC[C@H](O)C(C)(C)[C@H]5CC[C@@]43C)[C@H]2C1
REMARK SMILES IDX 6 1 5 2 10 3 32 4 4 5 11 6 14 7 33 8 2 9 12 10 15 11 1 12
REMARK SMILES IDX 3 13 13 14 30 15 16 16 17 17 29 18 31 19 18 20 28 21 27 22
REMARK SMILES IDX 20 23 19 24 24 25 21 26 22 27 25 28 26 29 7 30 8 31 9 32
REMARK SMILES IDX 23 33
REMARK H PARENT 23 34
REMARK Flexibility Score: inf
ROOT
ATOM      1  C   UNL     1       9.440  15.525 -17.279  1.00  0.00     0.017 C 
ATOM      2  C   UNL     1       9.932  16.813 -17.997  1.00  0.00     0.014 C 
ATOM      3  C   UNL     1      10.614  14.499 -17.196  1.00  0.00     0.014 C 
ATOM      4  C   UNL     1       8.274  14.946 -18.151  1.00  0.00     0.028 C 
ATOM      5  C   UNL     1       8.806  17.857 -18.161  1.00  0.00     0.007 C 
ATOM      6  C   UNL     1      10.181  13.033 -16.894  1.00  0.00     0.013 C 
ATOM      7  C   UNL     1       7.926  13.520 -17.713  1.00  0.00    -0.064 C 
ATOM      8  C   UNL     1       7.099  15.949 -18.275  1.00  0.00     0.015 C 
ATOM      9  C   UNL     1       7.545  17.310 -18.890  1.00  0.00    -0.035 C 
ATOM     10  C   UNL     1       9.041  12.471 -17.823  1.00  0.00    -0.006 C 
ATOM     11  C   UNL     1       6.934  13.335 -16.830  1.00  0.00    -0.027 C 
ATOM     12  C   UNL     1       7.817  17.172 -20.409  1.00  0.00     0.011 C 
ATOM     13  C   UNL     1       6.393  18.324 -18.714  1.00  0.00     0.011 C 
ATOM     14  C   UNL     1       9.630  12.466 -19.279  1.00  0.00     0.017 C 
ATOM     15  C   UNL     1       8.506  10.951 -17.440  1.00  0.00    -0.020 C 
ATOM     16  C   UNL     1       7.025  12.268 -15.790  1.00  0.00     0.032 C 
ATOM     17  C   UNL     1       7.249  10.893 -16.441  1.00  0.00     0.006 C 
ATOM     18  C   UNL     1       9.689  10.155 -16.844  1.00  0.00     0.008 C 
ATOM     19  C   UNL     1       8.047  10.218 -18.751  1.00  0.00     0.012 C 
ATOM     20  C   UNL     1       7.072   9.606 -15.441  1.00  0.00    -0.025 C 
ATOM     21  C   UNL     1       9.326   8.768 -16.354  1.00  0.00     0.005 C 
ATOM     22  C   UNL     1       8.428   8.843 -15.096  1.00  0.00     0.003 C 
ATOM     23  C   UNL     1       6.074   8.598 -16.105  1.00  0.00     0.010 C 
ATOM     24  C   UNL     1       6.403  10.078 -14.111  1.00  0.00     0.012 C 
ATOM     25  C   UNL     1       8.269   7.402 -14.398  1.00  0.00    -0.006 C 
ATOM     26  C   UNL     1       5.875   7.287 -15.341  1.00  0.00     0.033 C 
ATOM     27  C   UNL     1       7.199   6.546 -15.146  1.00  0.00     0.120 C 
ATOM     28  C   UNL     1       7.917   7.531 -12.878  1.00  0.00     0.014 C 
ATOM     29  C   UNL     1       9.609   6.604 -14.436  1.00  0.00     0.014 C 
ENDROOT
BRANCH   1  30
ATOM     30  C   UNL     1       9.047  15.886 -15.842  1.00  0.00     0.048 C 
ATOM     31  O   UNL     1       9.688  15.390 -14.875  1.00  0.00    -0.550 OA
ATOM     32  O   UNL     1       7.968  16.708 -15.555  1.00  0.00    -0.550 OA
ENDBRANCH   1  30
BRANCH  27  33
ATOM     33  O   UNL     1       6.941   5.350 -14.450  1.00  0.00    -0.393 OA
ATOM     34  H   UNL     1       7.409   4.618 -14.932  1.00  0.00     0.210 HD
ENDBRANCH  27  33
TORSDOF 2
ENDMDL
MODEL 3
REMARK VINA RESULT:    -4.267      2.165      8.246
REMARK INTER + INTRA:          -4.354
REMARK INTER:                  -4.868
REMARK INTRA:                   0.514
REMARK UNBOUND:                 0.287
REMARK SMILES CC1(C)CC[C@]2(C(=O)[O-])CC[C@]3(C)C(=CC[C@@H]4[C@@]5(C)CC[C@H](O)C(C)(C)[C@H]5CC[C@@]43C)[C@H]2C1
REMARK SMILES IDX 6 1 5 2 10 3 32 4 4 5 11 6 14 7 33 8 2 9 12 10 15 11 1 12
REMARK SMILES IDX 3 13 13 14 30 15 16 16 17 17 29 18 31 19 18 20 28 21 27 22
REMARK SMILES IDX 20 23 19 24 24 25 21 26 22 27 25 28 26 29 7 30 8 31 9 32
REMARK SMILES IDX 23 33
REMARK H PARENT 23 34
REMARK Flexibility Score: inf
ROOT
ATOM      1  C   UNL     1       9.645  15.585 -18.347  1.00  0.00     0.017 C 
ATOM      2  C   UNL     1       9.883  16.796 -19.293  1.00  0.00     0.014 C 
ATOM      3  C   UNL     1      10.049  14.268 -19.082  1.00  0.00     0.014 C 
ATOM      4  C   UNL     1       8.113  15.573 -18.015  1.00  0.00     0.028 C 
ATOM      5  C   UNL     1       9.456  18.133 -18.648  1.00  0.00     0.007 C 
ATOM      6  C   UNL     1       9.485  12.964 -18.442  1.00  0.00     0.013 C 
ATOM      7  C   UNL     1       7.713  14.252 -17.352  1.00  0.00    -0.064 C 
ATOM      8  C   UNL     1       7.671  16.878 -17.305  1.00  0.00     0.015 C 
ATOM      9  C   UNL     1       7.981  18.148 -18.153  1.00  0.00    -0.035 C 
ATOM     10  C   UNL     1       7.935  12.972 -18.169  1.00  0.00    -0.006 C 
ATOM     11  C   UNL     1       7.681  14.180 -16.013  1.00  0.00    -0.027 C 
ATOM     12  C   UNL     1       7.010  18.266 -19.354  1.00  0.00     0.011 C 
ATOM     13  C   UNL     1       7.772  19.392 -17.262  1.00  0.00     0.011 C 
ATOM     14  C   UNL     1       7.246  13.108 -19.574  1.00  0.00     0.017 C 
ATOM     15  C   UNL     1       7.349  11.630 -17.396  1.00  0.00    -0.020 C 
ATOM     16  C   UNL     1       8.102  12.936 -15.304  1.00  0.00     0.032 C 
ATOM     17  C   UNL     1       7.285  11.728 -15.793  1.00  0.00     0.006 C 
ATOM     18  C   UNL     1       8.207  10.414 -17.815  1.00  0.00     0.008 C 
ATOM     19  C   UNL     1       5.876  11.362 -17.869  1.00  0.00     0.012 C 
ATOM     20  C   UNL     1       7.438  10.366 -14.894  1.00  0.00    -0.025 C 
ATOM     21  C   UNL     1       7.848   9.123 -17.109  1.00  0.00     0.005 C 
ATOM     22  C   UNL     1       8.233   9.185 -15.612  1.00  0.00     0.003 C 
ATOM     23  C   UNL     1       6.006   9.861 -14.515  1.00  0.00     0.010 C 
ATOM     24  C   UNL     1       8.154  10.716 -13.551  1.00  0.00     0.012 C 
ATOM     25  C   UNL     1       8.127   7.738 -14.915  1.00  0.00    -0.006 C 
ATOM     26  C   UNL     1       5.969   8.533 -13.755  1.00  0.00     0.033 C 
ATOM     27  C   UNL     1       6.644   7.414 -14.550  1.00  0.00     0.120 C 
ATOM     28  C   UNL     1       9.047   7.635 -13.653  1.00  0.00     0.014 C 
ATOM     29  C   UNL     1       8.624   6.611 -15.871  1.00  0.00     0.014 C 
ENDROOT
BRANCH   1  30
ATOM     30  C   UNL     1      10.563  15.728 -17.129  1.00  0.00     0.048 C 
ATOM     31  O   UNL     1      11.815  15.758 -17.289  1.00  0.00    -0.550 OA
ATOM     32  O   UNL     1      10.072  15.776 -15.833  1.00  0.00    -0.550 OA
ENDBRANCH   1  30
BRANCH  27  33
ATOM     33  O   UNL     1       6.563   6.225 -13.800  1.00  0.00    -0.393 OA
ATOM     34  H   UNL     1       6.516   5.470 -14.443  1.00  0.00     0.210 HD
ENDBRANCH  27  33
TORSDOF 2
ENDMDL
MODEL 4
REMARK VINA RESULT:    -4.246      2.331      8.287
REMARK INTER + INTRA:          -4.331
REMARK INTER:                  -4.681
REMARK INTRA:                   0.349
REMARK UNBOUND:                 0.287
REMARK SMILES CC1(C)CC[C@]2(C(=O)[O-])CC[C@]3(C)C(=CC[C@@H]4[C@@]5(C)CC[C@H](O)C(C)(C)[C@H]5CC[C@@]43C)[C@H]2C1
REMARK SMILES IDX 6 1 5 2 10 3 32 4 4 5 11 6 14 7 33 8 2 9 12 10 15 11 1 12
REMARK SMILES IDX 3 13 13 14 30 15 16 16 17 17 29 18 31 19 18 20 28 21 27 22
REMARK SMILES IDX 20 23 19 24 24 25 21 26 22 27 25 28 26 29 7 30 8 31 9 32
REMARK SMILES IDX 23 33
REMARK H PARENT 23 34
REMARK Flexibility Score: inf
ROOT
ATOM      1  C   UNL     1       8.118  15.593 -17.939  1.00  0.00     0.017 C 
ATOM      2  C   UNL     1       8.539  17.023 -18.382  1.00  0.00     0.014 C 
ATOM      3  C   UNL     1       8.563  15.358 -16.461  1.00  0.00     0.014 C 
ATOM      4  C   UNL     1       8.859  14.594 -18.894  1.00  0.00     0.028 C 
ATOM      5  C   UNL     1       8.174  17.308 -19.855  1.00  0.00     0.007 C 
ATOM      6  C   UNL     1       8.595  13.864 -16.018  1.00  0.00     0.013 C 
ATOM      7  C   UNL     1       8.768  13.163 -18.356  1.00  0.00    -0.064 C 
ATOM      8  C   UNL     1       8.458  14.815 -20.375  1.00  0.00     0.015 C 
ATOM      9  C   UNL     1       8.752  16.267 -20.858  1.00  0.00    -0.035 C 
ATOM     10  C   UNL     1       9.388  12.901 -16.977  1.00  0.00    -0.006 C 
ATOM     11  C   UNL     1       7.787  12.363 -18.798  1.00  0.00    -0.027 C 
ATOM     12  C   UNL     1      10.272  16.492 -21.053  1.00  0.00     0.011 C 
ATOM     13  C   UNL     1       8.072  16.472 -22.229  1.00  0.00     0.011 C 
ATOM     14  C   UNL     1      10.879  13.399 -16.957  1.00  0.00     0.017 C 
ATOM     15  C   UNL     1       9.338  11.298 -16.565  1.00  0.00    -0.020 C 
ATOM     16  C   UNL     1       7.123  11.390 -17.881  1.00  0.00     0.032 C 
ATOM     17  C   UNL     1       8.158  10.446 -17.248  1.00  0.00     0.006 C 
ATOM     18  C   UNL     1       9.240  11.194 -15.026  1.00  0.00     0.008 C 
ATOM     19  C   UNL     1      10.677  10.607 -17.008  1.00  0.00     0.012 C 
ATOM     20  C   UNL     1       7.537   9.151 -16.458  1.00  0.00    -0.025 C 
ATOM     21  C   UNL     1       9.087   9.780 -14.503  1.00  0.00     0.005 C 
ATOM     22  C   UNL     1       7.701   9.200 -14.873  1.00  0.00     0.003 C 
ATOM     23  C   UNL     1       8.234   7.859 -17.004  1.00  0.00     0.010 C 
ATOM     24  C   UNL     1       6.021   9.016 -16.807  1.00  0.00     0.012 C 
ATOM     25  C   UNL     1       7.410   7.824 -14.091  1.00  0.00    -0.006 C 
ATOM     26  C   UNL     1       7.837   6.562 -16.295  1.00  0.00     0.033 C 
ATOM     27  C   UNL     1       8.130   6.631 -14.795  1.00  0.00     0.120 C 
ATOM     28  C   UNL     1       5.875   7.549 -13.956  1.00  0.00     0.014 C 
ATOM     29  C   UNL     1       7.940   7.884 -12.625  1.00  0.00     0.014 C 
ENDROOT
BRANCH   1  30
ATOM     30  C   UNL     1       6.589  15.500 -17.975  1.00  0.00     0.048 C 
ATOM     31  O   UNL     1       5.907  16.052 -17.068  1.00  0.00    -0.550 OA
ATOM     32  O   UNL     1       5.915  14.781 -18.950  1.00  0.00    -0.550 OA
ENDBRANCH   1  30
BRANCH  27  33
ATOM     33  O   UNL     1       7.752   5.406 -14.212  1.00  0.00    -0.393 OA
ATOM     34  H   UNL     1       8.220   4.684 -14.708  1.00  0.00     0.210 HD
ENDBRANCH  27  33
TORSDOF 2
ENDMDL
MODEL 5
REMARK VINA RESULT:    -3.442      2.280      4.096
REMARK INTER + INTRA:          -3.457
REMARK INTER:                  -4.170
REMARK INTRA:                   0.713
REMARK UNBOUND:                 0.287
REMARK SMILES CC1(C)CC[C@]2(C(=O)[O-])CC[C@]3(C)C(=CC[C@@H]4[C@@]5(C)CC[C@H](O)C(C)(C)[C@H]5CC[C@@]43C)[C@H]2C1
REMARK SMILES IDX 6 1 5 2 10 3 32 4 4 5 11 6 14 7 33 8 2 9 12 10 15 11 1 12
REMARK SMILES IDX 3 13 13 14 30 15 16 16 17 17 29 18 31 19 18 20 28 21 27 22
REMARK SMILES IDX 20 23 19 24 24 25 21 26 22 27 25 28 26 29 7 30 8 31 9 32
REMARK SMILES IDX 23 33
REMARK H PARENT 23 34
REMARK Flexibility Score: inf
ROOT
ATOM      1  C   UNL     1       8.852   8.450 -14.839  1.00  0.00     0.017 C 
ATOM      2  C   UNL     1       8.607   7.263 -13.864  1.00  0.00     0.014 C 
ATOM      3  C   UNL     1       8.998   9.771 -14.018  1.00  0.00     0.014 C 
ATOM      4  C   UNL     1       7.595   8.527 -15.771  1.00  0.00     0.028 C 
ATOM      5  C   UNL     1       8.401   5.927 -14.611  1.00  0.00     0.007 C 
ATOM      6  C   UNL     1       8.827  11.078 -14.849  1.00  0.00     0.013 C 
ATOM      7  C   UNL     1       7.583   9.842 -16.556  1.00  0.00    -0.064 C 
ATOM      8  C   UNL     1       7.404   7.222 -16.585  1.00  0.00     0.015 C 
ATOM      9  C   UNL     1       7.260   5.969 -15.669  1.00  0.00    -0.035 C 
ATOM     10  C   UNL     1       7.528  11.138 -15.736  1.00  0.00    -0.006 C 
ATOM     11  C   UNL     1       8.107   9.868 -17.790  1.00  0.00    -0.027 C 
ATOM     12  C   UNL     1       5.877   5.944 -14.973  1.00  0.00     0.011 C 
ATOM     13  C   UNL     1       7.359   4.706 -16.552  1.00  0.00     0.011 C 
ATOM     14  C   UNL     1       6.317  11.089 -14.737  1.00  0.00     0.017 C 
ATOM     15  C   UNL     1       7.394  12.480 -16.697  1.00  0.00    -0.020 C 
ATOM     16  C   UNL     1       8.857  11.063 -18.278  1.00  0.00     0.032 C 
ATOM     17  C   UNL     1       7.987  12.327 -18.183  1.00  0.00     0.006 C 
ATOM     18  C   UNL     1       8.077  13.665 -15.978  1.00  0.00     0.008 C 
ATOM     19  C   UNL     1       5.876  12.839 -16.876  1.00  0.00     0.012 C 
ATOM     20  C   UNL     1       8.578  13.647 -18.956  1.00  0.00    -0.025 C 
ATOM     21  C   UNL     1       8.119  14.946 -16.784  1.00  0.00     0.005 C 
ATOM     22  C   UNL     1       9.079  14.811 -17.989  1.00  0.00     0.003 C 
ATOM     23  C   UNL     1       7.461  14.209 -19.897  1.00  0.00     0.010 C 
ATOM     24  C   UNL     1       9.759  13.212 -19.881  1.00  0.00     0.012 C 
ATOM     25  C   UNL     1       9.357  16.235 -18.685  1.00  0.00    -0.006 C 
ATOM     26  C   UNL     1       7.820  15.509 -20.621  1.00  0.00     0.033 C 
ATOM     27  C   UNL     1       8.177  16.621 -19.632  1.00  0.00     0.120 C 
ATOM     28  C   UNL     1      10.718  16.245 -19.458  1.00  0.00     0.014 C 
ATOM     29  C   UNL     1       9.486  17.369 -17.623  1.00  0.00     0.014 C 
ENDROOT
BRANCH   1  30
ATOM     30  C   UNL     1      10.178   8.217 -15.569  1.00  0.00     0.048 C 
ATOM     31  O   UNL     1      11.200   7.869 -14.915  1.00  0.00    -0.550 OA
ATOM     32  O   UNL     1      10.318   8.423 -16.933  1.00  0.00    -0.550 OA
ENDBRANCH   1  30
BRANCH  27  33
ATOM     33  O   UNL     1       8.484  17.784 -20.363  1.00  0.00    -0.393 OA
ATOM     34  H   UNL     1       9.432  17.714 -20.650  1.00  0.00     0.210 HD
ENDBRANCH  27  33
TORSDOF 2
ENDMDL
