MODEL 1
REMARK VINA RESULT:    -5.571      0.000      0.000
REMARK INTER + INTRA:          -5.983
REMARK INTER:                  -5.896
REMARK INTRA:                  -0.087
REMARK UNBOUND:                -0.087
REMARK SMILES C=C(C)[C@@H]1CC=C(C)C(=O)C1
REMARK SMILES IDX 8 1 7 2 6 3 5 4 4 5 11 6 9 7 10 8 2 9 1 10 3 11
REMARK H PARENT
REMARK Flexibility Score: inf
ROOT
ATOM      1  C   UNL     1     -25.236  14.478 -30.500  1.00  0.00     0.048 C 
ATOM      2  C   UNL     1     -24.869  15.919 -30.713  1.00  0.00    -0.012 C 
ATOM      3  C   UNL     1     -25.729  16.889 -30.358  1.00  0.00    -0.019 C 
ATOM      4  C   UNL     1     -25.404  18.349 -30.534  1.00  0.00     0.036 C 
ATOM      5  C   UNL     1     -24.515  18.573 -31.771  1.00  0.00     0.025 C 
ATOM      6  C   UNL     1     -23.250  17.701 -31.686  1.00  0.00     0.089 C 
ATOM      7  C   UNL     1     -23.615  16.265 -31.428  1.00  0.00     0.158 C 
ATOM      8  O   UNL     1     -22.823  15.355 -31.795  1.00  0.00    -0.295 OA
ENDROOT
BRANCH   5   9
ATOM      9  C   UNL     1     -24.165  20.046 -31.946  1.00  0.00    -0.077 C 
ATOM     10  C   UNL     1     -24.672  20.739 -32.977  1.00  0.00     0.008 C 
ATOM     11  C   UNL     1     -23.249  20.755 -30.980  1.00  0.00     0.039 C 
ENDBRANCH   5   9
TORSDOF 1
ENDMDL
MODEL 2
REMARK VINA RESULT:    -5.308      1.474      2.089
REMARK INTER + INTRA:          -5.705
REMARK INTER:                  -5.609
REMARK INTRA:                  -0.096
REMARK UNBOUND:                -0.087
REMARK SMILES C=C(C)[C@@H]1CC=C(C)C(=O)C1
REMARK SMILES IDX 8 1 7 2 6 3 5 4 4 5 11 6 9 7 10 8 2 9 1 10 3 11
REMARK H PARENT
REMARK Flexibility Score: inf
ROOT
ATOM      1  C   UNL     1     -24.999  14.600 -30.144  1.00  0.00     0.048 C 
ATOM      2  C   UNL     1     -24.795  15.974 -30.718  1.00  0.00    -0.012 C 
ATOM      3  C   UNL     1     -23.585  16.334 -31.179  1.00  0.00    -0.019 C 
ATOM      4  C   UNL     1     -23.331  17.691 -31.780  1.00  0.00     0.036 C 
ATOM      5  C   UNL     1     -24.211  18.764 -31.115  1.00  0.00     0.025 C 
ATOM      6  C   UNL     1     -25.695  18.363 -31.192  1.00  0.00     0.089 C 
ATOM      7  C   UNL     1     -25.894  16.971 -30.659  1.00  0.00     0.158 C 
ATOM      8  O   UNL     1     -27.019  16.647 -30.193  1.00  0.00    -0.295 OA
ENDROOT
BRANCH   5   9
ATOM      9  C   UNL     1     -23.975  20.139 -31.729  1.00  0.00    -0.077 C 
ATOM     10  C   UNL     1     -24.354  20.385 -32.993  1.00  0.00     0.008 C 
ATOM     11  C   UNL     1     -23.315  21.246 -30.944  1.00  0.00     0.039 C 
ENDBRANCH   5   9
TORSDOF 1
ENDMDL
MODEL 3
REMARK VINA RESULT:    -5.242      1.308      4.715
REMARK INTER + INTRA:          -5.635
REMARK INTER:                  -5.538
REMARK INTRA:                  -0.098
REMARK UNBOUND:                -0.087
REMARK SMILES C=C(C)[C@@H]1CC=C(C)C(=O)C1
REMARK SMILES IDX 8 1 7 2 6 3 5 4 4 5 11 6 9 7 10 8 2 9 1 10 3 11
REMARK H PARENT
REMARK Flexibility Score: inf
ROOT
ATOM      1  C   UNL     1     -24.036  19.299 -31.077  1.00  0.00     0.048 C 
ATOM      2  C   UNL     1     -24.629  17.923 -30.965  1.00  0.00    -0.012 C 
ATOM      3  C   UNL     1     -25.870  17.767 -30.470  1.00  0.00    -0.019 C 
ATOM      4  C   UNL     1     -26.518  16.412 -30.353  1.00  0.00     0.036 C 
ATOM      5  C   UNL     1     -25.472  15.320 -30.067  1.00  0.00     0.025 C 
ATOM      6  C   UNL     1     -24.366  15.346 -31.137  1.00  0.00     0.089 C 
ATOM      7  C   UNL     1     -23.802  16.732 -31.282  1.00  0.00     0.158 C 
ATOM      8  O   UNL     1     -22.625  16.874 -31.711  1.00  0.00    -0.295 OA
ENDROOT
BRANCH   5   9
ATOM      9  C   UNL     1     -26.116  13.944 -29.965  1.00  0.00    -0.077 C 
ATOM     10  C   UNL     1     -25.358  12.839 -30.041  1.00  0.00     0.008 C 
ATOM     11  C   UNL     1     -27.605  13.785 -29.780  1.00  0.00     0.039 C 
ENDBRANCH   5   9
TORSDOF 1
ENDMDL
MODEL 4
REMARK VINA RESULT:    -5.176      2.281      4.866
REMARK INTER + INTRA:          -5.565
REMARK INTER:                  -5.478
REMARK INTRA:                  -0.088
REMARK UNBOUND:                -0.087
REMARK SMILES C=C(C)[C@@H]1CC=C(C)C(=O)C1
REMARK SMILES IDX 8 1 7 2 6 3 5 4 4 5 11 6 9 7 10 8 2 9 1 10 3 11
REMARK H PARENT
REMARK Flexibility Score: inf
ROOT
ATOM      1  C   UNL     1     -23.880  23.183 -32.001  1.00  0.00     0.048 C 
ATOM      2  C   UNL     1     -24.012  21.693 -31.853  1.00  0.00    -0.012 C 
ATOM      3  C   UNL     1     -24.944  21.029 -32.559  1.00  0.00    -0.019 C 
ATOM      4  C   UNL     1     -25.106  19.535 -32.462  1.00  0.00     0.036 C 
ATOM      5  C   UNL     1     -24.761  19.032 -31.049  1.00  0.00     0.025 C 
ATOM      6  C   UNL     1     -23.347  19.491 -30.648  1.00  0.00     0.089 C 
ATOM      7  C   UNL     1     -23.200  20.976 -30.838  1.00  0.00     0.158 C 
ATOM      8  O   UNL     1     -22.351  21.602 -30.148  1.00  0.00    -0.295 OA
ENDROOT
BRANCH   5   9
ATOM      9  C   UNL     1     -24.904  17.519 -30.945  1.00  0.00    -0.077 C 
ATOM     10  C   UNL     1     -26.058  16.980 -30.524  1.00  0.00     0.008 C 
ATOM     11  C   UNL     1     -23.766  16.596 -31.307  1.00  0.00     0.039 C 
ENDBRANCH   5   9
TORSDOF 1
ENDMDL
MODEL 5
REMARK VINA RESULT:    -5.102      3.442      4.597
REMARK INTER + INTRA:          -5.487
REMARK INTER:                  -5.389
REMARK INTRA:                  -0.098
REMARK UNBOUND:                -0.087
REMARK SMILES C=C(C)[C@@H]1CC=C(C)C(=O)C1
REMARK SMILES IDX 8 1 7 2 6 3 5 4 4 5 11 6 9 7 10 8 2 9 1 10 3 11
REMARK H PARENT
REMARK Flexibility Score: inf
ROOT
ATOM      1  C   UNL     1     -29.622  19.715 -33.837  1.00  0.00     0.048 C 
ATOM      2  C   UNL     1     -28.183  19.512 -33.455  1.00  0.00    -0.012 C 
ATOM      3  C   UNL     1     -27.874  18.764 -32.382  1.00  0.00    -0.019 C 
ATOM      4  C   UNL     1     -26.448  18.514 -31.966  1.00  0.00     0.036 C 
ATOM      5  C   UNL     1     -25.555  19.722 -32.300  1.00  0.00     0.025 C 
ATOM      6  C   UNL     1     -25.672  20.079 -33.793  1.00  0.00     0.089 C 
ATOM      7  C   UNL     1     -27.114  20.238 -34.187  1.00  0.00     0.158 C 
ATOM      8  O   UNL     1     -27.405  20.970 -35.171  1.00  0.00    -0.295 OA
ENDROOT
BRANCH   5   9
ATOM      9  C   UNL     1     -24.106  19.472 -31.900  1.00  0.00    -0.077 C 
ATOM     10  C   UNL     1     -23.650  18.216 -31.774  1.00  0.00     0.008 C 
ATOM     11  C   UNL     1     -23.156  20.615 -31.637  1.00  0.00     0.039 C 
ENDBRANCH   5   9
TORSDOF 1
ENDMDL
MODEL 6
REMARK VINA RESULT:    -4.908      2.977      4.620
REMARK INTER + INTRA:          -5.282
REMARK INTER:                  -5.193
REMARK INTRA:                  -0.089
REMARK UNBOUND:                -0.087
REMARK SMILES C=C(C)[C@@H]1CC=C(C)C(=O)C1
REMARK SMILES IDX 8 1 7 2 6 3 5 4 4 5 11 6 9 7 10 8 2 9 1 10 3 11
REMARK H PARENT
REMARK Flexibility Score: inf
ROOT
ATOM      1  C   UNL     1     -28.887  20.253 -34.499  1.00  0.00     0.048 C 
ATOM      2  C   UNL     1     -27.708  19.971 -33.610  1.00  0.00    -0.012 C 
ATOM      3  C   UNL     1     -26.532  20.579 -33.845  1.00  0.00    -0.019 C 
ATOM      4  C   UNL     1     -25.325  20.346 -32.974  1.00  0.00     0.036 C 
ATOM      5  C   UNL     1     -25.311  18.910 -32.419  1.00  0.00     0.025 C 
ATOM      6  C   UNL     1     -26.628  18.609 -31.681  1.00  0.00     0.089 C 
ATOM      7  C   UNL     1     -27.809  18.933 -32.554  1.00  0.00     0.158 C 
ATOM      8  O   UNL     1     -28.901  18.335 -32.355  1.00  0.00    -0.295 OA
ENDROOT
BRANCH   5   9
ATOM      9  C   UNL     1     -24.103  18.671 -31.522  1.00  0.00    -0.077 C 
ATOM     10  C   UNL     1     -23.436  17.508 -31.588  1.00  0.00     0.008 C 
ATOM     11  C   UNL     1     -23.630  19.719 -30.546  1.00  0.00     0.039 C 
ENDBRANCH   5   9
TORSDOF 1
ENDMDL
MODEL 7
REMARK VINA RESULT:    -4.783      2.595      4.090
REMARK INTER + INTRA:          -5.150
REMARK INTER:                  -5.053
REMARK INTRA:                  -0.097
REMARK UNBOUND:                -0.087
REMARK SMILES C=C(C)[C@@H]1CC=C(C)C(=O)C1
REMARK SMILES IDX 8 1 7 2 6 3 5 4 4 5 11 6 9 7 10 8 2 9 1 10 3 11
REMARK H PARENT
REMARK Flexibility Score: inf
ROOT
ATOM      1  C   UNL     1     -22.523  20.543 -29.569  1.00  0.00     0.048 C 
ATOM      2  C   UNL     1     -23.333  20.481 -30.833  1.00  0.00    -0.012 C 
ATOM      3  C   UNL     1     -23.751  21.618 -31.417  1.00  0.00    -0.019 C 
ATOM      4  C   UNL     1     -24.550  21.613 -32.694  1.00  0.00     0.036 C 
ATOM      5  C   UNL     1     -25.454  20.369 -32.777  1.00  0.00     0.025 C 
ATOM      6  C   UNL     1     -24.618  19.088 -32.607  1.00  0.00     0.089 C 
ATOM      7  C   UNL     1     -23.774  19.168 -31.366  1.00  0.00     0.158 C 
ATOM      8  O   UNL     1     -23.414  18.101 -30.799  1.00  0.00    -0.295 OA
ENDROOT
BRANCH   5   9
ATOM      9  C   UNL     1     -26.252  20.346 -34.074  1.00  0.00    -0.077 C 
ATOM     10  C   UNL     1     -25.625  20.169 -35.247  1.00  0.00     0.008 C 
ATOM     11  C   UNL     1     -27.751  20.519 -34.077  1.00  0.00     0.039 C 
ENDBRANCH   5   9
TORSDOF 1
ENDMDL
MODEL 8
REMARK VINA RESULT:    -4.697      2.107      5.530
REMARK INTER + INTRA:          -5.058
REMARK INTER:                  -4.960
REMARK INTRA:                  -0.098
REMARK UNBOUND:                -0.087
REMARK SMILES C=C(C)[C@@H]1CC=C(C)C(=O)C1
REMARK SMILES IDX 8 1 7 2 6 3 5 4 4 5 11 6 9 7 10 8 2 9 1 10 3 11
REMARK H PARENT
REMARK Flexibility Score: inf
ROOT
ATOM      1  C   UNL     1     -24.381  18.465 -31.417  1.00  0.00     0.048 C 
ATOM      2  C   UNL     1     -24.738  17.106 -30.883  1.00  0.00    -0.012 C 
ATOM      3  C   UNL     1     -23.823  16.122 -30.892  1.00  0.00    -0.019 C 
ATOM      4  C   UNL     1     -24.123  14.748 -30.353  1.00  0.00     0.036 C 
ATOM      5  C   UNL     1     -25.601  14.378 -30.573  1.00  0.00     0.025 C 
ATOM      6  C   UNL     1     -26.518  15.454 -29.966  1.00  0.00     0.089 C 
ATOM      7  C   UNL     1     -26.133  16.819 -30.465  1.00  0.00     0.158 C 
ATOM      8  O   UNL     1     -27.003  17.732 -30.490  1.00  0.00    -0.295 OA
ENDROOT
BRANCH   5   9
ATOM      9  C   UNL     1     -25.919  12.996 -30.014  1.00  0.00    -0.077 C 
ATOM     10  C   UNL     1     -24.925  12.183 -29.624  1.00  0.00     0.008 C 
ATOM     11  C   UNL     1     -27.341  12.510 -29.887  1.00  0.00     0.039 C 
ENDBRANCH   5   9
TORSDOF 1
ENDMDL
MODEL 9
REMARK VINA RESULT:    -4.502      7.680      9.579
REMARK INTER + INTRA:          -4.852
REMARK INTER:                  -4.765
REMARK INTRA:                  -0.087
REMARK UNBOUND:                -0.087
REMARK SMILES C=C(C)[C@@H]1CC=C(C)C(=O)C1
REMARK SMILES IDX 8 1 7 2 6 3 5 4 4 5 11 6 9 7 10 8 2 9 1 10 3 11
REMARK H PARENT
REMARK Flexibility Score: inf
ROOT
ATOM      1  C   UNL     1     -13.928  15.731 -32.005  1.00  0.00     0.048 C 
ATOM      2  C   UNL     1     -15.135  15.059 -31.414  1.00  0.00    -0.012 C 
ATOM      3  C   UNL     1     -15.368  15.140 -30.093  1.00  0.00    -0.019 C 
ATOM      4  C   UNL     1     -16.572  14.501 -29.452  1.00  0.00     0.036 C 
ATOM      5  C   UNL     1     -16.970  13.210 -30.189  1.00  0.00     0.025 C 
ATOM      6  C   UNL     1     -17.189  13.493 -31.686  1.00  0.00     0.089 C 
ATOM      7  C   UNL     1     -15.999  14.205 -32.268  1.00  0.00     0.158 C 
ATOM      8  O   UNL     1     -15.762  14.097 -33.502  1.00  0.00    -0.295 OA
ENDROOT
BRANCH   5   9
ATOM      9  C   UNL     1     -18.199  12.565 -29.560  1.00  0.00    -0.077 C 
ATOM     10  C   UNL     1     -18.067  11.474 -28.790  1.00  0.00     0.008 C 
ATOM     11  C   UNL     1     -19.581  13.128 -29.783  1.00  0.00     0.039 C 
ENDBRANCH   5   9
TORSDOF 1
ENDMDL
