MODEL 1
REMARK VINA RESULT:    94.787      0.000      0.000
REMARK INTER + INTRA:         142.962
REMARK INTER:                 141.887
REMARK INTRA:                   1.075
REMARK UNBOUND:                 1.075
REMARK SMILES C=C(CC[C@H](C(=O)[O-])[C@H]1[C@H](O)C[C@]2(C)C3=C(CC[C@]12C)[C@]1(C)CC[C@H](OC(C)=O)C(C)(C)[C@@H]1CC3)C(C)C
REMARK SMILES IDX 4 1 5 2 6 3 7 4 8 5 9 6 10 7 19 8 12 9 13 10 18 11 20 12
REMARK SMILES IDX 14 13 15 14 17 15 16 16 35 17 21 18 34 19 33 20 23 21 22 22
REMARK SMILES IDX 30 23 24 24 25 25 31 26 32 27 11 28 26 30 27 31 29 32 28 33
REMARK SMILES IDX 3 34 2 35 1 36 36 37 37 38 38 39
REMARK H PARENT 11 29
REMARK Flexibility Score: inf
ROOT
ATOM      1  C   UNL     1      10.865  -2.046  37.841  1.00  0.00     0.014 C 
ENDROOT
BRANCH   1   2
ATOM      2  C   UNL     1       9.369  -2.346  37.561  1.00  0.00     0.042 C 
BRANCH   2   3
ATOM      3  C   UNL     1       8.844  -3.146  38.737  1.00  0.00     0.045 C 
ATOM      4  O   UNL     1       8.181  -2.579  39.646  1.00  0.00    -0.550 OA
ATOM      5  O   UNL     1       9.093  -4.514  38.824  1.00  0.00    -0.550 OA
ENDBRANCH   2   3
BRANCH   2   6
ATOM      6  C   UNL     1       9.150  -3.121  36.207  1.00  0.00     0.033 C 
ATOM      7  C   UNL     1       9.535  -4.627  36.330  1.00  0.00     0.119 C 
ATOM      8  C   UNL     1       7.700  -3.131  35.552  1.00  0.00    -0.017 C 
ATOM      9  C   UNL     1       8.454  -5.447  35.634  1.00  0.00     0.043 C 
ATOM     10  C   UNL     1       7.174  -4.603  35.725  1.00  0.00    -0.003 C 
ATOM     11  C   UNL     1       7.889  -2.846  34.040  1.00  0.00     0.012 C 
ATOM     12  C   UNL     1       6.684  -2.089  36.114  1.00  0.00     0.013 C 
ATOM     13  C   UNL     1       6.549  -4.805  37.142  1.00  0.00     0.017 C 
ATOM     14  C   UNL     1       6.171  -5.082  34.640  1.00  0.00    -0.064 C 
ATOM     15  C   UNL     1       6.608  -3.032  33.242  1.00  0.00     0.032 C 
ATOM     16  C   UNL     1       5.909  -4.358  33.501  1.00  0.00    -0.064 C 
ATOM     17  C   UNL     1       5.543  -6.463  34.875  1.00  0.00     0.032 C 
ATOM     18  C   UNL     1       5.025  -4.933  32.373  1.00  0.00    -0.008 C 
ATOM     19  C   UNL     1       4.610  -7.006  33.787  1.00  0.00     0.009 C 
ATOM     20  C   UNL     1       3.934  -5.915  32.935  1.00  0.00     0.009 C 
ATOM     21  C   UNL     1       4.315  -3.843  31.506  1.00  0.00     0.015 C 
ATOM     22  C   UNL     1       5.982  -5.694  31.413  1.00  0.00     0.016 C 
ATOM     23  C   UNL     1       2.642  -5.242  33.583  1.00  0.00     0.005 C 
ATOM     24  C   UNL     1       3.175  -3.137  32.232  1.00  0.00     0.047 C 
ATOM     25  C   UNL     1       2.092  -4.154  32.608  1.00  0.00     0.182 C 
ATOM     26  C   UNL     1       2.895  -4.618  34.981  1.00  0.00     0.015 C 
ATOM     27  C   UNL     1       1.524  -6.309  33.747  1.00  0.00     0.015 C 
BRANCH   7  28
ATOM     28  O   UNL     1      10.812  -4.900  35.804  1.00  0.00    -0.393 OA
ATOM     29  H   UNL     1      11.114  -5.772  36.171  1.00  0.00     0.210 HD
ENDBRANCH   7  28
BRANCH  25  30
ATOM     30  O   UNL     1       0.967  -3.473  33.177  1.00  0.00    -0.462 OA
BRANCH  30  31
ATOM     31  C   UNL     1       0.710  -2.110  32.984  1.00  0.00     0.302 C 
ATOM     32  O   UNL     1       1.655  -1.279  32.904  1.00  0.00    -0.253 OA
ATOM     33  C   UNL     1      -0.695  -1.647  32.821  1.00  0.00     0.139 C 
ENDBRANCH  30  31
ENDBRANCH  25  30
ENDBRANCH   2   6
ENDBRANCH   1   2
BRANCH   1  34
ATOM     34  C   UNL     1      11.495  -1.194  36.725  1.00  0.00     0.031 C 
BRANCH  34  35
ATOM     35  C   UNL     1      12.304  -0.049  37.295  1.00  0.00    -0.075 C 
ATOM     36  C   UNL     1      12.531  -0.001  38.620  1.00  0.00     0.008 C 
BRANCH  35  37
ATOM     37  C   UNL     1      12.909   1.012  36.383  1.00  0.00     0.008 C 
ATOM     38  C   UNL     1      14.266   0.559  35.830  1.00  0.00     0.012 C 
ATOM     39  C   UNL     1      13.035   2.357  37.108  1.00  0.00     0.012 C 
ENDBRANCH  35  37
ENDBRANCH  34  35
ENDBRANCH   1  34
TORSDOF 9
ENDMDL
MODEL 2
REMARK VINA RESULT:    97.771      1.365      1.742
REMARK INTER + INTRA:         147.430
REMARK INTER:                 147.991
REMARK INTRA:                  -0.561
REMARK UNBOUND:                 1.075
REMARK SMILES C=C(CC[C@H](C(=O)[O-])[C@H]1[C@H](O)C[C@]2(C)C3=C(CC[C@]12C)[C@]1(C)CC[C@H](OC(C)=O)C(C)(C)[C@@H]1CC3)C(C)C
REMARK SMILES IDX 4 1 5 2 6 3 7 4 8 5 9 6 10 7 19 8 12 9 13 10 18 11 20 12
REMARK SMILES IDX 14 13 15 14 17 15 16 16 35 17 21 18 34 19 33 20 23 21 22 22
REMARK SMILES IDX 30 23 24 24 25 25 31 26 32 27 11 28 26 30 27 31 29 32 28 33
REMARK SMILES IDX 3 34 2 35 1 36 36 37 37 38 38 39
REMARK H PARENT 11 29
REMARK Flexibility Score: inf
ROOT
ATOM      1  C   UNL     1      10.582  -2.272  38.426  1.00  0.00     0.014 C 
ENDROOT
BRANCH   1   2
ATOM      2  C   UNL     1       9.056  -2.427  38.190  1.00  0.00     0.042 C 
BRANCH   2   3
ATOM      3  C   UNL     1       8.401  -2.550  39.552  1.00  0.00     0.045 C 
ATOM      4  O   UNL     1       8.848  -3.368  40.400  1.00  0.00    -0.550 OA
ATOM      5  O   UNL     1       7.299  -1.765  39.876  1.00  0.00    -0.550 OA
ENDBRANCH   2   3
BRANCH   2   6
ATOM      6  C   UNL     1       8.707  -3.665  37.282  1.00  0.00     0.033 C 
ATOM      7  C   UNL     1       8.327  -4.919  38.128  1.00  0.00     0.119 C 
ATOM      8  C   UNL     1       7.532  -3.532  36.216  1.00  0.00    -0.017 C 
ATOM      9  C   UNL     1       7.106  -5.568  37.485  1.00  0.00     0.043 C 
ATOM     10  C   UNL     1       6.365  -4.431  36.766  1.00  0.00    -0.003 C 
ATOM     11  C   UNL     1       8.054  -4.150  34.893  1.00  0.00     0.012 C 
ATOM     12  C   UNL     1       7.044  -2.082  35.909  1.00  0.00     0.013 C 
ATOM     13  C   UNL     1       5.515  -3.651  37.819  1.00  0.00     0.017 C 
ATOM     14  C   UNL     1       5.428  -5.037  35.685  1.00  0.00    -0.064 C 
ATOM     15  C   UNL     1       6.967  -4.285  33.838  1.00  0.00     0.032 C 
ATOM     16  C   UNL     1       5.704  -4.967  34.340  1.00  0.00    -0.064 C 
ATOM     17  C   UNL     1       4.205  -5.798  36.215  1.00  0.00     0.032 C 
ATOM     18  C   UNL     1       4.833  -5.711  33.304  1.00  0.00    -0.008 C 
ATOM     19  C   UNL     1       3.300  -6.480  35.182  1.00  0.00     0.009 C 
ATOM     20  C   UNL     1       3.342  -5.835  33.785  1.00  0.00     0.009 C 
ATOM     21  C   UNL     1       4.847  -5.062  31.883  1.00  0.00     0.015 C 
ATOM     22  C   UNL     1       5.459  -7.124  33.142  1.00  0.00     0.016 C 
ATOM     23  C   UNL     1       2.429  -4.541  33.599  1.00  0.00     0.005 C 
ATOM     24  C   UNL     1       4.070  -3.753  31.804  1.00  0.00     0.047 C 
ATOM     25  C   UNL     1       2.598  -4.003  32.144  1.00  0.00     0.182 C 
ATOM     26  C   UNL     1       2.731  -3.410  34.618  1.00  0.00     0.015 C 
ATOM     27  C   UNL     1       0.933  -4.928  33.768  1.00  0.00     0.015 C 
BRANCH   7  28
ATOM     28  O   UNL     1       9.394  -5.829  38.249  1.00  0.00    -0.393 OA
ATOM     29  H   UNL     1       9.298  -6.509  37.531  1.00  0.00     0.210 HD
ENDBRANCH   7  28
BRANCH  25  30
ATOM     30  O   UNL     1       1.846  -2.798  31.949  1.00  0.00    -0.462 OA
BRANCH  30  31
ATOM     31  C   UNL     1       2.434  -1.551  31.705  1.00  0.00     0.302 C 
ATOM     32  O   UNL     1       2.950  -1.289  30.585  1.00  0.00    -0.253 OA
ATOM     33  C   UNL     1       2.404  -0.509  32.767  1.00  0.00     0.139 C 
ENDBRANCH  30  31
ENDBRANCH  25  30
ENDBRANCH   2   6
ENDBRANCH   1   2
BRANCH   1  34
ATOM     34  C   UNL     1      11.305  -1.764  37.166  1.00  0.00     0.031 C 
BRANCH  34  35
ATOM     35  C   UNL     1      12.299  -0.673  37.502  1.00  0.00    -0.075 C 
ATOM     36  C   UNL     1      13.371  -0.973  38.257  1.00  0.00     0.008 C 
BRANCH  35  37
ATOM     37  C   UNL     1      12.131   0.737  36.950  1.00  0.00     0.008 C 
ATOM     38  C   UNL     1      10.967   0.807  35.953  1.00  0.00     0.012 C 
ATOM     39  C   UNL     1      13.430   1.238  36.309  1.00  0.00     0.012 C 
ENDBRANCH  35  37
ENDBRANCH  34  35
ENDBRANCH   1  34
TORSDOF 9
ENDMDL
