MODEL 1
REMARK VINA RESULT:    -3.674      0.000      0.000
REMARK INTER + INTRA:          -5.155
REMARK INTER:                  -4.962
REMARK INTRA:                  -0.192
REMARK UNBOUND:                -0.192
REMARK SMILES C=C1C(=O)O[C@@H]2[C@@H]1CCC(C)=CCC[C@]1(C)O[C@H]21
REMARK SMILES IDX 6 1 7 2 2 3 1 4 3 5 4 6 5 7 8 8 9 9 10 10 11 11 12 12 18 14
REMARK SMILES IDX 15 15 17 16 16 17 14 18 13 19
REMARK H PARENT
REMARK Flexibility Score: 70.00
ROOT
ATOM      1  C   UNL     1     -27.177 -54.741  55.460  1.00  0.00     0.216 C 
ATOM      2  C   UNL     1     -27.163 -54.155  53.996  1.00  0.00     0.070 C 
ATOM      3  C   UNL     1     -26.685 -52.745  54.199  1.00  0.00     0.037 C 
ATOM      4  C   UNL     1     -26.656 -51.785  53.274  1.00  0.00     0.021 C 
ATOM      5  C   UNL     1     -26.316 -52.588  55.577  1.00  0.00     0.334 C 
ATOM      6  O   UNL     1     -25.827 -51.548  56.095  1.00  0.00    -0.247 OA
ATOM      7  O   UNL     1     -26.575 -53.739  56.280  1.00  0.00    -0.455 OA
ENDROOT
BRANCH   2   8
ATOM      8  C   UNL     1     -26.167 -54.898  53.059  1.00  0.00     0.017 C 
BRANCH   8   9
ATOM      9  C   UNL     1     -25.725 -56.309  53.510  1.00  0.00     0.031 C 
BRANCH   9  10
ATOM     10  C   UNL     1     -26.373 -57.419  52.706  1.00  0.00    -0.077 C 
ATOM     11  C   UNL     1     -25.910 -57.639  51.286  1.00  0.00     0.039 C 
ATOM     12  C   UNL     1     -27.322 -58.250  53.198  1.00  0.00    -0.028 CG0
ATOM     13  G   UNL     1     -28.056 -58.078  54.504  1.00  0.00     0.000 G0
ENDBRANCH   9  10
ENDBRANCH   8   9
ENDBRANCH   2   8
BRANCH   1  14
ATOM     14  C   UNL     1     -28.534 -55.107  56.112  1.00  0.00     0.192 C 
ATOM     15  C   UNL     1     -29.423 -56.240  55.691  1.00  0.00     0.096 C 
ATOM     16  O   UNL     1     -29.655 -54.902  55.286  1.00  0.00    -0.362 OA
ATOM     17  C   UNL     1     -30.475 -56.689  56.713  1.00  0.00     0.045 C 
BRANCH  15  18
ATOM     18  C   UNL     1     -29.265 -57.134  54.447  1.00  0.00     0.042 C 
BRANCH  18  19
ATOM     19  C   UNL     1     -28.063 -58.085  54.495  1.00  0.00     0.030 CG0
ATOM     20  G   UNL     1     -27.308 -58.240  53.199  1.00  0.00     0.000 G0
ENDBRANCH  18  19
ENDBRANCH  15  18
ENDBRANCH   1  14
TORSDOF 0
ENDMDL
MODEL 2
REMARK VINA RESULT:    -3.526      1.534      3.739
REMARK INTER + INTRA:          -4.956
REMARK INTER:                  -4.826
REMARK INTRA:                  -0.130
REMARK UNBOUND:                -0.192
REMARK SMILES C=C1C(=O)O[C@@H]2[C@@H]1CCC(C)=CCC[C@]1(C)O[C@H]21
REMARK SMILES IDX 6 1 7 2 2 3 1 4 3 5 4 6 5 7 8 8 9 9 10 10 11 11 12 12 18 14
REMARK SMILES IDX 15 15 17 16 16 17 14 18 13 19
REMARK H PARENT
REMARK Flexibility Score: 70.00
ROOT
ATOM      1  C   UNL     1     -27.341 -54.933  53.731  1.00  0.00     0.216 C 
ATOM      2  C   UNL     1     -27.305 -54.650  55.283  1.00  0.00     0.070 C 
ATOM      3  C   UNL     1     -26.743 -53.260  55.362  1.00  0.00     0.037 C 
ATOM      4  C   UNL     1     -26.369 -52.626  56.474  1.00  0.00     0.021 C 
ATOM      5  C   UNL     1     -26.624 -52.744  54.027  1.00  0.00     0.334 C 
ATOM      6  O   UNL     1     -26.232 -51.588  53.716  1.00  0.00    -0.247 OA
ATOM      7  O   UNL     1     -26.993 -53.696  53.109  1.00  0.00    -0.455 OA
ENDROOT
BRANCH   2   8
ATOM      8  C   UNL     1     -28.720 -54.664  55.930  1.00  0.00     0.017 C 
BRANCH   8   9
ATOM      9  C   UNL     1     -29.740 -55.655  55.326  1.00  0.00     0.031 C 
BRANCH   9  10
ATOM     10  C   UNL     1     -29.898 -56.920  56.148  1.00  0.00    -0.077 C 
ATOM     11  C   UNL     1     -30.623 -56.831  57.469  1.00  0.00     0.039 C 
ATOM     12  C   UNL     1     -29.454 -58.136  55.751  1.00  0.00    -0.028 CG0
ATOM     13  G   UNL     1     -28.543 -58.405  54.579  1.00  0.00     0.000 G0
ENDBRANCH   9  10
ENDBRANCH   8   9
ENDBRANCH   2   8
BRANCH   1  14
ATOM     14  C   UNL     1     -26.406 -56.018  53.141  1.00  0.00     0.192 C 
ATOM     15  C   UNL     1     -26.349 -57.450  53.583  1.00  0.00     0.096 C 
ATOM     16  O   UNL     1     -25.415 -56.482  54.026  1.00  0.00    -0.362 OA
ATOM     17  C   UNL     1     -25.692 -58.435  52.608  1.00  0.00     0.045 C 
BRANCH  15  18
ATOM     18  C   UNL     1     -27.056 -58.078  54.801  1.00  0.00     0.042 C 
BRANCH  18  19
ATOM     19  C   UNL     1     -28.535 -58.417  54.573  1.00  0.00     0.030 CG0
ATOM     20  G   UNL     1     -29.449 -58.137  55.739  1.00  0.00     0.000 G0
ENDBRANCH  18  19
ENDBRANCH  15  18
ENDBRANCH   1  14
TORSDOF 0
ENDMDL
MODEL 3
REMARK VINA RESULT:    -3.498      2.319      3.129
REMARK INTER + INTRA:          -4.918
REMARK INTER:                  -4.769
REMARK INTRA:                  -0.149
REMARK UNBOUND:                -0.192
REMARK SMILES C=C1C(=O)O[C@@H]2[C@@H]1CCC(C)=CCC[C@]1(C)O[C@H]21
REMARK SMILES IDX 6 1 7 2 2 3 1 4 3 5 4 6 5 7 8 8 9 9 10 10 11 11 12 12 18 14
REMARK SMILES IDX 15 15 17 16 16 17 14 18 13 19
REMARK H PARENT
REMARK Flexibility Score: 70.00
ROOT
ATOM      1  C   UNL     1     -27.268 -55.551  54.930  1.00  0.00     0.216 C 
ATOM      2  C   UNL     1     -27.393 -53.978  54.953  1.00  0.00     0.070 C 
ATOM      3  C   UNL     1     -26.392 -53.573  55.998  1.00  0.00     0.037 C 
ATOM      4  C   UNL     1     -26.234 -52.349  56.500  1.00  0.00     0.021 C 
ATOM      5  C   UNL     1     -25.668 -54.744  56.407  1.00  0.00     0.334 C 
ATOM      6  O   UNL     1     -24.719 -54.771  57.235  1.00  0.00    -0.247 OA
ATOM      7  O   UNL     1     -26.157 -55.859  55.772  1.00  0.00    -0.455 OA
ENDROOT
BRANCH   2   8
ATOM      8  C   UNL     1     -27.003 -53.323  53.596  1.00  0.00     0.017 C 
BRANCH   8   9
ATOM      9  C   UNL     1     -27.322 -54.140  52.324  1.00  0.00     0.031 C 
BRANCH   9  10
ATOM     10  C   UNL     1     -28.578 -53.671  51.615  1.00  0.00    -0.077 C 
ATOM     11  C   UNL     1     -28.533 -52.356  50.875  1.00  0.00     0.039 C 
ATOM     12  C   UNL     1     -29.731 -54.379  51.578  1.00  0.00    -0.028 CG0
ATOM     13  G   UNL     1     -30.045 -55.600  52.405  1.00  0.00     0.000 G0
ENDBRANCH   9  10
ENDBRANCH   8   9
ENDBRANCH   2   8
BRANCH   1  14
ATOM     14  C   UNL     1     -28.461 -56.409  55.418  1.00  0.00     0.192 C 
ATOM     15  C   UNL     1     -29.857 -56.347  54.872  1.00  0.00     0.096 C 
ATOM     16  O   UNL     1     -29.479 -55.682  56.065  1.00  0.00    -0.362 OA
ATOM     17  C   UNL     1     -30.759 -57.549  55.181  1.00  0.00     0.045 C 
BRANCH  15  18
ATOM     18  C   UNL     1     -30.420 -55.322  53.868  1.00  0.00     0.042 C 
BRANCH  18  19
ATOM     19  C   UNL     1     -30.066 -55.605  52.403  1.00  0.00     0.030 CG0
ATOM     20  G   UNL     1     -29.724 -54.392  51.574  1.00  0.00     0.000 G0
ENDBRANCH  18  19
ENDBRANCH  15  18
ENDBRANCH   1  14
TORSDOF 0
ENDMDL
MODEL 4
REMARK VINA RESULT:    -3.436     10.982     12.959
REMARK INTER + INTRA:          -4.834
REMARK INTER:                  -4.804
REMARK INTRA:                  -0.029
REMARK UNBOUND:                -0.192
REMARK SMILES C=C1C(=O)O[C@@H]2[C@@H]1CCC(C)=CCC[C@]1(C)O[C@H]21
REMARK SMILES IDX 6 1 7 2 2 3 1 4 3 5 4 6 5 7 8 8 9 9 10 10 11 11 12 12 18 14
REMARK SMILES IDX 15 15 17 16 16 17 14 18 13 19
REMARK H PARENT
REMARK Flexibility Score: 70.00
ROOT
ATOM      1  C   UNL     1     -23.371 -66.770  57.059  1.00  0.00     0.216 C 
ATOM      2  C   UNL     1     -22.010 -67.521  57.333  1.00  0.00     0.070 C 
ATOM      3  C   UNL     1     -22.339 -68.405  58.502  1.00  0.00     0.037 C 
ATOM      4  C   UNL     1     -21.470 -69.125  59.211  1.00  0.00     0.021 C 
ATOM      5  C   UNL     1     -23.747 -68.301  58.765  1.00  0.00     0.334 C 
ATOM      6  O   UNL     1     -24.382 -68.941  59.645  1.00  0.00    -0.247 OA
ATOM      7  O   UNL     1     -24.329 -67.388  57.919  1.00  0.00    -0.455 OA
ENDROOT
BRANCH   2   8
ATOM      8  C   UNL     1     -21.560 -68.407  56.137  1.00  0.00     0.017 C 
BRANCH   8   9
ATOM      9  C   UNL     1     -22.400 -68.292  54.844  1.00  0.00     0.031 C 
BRANCH   9  10
ATOM     10  C   UNL     1     -21.679 -67.555  53.731  1.00  0.00    -0.077 C 
ATOM     11  C   UNL     1     -20.569 -68.270  53.001  1.00  0.00     0.039 C 
ATOM     12  C   UNL     1     -21.996 -66.301  53.330  1.00  0.00    -0.028 CG0
ATOM     13  G   UNL     1     -22.922 -65.352  54.047  1.00  0.00     0.000 G0
ENDBRANCH   9  10
ENDBRANCH   8   9
ENDBRANCH   2   8
BRANCH   1  14
ATOM     14  C   UNL     1     -23.454 -65.244  57.310  1.00  0.00     0.192 C 
ATOM     15  C   UNL     1     -23.018 -64.180  56.345  1.00  0.00     0.096 C 
ATOM     16  O   UNL     1     -22.207 -64.601  57.428  1.00  0.00    -0.362 OA
ATOM     17  C   UNL     1     -23.571 -62.772  56.594  1.00  0.00     0.045 C 
BRANCH  15  18
ATOM     18  C   UNL     1     -22.254 -64.380  55.021  1.00  0.00     0.042 C 
BRANCH  18  19
ATOM     19  C   UNL     1     -22.921 -65.355  54.043  1.00  0.00     0.030 CG0
ATOM     20  G   UNL     1     -21.982 -66.284  53.315  1.00  0.00     0.000 G0
ENDBRANCH  18  19
ENDBRANCH  15  18
ENDBRANCH   1  14
TORSDOF 0
ENDMDL
MODEL 5
REMARK VINA RESULT:    -3.416      9.953     11.355
REMARK INTER + INTRA:          -4.807
REMARK INTER:                  -4.654
REMARK INTRA:                  -0.153
REMARK UNBOUND:                -0.192
REMARK SMILES C=C1C(=O)O[C@@H]2[C@@H]1CCC(C)=CCC[C@]1(C)O[C@H]21
REMARK SMILES IDX 6 1 7 2 2 3 1 4 3 5 4 6 5 7 8 8 9 9 10 10 11 11 12 12 18 14
REMARK SMILES IDX 15 15 17 16 16 17 14 18 13 19
REMARK H PARENT
REMARK Flexibility Score: 70.00
ROOT
ATOM      1  C   UNL     1     -24.253 -64.608  57.648  1.00  0.00     0.216 C 
ATOM      2  C   UNL     1     -22.840 -64.391  56.981  1.00  0.00     0.070 C 
ATOM      3  C   UNL     1     -22.573 -62.932  57.217  1.00  0.00     0.037 C 
ATOM      4  C   UNL     1     -21.568 -62.224  56.699  1.00  0.00     0.021 C 
ATOM      5  C   UNL     1     -23.618 -62.411  58.052  1.00  0.00     0.334 C 
ATOM      6  O   UNL     1     -23.692 -61.232  58.491  1.00  0.00    -0.247 OA
ATOM      7  O   UNL     1     -24.554 -63.381  58.314  1.00  0.00    -0.455 OA
ENDROOT
BRANCH   2   8
ATOM      8  C   UNL     1     -21.718 -65.228  57.662  1.00  0.00     0.017 C 
BRANCH   8   9
ATOM      9  C   UNL     1     -21.419 -66.610  57.036  1.00  0.00     0.031 C 
BRANCH   9  10
ATOM     10  C   UNL     1     -21.910 -67.766  57.887  1.00  0.00    -0.077 C 
ATOM     11  C   UNL     1     -20.976 -68.336  58.927  1.00  0.00     0.039 C 
ATOM     12  C   UNL     1     -23.152 -68.296  57.793  1.00  0.00    -0.028 CG0
ATOM     13  G   UNL     1     -24.154 -68.012  56.702  1.00  0.00     0.000 G0
ENDBRANCH   9  10
ENDBRANCH   8   9
ENDBRANCH   2   8
BRANCH   1  14
ATOM     14  C   UNL     1     -25.467 -64.946  56.748  1.00  0.00     0.192 C 
ATOM     15  C   UNL     1     -26.098 -66.302  56.614  1.00  0.00     0.096 C 
ATOM     16  O   UNL     1     -25.175 -65.796  55.665  1.00  0.00    -0.362 OA
ATOM     17  C   UNL     1     -27.516 -66.333  56.030  1.00  0.00     0.045 C 
BRANCH  15  18
ATOM     18  C   UNL     1     -25.573 -67.633  57.184  1.00  0.00     0.042 C 
BRANCH  18  19
ATOM     19  C   UNL     1     -24.171 -68.025  56.700  1.00  0.00     0.030 CG0
ATOM     20  G   UNL     1     -23.160 -68.282  57.789  1.00  0.00     0.000 G0
ENDBRANCH  18  19
ENDBRANCH  15  18
ENDBRANCH   1  14
TORSDOF 0
ENDMDL
MODEL 6
REMARK VINA RESULT:    -3.405      9.823     11.989
REMARK INTER + INTRA:          -4.792
REMARK INTER:                  -4.646
REMARK INTRA:                  -0.146
REMARK UNBOUND:                -0.192
REMARK SMILES C=C1C(=O)O[C@@H]2[C@@H]1CCC(C)=CCC[C@]1(C)O[C@H]21
REMARK SMILES IDX 6 1 7 2 2 3 1 4 3 5 4 6 5 7 8 8 9 9 10 10 11 11 12 12 18 14
REMARK SMILES IDX 15 15 17 16 16 17 14 18 13 19
REMARK H PARENT
REMARK Flexibility Score: 70.00
ROOT
ATOM      1  C   UNL     1     -21.783 -65.293  57.746  1.00  0.00     0.216 C 
ATOM      2  C   UNL     1     -23.174 -65.796  57.195  1.00  0.00     0.070 C 
ATOM      3  C   UNL     1     -23.103 -67.282  57.398  1.00  0.00     0.037 C 
ATOM      4  C   UNL     1     -23.978 -68.179  56.943  1.00  0.00     0.021 C 
ATOM      5  C   UNL     1     -21.899 -67.582  58.120  1.00  0.00     0.334 C 
ATOM      6  O   UNL     1     -21.537 -68.726  58.507  1.00  0.00    -0.247 OA
ATOM      7  O   UNL     1     -21.169 -66.439  58.336  1.00  0.00    -0.455 OA
ENDROOT
BRANCH   2   8
ATOM      8  C   UNL     1     -24.380 -65.231  58.000  1.00  0.00     0.017 C 
BRANCH   8   9
ATOM      9  C   UNL     1     -24.947 -63.874  57.522  1.00  0.00     0.031 C 
BRANCH   9  10
ATOM     10  C   UNL     1     -24.588 -62.723  58.443  1.00  0.00    -0.077 C 
ATOM     11  C   UNL     1     -25.480 -62.450  59.629  1.00  0.00     0.039 C 
ATOM     12  C   UNL     1     -23.492 -61.945  58.282  1.00  0.00    -0.028 CG0
ATOM     13  G   UNL     1     -22.595 -61.921  57.070  1.00  0.00     0.000 G0
ENDBRANCH   9  10
ENDBRANCH   8   9
ENDBRANCH   2   8
BRANCH   1  14
ATOM     14  C   UNL     1     -20.756 -64.686  56.758  1.00  0.00     0.192 C 
ATOM     15  C   UNL     1     -20.396 -63.232  56.664  1.00  0.00     0.096 C 
ATOM     16  O   UNL     1     -21.314 -63.846  55.776  1.00  0.00    -0.362 OA
ATOM     17  C   UNL     1     -19.080 -62.906  55.946  1.00  0.00     0.045 C 
BRANCH  15  18
ATOM     18  C   UNL     1     -21.083 -62.055  57.382  1.00  0.00     0.042 C 
BRANCH  18  19
ATOM     19  C   UNL     1     -22.579 -61.910  57.079  1.00  0.00     0.030 CG0
ATOM     20  G   UNL     1     -23.489 -61.947  58.281  1.00  0.00     0.000 G0
ENDBRANCH  18  19
ENDBRANCH  15  18
ENDBRANCH   1  14
TORSDOF 0
ENDMDL
MODEL 7
REMARK VINA RESULT:    -3.368      8.848     10.489
REMARK INTER + INTRA:          -4.742
REMARK INTER:                  -4.549
REMARK INTRA:                  -0.192
REMARK UNBOUND:                -0.192
REMARK SMILES C=C1C(=O)O[C@@H]2[C@@H]1CCC(C)=CCC[C@]1(C)O[C@H]21
REMARK SMILES IDX 6 1 7 2 2 3 1 4 3 5 4 6 5 7 8 8 9 9 10 10 11 11 12 12 18 14
REMARK SMILES IDX 15 15 17 16 16 17 14 18 13 19
REMARK H PARENT
REMARK Flexibility Score: 70.00
ROOT
ATOM      1  C   UNL     1     -22.846 -62.259  57.014  1.00  0.00     0.216 C 
ATOM      2  C   UNL     1     -23.773 -62.714  58.206  1.00  0.00     0.070 C 
ATOM      3  C   UNL     1     -24.937 -61.768  58.111  1.00  0.00     0.037 C 
ATOM      4  C   UNL     1     -25.921 -61.643  59.002  1.00  0.00     0.021 C 
ATOM      5  C   UNL     1     -24.781 -60.979  56.922  1.00  0.00     0.334 C 
ATOM      6  O   UNL     1     -25.595 -60.115  56.500  1.00  0.00    -0.247 OA
ATOM      7  O   UNL     1     -23.600 -61.286  56.291  1.00  0.00    -0.455 OA
ENDROOT
BRANCH   2   8
ATOM      8  C   UNL     1     -24.290 -64.173  58.044  1.00  0.00     0.017 C 
BRANCH   8   9
ATOM      9  C   UNL     1     -23.552 -65.050  57.008  1.00  0.00     0.031 C 
BRANCH   9  10
ATOM     10  C   UNL     1     -22.661 -66.100  57.646  1.00  0.00    -0.077 C 
ATOM     11  C   UNL     1     -23.316 -67.294  58.297  1.00  0.00     0.039 C 
ATOM     12  C   UNL     1     -21.309 -66.046  57.637  1.00  0.00    -0.028 CG0
ATOM     13  G   UNL     1     -20.474 -64.860  57.224  1.00  0.00     0.000 G0
ENDBRANCH   9  10
ENDBRANCH   8   9
ENDBRANCH   2   8
BRANCH   1  14
ATOM     14  C   UNL     1     -21.469 -61.623  57.330  1.00  0.00     0.192 C 
ATOM     15  C   UNL     1     -20.270 -62.361  57.848  1.00  0.00     0.096 C 
ATOM     16  O   UNL     1     -21.127 -61.616  58.696  1.00  0.00    -0.362 OA
ATOM     17  C   UNL     1     -18.918 -61.655  57.685  1.00  0.00     0.045 C 
BRANCH  15  18
ATOM     18  C   UNL     1     -20.213 -63.824  58.331  1.00  0.00     0.042 C 
BRANCH  18  19
ATOM     19  C   UNL     1     -20.461 -64.866  57.233  1.00  0.00     0.030 CG0
ATOM     20  G   UNL     1     -21.305 -66.047  57.642  1.00  0.00     0.000 G0
ENDBRANCH  18  19
ENDBRANCH  15  18
ENDBRANCH   1  14
TORSDOF 0
ENDMDL
MODEL 8
REMARK VINA RESULT:    -3.358     11.506     12.872
REMARK INTER + INTRA:          -4.728
REMARK INTER:                  -4.602
REMARK INTRA:                  -0.125
REMARK UNBOUND:                -0.192
REMARK SMILES C=C1C(=O)O[C@@H]2[C@@H]1CCC(C)=CCC[C@]1(C)O[C@H]21
REMARK SMILES IDX 6 1 7 2 2 3 1 4 3 5 4 6 5 7 8 8 9 9 10 10 11 11 12 12 18 14
REMARK SMILES IDX 15 15 17 16 16 17 14 18 13 19
REMARK H PARENT
REMARK Flexibility Score: 70.00
ROOT
ATOM      1  C   UNL     1     -20.853 -65.867  57.505  1.00  0.00     0.216 C 
ATOM      2  C   UNL     1     -21.623 -65.033  56.409  1.00  0.00     0.070 C 
ATOM      3  C   UNL     1     -21.474 -63.619  56.892  1.00  0.00     0.037 C 
ATOM      4  C   UNL     1     -22.091 -62.549  56.389  1.00  0.00     0.021 C 
ATOM      5  C   UNL     1     -20.595 -63.620  58.027  1.00  0.00     0.334 C 
ATOM      6  O   UNL     1     -20.207 -62.601  58.659  1.00  0.00    -0.247 OA
ATOM      7  O   UNL     1     -20.226 -64.903  58.350  1.00  0.00    -0.455 OA
ENDROOT
BRANCH   2   8
ATOM      8  C   UNL     1     -20.983 -65.158  54.997  1.00  0.00     0.017 C 
BRANCH   8   9
ATOM      9  C   UNL     1     -19.874 -66.223  54.839  1.00  0.00     0.031 C 
BRANCH   9  10
ATOM     10  C   UNL     1     -20.317 -67.427  54.031  1.00  0.00    -0.077 C 
ATOM     11  C   UNL     1     -20.439 -67.280  52.534  1.00  0.00     0.039 C 
ATOM     12  C   UNL     1     -20.579 -68.641  54.571  1.00  0.00    -0.028 CG0
ATOM     13  G   UNL     1     -20.711 -68.944  56.042  1.00  0.00     0.000 G0
ENDBRANCH   9  10
ENDBRANCH   8   9
ENDBRANCH   2   8
BRANCH   1  14
ATOM     14  C   UNL     1     -21.652 -66.825  58.424  1.00  0.00     0.192 C 
ATOM     15  C   UNL     1     -22.137 -68.193  58.041  1.00  0.00     0.096 C 
ATOM     16  O   UNL     1     -22.980 -67.054  58.018  1.00  0.00    -0.362 OA
ATOM     17  C   UNL     1     -22.514 -69.125  59.199  1.00  0.00     0.045 C 
BRANCH  15  18
ATOM     18  C   UNL     1     -22.100 -68.836  56.642  1.00  0.00     0.042 C 
BRANCH  18  19
ATOM     19  C   UNL     1     -20.696 -68.971  56.039  1.00  0.00     0.030 CG0
ATOM     20  G   UNL     1     -20.589 -68.647  54.570  1.00  0.00     0.000 G0
ENDBRANCH  18  19
ENDBRANCH  15  18
ENDBRANCH   1  14
TORSDOF 0
ENDMDL
MODEL 9
REMARK VINA RESULT:    -3.135     10.822     12.376
REMARK INTER + INTRA:          -4.427
REMARK INTER:                  -4.231
REMARK INTRA:                  -0.196
REMARK UNBOUND:                -0.192
REMARK SMILES C=C1C(=O)O[C@@H]2[C@@H]1CCC(C)=CCC[C@]1(C)O[C@H]21
REMARK SMILES IDX 6 1 7 2 2 3 1 4 3 5 4 6 5 7 8 8 9 9 10 10 11 11 12 12 18 14
REMARK SMILES IDX 15 15 17 16 16 17 14 18 13 19
REMARK H PARENT
REMARK Flexibility Score: 70.00
ROOT
ATOM      1  C   UNL     1     -23.383 -65.632  57.435  1.00  0.00     0.216 C 
ATOM      2  C   UNL     1     -23.682 -65.677  55.887  1.00  0.00     0.070 C 
ATOM      3  C   UNL     1     -24.659 -64.552  55.697  1.00  0.00     0.037 C 
ATOM      4  C   UNL     1     -25.338 -64.281  54.582  1.00  0.00     0.021 C 
ATOM      5  C   UNL     1     -24.782 -63.846  56.941  1.00  0.00     0.334 C 
ATOM      6  O   UNL     1     -25.480 -62.815  57.138  1.00  0.00    -0.247 OA
ATOM      7  O   UNL     1     -24.029 -64.453  57.916  1.00  0.00    -0.455 OA
ENDROOT
BRANCH   2   8
ATOM      8  C   UNL     1     -22.418 -65.404  55.021  1.00  0.00     0.017 C 
BRANCH   8   9
ATOM      9  C   UNL     1     -21.055 -65.699  55.686  1.00  0.00     0.031 C 
BRANCH   9  10
ATOM     10  C   UNL     1     -20.414 -66.978  55.182  1.00  0.00    -0.077 C 
ATOM     11  C   UNL     1     -19.832 -66.987  53.789  1.00  0.00     0.039 C 
ATOM     12  C   UNL     1     -20.301 -68.106  55.922  1.00  0.00    -0.028 CG0
ATOM     13  G   UNL     1     -20.981 -68.368  57.242  1.00  0.00     0.000 G0
ENDBRANCH   9  10
ENDBRANCH   8   9
ENDBRANCH   2   8
BRANCH   1  14
ATOM     14  C   UNL     1     -23.854 -66.806  58.329  1.00  0.00     0.192 C 
ATOM     15  C   UNL     1     -23.358 -68.219  58.239  1.00  0.00     0.096 C 
ATOM     16  O   UNL     1     -24.578 -67.804  57.650  1.00  0.00    -0.362 OA
ATOM     17  C   UNL     1     -23.619 -69.107  59.462  1.00  0.00     0.045 C 
BRANCH  15  18
ATOM     18  C   UNL     1     -22.440 -68.817  57.155  1.00  0.00     0.042 C 
BRANCH  18  19
ATOM     19  C   UNL     1     -20.974 -68.377  57.249  1.00  0.00     0.030 CG0
ATOM     20  G   UNL     1     -20.292 -68.114  55.930  1.00  0.00     0.000 G0
ENDBRANCH  18  19
ENDBRANCH  15  18
ENDBRANCH   1  14
TORSDOF 0
ENDMDL
