MODEL 1
REMARK VINA RESULT:    -0.667      0.000      0.000
REMARK INTER + INTRA:          -5.734
REMARK INTER:                  -1.446
REMARK INTRA:                  -4.288
REMARK UNBOUND:                -4.288
REMARK SMILES CCCCCCCCCCCCCCCCCCCCCC(=O)[O-]
REMARK SMILES IDX 12 1 11 2 10 3 9 4 8 5 7 6 6 7 5 8 4 9 3 10 2 11 1 12 13 13
REMARK SMILES IDX 14 14 15 15 16 16 17 17 18 18 19 19 20 20 21 21 22 22 23 23
REMARK SMILES IDX 24 24
REMARK H PARENT
REMARK Flexibility Score: inf
ROOT
ATOM      1  C   UNL     1      35.706   5.085  37.247  1.00  0.00     0.000 C 
ENDROOT
BRANCH   1   2
ATOM      2  C   UNL     1      35.256   3.721  37.793  1.00  0.00     0.000 C 
BRANCH   2   3
ATOM      3  C   UNL     1      36.441   2.848  38.238  1.00  0.00     0.000 C 
BRANCH   3   4
ATOM      4  C   UNL     1      35.956   1.563  38.926  1.00  0.00    -0.000 C 
BRANCH   4   5
ATOM      5  C   UNL     1      34.657   1.772  39.725  1.00  0.00    -0.000 C 
BRANCH   5   6
ATOM      6  C   UNL     1      34.825   1.458  41.223  1.00  0.00    -0.000 C 
BRANCH   6   7
ATOM      7  C   UNL     1      34.911   2.726  42.090  1.00  0.00    -0.000 C 
BRANCH   7   8
ATOM      8  C   UNL     1      36.286   3.420  42.093  1.00  0.00    -0.000 C 
BRANCH   8   9
ATOM      9  C   UNL     1      36.188   4.941  41.873  1.00  0.00    -0.000 C 
BRANCH   9  10
ATOM     10  C   UNL     1      34.740   5.453  41.974  1.00  0.00    -0.000 C 
BRANCH  10  11
ATOM     11  C   UNL     1      34.183   5.991  40.642  1.00  0.00    -0.003 C 
ATOM     12  C   UNL     1      32.894   5.283  40.216  1.00  0.00     0.004 C 
ENDBRANCH  10  11
ENDBRANCH   9  10
ENDBRANCH   8   9
ENDBRANCH   7   8
ENDBRANCH   6   7
ENDBRANCH   5   6
ENDBRANCH   4   5
ENDBRANCH   3   4
ENDBRANCH   2   3
ENDBRANCH   1   2
BRANCH   1  13
ATOM     13  C   UNL     1      37.079   5.514  37.790  1.00  0.00     0.000 C 
BRANCH  13  14
ATOM     14  C   UNL     1      37.010   6.849  38.557  1.00  0.00     0.000 C 
BRANCH  14  15
ATOM     15  C   UNL     1      38.340   7.261  39.223  1.00  0.00     0.000 C 
BRANCH  15  16
ATOM     16  C   UNL     1      38.248   7.605  40.725  1.00  0.00     0.000 C 
BRANCH  16  17
ATOM     17  C   UNL     1      39.404   7.032  41.575  1.00  0.00     0.000 C 
BRANCH  17  18
ATOM     18  C   UNL     1      40.282   6.014  40.824  1.00  0.00     0.000 C 
BRANCH  18  19
ATOM     19  C   UNL     1      40.023   4.566  41.277  1.00  0.00     0.000 C 
BRANCH  19  20
ATOM     20  C   UNL     1      39.286   3.741  40.211  1.00  0.00     0.006 C 
BRANCH  20  21
ATOM     21  C   UNL     1      40.072   3.640  38.895  1.00  0.00     0.053 C 
BRANCH  21  22
ATOM     22  C   UNL     1      40.046   2.236  38.378  1.00  0.00     0.041 C 
ATOM     23  O   UNL     1      40.228   2.010  37.153  1.00  0.00    -0.550 OA
ATOM     24  O   UNL     1      39.775   1.182  39.240  1.00  0.00    -0.550 OA
ENDBRANCH  21  22
ENDBRANCH  20  21
ENDBRANCH  19  20
ENDBRANCH  18  19
ENDBRANCH  17  18
ENDBRANCH  16  17
ENDBRANCH  15  16
ENDBRANCH  14  15
ENDBRANCH  13  14
ENDBRANCH   1  13
TORSDOF 20
ENDMDL
MODEL 2
REMARK VINA RESULT:    -0.636      2.191      3.312
REMARK INTER + INTRA:          -5.667
REMARK INTER:                  -1.358
REMARK INTRA:                  -4.309
REMARK UNBOUND:                -4.288
REMARK SMILES CCCCCCCCCCCCCCCCCCCCCC(=O)[O-]
REMARK SMILES IDX 12 1 11 2 10 3 9 4 8 5 7 6 6 7 5 8 4 9 3 10 2 11 1 12 13 13
REMARK SMILES IDX 14 14 15 15 16 16 17 17 18 18 19 19 20 20 21 21 22 22 23 23
REMARK SMILES IDX 24 24
REMARK H PARENT
REMARK Flexibility Score: inf
ROOT
ATOM      1  C   UNL     1      35.754   5.500  37.834  1.00  0.00     0.000 C 
ENDROOT
BRANCH   1   2
ATOM      2  C   UNL     1      35.035   4.228  38.308  1.00  0.00     0.000 C 
BRANCH   2   3
ATOM      3  C   UNL     1      35.927   2.979  38.209  1.00  0.00     0.000 C 
BRANCH   3   4
ATOM      4  C   UNL     1      37.409   3.364  38.091  1.00  0.00    -0.000 C 
BRANCH   4   5
ATOM      5  C   UNL     1      38.144   3.316  39.442  1.00  0.00    -0.000 C 
BRANCH   5   6
ATOM      6  C   UNL     1      37.645   2.178  40.350  1.00  0.00    -0.000 C 
BRANCH   6   7
ATOM      7  C   UNL     1      37.258   2.666  41.757  1.00  0.00    -0.000 C 
BRANCH   7   8
ATOM      8  C   UNL     1      35.775   2.483  42.125  1.00  0.00    -0.000 C 
BRANCH   8   9
ATOM      9  C   UNL     1      35.079   1.398  41.283  1.00  0.00    -0.000 C 
BRANCH   9  10
ATOM     10  C   UNL     1      33.619   1.760  40.957  1.00  0.00    -0.000 C 
BRANCH  10  11
ATOM     11  C   UNL     1      33.214   3.170  41.428  1.00  0.00    -0.003 C 
ATOM     12  C   UNL     1      32.093   3.774  40.579  1.00  0.00     0.004 C 
ENDBRANCH  10  11
ENDBRANCH   9  10
ENDBRANCH   8   9
ENDBRANCH   7   8
ENDBRANCH   6   7
ENDBRANCH   5   6
ENDBRANCH   4   5
ENDBRANCH   3   4
ENDBRANCH   2   3
ENDBRANCH   1   2
BRANCH   1  13
ATOM     13  C   UNL     1      35.716   6.626  38.881  1.00  0.00     0.000 C 
BRANCH  13  14
ATOM     14  C   UNL     1      34.878   6.243  40.117  1.00  0.00     0.000 C 
BRANCH  14  15
ATOM     15  C   UNL     1      35.710   6.029  41.398  1.00  0.00     0.000 C 
BRANCH  15  16
ATOM     16  C   UNL     1      36.224   7.318  42.075  1.00  0.00     0.000 C 
BRANCH  16  17
ATOM     17  C   UNL     1      37.739   7.563  41.896  1.00  0.00     0.000 C 
BRANCH  17  18
ATOM     18  C   UNL     1      38.545   6.284  41.603  1.00  0.00     0.000 C 
BRANCH  18  19
ATOM     19  C   UNL     1      39.802   6.560  40.759  1.00  0.00     0.000 C 
BRANCH  19  20
ATOM     20  C   UNL     1      39.493   7.389  39.502  1.00  0.00     0.006 C 
BRANCH  20  21
ATOM     21  C   UNL     1      39.426   6.530  38.232  1.00  0.00     0.053 C 
BRANCH  21  22
ATOM     22  C   UNL     1      39.021   7.365  37.057  1.00  0.00     0.041 C 
ATOM     23  O   UNL     1      39.165   8.615  37.090  1.00  0.00    -0.550 OA
ATOM     24  O   UNL     1      38.441   6.767  35.946  1.00  0.00    -0.550 OA
ENDBRANCH  21  22
ENDBRANCH  20  21
ENDBRANCH  19  20
ENDBRANCH  18  19
ENDBRANCH  17  18
ENDBRANCH  16  17
ENDBRANCH  15  16
ENDBRANCH  14  15
ENDBRANCH  13  14
ENDBRANCH   1  13
TORSDOF 20
ENDMDL
MODEL 3
REMARK VINA RESULT:    -0.607      3.047      3.874
REMARK INTER + INTRA:          -5.605
REMARK INTER:                  -1.735
REMARK INTRA:                  -3.870
REMARK UNBOUND:                -4.288
REMARK SMILES CCCCCCCCCCCCCCCCCCCCCC(=O)[O-]
REMARK SMILES IDX 12 1 11 2 10 3 9 4 8 5 7 6 6 7 5 8 4 9 3 10 2 11 1 12 13 13
REMARK SMILES IDX 14 14 15 15 16 16 17 17 18 18 19 19 20 20 21 21 22 22 23 23
REMARK SMILES IDX 24 24
REMARK H PARENT
REMARK Flexibility Score: inf
ROOT
ATOM      1  C   UNL     1      38.051   5.045  38.368  1.00  0.00     0.000 C 
ENDROOT
BRANCH   1   2
ATOM      2  C   UNL     1      36.710   4.297  38.362  1.00  0.00     0.000 C 
BRANCH   2   3
ATOM      3  C   UNL     1      36.847   2.853  37.852  1.00  0.00     0.000 C 
BRANCH   3   4
ATOM      4  C   UNL     1      36.154   1.862  38.801  1.00  0.00    -0.000 C 
BRANCH   4   5
ATOM      5  C   UNL     1      37.146   0.903  39.483  1.00  0.00    -0.000 C 
BRANCH   5   6
ATOM      6  C   UNL     1      38.230   1.643  40.288  1.00  0.00    -0.000 C 
BRANCH   6   7
ATOM      7  C   UNL     1      37.752   2.052  41.692  1.00  0.00    -0.000 C 
BRANCH   7   8
ATOM      8  C   UNL     1      37.604   3.568  41.913  1.00  0.00    -0.000 C 
BRANCH   8   9
ATOM      9  C   UNL     1      36.136   4.010  42.063  1.00  0.00    -0.000 C 
BRANCH   9  10
ATOM     10  C   UNL     1      35.171   2.812  42.125  1.00  0.00    -0.000 C 
BRANCH  10  11
ATOM     11  C   UNL     1      33.876   3.023  41.317  1.00  0.00    -0.003 C 
ATOM     12  C   UNL     1      33.756   4.445  40.762  1.00  0.00     0.004 C 
ENDBRANCH  10  11
ENDBRANCH   9  10
ENDBRANCH   8   9
ENDBRANCH   7   8
ENDBRANCH   6   7
ENDBRANCH   5   6
ENDBRANCH   4   5
ENDBRANCH   3   4
ENDBRANCH   2   3
ENDBRANCH   1   2
BRANCH   1  13
ATOM     13  C   UNL     1      39.207   4.190  37.820  1.00  0.00     0.000 C 
BRANCH  13  14
ATOM     14  C   UNL     1      40.543   4.498  38.523  1.00  0.00     0.000 C 
BRANCH  14  15
ATOM     15  C   UNL     1      40.391   4.943  39.993  1.00  0.00     0.000 C 
BRANCH  15  16
ATOM     16  C   UNL     1      41.174   4.102  41.023  1.00  0.00     0.000 C 
BRANCH  16  17
ATOM     17  C   UNL     1      41.708   2.763  40.468  1.00  0.00     0.000 C 
BRANCH  17  18
ATOM     18  C   UNL     1      42.666   2.030  41.426  1.00  0.00     0.000 C 
BRANCH  18  19
ATOM     19  C   UNL     1      44.073   2.652  41.440  1.00  0.00     0.000 C 
BRANCH  19  20
ATOM     20  C   UNL     1      44.534   3.091  40.041  1.00  0.00     0.006 C 
BRANCH  20  21
ATOM     21  C   UNL     1      45.371   4.378  40.072  1.00  0.00     0.053 C 
BRANCH  21  22
ATOM     22  C   UNL     1      44.493   5.567  40.311  1.00  0.00     0.041 C 
ATOM     23  O   UNL     1      43.826   6.060  39.365  1.00  0.00    -0.550 OA
ATOM     24  O   UNL     1      44.449   6.157  41.567  1.00  0.00    -0.550 OA
ENDBRANCH  21  22
ENDBRANCH  20  21
ENDBRANCH  19  20
ENDBRANCH  18  19
ENDBRANCH  17  18
ENDBRANCH  16  17
ENDBRANCH  15  16
ENDBRANCH  14  15
ENDBRANCH  13  14
ENDBRANCH   1  13
TORSDOF 20
ENDMDL
MODEL 4
REMARK VINA RESULT:    -0.578      1.751      3.526
REMARK INTER + INTRA:          -5.540
REMARK INTER:                  -1.628
REMARK INTRA:                  -3.912
REMARK UNBOUND:                -4.288
REMARK SMILES CCCCCCCCCCCCCCCCCCCCCC(=O)[O-]
REMARK SMILES IDX 12 1 11 2 10 3 9 4 8 5 7 6 6 7 5 8 4 9 3 10 2 11 1 12 13 13
REMARK SMILES IDX 14 14 15 15 16 16 17 17 18 18 19 19 20 20 21 21 22 22 23 23
REMARK SMILES IDX 24 24
REMARK H PARENT
REMARK Flexibility Score: inf
ROOT
ATOM      1  C   UNL     1      34.380   4.911  40.384  1.00  0.00     0.000 C 
ENDROOT
BRANCH   1   2
ATOM      2  C   UNL     1      34.484   3.401  40.648  1.00  0.00     0.000 C 
BRANCH   2   3
ATOM      3  C   UNL     1      35.025   3.088  42.053  1.00  0.00     0.000 C 
BRANCH   3   4
ATOM      4  C   UNL     1      36.557   2.967  42.043  1.00  0.00    -0.000 C 
BRANCH   4   5
ATOM      5  C   UNL     1      37.070   2.019  40.944  1.00  0.00    -0.000 C 
BRANCH   5   6
ATOM      6  C   UNL     1      38.206   2.637  40.110  1.00  0.00    -0.000 C 
BRANCH   6   7
ATOM      7  C   UNL     1      37.703   3.279  38.805  1.00  0.00    -0.000 C 
BRANCH   7   8
ATOM      8  C   UNL     1      38.004   4.782  38.659  1.00  0.00    -0.000 C 
BRANCH   8   9
ATOM      9  C   UNL     1      36.955   5.523  37.811  1.00  0.00    -0.000 C 
BRANCH   9  10
ATOM     10  C   UNL     1      36.691   6.949  38.326  1.00  0.00    -0.000 C 
BRANCH  10  11
ATOM     11  C   UNL     1      35.379   7.561  37.799  1.00  0.00    -0.003 C 
ATOM     12  C   UNL     1      34.801   8.615  38.746  1.00  0.00     0.004 C 
ENDBRANCH  10  11
ENDBRANCH   9  10
ENDBRANCH   8   9
ENDBRANCH   7   8
ENDBRANCH   6   7
ENDBRANCH   5   6
ENDBRANCH   4   5
ENDBRANCH   3   4
ENDBRANCH   2   3
ENDBRANCH   1   2
BRANCH   1  13
ATOM     13  C   UNL     1      33.518   5.636  41.432  1.00  0.00     0.000 C 
BRANCH  13  14
ATOM     14  C   UNL     1      34.238   6.860  42.031  1.00  0.00     0.000 C 
BRANCH  14  15
ATOM     15  C   UNL     1      35.777   6.776  41.969  1.00  0.00     0.000 C 
BRANCH  15  16
ATOM     16  C   UNL     1      36.511   8.132  41.895  1.00  0.00     0.000 C 
BRANCH  16  17
ATOM     17  C   UNL     1      38.044   8.013  41.748  1.00  0.00     0.000 C 
BRANCH  17  18
ATOM     18  C   UNL     1      38.570   6.571  41.876  1.00  0.00     0.000 C 
BRANCH  18  19
ATOM     19  C   UNL     1      39.945   6.386  41.210  1.00  0.00     0.000 C 
BRANCH  19  20
ATOM     20  C   UNL     1      40.486   4.956  41.369  1.00  0.00     0.006 C 
BRANCH  20  21
ATOM     21  C   UNL     1      41.587   4.625  40.352  1.00  0.00     0.053 C 
BRANCH  21  22
ATOM     22  C   UNL     1      42.082   3.227  40.554  1.00  0.00     0.041 C 
ATOM     23  O   UNL     1      42.844   2.959  41.519  1.00  0.00    -0.550 OA
ATOM     24  O   UNL     1      41.740   2.231  39.649  1.00  0.00    -0.550 OA
ENDBRANCH  21  22
ENDBRANCH  20  21
ENDBRANCH  19  20
ENDBRANCH  18  19
ENDBRANCH  17  18
ENDBRANCH  16  17
ENDBRANCH  15  16
ENDBRANCH  14  15
ENDBRANCH  13  14
ENDBRANCH   1  13
TORSDOF 20
ENDMDL
MODEL 5
REMARK VINA RESULT:    -0.558      2.531      5.508
REMARK INTER + INTRA:          -5.498
REMARK INTER:                  -1.465
REMARK INTRA:                  -4.033
REMARK UNBOUND:                -4.288
REMARK SMILES CCCCCCCCCCCCCCCCCCCCCC(=O)[O-]
REMARK SMILES IDX 12 1 11 2 10 3 9 4 8 5 7 6 6 7 5 8 4 9 3 10 2 11 1 12 13 13
REMARK SMILES IDX 14 14 15 15 16 16 17 17 18 18 19 19 20 20 21 21 22 22 23 23
REMARK SMILES IDX 24 24
REMARK H PARENT
REMARK Flexibility Score: inf
ROOT
ATOM      1  C   UNL     1      40.142   5.337  37.043  1.00  0.00     0.000 C 
ENDROOT
BRANCH   1   2
ATOM      2  C   UNL     1      40.804   4.326  36.095  1.00  0.00     0.000 C 
BRANCH   2   3
ATOM      3  C   UNL     1      42.339   4.382  36.158  1.00  0.00     0.000 C 
BRANCH   3   4
ATOM      4  C   UNL     1      42.935   2.989  36.414  1.00  0.00    -0.000 C 
BRANCH   4   5
ATOM      5  C   UNL     1      41.959   2.053  37.149  1.00  0.00    -0.000 C 
BRANCH   5   6
ATOM      6  C   UNL     1      42.526   1.530  38.481  1.00  0.00    -0.000 C 
BRANCH   6   7
ATOM      7  C   UNL     1      42.782   2.654  39.500  1.00  0.00    -0.000 C 
BRANCH   7   8
ATOM      8  C   UNL     1      42.009   2.520  40.825  1.00  0.00    -0.000 C 
BRANCH   8   9
ATOM      9  C   UNL     1      40.525   2.906  40.695  1.00  0.00    -0.000 C 
BRANCH   9  10
ATOM     10  C   UNL     1      39.587   1.715  40.961  1.00  0.00    -0.000 C 
BRANCH  10  11
ATOM     11  C   UNL     1      38.807   1.255  39.714  1.00  0.00    -0.003 C 
ATOM     12  C   UNL     1      38.582   2.389  38.711  1.00  0.00     0.004 C 
ENDBRANCH  10  11
ENDBRANCH   9  10
ENDBRANCH   8   9
ENDBRANCH   7   8
ENDBRANCH   6   7
ENDBRANCH   5   6
ENDBRANCH   4   5
ENDBRANCH   3   4
ENDBRANCH   2   3
ENDBRANCH   1   2
BRANCH   1  13
ATOM     13  C   UNL     1      40.955   5.559  38.331  1.00  0.00     0.000 C 
BRANCH  13  14
ATOM     14  C   UNL     1      40.558   6.861  39.053  1.00  0.00     0.000 C 
BRANCH  14  15
ATOM     15  C   UNL     1      40.562   6.752  40.592  1.00  0.00     0.000 C 
BRANCH  15  16
ATOM     16  C   UNL     1      39.185   6.494  41.240  1.00  0.00     0.000 C 
BRANCH  16  17
ATOM     17  C   UNL     1      38.009   6.484  40.239  1.00  0.00     0.000 C 
BRANCH  17  18
ATOM     18  C   UNL     1      37.106   5.242  40.353  1.00  0.00     0.000 C 
BRANCH  18  19
ATOM     19  C   UNL     1      37.309   4.487  41.678  1.00  0.00     0.000 C 
BRANCH  19  20
ATOM     20  C   UNL     1      36.081   3.651  42.071  1.00  0.00     0.006 C 
BRANCH  20  21
ATOM     21  C   UNL     1      35.313   3.121  40.852  1.00  0.00     0.053 C 
BRANCH  21  22
ATOM     22  C   UNL     1      35.217   1.628  40.904  1.00  0.00     0.041 C 
ATOM     23  O   UNL     1      35.225   0.957  39.840  1.00  0.00    -0.550 OA
ATOM     24  O   UNL     1      35.073   0.982  42.125  1.00  0.00    -0.550 OA
ENDBRANCH  21  22
ENDBRANCH  20  21
ENDBRANCH  19  20
ENDBRANCH  18  19
ENDBRANCH  17  18
ENDBRANCH  16  17
ENDBRANCH  15  16
ENDBRANCH  14  15
ENDBRANCH  13  14
ENDBRANCH   1  13
TORSDOF 20
ENDMDL
MODEL 6
REMARK VINA RESULT:    -0.552      2.388      3.722
REMARK INTER + INTRA:          -5.485
REMARK INTER:                  -1.092
REMARK INTRA:                  -4.393
REMARK UNBOUND:                -4.288
REMARK SMILES CCCCCCCCCCCCCCCCCCCCCC(=O)[O-]
REMARK SMILES IDX 12 1 11 2 10 3 9 4 8 5 7 6 6 7 5 8 4 9 3 10 2 11 1 12 13 13
REMARK SMILES IDX 14 14 15 15 16 16 17 17 18 18 19 19 20 20 21 21 22 22 23 23
REMARK SMILES IDX 24 24
REMARK H PARENT
REMARK Flexibility Score: inf
ROOT
ATOM      1  C   UNL     1      37.222   5.342  36.122  1.00  0.00     0.000 C 
ENDROOT
BRANCH   1   2
ATOM      2  C   UNL     1      36.441   5.484  37.437  1.00  0.00     0.000 C 
BRANCH   2   3
ATOM      3  C   UNL     1      36.202   4.130  38.126  1.00  0.00     0.000 C 
BRANCH   3   4
ATOM      4  C   UNL     1      34.701   3.847  38.286  1.00  0.00    -0.000 C 
BRANCH   4   5
ATOM      5  C   UNL     1      34.414   2.712  39.285  1.00  0.00    -0.000 C 
BRANCH   5   6
ATOM      6  C   UNL     1      35.668   2.275  40.064  1.00  0.00    -0.000 C 
BRANCH   6   7
ATOM      7  C   UNL     1      35.518   2.460  41.584  1.00  0.00    -0.000 C 
BRANCH   7   8
ATOM      8  C   UNL     1      35.974   3.828  42.123  1.00  0.00    -0.000 C 
BRANCH   8   9
ATOM      9  C   UNL     1      34.847   4.876  42.125  1.00  0.00    -0.000 C 
BRANCH   9  10
ATOM     10  C   UNL     1      35.197   6.111  41.274  1.00  0.00    -0.000 C 
BRANCH  10  11
ATOM     11  C   UNL     1      36.698   6.458  41.282  1.00  0.00    -0.003 C 
ATOM     12  C   UNL     1      37.033   7.637  40.365  1.00  0.00     0.004 C 
ENDBRANCH  10  11
ENDBRANCH   9  10
ENDBRANCH   8   9
ENDBRANCH   7   8
ENDBRANCH   6   7
ENDBRANCH   5   6
ENDBRANCH   4   5
ENDBRANCH   3   4
ENDBRANCH   2   3
ENDBRANCH   1   2
BRANCH   1  13
ATOM     13  C   UNL     1      37.649   3.890  35.843  1.00  0.00     0.000 C 
BRANCH  13  14
ATOM     14  C   UNL     1      39.136   3.787  35.449  1.00  0.00     0.000 C 
BRANCH  14  15
ATOM     15  C   UNL     1      39.875   2.597  36.096  1.00  0.00     0.000 C 
BRANCH  15  16
ATOM     16  C   UNL     1      39.220   2.027  37.373  1.00  0.00     0.000 C 
BRANCH  16  17
ATOM     17  C   UNL     1      40.058   2.229  38.655  1.00  0.00     0.000 C 
BRANCH  17  18
ATOM     18  C   UNL     1      39.245   2.760  39.851  1.00  0.00     0.000 C 
BRANCH  18  19
ATOM     19  C   UNL     1      39.268   4.296  39.942  1.00  0.00     0.000 C 
BRANCH  19  20
ATOM     20  C   UNL     1      40.476   4.909  39.216  1.00  0.00     0.006 C 
BRANCH  20  21
ATOM     21  C   UNL     1      40.100   6.139  38.379  1.00  0.00     0.053 C 
BRANCH  21  22
ATOM     22  C   UNL     1      40.485   7.396  39.095  1.00  0.00     0.041 C 
ATOM     23  O   UNL     1      40.114   8.515  38.653  1.00  0.00    -0.550 OA
ATOM     24  O   UNL     1      41.292   7.335  40.223  1.00  0.00    -0.550 OA
ENDBRANCH  21  22
ENDBRANCH  20  21
ENDBRANCH  19  20
ENDBRANCH  18  19
ENDBRANCH  17  18
ENDBRANCH  16  17
ENDBRANCH  15  16
ENDBRANCH  14  15
ENDBRANCH  13  14
ENDBRANCH   1  13
TORSDOF 20
ENDMDL
MODEL 7
REMARK VINA RESULT:    -0.547      2.758      4.110
REMARK INTER + INTRA:          -5.473
REMARK INTER:                  -1.657
REMARK INTRA:                  -3.817
REMARK UNBOUND:                -4.288
REMARK SMILES CCCCCCCCCCCCCCCCCCCCCC(=O)[O-]
REMARK SMILES IDX 12 1 11 2 10 3 9 4 8 5 7 6 6 7 5 8 4 9 3 10 2 11 1 12 13 13
REMARK SMILES IDX 14 14 15 15 16 16 17 17 18 18 19 19 20 20 21 21 22 22 23 23
REMARK SMILES IDX 24 24
REMARK H PARENT
REMARK Flexibility Score: inf
ROOT
ATOM      1  C   UNL     1      37.613   3.061  37.441  1.00  0.00     0.000 C 
ENDROOT
BRANCH   1   2
ATOM      2  C   UNL     1      38.225   1.673  37.679  1.00  0.00     0.000 C 
BRANCH   2   3
ATOM      3  C   UNL     1      39.336   1.697  38.742  1.00  0.00     0.000 C 
BRANCH   3   4
ATOM      4  C   UNL     1      38.932   0.892  39.986  1.00  0.00    -0.000 C 
BRANCH   4   5
ATOM      5  C   UNL     1      39.253   1.629  41.299  1.00  0.00    -0.000 C 
BRANCH   5   6
ATOM      6  C   UNL     1      37.988   2.028  42.081  1.00  0.00    -0.000 C 
BRANCH   6   7
ATOM      7  C   UNL     1      36.896   0.945  42.037  1.00  0.00    -0.000 C 
BRANCH   7   8
ATOM      8  C   UNL     1      35.492   1.450  41.656  1.00  0.00    -0.000 C 
BRANCH   8   9
ATOM      9  C   UNL     1      35.523   2.533  40.562  1.00  0.00    -0.000 C 
BRANCH   9  10
ATOM     10  C   UNL     1      34.252   3.401  40.567  1.00  0.00    -0.000 C 
BRANCH  10  11
ATOM     11  C   UNL     1      34.422   4.739  41.312  1.00  0.00    -0.003 C 
ATOM     12  C   UNL     1      33.282   5.719  41.027  1.00  0.00     0.004 C 
ENDBRANCH  10  11
ENDBRANCH   9  10
ENDBRANCH   8   9
ENDBRANCH   7   8
ENDBRANCH   6   7
ENDBRANCH   5   6
ENDBRANCH   4   5
ENDBRANCH   3   4
ENDBRANCH   2   3
ENDBRANCH   1   2
BRANCH   1  13
ATOM     13  C   UNL     1      38.680   4.144  37.203  1.00  0.00     0.000 C 
BRANCH  13  14
ATOM     14  C   UNL     1      38.516   5.341  38.159  1.00  0.00     0.000 C 
BRANCH  14  15
ATOM     15  C   UNL     1      37.863   4.981  39.511  1.00  0.00     0.000 C 
BRANCH  15  16
ATOM     16  C   UNL     1      38.711   5.304  40.760  1.00  0.00     0.000 C 
BRANCH  16  17
ATOM     17  C   UNL     1      37.894   5.852  41.951  1.00  0.00     0.000 C 
BRANCH  17  18
ATOM     18  C   UNL     1      37.781   7.388  41.973  1.00  0.00     0.000 C 
BRANCH  18  19
ATOM     19  C   UNL     1      36.328   7.869  42.125  1.00  0.00     0.000 C 
BRANCH  19  20
ATOM     20  C   UNL     1      35.751   8.418  40.811  1.00  0.00     0.006 C 
BRANCH  20  21
ATOM     21  C   UNL     1      36.827   8.627  39.736  1.00  0.00     0.053 C 
BRANCH  21  22
ATOM     22  C   UNL     1      36.324   8.182  38.398  1.00  0.00     0.041 C 
ATOM     23  O   UNL     1      35.336   7.406  38.320  1.00  0.00    -0.550 OA
ATOM     24  O   UNL     1      36.975   8.586  37.240  1.00  0.00    -0.550 OA
ENDBRANCH  21  22
ENDBRANCH  20  21
ENDBRANCH  19  20
ENDBRANCH  18  19
ENDBRANCH  17  18
ENDBRANCH  16  17
ENDBRANCH  15  16
ENDBRANCH  14  15
ENDBRANCH  13  14
ENDBRANCH   1  13
TORSDOF 20
ENDMDL
MODEL 8
REMARK VINA RESULT:     0.081      3.037      4.980
REMARK INTER + INTRA:          -4.112
REMARK INTER:                   0.138
REMARK INTRA:                  -4.250
REMARK UNBOUND:                -4.288
REMARK SMILES CCCCCCCCCCCCCCCCCCCCCC(=O)[O-]
REMARK SMILES IDX 12 1 11 2 10 3 9 4 8 5 7 6 6 7 5 8 4 9 3 10 2 11 1 12 13 13
REMARK SMILES IDX 14 14 15 15 16 16 17 17 18 18 19 19 20 20 21 21 22 22 23 23
REMARK SMILES IDX 24 24
REMARK H PARENT
REMARK Flexibility Score: inf
ROOT
ATOM      1  C   UNL     1      35.804   6.343  37.311  1.00  0.00     0.000 C 
ENDROOT
BRANCH   1   2
ATOM      2  C   UNL     1      34.665   7.278  37.746  1.00  0.00     0.000 C 
BRANCH   2   3
ATOM      3  C   UNL     1      34.953   7.964  39.093  1.00  0.00     0.000 C 
BRANCH   3   4
ATOM      4  C   UNL     1      34.483   7.094  40.269  1.00  0.00    -0.000 C 
BRANCH   4   5
ATOM      5  C   UNL     1      35.529   7.001  41.393  1.00  0.00    -0.000 C 
BRANCH   5   6
ATOM      6  C   UNL     1      35.497   5.647  42.125  1.00  0.00    -0.000 C 
BRANCH   6   7
ATOM      7  C   UNL     1      34.142   4.930  41.987  1.00  0.00    -0.000 C 
BRANCH   7   8
ATOM      8  C   UNL     1      34.200   3.397  42.125  1.00  0.00    -0.000 C 
BRANCH   8   9
ATOM      9  C   UNL     1      35.638   2.848  42.098  1.00  0.00    -0.000 C 
BRANCH   9  10
ATOM     10  C   UNL     1      35.765   1.592  41.217  1.00  0.00    -0.000 C 
BRANCH  10  11
ATOM     11  C   UNL     1      37.211   1.079  41.081  1.00  0.00    -0.003 C 
ATOM     12  C   UNL     1      38.151   1.689  42.125  1.00  0.00     0.004 C 
ENDBRANCH  10  11
ENDBRANCH   9  10
ENDBRANCH   8   9
ENDBRANCH   7   8
ENDBRANCH   6   7
ENDBRANCH   5   6
ENDBRANCH   4   5
ENDBRANCH   3   4
ENDBRANCH   2   3
ENDBRANCH   1   2
BRANCH   1  13
ATOM     13  C   UNL     1      35.428   4.856  37.441  1.00  0.00     0.000 C 
BRANCH  13  14
ATOM     14  C   UNL     1      36.140   4.178  38.627  1.00  0.00     0.000 C 
BRANCH  14  15
ATOM     15  C   UNL     1      37.460   3.473  38.248  1.00  0.00     0.000 C 
BRANCH  15  16
ATOM     16  C   UNL     1      38.738   4.101  38.842  1.00  0.00     0.000 C 
BRANCH  16  17
ATOM     17  C   UNL     1      38.548   4.704  40.252  1.00  0.00     0.000 C 
BRANCH  17  18
ATOM     18  C   UNL     1      38.857   6.211  40.330  1.00  0.00     0.000 C 
BRANCH  18  19
ATOM     19  C   UNL     1      39.221   6.809  38.960  1.00  0.00     0.000 C 
BRANCH  19  20
ATOM     20  C   UNL     1      38.628   8.212  38.756  1.00  0.00     0.006 C 
BRANCH  20  21
ATOM     21  C   UNL     1      38.400   8.955  40.080  1.00  0.00     0.053 C 
BRANCH  21  22
ATOM     22  C   UNL     1      39.488   9.957  40.311  1.00  0.00     0.041 C 
ATOM     23  O   UNL     1      40.466   9.670  41.049  1.00  0.00    -0.550 OA
ATOM     24  O   UNL     1      39.397  11.223  39.748  1.00  0.00    -0.550 OA
ENDBRANCH  21  22
ENDBRANCH  20  21
ENDBRANCH  19  20
ENDBRANCH  18  19
ENDBRANCH  17  18
ENDBRANCH  16  17
ENDBRANCH  15  16
ENDBRANCH  14  15
ENDBRANCH  13  14
ENDBRANCH   1  13
TORSDOF 20
ENDMDL
