MODEL 1
REMARK VINA RESULT:    -3.161      0.000      0.000
REMARK INTER + INTRA:          -6.097
REMARK INTER:                  -4.824
REMARK INTRA:                  -1.273
REMARK UNBOUND:                -1.273
REMARK SMILES C=CCCCCCCCCCC
REMARK SMILES IDX 7 1 8 2 9 3 10 4 11 5 12 6 6 7 5 8 4 9 3 10 2 11 1 12
REMARK H PARENT
REMARK Flexibility Score: inf
ROOT
ATOM      1  C   UNL     1      13.012   4.552  18.854  1.00  0.00     0.000 C 
ENDROOT
BRANCH   1   2
ATOM      2  C   UNL     1      11.725   4.361  18.024  1.00  0.00    -0.000 C 
BRANCH   2   3
ATOM      3  C   UNL     1      11.007   5.680  17.686  1.00  0.00    -0.000 C 
BRANCH   3   4
ATOM      4  C   UNL     1      11.025   6.000  16.182  1.00  0.00    -0.000 C 
BRANCH   4   5
ATOM      5  C   UNL     1      11.642   7.375  15.881  1.00  0.00    -0.003 C 
ATOM      6  C   UNL     1      12.537   7.883  17.012  1.00  0.00     0.004 C 
ENDBRANCH   4   5
ENDBRANCH   3   4
ENDBRANCH   2   3
ENDBRANCH   1   2
BRANCH   1   7
ATOM      7  C   UNL     1      14.254   4.000  18.132  1.00  0.00     0.000 C 
BRANCH   7   8
ATOM      8  C   UNL     1      14.085   3.961  16.605  1.00  0.00     0.000 C 
BRANCH   8   9
ATOM      9  C   UNL     1      15.077   4.877  15.875  1.00  0.00     0.004 C 
BRANCH   9  10
ATOM     10  C   UNL     1      15.789   5.811  16.862  1.00  0.00     0.027 C 
BRANCH  10  11
ATOM     11  C   UNL     1      17.269   5.857  16.600  1.00  0.00    -0.035 C 
ATOM     12  C   UNL     1      17.981   4.747  16.384  1.00  0.00     0.004 C 
ENDBRANCH  10  11
ENDBRANCH   9  10
ENDBRANCH   8   9
ENDBRANCH   7   8
ENDBRANCH   1   7
TORSDOF 9
ENDMDL
MODEL 2
REMARK VINA RESULT:    -3.128      1.184      3.203
REMARK INTER + INTRA:          -6.046
REMARK INTER:                  -4.624
REMARK INTRA:                  -1.422
REMARK UNBOUND:                -1.273
REMARK SMILES C=CCCCCCCCCCC
REMARK SMILES IDX 7 1 8 2 9 3 10 4 11 5 12 6 6 7 5 8 4 9 3 10 2 11 1 12
REMARK H PARENT
REMARK Flexibility Score: inf
ROOT
ATOM      1  C   UNL     1      14.968   6.739  17.299  1.00  0.00     0.000 C 
ENDROOT
BRANCH   1   2
ATOM      2  C   UNL     1      14.150   7.638  16.348  1.00  0.00    -0.000 C 
BRANCH   2   3
ATOM      3  C   UNL     1      12.664   7.752  16.733  1.00  0.00    -0.000 C 
BRANCH   3   4
ATOM      4  C   UNL     1      11.756   6.853  15.877  1.00  0.00    -0.000 C 
BRANCH   4   5
ATOM      5  C   UNL     1      10.939   5.865  16.725  1.00  0.00    -0.003 C 
ATOM      6  C   UNL     1      10.991   6.183  18.219  1.00  0.00     0.004 C 
ENDBRANCH   4   5
ENDBRANCH   3   4
ENDBRANCH   2   3
ENDBRANCH   1   2
BRANCH   1   7
ATOM      7  C   UNL     1      15.717   5.627  16.543  1.00  0.00     0.000 C 
BRANCH   7   8
ATOM      8  C   UNL     1      14.768   4.609  15.891  1.00  0.00     0.000 C 
BRANCH   8   9
ATOM      9  C   UNL     1      14.002   3.770  16.923  1.00  0.00     0.004 C 
BRANCH   9  10
ATOM     10  C   UNL     1      14.968   3.049  17.871  1.00  0.00     0.027 C 
BRANCH  10  11
ATOM     11  C   UNL     1      14.683   3.393  19.307  1.00  0.00    -0.035 C 
ATOM     12  C   UNL     1      13.513   3.915  19.687  1.00  0.00     0.004 C 
ENDBRANCH  10  11
ENDBRANCH   9  10
ENDBRANCH   8   9
ENDBRANCH   7   8
ENDBRANCH   1   7
TORSDOF 9
ENDMDL
MODEL 3
REMARK VINA RESULT:    -3.127      1.112      1.580
REMARK INTER + INTRA:          -6.046
REMARK INTER:                  -4.628
REMARK INTRA:                  -1.417
REMARK UNBOUND:                -1.273
REMARK SMILES C=CCCCCCCCCCC
REMARK SMILES IDX 7 1 8 2 9 3 10 4 11 5 12 6 6 7 5 8 4 9 3 10 2 11 1 12
REMARK H PARENT
REMARK Flexibility Score: inf
ROOT
ATOM      1  C   UNL     1      13.137   4.477  18.467  1.00  0.00     0.000 C 
ENDROOT
BRANCH   1   2
ATOM      2  C   UNL     1      11.712   4.339  17.893  1.00  0.00    -0.000 C 
BRANCH   2   3
ATOM      3  C   UNL     1      11.004   5.687  17.668  1.00  0.00    -0.000 C 
BRANCH   3   4
ATOM      4  C   UNL     1      10.976   6.107  16.190  1.00  0.00    -0.000 C 
BRANCH   4   5
ATOM      5  C   UNL     1      11.310   7.594  15.994  1.00  0.00    -0.003 C 
ATOM      6  C   UNL     1      11.751   8.277  17.289  1.00  0.00     0.004 C 
ENDBRANCH   4   5
ENDBRANCH   3   4
ENDBRANCH   2   3
ENDBRANCH   1   2
BRANCH   1   7
ATOM      7  C   UNL     1      14.192   3.807  17.569  1.00  0.00     0.000 C 
BRANCH   7   8
ATOM      8  C   UNL     1      14.268   4.440  16.170  1.00  0.00     0.000 C 
BRANCH   8   9
ATOM      9  C   UNL     1      15.419   5.446  16.038  1.00  0.00     0.004 C 
BRANCH   9  10
ATOM     10  C   UNL     1      14.888   6.884  15.980  1.00  0.00     0.027 C 
BRANCH  10  11
ATOM     11  C   UNL     1      15.672   7.792  16.886  1.00  0.00    -0.035 C 
ATOM     12  C   UNL     1      15.537   7.749  18.215  1.00  0.00     0.004 C 
ENDBRANCH  10  11
ENDBRANCH   9  10
ENDBRANCH   8   9
ENDBRANCH   7   8
ENDBRANCH   1   7
TORSDOF 9
ENDMDL
MODEL 4
REMARK VINA RESULT:    -3.056      1.067      4.315
REMARK INTER + INTRA:          -5.937
REMARK INTER:                  -4.531
REMARK INTRA:                  -1.406
REMARK UNBOUND:                -1.273
REMARK SMILES C=CCCCCCCCCCC
REMARK SMILES IDX 7 1 8 2 9 3 10 4 11 5 12 6 6 7 5 8 4 9 3 10 2 11 1 12
REMARK H PARENT
REMARK Flexibility Score: inf
ROOT
ATOM      1  C   UNL     1      14.649   4.099  16.725  1.00  0.00     0.000 C 
ENDROOT
BRANCH   1   2
ATOM      2  C   UNL     1      16.092   4.638  16.626  1.00  0.00    -0.000 C 
BRANCH   2   3
ATOM      3  C   UNL     1      16.190   6.167  16.776  1.00  0.00    -0.000 C 
BRANCH   3   4
ATOM      4  C   UNL     1      14.961   6.901  16.215  1.00  0.00    -0.000 C 
BRANCH   4   5
ATOM      5  C   UNL     1      14.419   7.965  17.182  1.00  0.00    -0.003 C 
ATOM      6  C   UNL     1      13.542   9.006  16.486  1.00  0.00     0.004 C 
ENDBRANCH   4   5
ENDBRANCH   3   4
ENDBRANCH   2   3
ENDBRANCH   1   2
BRANCH   1   7
ATOM      7  C   UNL     1      14.230   3.827  18.180  1.00  0.00     0.000 C 
BRANCH   7   8
ATOM      8  C   UNL     1      12.744   4.122  18.435  1.00  0.00     0.000 C 
BRANCH   8   9
ATOM      9  C   UNL     1      12.511   5.516  19.037  1.00  0.00     0.004 C 
BRANCH   9  10
ATOM     10  C   UNL     1      11.207   6.129  18.513  1.00  0.00     0.027 C 
BRANCH  10  11
ATOM     11  C   UNL     1      10.875   5.615  17.139  1.00  0.00    -0.035 C 
ATOM     12  C   UNL     1      11.024   6.373  16.048  1.00  0.00     0.004 C 
ENDBRANCH  10  11
ENDBRANCH   9  10
ENDBRANCH   8   9
ENDBRANCH   7   8
ENDBRANCH   1   7
TORSDOF 9
ENDMDL
MODEL 5
REMARK VINA RESULT:    -2.990      1.142      2.133
REMARK INTER + INTRA:          -5.836
REMARK INTER:                  -4.415
REMARK INTRA:                  -1.421
REMARK UNBOUND:                -1.273
REMARK SMILES C=CCCCCCCCCCC
REMARK SMILES IDX 7 1 8 2 9 3 10 4 11 5 12 6 6 7 5 8 4 9 3 10 2 11 1 12
REMARK H PARENT
REMARK Flexibility Score: inf
ROOT
ATOM      1  C   UNL     1      11.310   5.525  18.065  1.00  0.00     0.000 C 
ENDROOT
BRANCH   1   2
ATOM      2  C   UNL     1      10.875   6.045  16.679  1.00  0.00    -0.000 C 
BRANCH   2   3
ATOM      3  C   UNL     1      12.016   6.700  15.880  1.00  0.00    -0.000 C 
BRANCH   3   4
ATOM      4  C   UNL     1      12.638   7.904  16.607  1.00  0.00    -0.000 C 
BRANCH   4   5
ATOM      5  C   UNL     1      14.165   7.963  16.445  1.00  0.00    -0.003 C 
ATOM      6  C   UNL     1      14.904   7.924  17.783  1.00  0.00     0.004 C 
ENDBRANCH   4   5
ENDBRANCH   3   4
ENDBRANCH   2   3
ENDBRANCH   1   2
BRANCH   1   7
ATOM      7  C   UNL     1      12.072   4.191  17.970  1.00  0.00     0.000 C 
BRANCH   7   8
ATOM      8  C   UNL     1      13.566   4.336  18.302  1.00  0.00     0.000 C 
BRANCH   8   9
ATOM      9  C   UNL     1      14.463   3.517  17.364  1.00  0.00     0.004 C 
BRANCH   9  10
ATOM     10  C   UNL     1      14.883   4.346  16.144  1.00  0.00     0.027 C 
BRANCH  10  11
ATOM     11  C   UNL     1      16.300   4.832  16.275  1.00  0.00    -0.035 C 
ATOM     12  C   UNL     1      17.093   4.428  17.271  1.00  0.00     0.004 C 
ENDBRANCH  10  11
ENDBRANCH   9  10
ENDBRANCH   8   9
ENDBRANCH   7   8
ENDBRANCH   1   7
TORSDOF 9
ENDMDL
MODEL 6
REMARK VINA RESULT:    -2.962      1.413      4.724
REMARK INTER + INTRA:          -5.793
REMARK INTER:                  -4.217
REMARK INTRA:                  -1.576
REMARK UNBOUND:                -1.273
REMARK SMILES C=CCCCCCCCCCC
REMARK SMILES IDX 7 1 8 2 9 3 10 4 11 5 12 6 6 7 5 8 4 9 3 10 2 11 1 12
REMARK H PARENT
REMARK Flexibility Score: inf
ROOT
ATOM      1  C   UNL     1      13.524   7.854  18.629  1.00  0.00     0.000 C 
ENDROOT
BRANCH   1   2
ATOM      2  C   UNL     1      14.776   7.378  17.861  1.00  0.00    -0.000 C 
BRANCH   2   3
ATOM      3  C   UNL     1      14.523   7.130  16.363  1.00  0.00    -0.000 C 
BRANCH   3   4
ATOM      4  C   UNL     1      14.996   5.743  15.900  1.00  0.00    -0.000 C 
BRANCH   4   5
ATOM      5  C   UNL     1      16.373   5.370  16.472  1.00  0.00    -0.003 C 
ATOM      6  C   UNL     1      16.356   4.050  17.244  1.00  0.00     0.004 C 
ENDBRANCH   4   5
ENDBRANCH   3   4
ENDBRANCH   2   3
ENDBRANCH   1   2
BRANCH   1   7
ATOM      7  C   UNL     1      12.369   8.223  17.682  1.00  0.00     0.000 C 
BRANCH   7   8
ATOM      8  C   UNL     1      11.067   7.479  18.015  1.00  0.00     0.000 C 
BRANCH   8   9
ATOM      9  C   UNL     1      11.310   6.189  18.812  1.00  0.00     0.004 C 
BRANCH   9  10
ATOM     10  C   UNL     1      11.341   4.969  17.883  1.00  0.00     0.027 C 
BRANCH  10  11
ATOM     11  C   UNL     1      12.583   4.149  18.100  1.00  0.00    -0.035 C 
ATOM     12  C   UNL     1      13.199   4.105  19.285  1.00  0.00     0.004 C 
ENDBRANCH  10  11
ENDBRANCH   9  10
ENDBRANCH   8   9
ENDBRANCH   7   8
ENDBRANCH   1   7
TORSDOF 9
ENDMDL
MODEL 7
REMARK VINA RESULT:    -2.942      1.007      2.071
REMARK INTER + INTRA:          -5.763
REMARK INTER:                  -4.438
REMARK INTRA:                  -1.325
REMARK UNBOUND:                -1.273
REMARK SMILES C=CCCCCCCCCCC
REMARK SMILES IDX 7 1 8 2 9 3 10 4 11 5 12 6 6 7 5 8 4 9 3 10 2 11 1 12
REMARK H PARENT
REMARK Flexibility Score: inf
ROOT
ATOM      1  C   UNL     1      14.461   3.745  17.669  1.00  0.00     0.000 C 
ENDROOT
BRANCH   1   2
ATOM      2  C   UNL     1      13.063   3.803  18.319  1.00  0.00    -0.000 C 
BRANCH   2   3
ATOM      3  C   UNL     1      12.829   5.064  19.168  1.00  0.00    -0.000 C 
BRANCH   3   4
ATOM      4  C   UNL     1      12.112   6.181  18.392  1.00  0.00    -0.000 C 
BRANCH   4   5
ATOM      5  C   UNL     1      10.917   5.658  17.580  1.00  0.00    -0.003 C 
ATOM      6  C   UNL     1      10.875   6.221  16.159  1.00  0.00     0.004 C 
ENDBRANCH   4   5
ENDBRANCH   3   4
ENDBRANCH   2   3
ENDBRANCH   1   2
BRANCH   1   7
ATOM      7  C   UNL     1      14.418   4.087  16.169  1.00  0.00     0.000 C 
BRANCH   7   8
ATOM      8  C   UNL     1      14.843   5.534  15.877  1.00  0.00     0.000 C 
BRANCH   8   9
ATOM      9  C   UNL     1      15.766   6.110  16.960  1.00  0.00     0.004 C 
BRANCH   9  10
ATOM     10  C   UNL     1      17.237   6.002  16.541  1.00  0.00     0.027 C 
BRANCH  10  11
ATOM     11  C   UNL     1      18.000   5.085  17.457  1.00  0.00    -0.035 C 
ATOM     12  C   UNL     1      17.731   5.011  18.764  1.00  0.00     0.004 C 
ENDBRANCH  10  11
ENDBRANCH   9  10
ENDBRANCH   8   9
ENDBRANCH   7   8
ENDBRANCH   1   7
TORSDOF 9
ENDMDL
