MODEL 1
REMARK VINA RESULT:    -3.389      0.000      0.000
REMARK INTER + INTRA:          -4.548
REMARK INTER:                  -4.379
REMARK INTRA:                  -0.168
REMARK UNBOUND:                -0.168
REMARK SMILES CCO[C@@H]1O[C@H](CO)[C@@H](O)[C@H](O)[C@@H]1O
REMARK SMILES IDX 4 1 13 2 11 3 9 4 6 5 5 6 3 7 2 8 1 9 14 10 12 12 7 14 8 15
REMARK SMILES IDX 10 17
REMARK H PARENT 14 11 12 13 8 16 10 18
REMARK Flexibility Score: inf
ROOT
ATOM      1  C   UNL     1       4.434  -6.548   4.383  1.00  0.00     0.281 C 
ATOM      2  C   UNL     1       5.614  -6.809   3.418  1.00  0.00     0.202 C 
ATOM      3  C   UNL     1       6.738  -7.579   4.130  1.00  0.00     0.179 C 
ATOM      4  C   UNL     1       6.160  -8.851   4.781  1.00  0.00     0.177 C 
ATOM      5  C   UNL     1       4.861  -8.567   5.585  1.00  0.00     0.178 C 
ATOM      6  O   UNL     1       3.911  -7.771   4.878  1.00  0.00    -0.341 OA
ENDROOT
BRANCH   1   7
ATOM      7  O   UNL     1       4.775  -5.698   5.470  1.00  0.00    -0.350 OA
BRANCH   7   8
ATOM      8  C   UNL     1       4.139  -4.434   5.411  1.00  0.00     0.160 C 
ATOM      9  C   UNL     1       3.109  -4.445   4.291  1.00  0.00     0.035 C 
ENDBRANCH   7   8
ENDBRANCH   1   7
BRANCH   2  10
ATOM     10  O   UNL     1       6.090  -5.606   2.875  1.00  0.00    -0.385 OA
ATOM     11  H   UNL     1       5.703  -5.525   1.964  1.00  0.00     0.211 HD
ENDBRANCH   2  10
BRANCH   3  12
ATOM     12  O   UNL     1       7.362  -6.781   5.103  1.00  0.00    -0.387 OA
ATOM     13  H   UNL     1       7.454  -7.334   5.921  1.00  0.00     0.211 HD
ENDBRANCH   3  12
BRANCH   5  14
ATOM     14  C   UNL     1       5.106  -8.058   7.022  1.00  0.00     0.191 C 
BRANCH  14  15
ATOM     15  O   UNL     1       4.469  -8.907   7.941  1.00  0.00    -0.394 OA
ATOM     16  H   UNL     1       4.801  -8.660   8.842  1.00  0.00     0.210 HD
ENDBRANCH  14  15
ENDBRANCH   5  14
BRANCH   4  17
ATOM     17  O   UNL     1       5.867  -9.794   3.782  1.00  0.00    -0.387 OA
ATOM     18  H   UNL     1       4.881  -9.916   3.777  1.00  0.00     0.211 HD
ENDBRANCH   4  17
TORSDOF 7
ENDMDL
MODEL 2
REMARK VINA RESULT:    -3.140      1.334      1.819
REMARK INTER + INTRA:          -4.226
REMARK INTER:                  -3.730
REMARK INTRA:                  -0.497
REMARK UNBOUND:                -0.168
REMARK SMILES CCO[C@@H]1O[C@H](CO)[C@@H](O)[C@H](O)[C@@H]1O
REMARK SMILES IDX 4 1 13 2 11 3 9 4 6 5 5 6 3 7 2 8 1 9 14 10 12 12 7 14 8 15
REMARK SMILES IDX 10 17
REMARK H PARENT 14 11 12 13 8 16 10 18
REMARK Flexibility Score: inf
ROOT
ATOM      1  C   UNL     1       5.423  -6.656   3.846  1.00  0.00     0.281 C 
ATOM      2  C   UNL     1       6.698  -7.189   4.540  1.00  0.00     0.202 C 
ATOM      3  C   UNL     1       6.351  -8.323   5.517  1.00  0.00     0.179 C 
ATOM      4  C   UNL     1       5.532  -9.403   4.785  1.00  0.00     0.177 C 
ATOM      5  C   UNL     1       4.373  -8.799   3.944  1.00  0.00     0.178 C 
ATOM      6  O   UNL     1       4.769  -7.695   3.132  1.00  0.00    -0.341 OA
ENDROOT
BRANCH   1   7
ATOM      7  O   UNL     1       4.509  -6.044   4.745  1.00  0.00    -0.350 OA
BRANCH   7   8
ATOM      8  C   UNL     1       4.178  -4.715   4.386  1.00  0.00     0.160 C 
ATOM      9  C   UNL     1       2.706  -4.653   4.004  1.00  0.00     0.035 C 
ENDBRANCH   7   8
ENDBRANCH   1   7
BRANCH   2  10
ATOM     10  O   UNL     1       7.383  -6.151   5.191  1.00  0.00    -0.385 OA
ATOM     11  H   UNL     1       7.419  -5.386   4.559  1.00  0.00     0.211 HD
ENDBRANCH   2  10
BRANCH   3  12
ATOM     12  O   UNL     1       5.632  -7.837   6.622  1.00  0.00    -0.387 OA
ATOM     13  H   UNL     1       5.938  -8.347   7.417  1.00  0.00     0.211 HD
ENDBRANCH   3  12
BRANCH   5  14
ATOM     14  C   UNL     1       3.090  -8.509   4.752  1.00  0.00     0.191 C 
BRANCH  14  15
ATOM     15  O   UNL     1       3.018  -9.374   5.855  1.00  0.00    -0.394 OA
ATOM     16  H   UNL     1       2.469  -8.919   6.545  1.00  0.00     0.210 HD
ENDBRANCH  14  15
ENDBRANCH   5  14
BRANCH   4  17
ATOM     17  O   UNL     1       6.376 -10.125   3.925  1.00  0.00    -0.387 OA
ATOM     18  H   UNL     1       7.162 -10.412   4.460  1.00  0.00     0.211 HD
ENDBRANCH   4  17
TORSDOF 7
ENDMDL
MODEL 3
REMARK VINA RESULT:    -3.040      9.195     11.276
REMARK INTER + INTRA:          -4.097
REMARK INTER:                  -3.682
REMARK INTRA:                  -0.415
REMARK UNBOUND:                -0.168
REMARK SMILES CCO[C@@H]1O[C@H](CO)[C@@H](O)[C@H](O)[C@@H]1O
REMARK SMILES IDX 4 1 13 2 11 3 9 4 6 5 5 6 3 7 2 8 1 9 14 10 12 12 7 14 8 15
REMARK SMILES IDX 10 17
REMARK H PARENT 14 11 12 13 8 16 10 18
REMARK Flexibility Score: inf
ROOT
ATOM      1  C   UNL     1      15.611  -7.682   2.907  1.00  0.00     0.281 C 
ATOM      2  C   UNL     1      15.054  -6.239   2.919  1.00  0.00     0.202 C 
ATOM      3  C   UNL     1      15.568  -5.469   4.146  1.00  0.00     0.179 C 
ATOM      4  C   UNL     1      17.105  -5.554   4.203  1.00  0.00     0.177 C 
ATOM      5  C   UNL     1      17.627  -7.002   3.994  1.00  0.00     0.178 C 
ATOM      6  O   UNL     1      17.031  -7.672   2.883  1.00  0.00    -0.341 OA
ENDROOT
BRANCH   1   7
ATOM      7  O   UNL     1      15.156  -8.468   4.000  1.00  0.00    -0.350 OA
BRANCH   7   8
ATOM      8  C   UNL     1      14.730  -9.763   3.617  1.00  0.00     0.160 C 
ATOM      9  C   UNL     1      13.209  -9.813   3.630  1.00  0.00     0.035 C 
ENDBRANCH   7   8
ENDBRANCH   1   7
BRANCH   2  10
ATOM     10  O   UNL     1      13.652  -6.245   2.875  1.00  0.00    -0.385 OA
ATOM     11  H   UNL     1      13.360  -5.300   2.784  1.00  0.00     0.211 HD
ENDBRANCH   2  10
BRANCH   3  12
ATOM     12  O   UNL     1      15.012  -5.977   5.332  1.00  0.00    -0.387 OA
ATOM     13  H   UNL     1      14.138  -6.384   5.095  1.00  0.00     0.211 HD
ENDBRANCH   3  12
BRANCH   5  14
ATOM     14  C   UNL     1      17.627  -7.866   5.273  1.00  0.00     0.191 C 
BRANCH  14  15
ATOM     15  O   UNL     1      17.293  -7.072   6.381  1.00  0.00    -0.394 OA
ATOM     16  H   UNL     1      17.660  -6.166   6.211  1.00  0.00     0.210 HD
ENDBRANCH  14  15
ENDBRANCH   5  14
BRANCH   4  17
ATOM     17  O   UNL     1      17.654  -4.735   3.203  1.00  0.00    -0.387 OA
ATOM     18  H   UNL     1      17.694  -3.813   3.570  1.00  0.00     0.211 HD
ENDBRANCH   4  17
TORSDOF 7
ENDMDL
MODEL 4
REMARK VINA RESULT:    -2.929      1.605      3.431
REMARK INTER + INTRA:          -3.953
REMARK INTER:                  -3.528
REMARK INTRA:                  -0.425
REMARK UNBOUND:                -0.168
REMARK SMILES CCO[C@@H]1O[C@H](CO)[C@@H](O)[C@H](O)[C@@H]1O
REMARK SMILES IDX 4 1 13 2 11 3 9 4 6 5 5 6 3 7 2 8 1 9 14 10 12 12 7 14 8 15
REMARK SMILES IDX 10 17
REMARK H PARENT 14 11 12 13 8 16 10 18
REMARK Flexibility Score: inf
ROOT
ATOM      1  C   UNL     1       6.458  -6.810   5.202  1.00  0.00     0.281 C 
ATOM      2  C   UNL     1       4.973  -6.423   5.399  1.00  0.00     0.202 C 
ATOM      3  C   UNL     1       4.050  -7.459   4.738  1.00  0.00     0.179 C 
ATOM      4  C   UNL     1       4.408  -8.869   5.247  1.00  0.00     0.177 C 
ATOM      5  C   UNL     1       5.938  -9.141   5.209  1.00  0.00     0.178 C 
ATOM      6  O   UNL     1       6.722  -8.086   5.765  1.00  0.00    -0.341 OA
ENDROOT
BRANCH   1   7
ATOM      7  O   UNL     1       6.867  -6.792   3.842  1.00  0.00    -0.350 OA
BRANCH   7   8
ATOM      8  C   UNL     1       7.698  -5.691   3.523  1.00  0.00     0.160 C 
ATOM      9  C   UNL     1       8.940  -5.732   4.402  1.00  0.00     0.035 C 
ENDBRANCH   7   8
ENDBRANCH   1   7
BRANCH   2  10
ATOM     10  O   UNL     1       4.724  -5.134   4.904  1.00  0.00    -0.385 OA
ATOM     11  H   UNL     1       4.270  -4.627   5.627  1.00  0.00     0.211 HD
ENDBRANCH   2  10
BRANCH   3  12
ATOM     12  O   UNL     1       4.154  -7.410   3.338  1.00  0.00    -0.387 OA
ATOM     13  H   UNL     1       5.017  -6.971   3.124  1.00  0.00     0.211 HD
ENDBRANCH   3  12
BRANCH   5  14
ATOM     14  C   UNL     1       6.463  -9.607   3.835  1.00  0.00     0.191 C 
BRANCH  14  15
ATOM     15  O   UNL     1       5.405 -10.125   3.072  1.00  0.00    -0.394 OA
ATOM     16  H   UNL     1       5.416  -9.651   2.201  1.00  0.00     0.210 HD
ENDBRANCH  14  15
ENDBRANCH   5  14
BRANCH   4  17
ATOM     17  O   UNL     1       3.964  -9.013   6.571  1.00  0.00    -0.387 OA
ATOM     18  H   UNL     1       3.242  -8.346   6.711  1.00  0.00     0.211 HD
ENDBRANCH   4  17
TORSDOF 7
ENDMDL
MODEL 5
REMARK VINA RESULT:    -2.878      1.759      3.916
REMARK INTER + INTRA:          -3.888
REMARK INTER:                  -3.372
REMARK INTRA:                  -0.516
REMARK UNBOUND:                -0.168
REMARK SMILES CCO[C@@H]1O[C@H](CO)[C@@H](O)[C@H](O)[C@@H]1O
REMARK SMILES IDX 4 1 13 2 11 3 9 4 6 5 5 6 3 7 2 8 1 9 14 10 12 12 7 14 8 15
REMARK SMILES IDX 10 17
REMARK H PARENT 14 11 12 13 8 16 10 18
REMARK Flexibility Score: inf
ROOT
ATOM      1  C   UNL     1       6.845  -7.244   4.024  1.00  0.00     0.281 C 
ATOM      2  C   UNL     1       5.976  -8.050   5.018  1.00  0.00     0.202 C 
ATOM      3  C   UNL     1       4.762  -7.225   5.471  1.00  0.00     0.179 C 
ATOM      4  C   UNL     1       3.997  -6.711   4.236  1.00  0.00     0.177 C 
ATOM      5  C   UNL     1       4.941  -6.078   3.176  1.00  0.00     0.178 C 
ATOM      6  O   UNL     1       6.088  -6.874   2.882  1.00  0.00    -0.341 OA
ENDROOT
BRANCH   1   7
ATOM      7  O   UNL     1       7.433  -6.087   4.603  1.00  0.00    -0.350 OA
BRANCH   7   8
ATOM      8  C   UNL     1       8.810  -5.952   4.303  1.00  0.00     0.160 C 
ATOM      9  C   UNL     1       9.005  -4.759   3.378  1.00  0.00     0.035 C 
ENDBRANCH   7   8
ENDBRANCH   1   7
BRANCH   2  10
ATOM     10  O   UNL     1       6.739  -8.474   6.117  1.00  0.00    -0.385 OA
ATOM     11  H   UNL     1       6.289  -9.277   6.491  1.00  0.00     0.211 HD
ENDBRANCH   2  10
BRANCH   3  12
ATOM     12  O   UNL     1       5.155  -6.145   6.279  1.00  0.00    -0.387 OA
ATOM     13  H   UNL     1       5.908  -6.461   6.843  1.00  0.00     0.211 HD
ENDBRANCH   3  12
BRANCH   5  14
ATOM     14  C   UNL     1       5.300  -4.602   3.449  1.00  0.00     0.191 C 
BRANCH  14  15
ATOM     15  O   UNL     1       4.352  -4.036   4.316  1.00  0.00    -0.394 OA
ATOM     16  H   UNL     1       4.853  -3.640   5.075  1.00  0.00     0.210 HD
ENDBRANCH  14  15
ENDBRANCH   5  14
BRANCH   4  17
ATOM     17  O   UNL     1       3.308  -7.778   3.637  1.00  0.00    -0.387 OA
ATOM     18  H   UNL     1       3.939  -8.543   3.591  1.00  0.00     0.211 HD
ENDBRANCH   4  17
TORSDOF 7
ENDMDL
MODEL 6
REMARK VINA RESULT:    -2.834      1.528      2.906
REMARK INTER + INTRA:          -3.831
REMARK INTER:                  -3.555
REMARK INTRA:                  -0.276
REMARK UNBOUND:                -0.168
REMARK SMILES CCO[C@@H]1O[C@H](CO)[C@@H](O)[C@H](O)[C@@H]1O
REMARK SMILES IDX 4 1 13 2 11 3 9 4 6 5 5 6 3 7 2 8 1 9 14 10 12 12 7 14 8 15
REMARK SMILES IDX 10 17
REMARK H PARENT 14 11 12 13 8 16 10 18
REMARK Flexibility Score: inf
ROOT
ATOM      1  C   UNL     1       4.529  -6.144   4.854  1.00  0.00     0.281 C 
ATOM      2  C   UNL     1       3.982  -7.584   4.722  1.00  0.00     0.202 C 
ATOM      3  C   UNL     1       5.075  -8.536   4.211  1.00  0.00     0.179 C 
ATOM      4  C   UNL     1       6.324  -8.414   5.105  1.00  0.00     0.177 C 
ATOM      5  C   UNL     1       6.723  -6.936   5.367  1.00  0.00     0.178 C 
ATOM      6  O   UNL     1       5.628  -6.106   5.752  1.00  0.00    -0.341 OA
ENDROOT
BRANCH   1   7
ATOM      7  O   UNL     1       4.906  -5.570   3.611  1.00  0.00    -0.350 OA
BRANCH   7   8
ATOM      8  C   UNL     1       4.568  -4.199   3.502  1.00  0.00     0.160 C 
ATOM      9  C   UNL     1       3.263  -3.947   4.242  1.00  0.00     0.035 C 
ENDBRANCH   7   8
ENDBRANCH   1   7
BRANCH   2  10
ATOM     10  O   UNL     1       2.854  -7.614   3.887  1.00  0.00    -0.385 OA
ATOM     11  H   UNL     1       3.182  -7.543   2.952  1.00  0.00     0.211 HD
ENDBRANCH   2  10
BRANCH   3  12
ATOM     12  O   UNL     1       5.408  -8.255   2.875  1.00  0.00    -0.387 OA
ATOM     13  H   UNL     1       5.988  -8.995   2.557  1.00  0.00     0.211 HD
ENDBRANCH   3  12
BRANCH   5  14
ATOM     14  C   UNL     1       7.579  -6.304   4.249  1.00  0.00     0.191 C 
BRANCH  14  15
ATOM     15  O   UNL     1       8.801  -5.861   4.779  1.00  0.00    -0.394 OA
ATOM     16  H   UNL     1       9.085  -5.078   4.240  1.00  0.00     0.210 HD
ENDBRANCH  14  15
ENDBRANCH   5  14
BRANCH   4  17
ATOM     17  O   UNL     1       6.075  -9.033   6.341  1.00  0.00    -0.387 OA
ATOM     18  H   UNL     1       6.953  -9.328   6.701  1.00  0.00     0.211 HD
ENDBRANCH   4  17
TORSDOF 7
ENDMDL
MODEL 7
REMARK VINA RESULT:    -2.775      1.652      3.257
REMARK INTER + INTRA:          -3.755
REMARK INTER:                  -3.368
REMARK INTRA:                  -0.387
REMARK UNBOUND:                -0.168
REMARK SMILES CCO[C@@H]1O[C@H](CO)[C@@H](O)[C@H](O)[C@@H]1O
REMARK SMILES IDX 4 1 13 2 11 3 9 4 6 5 5 6 3 7 2 8 1 9 14 10 12 12 7 14 8 15
REMARK SMILES IDX 10 17
REMARK H PARENT 14 11 12 13 8 16 10 18
REMARK Flexibility Score: inf
ROOT
ATOM      1  C   UNL     1       6.017  -7.680   3.213  1.00  0.00     0.281 C 
ATOM      2  C   UNL     1       5.698  -9.149   3.577  1.00  0.00     0.202 C 
ATOM      3  C   UNL     1       5.263  -9.263   5.046  1.00  0.00     0.179 C 
ATOM      4  C   UNL     1       4.109  -8.280   5.321  1.00  0.00     0.177 C 
ATOM      5  C   UNL     1       4.397  -6.858   4.765  1.00  0.00     0.178 C 
ATOM      6  O   UNL     1       4.880  -6.854   3.422  1.00  0.00    -0.341 OA
ENDROOT
BRANCH   1   7
ATOM      7  O   UNL     1       7.128  -7.154   3.924  1.00  0.00    -0.350 OA
BRANCH   7   8
ATOM      8  C   UNL     1       7.957  -6.324   3.131  1.00  0.00     0.160 C 
ATOM      9  C   UNL     1       8.967  -5.623   4.027  1.00  0.00     0.035 C 
ENDBRANCH   7   8
ENDBRANCH   1   7
BRANCH   2  10
ATOM     10  O   UNL     1       6.797  -9.978   3.308  1.00  0.00    -0.385 OA
ATOM     11  H   UNL     1       6.726 -10.762   3.915  1.00  0.00     0.211 HD
ENDBRANCH   2  10
BRANCH   3  12
ATOM     12  O   UNL     1       6.336  -9.002   5.914  1.00  0.00    -0.387 OA
ATOM     13  H   UNL     1       6.502  -9.831   6.433  1.00  0.00     0.211 HD
ENDBRANCH   3  12
BRANCH   5  14
ATOM     14  C   UNL     1       5.247  -5.972   5.701  1.00  0.00     0.191 C 
BRANCH  14  15
ATOM     15  O   UNL     1       5.415  -6.614   6.938  1.00  0.00    -0.394 OA
ATOM     16  H   UNL     1       5.081  -5.992   7.635  1.00  0.00     0.210 HD
ENDBRANCH  14  15
ENDBRANCH   5  14
BRANCH   4  17
ATOM     17  O   UNL     1       2.934  -8.761   4.722  1.00  0.00    -0.387 OA
ATOM     18  H   UNL     1       2.236  -8.788   5.428  1.00  0.00     0.211 HD
ENDBRANCH   4  17
TORSDOF 7
ENDMDL
MODEL 8
REMARK VINA RESULT:    -2.719      1.642      3.019
REMARK INTER + INTRA:          -3.682
REMARK INTER:                  -3.172
REMARK INTRA:                  -0.510
REMARK UNBOUND:                -0.168
REMARK SMILES CCO[C@@H]1O[C@H](CO)[C@@H](O)[C@H](O)[C@@H]1O
REMARK SMILES IDX 4 1 13 2 11 3 9 4 6 5 5 6 3 7 2 8 1 9 14 10 12 12 7 14 8 15
REMARK SMILES IDX 10 17
REMARK H PARENT 14 11 12 13 8 16 10 18
REMARK Flexibility Score: inf
ROOT
ATOM      1  C   UNL     1       4.222  -6.604   4.484  1.00  0.00     0.281 C 
ATOM      2  C   UNL     1       2.888  -7.335   4.200  1.00  0.00     0.202 C 
ATOM      3  C   UNL     1       3.115  -8.850   4.075  1.00  0.00     0.179 C 
ATOM      4  C   UNL     1       3.865  -9.365   5.318  1.00  0.00     0.177 C 
ATOM      5  C   UNL     1       5.092  -8.481   5.677  1.00  0.00     0.178 C 
ATOM      6  O   UNL     1       4.810  -7.083   5.685  1.00  0.00    -0.341 OA
ENDROOT
BRANCH   1   7
ATOM      7  O   UNL     1       5.156  -6.707   3.419  1.00  0.00    -0.350 OA
BRANCH   7   8
ATOM      8  C   UNL     1       5.758  -5.471   3.083  1.00  0.00     0.160 C 
ATOM      9  C   UNL     1       4.859  -4.335   3.549  1.00  0.00     0.035 C 
ENDBRANCH   7   8
ENDBRANCH   1   7
BRANCH   2  10
ATOM     10  O   UNL     1       2.272  -6.818   3.051  1.00  0.00    -0.385 OA
ATOM     11  H   UNL     1       1.291  -6.867   3.200  1.00  0.00     0.211 HD
ENDBRANCH   2  10
BRANCH   3  12
ATOM     12  O   UNL     1       3.840  -9.159   2.911  1.00  0.00    -0.387 OA
ATOM     13  H   UNL     1       4.144 -10.100   2.997  1.00  0.00     0.211 HD
ENDBRANCH   3  12
BRANCH   5  14
ATOM     14  C   UNL     1       6.371  -8.822   4.883  1.00  0.00     0.191 C 
BRANCH  14  15
ATOM     15  O   UNL     1       6.279 -10.125   4.370  1.00  0.00    -0.394 OA
ATOM     16  H   UNL     1       5.849 -10.682   5.070  1.00  0.00     0.210 HD
ENDBRANCH  14  15
ENDBRANCH   5  14
BRANCH   4  17
ATOM     17  O   UNL     1       2.991  -9.379   6.417  1.00  0.00    -0.387 OA
ATOM     18  H   UNL     1       3.227 -10.172   6.967  1.00  0.00     0.211 HD
ENDBRANCH   4  17
TORSDOF 7
ENDMDL
