MODEL 1
REMARK VINA RESULT:    -4.227      0.000      0.000
REMARK INTER + INTRA:          -7.984
REMARK INTER:                  -6.699
REMARK INTRA:                  -1.285
REMARK UNBOUND:                -1.285
REMARK SMILES CCCCCCCCCCCC(=O)[O-]
REMARK SMILES IDX 7 1 8 2 9 3 10 4 11 5 12 6 13 7 14 8 6 9 5 10 4 11 3 12 2 13
REMARK SMILES IDX 1 14
REMARK H PARENT
REMARK Flexibility Score: inf
ROOT
ATOM      1  C   UNL     1       9.397   7.602  28.356  1.00  0.00     0.000 C 
ENDROOT
BRANCH   1   2
ATOM      2  C   UNL     1      10.612   8.491  28.036  1.00  0.00     0.000 C 
BRANCH   2   3
ATOM      3  C   UNL     1      11.358   8.038  26.771  1.00  0.00     0.000 C 
BRANCH   3   4
ATOM      4  C   UNL     1      11.381   6.508  26.612  1.00  0.00     0.006 C 
BRANCH   4   5
ATOM      5  C   UNL     1      12.772   5.986  26.229  1.00  0.00     0.053 C 
BRANCH   5   6
ATOM      6  C   UNL     1      13.744   6.107  27.362  1.00  0.00     0.041 C 
ATOM      7  O   UNL     1      14.705   6.918  27.289  1.00  0.00    -0.550 OA
ATOM      8  O   UNL     1      13.608   5.302  28.487  1.00  0.00    -0.550 OA
ENDBRANCH   5   6
ENDBRANCH   4   5
ENDBRANCH   3   4
ENDBRANCH   2   3
ENDBRANCH   1   2
BRANCH   1   9
ATOM      9  C   UNL     1       9.079   7.557  29.859  1.00  0.00     0.000 C 
BRANCH   9  10
ATOM     10  C   UNL     1       9.027   6.125  30.413  1.00  0.00    -0.000 C 
BRANCH  10  11
ATOM     11  C   UNL     1      10.418   5.477  30.393  1.00  0.00    -0.000 C 
BRANCH  11  12
ATOM     12  C   UNL     1      10.454   4.157  29.604  1.00  0.00    -0.000 C 
BRANCH  12  13
ATOM     13  C   UNL     1       9.309   4.019  28.578  1.00  0.00    -0.003 C 
ATOM     14  C   UNL     1       9.757   3.315  27.296  1.00  0.00     0.004 C 
ENDBRANCH  12  13
ENDBRANCH  11  12
ENDBRANCH  10  11
ENDBRANCH   9  10
ENDBRANCH   1   9
TORSDOF 10
ENDMDL
MODEL 2
REMARK VINA RESULT:    -4.150     14.318     15.810
REMARK INTER + INTRA:          -7.861
REMARK INTER:                  -6.538
REMARK INTRA:                  -1.323
REMARK UNBOUND:                -1.285
REMARK SMILES CCCCCCCCCCCC(=O)[O-]
REMARK SMILES IDX 7 1 8 2 9 3 10 4 11 5 12 6 13 7 14 8 6 9 5 10 4 11 3 12 2 13
REMARK SMILES IDX 1 14
REMARK H PARENT
REMARK Flexibility Score: inf
ROOT
ATOM      1  C   UNL     1       7.163   7.583  15.434  1.00  0.00     0.000 C 
ENDROOT
BRANCH   1   2
ATOM      2  C   UNL     1       6.394   6.249  15.450  1.00  0.00     0.000 C 
BRANCH   2   3
ATOM      3  C   UNL     1       4.903   6.424  15.122  1.00  0.00     0.000 C 
BRANCH   3   4
ATOM      4  C   UNL     1       4.498   7.900  14.969  1.00  0.00     0.006 C 
BRANCH   4   5
ATOM      5  C   UNL     1       2.992   8.111  15.177  1.00  0.00     0.053 C 
BRANCH   5   6
ATOM      6  C   UNL     1       2.680   8.568  16.569  1.00  0.00     0.041 C 
ATOM      7  O   UNL     1       1.502   8.887  16.883  1.00  0.00    -0.550 OA
ATOM      8  O   UNL     1       3.694   8.670  17.514  1.00  0.00    -0.550 OA
ENDBRANCH   5   6
ENDBRANCH   4   5
ENDBRANCH   3   4
ENDBRANCH   2   3
ENDBRANCH   1   2
BRANCH   1   9
ATOM      9  C   UNL     1       8.308   7.592  14.409  1.00  0.00     0.000 C 
BRANCH   9  10
ATOM     10  C   UNL     1       8.082   8.602  13.274  1.00  0.00    -0.000 C 
BRANCH  10  11
ATOM     11  C   UNL     1       7.700   7.886  11.970  1.00  0.00    -0.000 C 
BRANCH  11  12
ATOM     12  C   UNL     1       7.798   6.355  12.076  1.00  0.00    -0.000 C 
BRANCH  12  13
ATOM     13  C   UNL     1       6.602   5.614  11.441  1.00  0.00    -0.003 C 
ATOM     14  C   UNL     1       5.337   6.472  11.404  1.00  0.00     0.004 C 
ENDBRANCH  12  13
ENDBRANCH  11  12
ENDBRANCH  10  11
ENDBRANCH   9  10
ENDBRANCH   1   9
TORSDOF 10
ENDMDL
MODEL 3
REMARK VINA RESULT:    -4.094      1.271      1.691
REMARK INTER + INTRA:          -7.773
REMARK INTER:                  -6.576
REMARK INTRA:                  -1.197
REMARK UNBOUND:                -1.285
REMARK SMILES CCCCCCCCCCCC(=O)[O-]
REMARK SMILES IDX 7 1 8 2 9 3 10 4 11 5 12 6 13 7 14 8 6 9 5 10 4 11 3 12 2 13
REMARK SMILES IDX 1 14
REMARK H PARENT
REMARK Flexibility Score: inf
ROOT
ATOM      1  C   UNL     1       9.506   7.533  28.102  1.00  0.00     0.000 C 
ENDROOT
BRANCH   1   2
ATOM      2  C   UNL     1      10.883   7.803  27.468  1.00  0.00     0.000 C 
BRANCH   2   3
ATOM      3  C   UNL     1      11.274   6.739  26.431  1.00  0.00     0.000 C 
BRANCH   3   4
ATOM      4  C   UNL     1      12.472   5.884  26.880  1.00  0.00     0.006 C 
BRANCH   4   5
ATOM      5  C   UNL     1      13.495   5.686  25.754  1.00  0.00     0.053 C 
BRANCH   5   6
ATOM      6  C   UNL     1      14.113   6.981  25.326  1.00  0.00     0.041 C 
ATOM      7  O   UNL     1      13.884   7.444  24.177  1.00  0.00    -0.550 OA
ATOM      8  O   UNL     1      14.967   7.664  26.184  1.00  0.00    -0.550 OA
ENDBRANCH   5   6
ENDBRANCH   4   5
ENDBRANCH   3   4
ENDBRANCH   2   3
ENDBRANCH   1   2
BRANCH   1   9
ATOM      9  C   UNL     1       9.380   8.125  29.515  1.00  0.00     0.000 C 
BRANCH   9  10
ATOM     10  C   UNL     1       8.856   7.108  30.540  1.00  0.00    -0.000 C 
BRANCH  10  11
ATOM     11  C   UNL     1       9.912   6.033  30.836  1.00  0.00    -0.000 C 
BRANCH  11  12
ATOM     12  C   UNL     1       9.470   4.624  30.404  1.00  0.00    -0.000 C 
BRANCH  12  13
ATOM     13  C   UNL     1      10.288   4.052  29.227  1.00  0.00    -0.003 C 
ATOM     14  C   UNL     1       9.438   3.841  27.974  1.00  0.00     0.004 C 
ENDBRANCH  12  13
ENDBRANCH  11  12
ENDBRANCH  10  11
ENDBRANCH   9  10
ENDBRANCH   1   9
TORSDOF 10
ENDMDL
MODEL 4
REMARK VINA RESULT:    -4.052     14.356     15.808
REMARK INTER + INTRA:          -7.707
REMARK INTER:                  -6.649
REMARK INTRA:                  -1.058
REMARK UNBOUND:                -1.285
REMARK SMILES CCCCCCCCCCCC(=O)[O-]
REMARK SMILES IDX 7 1 8 2 9 3 10 4 11 5 12 6 13 7 14 8 6 9 5 10 4 11 3 12 2 13
REMARK SMILES IDX 1 14
REMARK H PARENT
REMARK Flexibility Score: inf
ROOT
ATOM      1  C   UNL     1       6.844   8.866  14.613  1.00  0.00     0.000 C 
ENDROOT
BRANCH   1   2
ATOM      2  C   UNL     1       6.112   9.786  15.607  1.00  0.00     0.000 C 
BRANCH   2   3
ATOM      3  C   UNL     1       5.117   9.022  16.495  1.00  0.00     0.000 C 
BRANCH   3   4
ATOM      4  C   UNL     1       5.229   7.496  16.336  1.00  0.00     0.006 C 
BRANCH   4   5
ATOM      5  C   UNL     1       3.908   6.863  15.879  1.00  0.00     0.053 C 
BRANCH   5   6
ATOM      6  C   UNL     1       3.500   7.341  14.520  1.00  0.00     0.041 C 
ATOM      7  O   UNL     1       4.067   6.887  13.491  1.00  0.00    -0.550 OA
ATOM      8  O   UNL     1       2.514   8.313  14.389  1.00  0.00    -0.550 OA
ENDBRANCH   5   6
ENDBRANCH   4   5
ENDBRANCH   3   4
ENDBRANCH   2   3
ENDBRANCH   1   2
BRANCH   1   9
ATOM      9  C   UNL     1       7.607   9.651  13.534  1.00  0.00     0.000 C 
BRANCH   9  10
ATOM     10  C   UNL     1       8.301   8.737  12.513  1.00  0.00    -0.000 C 
BRANCH  10  11
ATOM     11  C   UNL     1       7.290   7.795  11.843  1.00  0.00    -0.000 C 
BRANCH  11  12
ATOM     12  C   UNL     1       7.824   6.362  11.679  1.00  0.00    -0.000 C 
BRANCH  12  13
ATOM     13  C   UNL     1       7.076   5.320  12.538  1.00  0.00    -0.003 C 
ATOM     14  C   UNL     1       7.541   5.323  13.994  1.00  0.00     0.004 C 
ENDBRANCH  12  13
ENDBRANCH  11  12
ENDBRANCH  10  11
ENDBRANCH   9  10
ENDBRANCH   1   9
TORSDOF 10
ENDMDL
MODEL 5
REMARK VINA RESULT:    -4.051      1.696      3.217
REMARK INTER + INTRA:          -7.704
REMARK INTER:                  -6.636
REMARK INTRA:                  -1.068
REMARK UNBOUND:                -1.285
REMARK SMILES CCCCCCCCCCCC(=O)[O-]
REMARK SMILES IDX 7 1 8 2 9 3 10 4 11 5 12 6 13 7 14 8 6 9 5 10 4 11 3 12 2 13
REMARK SMILES IDX 1 14
REMARK H PARENT
REMARK Flexibility Score: inf
ROOT
ATOM      1  C   UNL     1      11.091   5.045  27.372  1.00  0.00     0.000 C 
ENDROOT
BRANCH   1   2
ATOM      2  C   UNL     1      10.889   6.313  26.523  1.00  0.00     0.000 C 
BRANCH   2   3
ATOM      3  C   UNL     1      11.941   7.394  26.820  1.00  0.00     0.000 C 
BRANCH   3   4
ATOM      4  C   UNL     1      13.382   6.872  26.691  1.00  0.00     0.006 C 
BRANCH   4   5
ATOM      5  C   UNL     1      13.816   6.723  25.227  1.00  0.00     0.053 C 
BRANCH   5   6
ATOM      6  C   UNL     1      14.971   7.617  24.893  1.00  0.00     0.041 C 
ATOM      7  O   UNL     1      15.579   8.234  25.806  1.00  0.00    -0.550 OA
ATOM      8  O   UNL     1      15.356   7.793  23.569  1.00  0.00    -0.550 OA
ENDBRANCH   5   6
ENDBRANCH   4   5
ENDBRANCH   3   4
ENDBRANCH   2   3
ENDBRANCH   1   2
BRANCH   1   9
ATOM      9  C   UNL     1       9.779   4.281  27.613  1.00  0.00     0.000 C 
BRANCH   9  10
ATOM     10  C   UNL     1       9.387   4.226  29.097  1.00  0.00    -0.000 C 
BRANCH  10  11
ATOM     11  C   UNL     1      10.330   5.090  29.946  1.00  0.00    -0.000 C 
BRANCH  11  12
ATOM     12  C   UNL     1       9.608   6.252  30.649  1.00  0.00    -0.000 C 
BRANCH  12  13
ATOM     13  C   UNL     1       8.846   7.183  29.681  1.00  0.00    -0.003 C 
ATOM     14  C   UNL     1       9.543   8.532  29.500  1.00  0.00     0.004 C 
ENDBRANCH  12  13
ENDBRANCH  11  12
ENDBRANCH  10  11
ENDBRANCH   9  10
ENDBRANCH   1   9
TORSDOF 10
ENDMDL
MODEL 6
REMARK VINA RESULT:    -4.032     13.695     15.215
REMARK INTER + INTRA:          -7.675
REMARK INTER:                  -6.291
REMARK INTRA:                  -1.384
REMARK UNBOUND:                -1.285
REMARK SMILES CCCCCCCCCCCC(=O)[O-]
REMARK SMILES IDX 7 1 8 2 9 3 10 4 11 5 12 6 13 7 14 8 6 9 5 10 4 11 3 12 2 13
REMARK SMILES IDX 1 14
REMARK H PARENT
REMARK Flexibility Score: inf
ROOT
ATOM      1  C   UNL     1       6.179   6.422  15.189  1.00  0.00     0.000 C 
ENDROOT
BRANCH   1   2
ATOM      2  C   UNL     1       6.685   7.675  15.925  1.00  0.00     0.000 C 
BRANCH   2   3
ATOM      3  C   UNL     1       5.927   8.947  15.514  1.00  0.00     0.000 C 
BRANCH   3   4
ATOM      4  C   UNL     1       5.246   9.643  16.705  1.00  0.00     0.006 C 
BRANCH   4   5
ATOM      5  C   UNL     1       3.764   9.263  16.828  1.00  0.00     0.053 C 
BRANCH   5   6
ATOM      6  C   UNL     1       3.553   8.145  17.803  1.00  0.00     0.041 C 
ATOM      7  O   UNL     1       3.544   8.377  19.041  1.00  0.00    -0.550 OA
ATOM      8  O   UNL     1       3.398   6.842  17.346  1.00  0.00    -0.550 OA
ENDBRANCH   5   6
ENDBRANCH   4   5
ENDBRANCH   3   4
ENDBRANCH   2   3
ENDBRANCH   1   2
BRANCH   1   9
ATOM      9  C   UNL     1       5.060   6.739  14.184  1.00  0.00     0.000 C 
BRANCH   9  10
ATOM     10  C   UNL     1       5.442   6.389  12.739  1.00  0.00    -0.000 C 
BRANCH  10  11
ATOM     11  C   UNL     1       6.771   5.621  12.692  1.00  0.00    -0.000 C 
BRANCH  11  12
ATOM     12  C   UNL     1       7.883   6.391  11.960  1.00  0.00    -0.000 C 
BRANCH  12  13
ATOM     13  C   UNL     1       7.553   7.882  11.727  1.00  0.00    -0.003 C 
ATOM     14  C   UNL     1       8.316   8.802  12.680  1.00  0.00     0.004 C 
ENDBRANCH  12  13
ENDBRANCH  11  12
ENDBRANCH  10  11
ENDBRANCH   9  10
ENDBRANCH   1   9
TORSDOF 10
ENDMDL
MODEL 7
REMARK VINA RESULT:    -3.979      2.517      3.767
REMARK INTER + INTRA:          -7.590
REMARK INTER:                  -6.858
REMARK INTRA:                  -0.732
REMARK UNBOUND:                -1.285
REMARK SMILES CCCCCCCCCCCC(=O)[O-]
REMARK SMILES IDX 7 1 8 2 9 3 10 4 11 5 12 6 13 7 14 8 6 9 5 10 4 11 3 12 2 13
REMARK SMILES IDX 1 14
REMARK H PARENT
REMARK Flexibility Score: inf
ROOT
ATOM      1  C   UNL     1      12.715   5.644  27.407  1.00  0.00     0.000 C 
ENDROOT
BRANCH   1   2
ATOM      2  C   UNL     1      13.840   6.578  26.929  1.00  0.00     0.000 C 
BRANCH   2   3
ATOM      3  C   UNL     1      13.763   6.872  25.422  1.00  0.00     0.000 C 
BRANCH   3   4
ATOM      4  C   UNL     1      14.514   8.155  25.028  1.00  0.00     0.006 C 
BRANCH   4   5
ATOM      5  C   UNL     1      15.880   7.855  24.396  1.00  0.00     0.053 C 
BRANCH   5   6
ATOM      6  C   UNL     1      17.010   8.266  25.288  1.00  0.00     0.041 C 
ATOM      7  O   UNL     1      16.778   8.688  26.452  1.00  0.00    -0.550 OA
ATOM      8  O   UNL     1      18.319   8.213  24.824  1.00  0.00    -0.550 OA
ENDBRANCH   5   6
ENDBRANCH   4   5
ENDBRANCH   3   4
ENDBRANCH   2   3
ENDBRANCH   1   2
BRANCH   1   9
ATOM      9  C   UNL     1      11.319   6.153  27.018  1.00  0.00     0.000 C 
BRANCH   9  10
ATOM     10  C   UNL     1      10.220   5.102  27.236  1.00  0.00    -0.000 C 
BRANCH  10  11
ATOM     11  C   UNL     1       9.111   5.649  28.147  1.00  0.00    -0.000 C 
BRANCH  11  12
ATOM     12  C   UNL     1       9.337   5.317  29.632  1.00  0.00    -0.000 C 
BRANCH  12  13
ATOM     13  C   UNL     1      10.229   4.078  29.860  1.00  0.00    -0.003 C 
ATOM     14  C   UNL     1      11.453   4.392  30.721  1.00  0.00     0.004 C 
ENDBRANCH  12  13
ENDBRANCH  11  12
ENDBRANCH  10  11
ENDBRANCH   9  10
ENDBRANCH   1   9
TORSDOF 10
ENDMDL
MODEL 8
REMARK VINA RESULT:    -3.921      1.975      3.189
REMARK INTER + INTRA:          -7.498
REMARK INTER:                  -6.699
REMARK INTRA:                  -0.799
REMARK UNBOUND:                -1.285
REMARK SMILES CCCCCCCCCCCC(=O)[O-]
REMARK SMILES IDX 7 1 8 2 9 3 10 4 11 5 12 6 13 7 14 8 6 9 5 10 4 11 3 12 2 13
REMARK SMILES IDX 1 14
REMARK H PARENT
REMARK Flexibility Score: inf
ROOT
ATOM      1  C   UNL     1      10.727   5.823  27.032  1.00  0.00     0.000 C 
ENDROOT
BRANCH   1   2
ATOM      2  C   UNL     1      12.222   5.495  27.196  1.00  0.00     0.000 C 
BRANCH   2   3
ATOM      3  C   UNL     1      13.120   6.728  27.008  1.00  0.00     0.000 C 
BRANCH   3   4
ATOM      4  C   UNL     1      13.165   7.212  25.548  1.00  0.00     0.006 C 
BRANCH   4   5
ATOM      5  C   UNL     1      14.592   7.218  24.984  1.00  0.00     0.053 C 
BRANCH   5   6
ATOM      6  C   UNL     1      15.410   8.340  25.546  1.00  0.00     0.041 C 
ATOM      7  O   UNL     1      16.268   8.114  26.440  1.00  0.00    -0.550 OA
ATOM      8  O   UNL     1      15.204   9.642  25.105  1.00  0.00    -0.550 OA
ENDBRANCH   5   6
ENDBRANCH   4   5
ENDBRANCH   3   4
ENDBRANCH   2   3
ENDBRANCH   1   2
BRANCH   1   9
ATOM      9  C   UNL     1       9.834   4.576  27.134  1.00  0.00     0.000 C 
BRANCH   9  10
ATOM     10  C   UNL     1       9.371   4.292  28.571  1.00  0.00    -0.000 C 
BRANCH  10  11
ATOM     11  C   UNL     1       9.153   5.600  29.345  1.00  0.00    -0.000 C 
BRANCH  11  12
ATOM     12  C   UNL     1       9.779   5.576  30.750  1.00  0.00    -0.000 C 
BRANCH  12  13
ATOM     13  C   UNL     1      10.496   4.251  31.086  1.00  0.00    -0.003 C 
ATOM     14  C   UNL     1      12.017   4.401  31.113  1.00  0.00     0.004 C 
ENDBRANCH  12  13
ENDBRANCH  11  12
ENDBRANCH  10  11
ENDBRANCH   9  10
ENDBRANCH   1   9
TORSDOF 10
ENDMDL
MODEL 9
REMARK VINA RESULT:    -3.873     14.033     15.220
REMARK INTER + INTRA:          -7.422
REMARK INTER:                  -6.359
REMARK INTRA:                  -1.063
REMARK UNBOUND:                -1.285
REMARK SMILES CCCCCCCCCCCC(=O)[O-]
REMARK SMILES IDX 7 1 8 2 9 3 10 4 11 5 12 6 13 7 14 8 6 9 5 10 4 11 3 12 2 13
REMARK SMILES IDX 1 14
REMARK H PARENT
REMARK Flexibility Score: inf
ROOT
ATOM      1  C   UNL     1       5.535   6.385  15.284  1.00  0.00     0.000 C 
ENDROOT
BRANCH   1   2
ATOM      2  C   UNL     1       4.703   6.742  14.040  1.00  0.00     0.000 C 
BRANCH   2   3
ATOM      3  C   UNL     1       5.427   6.400  12.727  1.00  0.00     0.000 C 
BRANCH   3   4
ATOM      4  C   UNL     1       6.815   5.778  12.960  1.00  0.00     0.006 C 
BRANCH   4   5
ATOM      5  C   UNL     1       7.915   6.510  12.180  1.00  0.00     0.053 C 
BRANCH   5   6
ATOM      6  C   UNL     1       8.229   7.847  12.778  1.00  0.00     0.041 C 
ATOM      7  O   UNL     1       8.567   7.936  13.988  1.00  0.00    -0.550 OA
ATOM      8  O   UNL     1       8.118   8.999  12.008  1.00  0.00    -0.550 OA
ENDBRANCH   5   6
ENDBRANCH   4   5
ENDBRANCH   3   4
ENDBRANCH   2   3
ENDBRANCH   1   2
BRANCH   1   9
ATOM      9  C   UNL     1       5.892   7.618  16.129  1.00  0.00     0.000 C 
BRANCH   9  10
ATOM     10  C   UNL     1       5.174   8.891  15.657  1.00  0.00    -0.000 C 
BRANCH  10  11
ATOM     11  C   UNL     1       4.671   9.713  16.852  1.00  0.00    -0.000 C 
BRANCH  11  12
ATOM     12  C   UNL     1       3.179   9.485  17.151  1.00  0.00    -0.000 C 
BRANCH  12  13
ATOM     13  C   UNL     1       2.414   8.805  15.995  1.00  0.00    -0.003 C 
ATOM     14  C   UNL     1       0.955   9.257  15.917  1.00  0.00     0.004 C 
ENDBRANCH  12  13
ENDBRANCH  11  12
ENDBRANCH  10  11
ENDBRANCH   9  10
ENDBRANCH   1   9
TORSDOF 10
ENDMDL
