MODEL 1
REMARK VINA RESULT:    -4.886      0.000      0.000
REMARK INTER + INTRA:          -6.235
REMARK INTER:                  -6.028
REMARK INTRA:                  -0.207
REMARK UNBOUND:                -0.207
REMARK SMILES C=CCc1ccc(OC)c(OC)c1
REMARK SMILES IDX 7 1 10 2 13 3 4 4 5 5 6 6 8 7 9 8 11 9 12 10 3 11 2 12 1 13
REMARK H PARENT
REMARK Flexibility Score: inf
ROOT
ATOM      1  C   UNL     1       3.846  27.989  56.467  1.00  0.00     0.160 A 
ATOM      2  C   UNL     1       3.408  28.305  55.171  1.00  0.00     0.160 A 
ATOM      3  C   UNL     1       2.083  28.743  54.971  1.00  0.00     0.054 A 
ATOM      4  C   UNL     1       1.203  28.872  56.055  1.00  0.00    -0.040 A 
ATOM      5  C   UNL     1       1.645  28.544  57.344  1.00  0.00     0.008 A 
ATOM      6  C   UNL     1       2.956  28.111  57.550  1.00  0.00     0.051 A 
ENDROOT
BRANCH   1   7
ATOM      7  O   UNL     1       5.171  27.556  56.636  1.00  0.00    -0.493 OA
ATOM      8  C   UNL     1       5.877  27.587  57.872  1.00  0.00     0.278 C 
ENDBRANCH   1   7
BRANCH   2   9
ATOM      9  O   UNL     1       4.316  28.167  54.109  1.00  0.00    -0.493 OA
ATOM     10  C   UNL     1       4.219  28.862  52.870  1.00  0.00     0.278 C 
ENDBRANCH   2   9
BRANCH   4  11
ATOM     11  C   UNL     1      -0.220  29.311  55.834  1.00  0.00     0.062 C 
BRANCH  11  12
ATOM     12  C   UNL     1      -0.998  29.264  57.120  1.00  0.00    -0.030 C 
ATOM     13  C   UNL     1      -1.301  30.374  57.799  1.00  0.00     0.004 C 
ENDBRANCH  11  12
ENDBRANCH   4  11
TORSDOF 4
ENDMDL
MODEL 2
REMARK VINA RESULT:    -4.529      1.211      3.025
REMARK INTER + INTRA:          -5.795
REMARK INTER:                  -5.521
REMARK INTRA:                  -0.274
REMARK UNBOUND:                -0.207
REMARK SMILES C=CCc1ccc(OC)c(OC)c1
REMARK SMILES IDX 7 1 10 2 13 3 4 4 5 5 6 6 8 7 9 8 11 9 12 10 3 11 2 12 1 13
REMARK H PARENT
REMARK Flexibility Score: inf
ROOT
ATOM      1  C   UNL     1       4.278  29.153  54.649  1.00  0.00     0.160 A 
ATOM      2  C   UNL     1       4.469  28.737  55.976  1.00  0.00     0.160 A 
ATOM      3  C   UNL     1       3.352  28.416  56.773  1.00  0.00     0.054 A 
ATOM      4  C   UNL     1       2.053  28.501  56.249  1.00  0.00    -0.040 A 
ATOM      5  C   UNL     1       1.871  28.927  54.926  1.00  0.00     0.008 A 
ATOM      6  C   UNL     1       2.973  29.245  54.130  1.00  0.00     0.051 A 
ENDROOT
BRANCH   1   7
ATOM      7  O   UNL     1       5.410  29.465  53.879  1.00  0.00    -0.493 OA
ATOM      8  C   UNL     1       5.490  30.558  52.970  1.00  0.00     0.278 C 
ENDBRANCH   1   7
BRANCH   2   9
ATOM      9  O   UNL     1       5.782  28.660  56.468  1.00  0.00    -0.493 OA
ATOM     10  C   UNL     1       6.125  28.620  57.849  1.00  0.00     0.278 C 
ENDBRANCH   2   9
BRANCH   4  11
ATOM     11  C   UNL     1       0.860  28.187  57.112  1.00  0.00     0.062 C 
BRANCH  11  12
ATOM     12  C   UNL     1       0.180  29.451  57.560  1.00  0.00    -0.030 C 
ATOM     13  C   UNL     1      -1.044  29.778  57.136  1.00  0.00     0.004 C 
ENDBRANCH  11  12
ENDBRANCH   4  11
TORSDOF 4
ENDMDL
MODEL 3
REMARK VINA RESULT:    -4.512      2.428      4.718
REMARK INTER + INTRA:          -5.774
REMARK INTER:                  -5.463
REMARK INTRA:                  -0.310
REMARK UNBOUND:                -0.207
REMARK SMILES C=CCc1ccc(OC)c(OC)c1
REMARK SMILES IDX 7 1 10 2 13 3 4 4 5 5 6 6 8 7 9 8 11 9 12 10 3 11 2 12 1 13
REMARK H PARENT
REMARK Flexibility Score: inf
ROOT
ATOM      1  C   UNL     1       0.371  29.304  56.529  1.00  0.00     0.160 A 
ATOM      2  C   UNL     1       0.960  29.519  55.273  1.00  0.00     0.160 A 
ATOM      3  C   UNL     1       2.251  29.016  55.014  1.00  0.00     0.054 A 
ATOM      4  C   UNL     1       2.947  28.297  55.996  1.00  0.00    -0.040 A 
ATOM      5  C   UNL     1       2.356  28.097  57.251  1.00  0.00     0.008 A 
ATOM      6  C   UNL     1       1.077  28.590  57.515  1.00  0.00     0.051 A 
ENDROOT
BRANCH   1   7
ATOM      7  O   UNL     1      -0.917  29.816  56.759  1.00  0.00    -0.493 OA
ATOM      8  C   UNL     1      -1.320  30.477  57.954  1.00  0.00     0.278 C 
ENDBRANCH   1   7
BRANCH   2   9
ATOM      9  O   UNL     1       0.233  30.240  54.312  1.00  0.00    -0.493 OA
ATOM     10  C   UNL     1       0.662  31.467  53.730  1.00  0.00     0.278 C 
ENDBRANCH   2   9
BRANCH   4  11
ATOM     11  C   UNL     1       4.338  27.788  55.726  1.00  0.00     0.062 C 
BRANCH  11  12
ATOM     12  C   UNL     1       5.205  27.933  56.946  1.00  0.00    -0.030 C 
ATOM     13  C   UNL     1       5.851  29.070  57.218  1.00  0.00     0.004 C 
ENDBRANCH  11  12
ENDBRANCH   4  11
TORSDOF 4
ENDMDL
MODEL 4
REMARK VINA RESULT:    -4.484      1.813      4.568
REMARK INTER + INTRA:          -5.738
REMARK INTER:                  -5.433
REMARK INTRA:                  -0.306
REMARK UNBOUND:                -0.207
REMARK SMILES C=CCc1ccc(OC)c(OC)c1
REMARK SMILES IDX 7 1 10 2 13 3 4 4 5 5 6 6 8 7 9 8 11 9 12 10 3 11 2 12 1 13
REMARK H PARENT
REMARK Flexibility Score: inf
ROOT
ATOM      1  C   UNL     1       3.099  28.144  56.859  1.00  0.00     0.160 A 
ATOM      2  C   UNL     1       2.035  28.415  55.984  1.00  0.00     0.160 A 
ATOM      3  C   UNL     1       2.305  28.895  54.686  1.00  0.00     0.054 A 
ATOM      4  C   UNL     1       3.626  29.096  54.260  1.00  0.00    -0.040 A 
ATOM      5  C   UNL     1       4.682  28.833  55.143  1.00  0.00     0.008 A 
ATOM      6  C   UNL     1       4.423  28.356  56.429  1.00  0.00     0.051 A 
ENDROOT
BRANCH   1   7
ATOM      7  O   UNL     1       2.800  27.666  58.145  1.00  0.00    -0.493 OA
ATOM      8  C   UNL     1       3.611  26.749  58.872  1.00  0.00     0.278 C 
ENDBRANCH   1   7
BRANCH   2   9
ATOM      9  O   UNL     1       0.725  28.200  56.442  1.00  0.00    -0.493 OA
ATOM     10  C   UNL     1      -0.130  29.220  56.947  1.00  0.00     0.278 C 
ENDBRANCH   2   9
BRANCH   4  11
ATOM     11  C   UNL     1       3.909  29.637  52.884  1.00  0.00     0.062 C 
BRANCH  11  12
ATOM     12  C   UNL     1       5.047  28.892  52.242  1.00  0.00    -0.030 C 
ATOM     13  C   UNL     1       4.841  27.993  51.275  1.00  0.00     0.004 C 
ENDBRANCH  11  12
ENDBRANCH   4  11
TORSDOF 4
ENDMDL
MODEL 5
REMARK VINA RESULT:    -4.407      1.864      5.086
REMARK INTER + INTRA:          -5.644
REMARK INTER:                  -5.368
REMARK INTRA:                  -0.276
REMARK UNBOUND:                -0.207
REMARK SMILES C=CCc1ccc(OC)c(OC)c1
REMARK SMILES IDX 7 1 10 2 13 3 4 4 5 5 6 6 8 7 9 8 11 9 12 10 3 11 2 12 1 13
REMARK H PARENT
REMARK Flexibility Score: inf
ROOT
ATOM      1  C   UNL     1       1.385  28.663  56.454  1.00  0.00     0.160 A 
ATOM      2  C   UNL     1       2.634  28.200  56.899  1.00  0.00     0.160 A 
ATOM      3  C   UNL     1       3.750  28.272  56.041  1.00  0.00     0.054 A 
ATOM      4  C   UNL     1       3.624  28.807  54.750  1.00  0.00    -0.040 A 
ATOM      5  C   UNL     1       2.372  29.256  54.310  1.00  0.00     0.008 A 
ATOM      6  C   UNL     1       1.262  29.190  55.155  1.00  0.00     0.051 A 
ENDROOT
BRANCH   1   7
ATOM      7  O   UNL     1       0.292  28.580  57.331  1.00  0.00    -0.493 OA
ATOM      8  C   UNL     1      -0.779  29.517  57.375  1.00  0.00     0.278 C 
ENDBRANCH   1   7
BRANCH   2   9
ATOM      9  O   UNL     1       2.725  27.674  58.197  1.00  0.00    -0.493 OA
ATOM     10  C   UNL     1       3.811  26.885  58.674  1.00  0.00     0.278 C 
ENDBRANCH   2   9
BRANCH   4  11
ATOM     11  C   UNL     1       4.811  28.854  53.825  1.00  0.00     0.062 C 
BRANCH  11  12
ATOM     12  C   UNL     1       4.366  28.881  52.389  1.00  0.00    -0.030 C 
ATOM     13  C   UNL     1       4.805  27.985  51.500  1.00  0.00     0.004 C 
ENDBRANCH  11  12
ENDBRANCH   4  11
TORSDOF 4
ENDMDL
MODEL 6
REMARK VINA RESULT:    -4.393      2.197      5.277
REMARK INTER + INTRA:          -5.627
REMARK INTER:                  -5.434
REMARK INTRA:                  -0.193
REMARK UNBOUND:                -0.207
REMARK SMILES C=CCc1ccc(OC)c(OC)c1
REMARK SMILES IDX 7 1 10 2 13 3 4 4 5 5 6 6 8 7 9 8 11 9 12 10 3 11 2 12 1 13
REMARK H PARENT
REMARK Flexibility Score: inf
ROOT
ATOM      1  C   UNL     1       1.335  28.375  55.575  1.00  0.00     0.160 A 
ATOM      2  C   UNL     1       1.345  28.545  56.969  1.00  0.00     0.160 A 
ATOM      3  C   UNL     1       2.557  28.424  57.677  1.00  0.00     0.054 A 
ATOM      4  C   UNL     1       3.754  28.144  57.001  1.00  0.00    -0.040 A 
ATOM      5  C   UNL     1       3.733  27.965  55.611  1.00  0.00     0.008 A 
ATOM      6  C   UNL     1       2.537  28.085  54.903  1.00  0.00     0.051 A 
ENDROOT
BRANCH   1   7
ATOM      7  O   UNL     1       0.112  28.501  54.896  1.00  0.00    -0.493 OA
ATOM      8  C   UNL     1      -0.451  29.739  54.475  1.00  0.00     0.278 C 
ENDBRANCH   1   7
BRANCH   2   9
ATOM      9  O   UNL     1       0.129  28.827  57.613  1.00  0.00    -0.493 OA
ATOM     10  C   UNL     1      -0.250  30.114  58.091  1.00  0.00     0.278 C 
ENDBRANCH   2   9
BRANCH   4  11
ATOM     11  C   UNL     1       5.042  27.986  57.764  1.00  0.00     0.062 C 
BRANCH  11  12
ATOM     12  C   UNL     1       4.990  26.772  58.650  1.00  0.00    -0.030 C 
ATOM     13  C   UNL     1       6.090  26.076  58.954  1.00  0.00     0.004 C 
ENDBRANCH  11  12
ENDBRANCH   4  11
TORSDOF 4
ENDMDL
MODEL 7
REMARK VINA RESULT:    -4.319      8.696      9.983
REMARK INTER + INTRA:          -5.535
REMARK INTER:                  -5.228
REMARK INTRA:                  -0.307
REMARK UNBOUND:                -0.207
REMARK SMILES C=CCc1ccc(OC)c(OC)c1
REMARK SMILES IDX 7 1 10 2 13 3 4 4 5 5 6 6 8 7 9 8 11 9 12 10 3 11 2 12 1 13
REMARK H PARENT
REMARK Flexibility Score: inf
ROOT
ATOM      1  C   UNL     1      -5.888  30.771  58.687  1.00  0.00     0.160 A 
ATOM      2  C   UNL     1      -6.982  31.219  57.928  1.00  0.00     0.160 A 
ATOM      3  C   UNL     1      -7.659  30.318  57.083  1.00  0.00     0.054 A 
ATOM      4  C   UNL     1      -7.255  28.977  56.999  1.00  0.00    -0.040 A 
ATOM      5  C   UNL     1      -6.156  28.541  57.752  1.00  0.00     0.008 A 
ATOM      6  C   UNL     1      -5.481  29.427  58.593  1.00  0.00     0.051 A 
ENDROOT
BRANCH   1   7
ATOM      7  O   UNL     1      -5.233  31.691  59.522  1.00  0.00    -0.493 OA
ATOM      8  C   UNL     1      -3.957  31.475  60.113  1.00  0.00     0.278 C 
ENDBRANCH   1   7
BRANCH   2   9
ATOM      9  O   UNL     1      -7.361  32.566  58.039  1.00  0.00    -0.493 OA
ATOM     10  C   UNL     1      -7.649  33.416  56.933  1.00  0.00     0.278 C 
ENDBRANCH   2   9
BRANCH   4  11
ATOM     11  C   UNL     1      -7.962  28.024  56.072  1.00  0.00     0.062 C 
BRANCH  11  12
ATOM     12  C   UNL     1      -7.000  27.012  55.514  1.00  0.00    -0.030 C 
ATOM     13  C   UNL     1      -6.492  27.128  54.284  1.00  0.00     0.004 C 
ENDBRANCH  11  12
ENDBRANCH   4  11
TORSDOF 4
ENDMDL
MODEL 8
REMARK VINA RESULT:    -4.162      1.864      4.731
REMARK INTER + INTRA:          -5.342
REMARK INTER:                  -5.087
REMARK INTRA:                  -0.255
REMARK UNBOUND:                -0.207
REMARK SMILES C=CCc1ccc(OC)c(OC)c1
REMARK SMILES IDX 7 1 10 2 13 3 4 4 5 5 6 6 8 7 9 8 11 9 12 10 3 11 2 12 1 13
REMARK H PARENT
REMARK Flexibility Score: inf
ROOT
ATOM      1  C   UNL     1       3.458  29.046  54.512  1.00  0.00     0.160 A 
ATOM      2  C   UNL     1       2.334  28.713  55.286  1.00  0.00     0.160 A 
ATOM      3  C   UNL     1       2.511  28.101  56.543  1.00  0.00     0.054 A 
ATOM      4  C   UNL     1       3.797  27.829  57.030  1.00  0.00    -0.040 A 
ATOM      5  C   UNL     1       4.913  28.154  56.247  1.00  0.00     0.008 A 
ATOM      6  C   UNL     1       4.747  28.762  55.001  1.00  0.00     0.051 A 
ENDROOT
BRANCH   1   7
ATOM      7  O   UNL     1       3.252  29.656  53.264  1.00  0.00    -0.493 OA
ATOM      8  C   UNL     1       3.601  31.001  52.957  1.00  0.00     0.278 C 
ENDBRANCH   1   7
BRANCH   2   9
ATOM      9  O   UNL     1       1.061  29.003  54.769  1.00  0.00    -0.493 OA
ATOM     10  C   UNL     1      -0.032  29.488  55.542  1.00  0.00     0.278 C 
ENDBRANCH   2   9
BRANCH   4  11
ATOM     11  C   UNL     1       3.981  27.147  58.360  1.00  0.00     0.062 C 
BRANCH  11  12
ATOM     12  C   UNL     1       5.433  27.126  58.751  1.00  0.00    -0.030 C 
ATOM     13  C   UNL     1       6.125  25.986  58.822  1.00  0.00     0.004 C 
ENDBRANCH  11  12
ENDBRANCH   4  11
TORSDOF 4
ENDMDL
