MODEL 1
REMARK VINA RESULT:    -5.959      0.000      0.000
REMARK INTER + INTRA:          -6.133
REMARK INTER:                  -6.133
REMARK INTRA:                   0.000
REMARK UNBOUND:                 0.000
REMARK SMILES O=c1ccc2ccc(O)cc2o1
REMARK SMILES IDX 6 1 7 2 8 3 10 4 11 5 5 6 4 7 3 8 2 9 1 10 12 11 9 12
REMARK H PARENT 9 13
REMARK Flexibility Score: inf
ROOT
ATOM      1  C   UNL     1       0.977   1.731  -0.080  1.00  0.00     0.016 A 
ATOM      2  C   UNL     1       0.306   1.960   1.126  1.00  0.00     0.047 A 
ATOM      3  C   UNL     1      -0.055   0.885   1.950  1.00  0.00     0.119 A 
ATOM      4  C   UNL     1       0.257  -0.425   1.566  1.00  0.00     0.094 A 
ATOM      5  C   UNL     1       0.928  -0.664   0.361  1.00  0.00     0.142 A 
ATOM      6  C   UNL     1       1.290   0.421  -0.467  1.00  0.00     0.018 A 
ATOM      7  C   UNL     1       1.960   0.151  -1.664  1.00  0.00     0.019 A 
ATOM      8  C   UNL     1       2.249  -1.170  -2.003  1.00  0.00     0.094 A 
ATOM      9  C   UNL     1       1.859  -2.195  -1.134  1.00  0.00     0.336 A 
ATOM     10  O   UNL     1       2.111  -3.394  -1.423  1.00  0.00    -0.246 OA
ATOM     11  O   UNL     1       1.222  -1.910  -0.001  1.00  0.00    -0.423 OA
ENDROOT
BRANCH   3  12
ATOM     12  O   UNL     1      -0.724   1.106   3.152  1.00  0.00    -0.508 OA
ATOM     13  H   UNL     1      -1.357   1.888   3.269  1.00  0.00     0.293 HD
ENDBRANCH   3  12
TORSDOF 1
ENDMDL
MODEL 2
REMARK VINA RESULT:    -5.761      7.782      9.108
REMARK INTER + INTRA:          -5.929
REMARK INTER:                  -5.929
REMARK INTRA:                   0.000
REMARK UNBOUND:                 0.000
REMARK SMILES O=c1ccc2ccc(O)cc2o1
REMARK SMILES IDX 6 1 7 2 8 3 10 4 11 5 5 6 4 7 3 8 2 9 1 10 12 11 9 12
REMARK H PARENT 9 13
REMARK Flexibility Score: inf
ROOT
ATOM      1  C   UNL     1      -2.391   9.845   0.709  1.00  0.00     0.016 A 
ATOM      2  C   UNL     1      -3.627   9.327   0.309  1.00  0.00     0.047 A 
ATOM      3  C   UNL     1      -3.742   7.981  -0.068  1.00  0.00     0.119 A 
ATOM      4  C   UNL     1      -2.615   7.151  -0.045  1.00  0.00     0.094 A 
ATOM      5  C   UNL     1      -1.374   7.660   0.353  1.00  0.00     0.142 A 
ATOM      6  C   UNL     1      -1.261   9.016   0.732  1.00  0.00     0.018 A 
ATOM      7  C   UNL     1      -0.008   9.496   1.125  1.00  0.00     0.019 A 
ATOM      8  C   UNL     1       1.085   8.630   1.131  1.00  0.00     0.094 A 
ATOM      9  C   UNL     1       0.899   7.300   0.743  1.00  0.00     0.336 A 
ATOM     10  O   UNL     1       1.873   6.503   0.742  1.00  0.00    -0.246 OA
ATOM     11  O   UNL     1      -0.305   6.868   0.372  1.00  0.00    -0.423 OA
ENDROOT
BRANCH   3  12
ATOM     12  O   UNL     1      -4.971   7.459  -0.467  1.00  0.00    -0.508 OA
ATOM     13  H   UNL     1      -5.320   7.587  -1.409  1.00  0.00     0.293 HD
ENDBRANCH   3  12
TORSDOF 1
ENDMDL
MODEL 3
REMARK VINA RESULT:    -5.711      1.725      4.656
REMARK INTER + INTRA:          -5.878
REMARK INTER:                  -5.878
REMARK INTRA:                   0.000
REMARK UNBOUND:                 0.000
REMARK SMILES O=c1ccc2ccc(O)cc2o1
REMARK SMILES IDX 6 1 7 2 8 3 10 4 11 5 5 6 4 7 3 8 2 9 1 10 12 11 9 12
REMARK H PARENT 9 13
REMARK Flexibility Score: inf
ROOT
ATOM      1  C   UNL     1       1.609  -1.819  -0.407  1.00  0.00     0.016 A 
ATOM      2  C   UNL     1       2.174  -1.492  -1.644  1.00  0.00     0.047 A 
ATOM      3  C   UNL     1       2.130  -0.171  -2.114  1.00  0.00     0.119 A 
ATOM      4  C   UNL     1       1.518   0.825  -1.344  1.00  0.00     0.094 A 
ATOM      5  C   UNL     1       0.949   0.507  -0.105  1.00  0.00     0.142 A 
ATOM      6  C   UNL     1       0.995  -0.824   0.366  1.00  0.00     0.018 A 
ATOM      7  C   UNL     1       0.418  -1.111   1.607  1.00  0.00     0.019 A 
ATOM      8  C   UNL     1      -0.180  -0.085   2.337  1.00  0.00     0.094 A 
ATOM      9  C   UNL     1      -0.188   1.209   1.808  1.00  0.00     0.336 A 
ATOM     10  O   UNL     1      -0.723   2.149   2.452  1.00  0.00    -0.246 OA
ATOM     11  O   UNL     1       0.368   1.456   0.624  1.00  0.00    -0.423 OA
ENDROOT
BRANCH   3  12
ATOM     12  O   UNL     1       2.692   0.162  -3.345  1.00  0.00    -0.508 OA
ATOM     13  H   UNL     1       3.338  -0.459  -3.818  1.00  0.00     0.293 HD
ENDBRANCH   3  12
TORSDOF 1
ENDMDL
MODEL 4
REMARK VINA RESULT:    -5.694      8.775     10.071
REMARK INTER + INTRA:          -5.861
REMARK INTER:                  -5.861
REMARK INTRA:                   0.000
REMARK UNBOUND:                 0.000
REMARK SMILES O=c1ccc2ccc(O)cc2o1
REMARK SMILES IDX 6 1 7 2 8 3 10 4 11 5 5 6 4 7 3 8 2 9 1 10 12 11 9 12
REMARK H PARENT 9 13
REMARK Flexibility Score: inf
ROOT
ATOM      1  C   UNL     1      -0.460   7.122   0.422  1.00  0.00     0.016 A 
ATOM      2  C   UNL     1       0.601   7.892   0.910  1.00  0.00     0.047 A 
ATOM      3  C   UNL     1       0.384   9.214   1.323  1.00  0.00     0.119 A 
ATOM      4  C   UNL     1      -0.899   9.768   1.247  1.00  0.00     0.094 A 
ATOM      5  C   UNL     1      -1.967   9.007   0.759  1.00  0.00     0.142 A 
ATOM      6  C   UNL     1      -1.747   7.675   0.343  1.00  0.00     0.018 A 
ATOM      7  C   UNL     1      -2.833   6.939  -0.139  1.00  0.00     0.019 A 
ATOM      8  C   UNL     1      -4.092   7.534  -0.196  1.00  0.00     0.094 A 
ATOM      9  C   UNL     1      -4.236   8.858   0.233  1.00  0.00     0.336 A 
ATOM     10  O   UNL     1      -5.365   9.413   0.189  1.00  0.00    -0.246 OA
ATOM     11  O   UNL     1      -3.185   9.537   0.688  1.00  0.00    -0.423 OA
ENDROOT
BRANCH   3  12
ATOM     12  O   UNL     1       1.437   9.986   1.811  1.00  0.00    -0.508 OA
ATOM     13  H   UNL     1       1.429  10.996   1.742  1.00  0.00     0.293 HD
ENDBRANCH   3  12
TORSDOF 1
ENDMDL
MODEL 5
REMARK VINA RESULT:    -5.631      8.744      9.951
REMARK INTER + INTRA:          -5.795
REMARK INTER:                  -5.795
REMARK INTRA:                   0.000
REMARK UNBOUND:                 0.000
REMARK SMILES O=c1ccc2ccc(O)cc2o1
REMARK SMILES IDX 6 1 7 2 8 3 10 4 11 5 5 6 4 7 3 8 2 9 1 10 12 11 9 12
REMARK H PARENT 9 13
REMARK Flexibility Score: inf
ROOT
ATOM      1  C   UNL     1      -2.870   6.953  -0.091  1.00  0.00     0.016 A 
ATOM      2  C   UNL     1      -4.120   7.568  -0.215  1.00  0.00     0.047 A 
ATOM      3  C   UNL     1      -4.275   8.926   0.100  1.00  0.00     0.119 A 
ATOM      4  C   UNL     1      -3.175   9.670   0.543  1.00  0.00     0.094 A 
ATOM      5  C   UNL     1      -1.921   9.064   0.672  1.00  0.00     0.142 A 
ATOM      6  C   UNL     1      -1.767   7.696   0.353  1.00  0.00     0.018 A 
ATOM      7  C   UNL     1      -0.502   7.118   0.492  1.00  0.00     0.019 A 
ATOM      8  C   UNL     1       0.563   7.900   0.937  1.00  0.00     0.094 A 
ATOM      9  C   UNL     1       0.337   9.248   1.234  1.00  0.00     0.336 A 
ATOM     10  O   UNL     1       1.285   9.970   1.637  1.00  0.00    -0.246 OA
ATOM     11  O   UNL     1      -0.878   9.774   1.094  1.00  0.00    -0.423 OA
ENDROOT
BRANCH   3  12
ATOM     12  O   UNL     1      -5.518   9.545  -0.023  1.00  0.00    -0.508 OA
ATOM     13  H   UNL     1      -5.628  10.542   0.114  1.00  0.00     0.293 HD
ENDBRANCH   3  12
TORSDOF 1
ENDMDL
MODEL 6
REMARK VINA RESULT:    -5.619      0.749      4.223
REMARK INTER + INTRA:          -5.784
REMARK INTER:                  -5.784
REMARK INTRA:                   0.000
REMARK UNBOUND:                 0.000
REMARK SMILES O=c1ccc2ccc(O)cc2o1
REMARK SMILES IDX 6 1 7 2 8 3 10 4 11 5 5 6 4 7 3 8 2 9 1 10 12 11 9 12
REMARK H PARENT 9 13
REMARK Flexibility Score: inf
ROOT
ATOM      1  C   UNL     1       1.892   0.284  -1.537  1.00  0.00     0.016 A 
ATOM      2  C   UNL     1       2.179  -1.036  -1.897  1.00  0.00     0.047 A 
ATOM      3  C   UNL     1       1.794  -2.097  -1.063  1.00  0.00     0.119 A 
ATOM      4  C   UNL     1       1.120  -1.833   0.135  1.00  0.00     0.094 A 
ATOM      5  C   UNL     1       0.828  -0.515   0.504  1.00  0.00     0.142 A 
ATOM      6  C   UNL     1       1.217   0.551  -0.338  1.00  0.00     0.018 A 
ATOM      7  C   UNL     1       0.912   1.857   0.057  1.00  0.00     0.019 A 
ATOM      8  C   UNL     1       0.239   2.068   1.260  1.00  0.00     0.094 A 
ATOM      9  C   UNL     1      -0.115   0.965   2.042  1.00  0.00     0.336 A 
ATOM     10  O   UNL     1      -0.723   1.135   3.131  1.00  0.00    -0.246 OA
ATOM     11  O   UNL     1       0.188  -0.268   1.644  1.00  0.00    -0.423 OA
ENDROOT
BRANCH   3  12
ATOM     12  O   UNL     1       2.077  -3.414  -1.416  1.00  0.00    -0.508 OA
ATOM     13  H   UNL     1       3.007  -3.699  -1.697  1.00  0.00     0.293 HD
ENDBRANCH   3  12
TORSDOF 1
ENDMDL
MODEL 7
REMARK VINA RESULT:    -5.446      1.642      2.340
REMARK INTER + INTRA:          -5.605
REMARK INTER:                  -5.605
REMARK INTRA:                   0.000
REMARK UNBOUND:                 0.000
REMARK SMILES O=c1ccc2ccc(O)cc2o1
REMARK SMILES IDX 6 1 7 2 8 3 10 4 11 5 5 6 4 7 3 8 2 9 1 10 12 11 9 12
REMARK H PARENT 9 13
REMARK Flexibility Score: inf
ROOT
ATOM      1  C   UNL     1       0.182  -1.183   1.245  1.00  0.00     0.016 A 
ATOM      2  C   UNL     1      -0.367  -0.190   2.063  1.00  0.00     0.047 A 
ATOM      3  C   UNL     1      -0.191   1.165   1.746  1.00  0.00     0.119 A 
ATOM      4  C   UNL     1       0.539   1.527   0.608  1.00  0.00     0.094 A 
ATOM      5  C   UNL     1       1.093   0.540  -0.216  1.00  0.00     0.142 A 
ATOM      6  C   UNL     1       0.914  -0.824   0.105  1.00  0.00     0.018 A 
ATOM      7  C   UNL     1       1.479  -1.786  -0.737  1.00  0.00     0.019 A 
ATOM      8  C   UNL     1       2.197  -1.376  -1.859  1.00  0.00     0.094 A 
ATOM      9  C   UNL     1       2.334  -0.008  -2.115  1.00  0.00     0.336 A 
ATOM     10  O   UNL     1       2.980   0.382  -3.123  1.00  0.00    -0.246 OA
ATOM     11  O   UNL     1       1.787   0.888  -1.297  1.00  0.00    -0.423 OA
ENDROOT
BRANCH   3  12
ATOM     12  O   UNL     1      -0.736   2.159   2.556  1.00  0.00    -0.508 OA
ATOM     13  H   UNL     1      -1.088   1.953   3.483  1.00  0.00     0.293 HD
ENDBRANCH   3  12
TORSDOF 1
ENDMDL
MODEL 8
REMARK VINA RESULT:    -5.374      7.670      9.742
REMARK INTER + INTRA:          -5.531
REMARK INTER:                  -5.531
REMARK INTRA:                   0.000
REMARK UNBOUND:                 0.000
REMARK SMILES O=c1ccc2ccc(O)cc2o1
REMARK SMILES IDX 6 1 7 2 8 3 10 4 11 5 5 6 4 7 3 8 2 9 1 10 12 11 9 12
REMARK H PARENT 9 13
REMARK Flexibility Score: inf
ROOT
ATOM      1  C   UNL     1      -0.273   9.631   1.132  1.00  0.00     0.016 A 
ATOM      2  C   UNL     1       0.780   8.710   1.139  1.00  0.00     0.047 A 
ATOM      3  C   UNL     1       0.555   7.374   0.775  1.00  0.00     0.119 A 
ATOM      4  C   UNL     1      -0.730   6.959   0.404  1.00  0.00     0.094 A 
ATOM      5  C   UNL     1      -1.790   7.873   0.395  1.00  0.00     0.142 A 
ATOM      6  C   UNL     1      -1.561   9.217   0.762  1.00  0.00     0.018 A 
ATOM      7  C   UNL     1      -2.639  10.106   0.744  1.00  0.00     0.019 A 
ATOM      8  C   UNL     1      -3.899   9.645   0.367  1.00  0.00     0.094 A 
ATOM      9  C   UNL     1      -4.053   8.300   0.016  1.00  0.00     0.336 A 
ATOM     10  O   UNL     1      -5.183   7.865  -0.327  1.00  0.00    -0.246 OA
ATOM     11  O   UNL     1      -3.010   7.474   0.043  1.00  0.00    -0.423 OA
ENDROOT
BRANCH   3  12
ATOM     12  O   UNL     1       1.600   6.453   0.778  1.00  0.00    -0.508 OA
ATOM     13  H   UNL     1       2.124   6.250   1.621  1.00  0.00     0.293 HD
ENDBRANCH   3  12
TORSDOF 1
ENDMDL
MODEL 9
REMARK VINA RESULT:    -4.931      9.805     11.110
REMARK INTER + INTRA:          -5.075
REMARK INTER:                  -5.075
REMARK INTRA:                   0.000
REMARK UNBOUND:                 0.000
REMARK SMILES O=c1ccc2ccc(O)cc2o1
REMARK SMILES IDX 6 1 7 2 8 3 10 4 11 5 5 6 4 7 3 8 2 9 1 10 12 11 9 12
REMARK H PARENT 9 13
REMARK Flexibility Score: inf
ROOT
ATOM      1  C   UNL     1      -1.875   8.142  -0.331  1.00  0.00     0.016 A 
ATOM      2  C   UNL     1      -1.271   8.642   0.827  1.00  0.00     0.047 A 
ATOM      3  C   UNL     1      -1.914   9.624   1.594  1.00  0.00     0.119 A 
ATOM      4  C   UNL     1      -3.167  10.108   1.199  1.00  0.00     0.094 A 
ATOM      5  C   UNL     1      -3.780   9.615   0.041  1.00  0.00     0.142 A 
ATOM      6  C   UNL     1      -3.129   8.626  -0.729  1.00  0.00     0.018 A 
ATOM      7  C   UNL     1      -3.765   8.153  -1.881  1.00  0.00     0.019 A 
ATOM      8  C   UNL     1      -5.013   8.666  -2.232  1.00  0.00     0.094 A 
ATOM      9  C   UNL     1      -5.597   9.645  -1.422  1.00  0.00     0.336 A 
ATOM     10  O   UNL     1      -6.723  10.121  -1.723  1.00  0.00    -0.246 OA
ATOM     11  O   UNL     1      -4.970  10.078  -0.331  1.00  0.00    -0.423 OA
ENDROOT
BRANCH   3  12
ATOM     12  O   UNL     1      -1.318  10.125   2.749  1.00  0.00    -0.508 OA
ATOM     13  H   UNL     1      -0.588   9.615   3.232  1.00  0.00     0.293 HD
ENDBRANCH   3  12
TORSDOF 1
ENDMDL
