MODEL 1
REMARK VINA RESULT:    -6.609      0.000      0.000
REMARK INTER + INTRA:          -7.253
REMARK INTER:                  -6.995
REMARK INTRA:                  -0.258
REMARK UNBOUND:                -0.258
REMARK SMILES O=c1cc(-c2ccccc2)oc2ccccc12
REMARK SMILES IDX 4 1 3 2 2 3 1 4 17 5 16 6 15 7 14 8 13 9 12 10 11 11 5 12
REMARK SMILES IDX 8 13 7 14 9 15 6 16 10 17
REMARK H PARENT
REMARK Flexibility Score: inf
ROOT
ATOM      1  C   UNL     1     -11.286  -1.571   6.447  1.00  0.00     0.138 A 
ATOM      2  C   UNL     1     -11.117  -0.894   5.221  1.00  0.00     0.100 A 
ATOM      3  C   UNL     1     -10.923   0.489   5.218  1.00  0.00     0.193 A 
ATOM      4  O   UNL     1     -10.773   1.094   4.122  1.00  0.00    -0.289 OA
ATOM      5  C   UNL     1     -10.899   1.184   6.435  1.00  0.00     0.065 A 
ATOM      6  C   UNL     1     -10.708   2.577   6.504  1.00  0.00     0.016 A 
ATOM      7  C   UNL     1     -10.692   3.221   7.745  1.00  0.00     0.001 A 
ATOM      8  C   UNL     1     -10.865   2.486   8.920  1.00  0.00     0.004 A 
ATOM      9  C   UNL     1     -11.055   1.102   8.863  1.00  0.00     0.048 A 
ATOM     10  C   UNL     1     -11.074   0.447   7.626  1.00  0.00     0.138 A 
ATOM     11  O   UNL     1     -11.255  -0.869   7.580  1.00  0.00    -0.456 OA
ENDROOT
BRANCH   1  12
ATOM     12  C   UNL     1     -11.498  -3.049   6.538  1.00  0.00     0.017 A 
ATOM     13  C   UNL     1     -11.940  -5.836   6.618  1.00  0.00     0.000 A 
ATOM     14  C   UNL     1     -12.310  -5.103   5.492  1.00  0.00     0.001 A 
ATOM     15  C   UNL     1     -11.351  -5.190   7.705  1.00  0.00     0.001 A 
ATOM     16  C   UNL     1     -12.093  -3.722   5.449  1.00  0.00     0.012 A 
ATOM     17  C   UNL     1     -11.130  -3.809   7.670  1.00  0.00     0.012 A 
ENDBRANCH   1  12
TORSDOF 1
ENDMDL
MODEL 2
REMARK VINA RESULT:    -6.490      1.119      1.423
REMARK INTER + INTRA:          -7.127
REMARK INTER:                  -6.871
REMARK INTRA:                  -0.256
REMARK UNBOUND:                -0.258
REMARK SMILES O=c1cc(-c2ccccc2)oc2ccccc12
REMARK SMILES IDX 4 1 3 2 2 3 1 4 17 5 16 6 15 7 14 8 13 9 12 10 11 11 5 12
REMARK SMILES IDX 8 13 7 14 9 15 6 16 10 17
REMARK H PARENT
REMARK Flexibility Score: inf
ROOT
ATOM      1  C   UNL     1     -11.207  -0.685   7.063  1.00  0.00     0.138 A 
ATOM      2  C   UNL     1     -10.908  -0.328   5.732  1.00  0.00     0.100 A 
ATOM      3  C   UNL     1     -10.652   1.008   5.418  1.00  0.00     0.193 A 
ATOM      4  O   UNL     1     -10.385   1.328   4.227  1.00  0.00    -0.289 OA
ATOM      5  C   UNL     1     -10.696   1.976   6.432  1.00  0.00     0.065 A 
ATOM      6  C   UNL     1     -10.449   3.339   6.184  1.00  0.00     0.016 A 
ATOM      7  C   UNL     1     -10.505   4.263   7.232  1.00  0.00     0.001 A 
ATOM      8  C   UNL     1     -10.807   3.836   8.529  1.00  0.00     0.004 A 
ATOM      9  C   UNL     1     -11.054   2.485   8.785  1.00  0.00     0.048 A 
ATOM     10  C   UNL     1     -11.001   1.552   7.743  1.00  0.00     0.138 A 
ATOM     11  O   UNL     1     -11.237   0.268   7.995  1.00  0.00    -0.456 OA
ENDROOT
BRANCH   1  12
ATOM     12  C   UNL     1     -11.492  -2.092   7.483  1.00  0.00     0.017 A 
ATOM     13  C   UNL     1     -11.973  -4.779   8.202  1.00  0.00     0.000 A 
ATOM     14  C   UNL     1     -11.138  -4.483   7.126  1.00  0.00     0.001 A 
ATOM     15  C   UNL     1     -12.571  -3.746   8.923  1.00  0.00     0.001 A 
ATOM     16  C   UNL     1     -10.898  -3.153   6.767  1.00  0.00     0.012 A 
ATOM     17  C   UNL     1     -12.335  -2.412   8.571  1.00  0.00     0.012 A 
ENDBRANCH   1  12
TORSDOF 1
ENDMDL
MODEL 3
REMARK VINA RESULT:    -6.345      1.130      2.345
REMARK INTER + INTRA:          -6.973
REMARK INTER:                  -6.733
REMARK INTRA:                  -0.241
REMARK UNBOUND:                -0.258
REMARK SMILES O=c1cc(-c2ccccc2)oc2ccccc12
REMARK SMILES IDX 4 1 3 2 2 3 1 4 17 5 16 6 15 7 14 8 13 9 12 10 11 11 5 12
REMARK SMILES IDX 8 13 7 14 9 15 6 16 10 17
REMARK H PARENT
REMARK Flexibility Score: inf
ROOT
ATOM      1  C   UNL     1     -11.362  -1.889   7.051  1.00  0.00     0.138 A 
ATOM      2  C   UNL     1     -11.552  -1.276   8.308  1.00  0.00     0.100 A 
ATOM      3  C   UNL     1     -11.372   0.103   8.436  1.00  0.00     0.193 A 
ATOM      4  O   UNL     1     -11.541   0.651   9.560  1.00  0.00    -0.289 OA
ATOM      5  C   UNL     1     -11.006   0.859   7.313  1.00  0.00     0.065 A 
ATOM      6  C   UNL     1     -10.808   2.251   7.373  1.00  0.00     0.016 A 
ATOM      7  C   UNL     1     -10.444   2.956   6.222  1.00  0.00     0.001 A 
ATOM      8  C   UNL     1     -10.274   2.283   5.010  1.00  0.00     0.004 A 
ATOM      9  C   UNL     1     -10.468   0.900   4.940  1.00  0.00     0.048 A 
ATOM     10  C   UNL     1     -10.832   0.184   6.086  1.00  0.00     0.138 A 
ATOM     11  O   UNL     1     -11.015  -1.131   6.011  1.00  0.00    -0.456 OA
ENDROOT
BRANCH   1  12
ATOM     12  C   UNL     1     -11.535  -3.358   6.828  1.00  0.00     0.017 A 
ATOM     13  C   UNL     1     -11.921  -6.109   6.331  1.00  0.00     0.000 A 
ATOM     14  C   UNL     1     -12.555  -5.160   5.532  1.00  0.00     0.001 A 
ATOM     15  C   UNL     1     -11.095  -5.697   7.377  1.00  0.00     0.001 A 
ATOM     16  C   UNL     1     -12.366  -3.796   5.776  1.00  0.00     0.012 A 
ATOM     17  C   UNL     1     -10.900  -4.335   7.627  1.00  0.00     0.012 A 
ENDBRANCH   1  12
TORSDOF 1
ENDMDL
MODEL 4
REMARK VINA RESULT:    -6.200      1.429      6.379
REMARK INTER + INTRA:          -6.820
REMARK INTER:                  -6.557
REMARK INTRA:                  -0.263
REMARK UNBOUND:                -0.258
REMARK SMILES O=c1cc(-c2ccccc2)oc2ccccc12
REMARK SMILES IDX 4 1 3 2 2 3 1 4 17 5 16 6 15 7 14 8 13 9 12 10 11 11 5 12
REMARK SMILES IDX 8 13 7 14 9 15 6 16 10 17
REMARK H PARENT
REMARK Flexibility Score: inf
ROOT
ATOM      1  C   UNL     1     -11.597  -0.323   7.779  1.00  0.00     0.138 A 
ATOM      2  C   UNL     1     -12.196  -0.868   8.934  1.00  0.00     0.100 A 
ATOM      3  C   UNL     1     -12.560  -2.216   8.952  1.00  0.00     0.193 A 
ATOM      4  O   UNL     1     -13.096  -2.703   9.984  1.00  0.00    -0.289 OA
ATOM      5  C   UNL     1     -12.323  -3.009   7.819  1.00  0.00     0.065 A 
ATOM      6  C   UNL     1     -12.665  -4.373   7.770  1.00  0.00     0.016 A 
ATOM      7  C   UNL     1     -12.407  -5.118   6.615  1.00  0.00     0.001 A 
ATOM      8  C   UNL     1     -11.809  -4.512   5.507  1.00  0.00     0.004 A 
ATOM      9  C   UNL     1     -11.466  -3.158   5.547  1.00  0.00     0.048 A 
ATOM     10  C   UNL     1     -11.720  -2.402   6.697  1.00  0.00     0.138 A 
ATOM     11  O   UNL     1     -11.390  -1.115   6.726  1.00  0.00    -0.456 OA
ENDROOT
BRANCH   1  12
ATOM     12  C   UNL     1     -11.178   1.109   7.678  1.00  0.00     0.017 A 
ATOM     13  C   UNL     1     -10.398   3.820   7.587  1.00  0.00     0.000 A 
ATOM     14  C   UNL     1     -10.714   3.226   8.807  1.00  0.00     0.001 A 
ATOM     15  C   UNL     1     -10.467   3.073   6.412  1.00  0.00     0.001 A 
ATOM     16  C   UNL     1     -11.101   1.883   8.856  1.00  0.00     0.012 A 
ATOM     17  C   UNL     1     -10.853   1.729   6.451  1.00  0.00     0.012 A 
ENDBRANCH   1  12
TORSDOF 1
ENDMDL
MODEL 5
REMARK VINA RESULT:    -6.178      1.626      2.851
REMARK INTER + INTRA:          -6.797
REMARK INTER:                  -6.550
REMARK INTRA:                  -0.247
REMARK UNBOUND:                -0.258
REMARK SMILES O=c1cc(-c2ccccc2)oc2ccccc12
REMARK SMILES IDX 4 1 3 2 2 3 1 4 17 5 16 6 15 7 14 8 13 9 12 10 11 11 5 12
REMARK SMILES IDX 8 13 7 14 9 15 6 16 10 17
REMARK H PARENT
REMARK Flexibility Score: inf
ROOT
ATOM      1  C   UNL     1     -11.363  -0.380   7.602  1.00  0.00     0.138 A 
ATOM      2  C   UNL     1     -11.148   0.501   8.683  1.00  0.00     0.100 A 
ATOM      3  C   UNL     1     -10.923   1.857   8.433  1.00  0.00     0.193 A 
ATOM      4  O   UNL     1     -10.731   2.644   9.399  1.00  0.00    -0.289 OA
ATOM      5  C   UNL     1     -10.915   2.322   7.110  1.00  0.00     0.065 A 
ATOM      6  C   UNL     1     -10.695   3.674   6.789  1.00  0.00     0.016 A 
ATOM      7  C   UNL     1     -10.697   4.085   5.452  1.00  0.00     0.001 A 
ATOM      8  C   UNL     1     -10.918   3.156   4.432  1.00  0.00     0.004 A 
ATOM      9  C   UNL     1     -11.137   1.811   4.741  1.00  0.00     0.048 A 
ATOM     10  C   UNL     1     -11.137   1.388   6.075  1.00  0.00     0.138 A 
ATOM     11  O   UNL     1     -11.347   0.107   6.361  1.00  0.00    -0.456 OA
ENDROOT
BRANCH   1  12
ATOM     12  C   UNL     1     -11.610  -1.844   7.783  1.00  0.00     0.017 A 
ATOM     13  C   UNL     1     -12.016  -4.625   8.047  1.00  0.00     0.000 A 
ATOM     14  C   UNL     1     -11.156  -4.135   7.065  1.00  0.00     0.001 A 
ATOM     15  C   UNL     1     -12.675  -3.739   8.899  1.00  0.00     0.001 A 
ATOM     16  C   UNL     1     -10.954  -2.758   6.931  1.00  0.00     0.012 A 
ATOM     17  C   UNL     1     -12.477  -2.359   8.772  1.00  0.00     0.012 A 
ENDBRANCH   1  12
TORSDOF 1
ENDMDL
MODEL 6
REMARK VINA RESULT:    -6.107      1.377      5.900
REMARK INTER + INTRA:          -6.722
REMARK INTER:                  -6.476
REMARK INTRA:                  -0.246
REMARK UNBOUND:                -0.258
REMARK SMILES O=c1cc(-c2ccccc2)oc2ccccc12
REMARK SMILES IDX 4 1 3 2 2 3 1 4 17 5 16 6 15 7 14 8 13 9 12 10 11 11 5 12
REMARK SMILES IDX 8 13 7 14 9 15 6 16 10 17
REMARK H PARENT
REMARK Flexibility Score: inf
ROOT
ATOM      1  C   UNL     1     -11.790  -1.156   6.648  1.00  0.00     0.138 A 
ATOM      2  C   UNL     1     -12.557  -1.367   5.483  1.00  0.00     0.100 A 
ATOM      3  C   UNL     1     -12.816  -2.671   5.056  1.00  0.00     0.193 A 
ATOM      4  O   UNL     1     -13.501  -2.860   4.013  1.00  0.00    -0.289 OA
ATOM      5  C   UNL     1     -12.311  -3.752   5.793  1.00  0.00     0.065 A 
ATOM      6  C   UNL     1     -12.535  -5.090   5.418  1.00  0.00     0.016 A 
ATOM      7  C   UNL     1     -12.008  -6.130   6.190  1.00  0.00     0.001 A 
ATOM      8  C   UNL     1     -11.258  -5.846   7.334  1.00  0.00     0.004 A 
ATOM      9  C   UNL     1     -11.030  -4.520   7.714  1.00  0.00     0.048 A 
ATOM     10  C   UNL     1     -11.552  -3.471   6.949  1.00  0.00     0.138 A 
ATOM     11  O   UNL     1     -11.331  -2.213   7.318  1.00  0.00    -0.456 OA
ENDROOT
BRANCH   1  12
ATOM     12  C   UNL     1     -11.467   0.207   7.173  1.00  0.00     0.017 A 
ATOM     13  C   UNL     1     -10.835   2.808   8.070  1.00  0.00     0.000 A 
ATOM     14  C   UNL     1     -10.750   2.497   6.714  1.00  0.00     0.001 A 
ATOM     15  C   UNL     1     -11.233   1.831   8.982  1.00  0.00     0.001 A 
ATOM     16  C   UNL     1     -11.062   1.210   6.266  1.00  0.00     0.012 A 
ATOM     17  C   UNL     1     -11.548   0.541   8.543  1.00  0.00     0.012 A 
ENDBRANCH   1  12
TORSDOF 1
ENDMDL
MODEL 7
REMARK VINA RESULT:    -6.058      1.540      5.955
REMARK INTER + INTRA:          -6.669
REMARK INTER:                  -6.409
REMARK INTRA:                  -0.261
REMARK UNBOUND:                -0.258
REMARK SMILES O=c1cc(-c2ccccc2)oc2ccccc12
REMARK SMILES IDX 4 1 3 2 2 3 1 4 17 5 16 6 15 7 14 8 13 9 12 10 11 11 5 12
REMARK SMILES IDX 8 13 7 14 9 15 6 16 10 17
REMARK H PARENT
REMARK Flexibility Score: inf
ROOT
ATOM      1  C   UNL     1     -11.116   0.500   7.378  1.00  0.00     0.138 A 
ATOM      2  C   UNL     1     -10.552  -0.169   6.273  1.00  0.00     0.100 A 
ATOM      3  C   UNL     1     -10.706  -1.552   6.152  1.00  0.00     0.193 A 
ATOM      4  O   UNL     1     -10.201  -2.151   5.164  1.00  0.00    -0.289 OA
ATOM      5  C   UNL     1     -11.422  -2.254   7.133  1.00  0.00     0.065 A 
ATOM      6  C   UNL     1     -11.614  -3.647   7.072  1.00  0.00     0.016 A 
ATOM      7  C   UNL     1     -12.336  -4.298   8.077  1.00  0.00     0.001 A 
ATOM      8  C   UNL     1     -12.869  -3.570   9.144  1.00  0.00     0.004 A 
ATOM      9  C   UNL     1     -12.682  -2.186   9.213  1.00  0.00     0.048 A 
ATOM     10  C   UNL     1     -11.961  -1.524   8.213  1.00  0.00     0.138 A 
ATOM     11  O   UNL     1     -11.789  -0.208   8.286  1.00  0.00    -0.456 OA
ENDROOT
BRANCH   1  12
ATOM     12  C   UNL     1     -10.997   1.977   7.582  1.00  0.00     0.017 A 
ATOM     13  C   UNL     1     -10.754   4.775   7.870  1.00  0.00     0.000 A 
ATOM     14  C   UNL     1     -10.602   4.186   6.615  1.00  0.00     0.001 A 
ATOM     15  C   UNL     1     -11.026   3.979   8.982  1.00  0.00     0.001 A 
ATOM     16  C   UNL     1     -10.721   2.801   6.470  1.00  0.00     0.012 A 
ATOM     17  C   UNL     1     -11.148   2.592   8.845  1.00  0.00     0.012 A 
ENDBRANCH   1  12
TORSDOF 1
ENDMDL
MODEL 8
REMARK VINA RESULT:    -5.744      1.664      6.745
REMARK INTER + INTRA:          -6.337
REMARK INTER:                  -6.083
REMARK INTRA:                  -0.255
REMARK UNBOUND:                -0.258
REMARK SMILES O=c1cc(-c2ccccc2)oc2ccccc12
REMARK SMILES IDX 4 1 3 2 2 3 1 4 17 5 16 6 15 7 14 8 13 9 12 10 11 11 5 12
REMARK SMILES IDX 8 13 7 14 9 15 6 16 10 17
REMARK H PARENT
REMARK Flexibility Score: inf
ROOT
ATOM      1  C   UNL     1     -11.129   1.776   7.616  1.00  0.00     0.138 A 
ATOM      2  C   UNL     1     -11.451   1.174   8.850  1.00  0.00     0.100 A 
ATOM      3  C   UNL     1     -11.587  -0.214   8.925  1.00  0.00     0.193 A 
ATOM      4  O   UNL     1     -11.875  -0.753  10.028  1.00  0.00    -0.289 OA
ATOM      5  C   UNL     1     -11.401  -0.989   7.770  1.00  0.00     0.065 A 
ATOM      6  C   UNL     1     -11.524  -2.390   7.776  1.00  0.00     0.016 A 
ATOM      7  C   UNL     1     -11.328  -3.115   6.596  1.00  0.00     0.001 A 
ATOM      8  C   UNL     1     -11.010  -2.450   5.408  1.00  0.00     0.004 A 
ATOM      9  C   UNL     1     -10.886  -1.058   5.393  1.00  0.00     0.048 A 
ATOM     10  C   UNL     1     -11.081  -0.323   6.568  1.00  0.00     0.138 A 
ATOM     11  O   UNL     1     -10.961   1.001   6.545  1.00  0.00    -0.456 OA
ENDROOT
BRANCH   1  12
ATOM     12  C   UNL     1     -10.965   3.254   7.451  1.00  0.00     0.017 A 
ATOM     13  C   UNL     1     -10.623   6.047   7.233  1.00  0.00     0.000 A 
ATOM     14  C   UNL     1     -10.307   5.396   8.424  1.00  0.00     0.001 A 
ATOM     15  C   UNL     1     -11.108   5.316   6.149  1.00  0.00     0.001 A 
ATOM     16  C   UNL     1     -10.476   4.013   8.536  1.00  0.00     0.012 A 
ATOM     17  C   UNL     1     -11.279   3.931   6.252  1.00  0.00     0.012 A 
ENDBRANCH   1  12
TORSDOF 1
ENDMDL
