MODEL 1
REMARK VINA RESULT:    -4.043      0.000      0.000
REMARK INTER + INTRA:          -4.563
REMARK INTER:                  -4.397
REMARK INTRA:                  -0.165
REMARK UNBOUND:                -0.165
REMARK SMILES CC1=CC[C@@](O)(C(C)C)CC1
REMARK SMILES IDX 1 1 2 2 3 3 4 4 5 5 10 6 11 7 7 8 8 9 9 10 6 11
REMARK H PARENT 6 12
REMARK Flexibility Score: inf
ROOT
ATOM      1  C   UNL     1     133.452 136.495 134.878  1.00  0.00     0.039 C 
ATOM      2  C   UNL     1     132.469 137.281 135.702  1.00  0.00    -0.077 C 
ATOM      3  C   UNL     1     131.614 136.622 136.506  1.00  0.00    -0.025 C 
ATOM      4  C   UNL     1     130.630 137.323 137.408  1.00  0.00     0.062 C 
ATOM      5  C   UNL     1     130.261 138.759 136.932  1.00  0.00     0.071 C 
ATOM      6  C   UNL     1     131.590 139.488 136.611  1.00  0.00     0.040 C 
ATOM      7  C   UNL     1     132.380 138.776 135.503  1.00  0.00     0.033 C 
ENDROOT
BRANCH   5   8
ATOM      8  C   UNL     1     129.475 139.541 138.052  1.00  0.00     0.015 C 
ATOM      9  C   UNL     1     128.875 138.605 139.121  1.00  0.00     0.010 C 
ATOM     10  C   UNL     1     130.322 140.620 138.759  1.00  0.00     0.010 C 
ENDBRANCH   5   8
BRANCH   5  11
ATOM     11  O   UNL     1     129.496 138.700 135.748  1.00  0.00    -0.389 OA
ATOM     12  H   UNL     1     128.712 138.113 135.909  1.00  0.00     0.211 HD
ENDBRANCH   5  11
TORSDOF 2
ENDMDL
MODEL 2
REMARK VINA RESULT:    -4.000      1.132      4.333
REMARK INTER + INTRA:          -4.516
REMARK INTER:                  -4.370
REMARK INTRA:                  -0.146
REMARK UNBOUND:                -0.165
REMARK SMILES CC1=CC[C@@](O)(C(C)C)CC1
REMARK SMILES IDX 1 1 2 2 3 3 4 4 5 5 10 6 11 7 7 8 8 9 9 10 6 11
REMARK H PARENT 6 12
REMARK Flexibility Score: inf
ROOT
ATOM      1  C   UNL     1     130.211 140.798 138.736  1.00  0.00     0.039 C 
ATOM      2  C   UNL     1     130.728 139.556 138.064  1.00  0.00    -0.077 C 
ATOM      3  C   UNL     1     131.922 139.596 137.443  1.00  0.00    -0.025 C 
ATOM      4  C   UNL     1     132.546 138.391 136.787  1.00  0.00     0.062 C 
ATOM      5  C   UNL     1     131.514 137.305 136.364  1.00  0.00     0.071 C 
ATOM      6  C   UNL     1     130.584 137.063 137.579  1.00  0.00     0.040 C 
ATOM      7  C   UNL     1     129.835 138.339 137.990  1.00  0.00     0.033 C 
ENDROOT
BRANCH   5   8
ATOM      8  C   UNL     1     132.238 135.962 135.964  1.00  0.00     0.015 C 
ATOM      9  C   UNL     1     133.321 136.170 134.887  1.00  0.00     0.010 C 
ATOM     10  C   UNL     1     132.867 135.222 137.162  1.00  0.00     0.010 C 
ENDBRANCH   5   8
BRANCH   5  11
ATOM     11  O   UNL     1     130.724 137.773 135.293  1.00  0.00    -0.389 OA
ATOM     12  H   UNL     1     131.140 137.476 134.443  1.00  0.00     0.211 HD
ENDBRANCH   5  11
TORSDOF 2
ENDMDL
MODEL 3
REMARK VINA RESULT:    -3.964     15.297     15.892
REMARK INTER + INTRA:          -4.477
REMARK INTER:                  -4.338
REMARK INTRA:                  -0.139
REMARK UNBOUND:                -0.165
REMARK SMILES CC1=CC[C@@](O)(C(C)C)CC1
REMARK SMILES IDX 1 1 2 2 3 3 4 4 5 5 10 6 11 7 7 8 8 9 9 10 6 11
REMARK H PARENT 6 12
REMARK Flexibility Score: inf
ROOT
ATOM      1  C   UNL     1     136.695 134.301 148.841  1.00  0.00     0.039 C 
ATOM      2  C   UNL     1     138.156 134.655 148.772  1.00  0.00    -0.077 C 
ATOM      3  C   UNL     1     138.766 134.688 147.572  1.00  0.00    -0.025 C 
ATOM      4  C   UNL     1     140.210 135.082 147.397  1.00  0.00     0.062 C 
ATOM      5  C   UNL     1     141.074 134.872 148.675  1.00  0.00     0.071 C 
ATOM      6  C   UNL     1     140.295 135.497 149.859  1.00  0.00     0.040 C 
ATOM      7  C   UNL     1     138.926 134.831 150.059  1.00  0.00     0.033 C 
ENDROOT
BRANCH   5   8
ATOM      8  C   UNL     1     142.481 135.568 148.528  1.00  0.00     0.015 C 
ATOM      9  C   UNL     1     143.426 134.803 147.579  1.00  0.00     0.010 C 
ATOM     10  C   UNL     1     142.395 137.036 148.061  1.00  0.00     0.010 C 
ENDBRANCH   5   8
BRANCH   5  11
ATOM     11  O   UNL     1     141.235 133.494 148.935  1.00  0.00    -0.389 OA
ATOM     12  H   UNL     1     141.710 133.083 148.167  1.00  0.00     0.211 HD
ENDBRANCH   5  11
TORSDOF 2
ENDMDL
MODEL 4
REMARK VINA RESULT:    -3.954     14.742     15.340
REMARK INTER + INTRA:          -4.466
REMARK INTER:                  -4.303
REMARK INTRA:                  -0.163
REMARK UNBOUND:                -0.165
REMARK SMILES CC1=CC[C@@](O)(C(C)C)CC1
REMARK SMILES IDX 1 1 2 2 3 3 4 4 5 5 10 6 11 7 7 8 8 9 9 10 6 11
REMARK H PARENT 6 12
REMARK Flexibility Score: inf
ROOT
ATOM      1  C   UNL     1     135.612 131.469 149.063  1.00  0.00     0.039 C 
ATOM      2  C   UNL     1     136.738 132.464 149.123  1.00  0.00    -0.077 C 
ATOM      3  C   UNL     1     136.767 133.360 150.128  1.00  0.00    -0.025 C 
ATOM      4  C   UNL     1     137.881 134.360 150.303  1.00  0.00     0.062 C 
ATOM      5  C   UNL     1     138.643 134.683 148.984  1.00  0.00     0.071 C 
ATOM      6  C   UNL     1     138.989 133.330 148.314  1.00  0.00     0.040 C 
ATOM      7  C   UNL     1     137.730 132.516 147.984  1.00  0.00     0.033 C 
ENDROOT
BRANCH   5   8
ATOM      8  C   UNL     1     139.964 135.493 149.277  1.00  0.00     0.015 C 
ATOM      9  C   UNL     1     140.547 135.192 150.673  1.00  0.00     0.010 C 
ATOM     10  C   UNL     1     141.067 135.272 148.222  1.00  0.00     0.010 C 
ENDBRANCH   5   8
BRANCH   5  11
ATOM     11  O   UNL     1     137.811 135.408 148.104  1.00  0.00    -0.389 OA
ATOM     12  H   UNL     1     136.913 134.986 148.102  1.00  0.00     0.211 HD
ENDBRANCH   5  11
TORSDOF 2
ENDMDL
MODEL 5
REMARK VINA RESULT:    -3.871      1.660      2.655
REMARK INTER + INTRA:          -4.376
REMARK INTER:                  -4.208
REMARK INTRA:                  -0.168
REMARK UNBOUND:                -0.165
REMARK SMILES CC1=CC[C@@](O)(C(C)C)CC1
REMARK SMILES IDX 1 1 2 2 3 3 4 4 5 5 10 6 11 7 7 8 8 9 9 10 6 11
REMARK H PARENT 6 12
REMARK Flexibility Score: inf
ROOT
ATOM      1  C   UNL     1     134.664 140.834 137.061  1.00  0.00     0.039 C 
ATOM      2  C   UNL     1     133.351 140.130 137.270  1.00  0.00    -0.077 C 
ATOM      3  C   UNL     1     133.202 138.872 136.815  1.00  0.00    -0.025 C 
ATOM      4  C   UNL     1     131.944 138.068 137.024  1.00  0.00     0.062 C 
ATOM      5  C   UNL     1     130.676 138.941 137.252  1.00  0.00     0.071 C 
ATOM      6  C   UNL     1     131.038 140.001 138.322  1.00  0.00     0.040 C 
ATOM      7  C   UNL     1     132.196 140.901 137.866  1.00  0.00     0.033 C 
ENDROOT
BRANCH   5   8
ATOM      8  C   UNL     1     129.467 138.062 137.753  1.00  0.00     0.015 C 
ATOM      9  C   UNL     1     129.829 136.568 137.876  1.00  0.00     0.010 C 
ATOM     10  C   UNL     1     128.875 138.538 139.096  1.00  0.00     0.010 C 
ENDBRANCH   5   8
BRANCH   5  11
ATOM     11  O   UNL     1     130.328 139.619 136.064  1.00  0.00    -0.389 OA
ATOM     12  H   UNL     1     130.121 138.944 135.367  1.00  0.00     0.211 HD
ENDBRANCH   5  11
TORSDOF 2
ENDMDL
MODEL 6
REMARK VINA RESULT:    -3.859     17.507     18.495
REMARK INTER + INTRA:          -4.363
REMARK INTER:                  -4.256
REMARK INTRA:                  -0.106
REMARK UNBOUND:                -0.165
REMARK SMILES CC1=CC[C@@](O)(C(C)C)CC1
REMARK SMILES IDX 1 1 2 2 3 3 4 4 5 5 10 6 11 7 7 8 8 9 9 10 6 11
REMARK H PARENT 6 12
REMARK Flexibility Score: inf
ROOT
ATOM      1  C   UNL     1     147.307 137.474 147.274  1.00  0.00     0.039 C 
ATOM      2  C   UNL     1     147.458 138.185 145.957  1.00  0.00    -0.077 C 
ATOM      3  C   UNL     1     148.467 139.063 145.799  1.00  0.00    -0.025 C 
ATOM      4  C   UNL     1     148.731 139.783 144.501  1.00  0.00     0.062 C 
ATOM      5  C   UNL     1     147.475 139.907 143.589  1.00  0.00     0.071 C 
ATOM      6  C   UNL     1     146.827 138.502 143.513  1.00  0.00     0.040 C 
ATOM      7  C   UNL     1     146.398 137.995 144.898  1.00  0.00     0.033 C 
ENDROOT
BRANCH   5   8
ATOM      8  C   UNL     1     147.872 140.395 142.143  1.00  0.00     0.015 C 
ATOM      9  C   UNL     1     146.721 141.129 141.427  1.00  0.00     0.010 C 
ATOM     10  C   UNL     1     149.123 141.297 142.121  1.00  0.00     0.010 C 
ENDBRANCH   5   8
BRANCH   5  11
ATOM     11  O   UNL     1     146.538 140.792 144.164  1.00  0.00    -0.389 OA
ATOM     12  H   UNL     1     146.230 140.407 145.024  1.00  0.00     0.211 HD
ENDBRANCH   5  11
TORSDOF 2
ENDMDL
MODEL 7
REMARK VINA RESULT:    -3.853     16.346     17.108
REMARK INTER + INTRA:          -4.357
REMARK INTER:                  -4.190
REMARK INTRA:                  -0.167
REMARK UNBOUND:                -0.165
REMARK SMILES CC1=CC[C@@](O)(C(C)C)CC1
REMARK SMILES IDX 1 1 2 2 3 3 4 4 5 5 10 6 11 7 7 8 8 9 9 10 6 11
REMARK H PARENT 6 12
REMARK Flexibility Score: inf
ROOT
ATOM      1  C   UNL     1     144.660 137.485 141.057  1.00  0.00     0.039 C 
ATOM      2  C   UNL     1     145.354 138.085 142.249  1.00  0.00    -0.077 C 
ATOM      3  C   UNL     1     144.729 138.080 143.442  1.00  0.00    -0.025 C 
ATOM      4  C   UNL     1     145.364 138.609 144.703  1.00  0.00     0.062 C 
ATOM      5  C   UNL     1     146.485 139.658 144.444  1.00  0.00     0.071 C 
ATOM      6  C   UNL     1     147.421 139.067 143.360  1.00  0.00     0.040 C 
ATOM      7  C   UNL     1     146.673 138.793 142.047  1.00  0.00     0.033 C 
ENDROOT
BRANCH   5   8
ATOM      8  C   UNL     1     147.302 139.948 145.761  1.00  0.00     0.015 C 
ATOM      9  C   UNL     1     146.631 139.360 147.018  1.00  0.00     0.010 C 
ATOM     10  C   UNL     1     148.761 139.450 145.701  1.00  0.00     0.010 C 
ENDBRANCH   5   8
BRANCH   5  11
ATOM     11  O   UNL     1     145.929 140.853 143.940  1.00  0.00    -0.389 OA
ATOM     12  H   UNL     1     144.998 140.670 143.652  1.00  0.00     0.211 HD
ENDBRANCH   5  11
TORSDOF 2
ENDMDL
MODEL 8
REMARK VINA RESULT:    -3.809     14.177     14.716
REMARK INTER + INTRA:          -4.309
REMARK INTER:                  -4.208
REMARK INTRA:                  -0.101
REMARK UNBOUND:                -0.165
REMARK SMILES CC1=CC[C@@](O)(C(C)C)CC1
REMARK SMILES IDX 1 1 2 2 3 3 4 4 5 5 10 6 11 7 7 8 8 9 9 10 6 11
REMARK H PARENT 6 12
REMARK Flexibility Score: inf
ROOT
ATOM      1  C   UNL     1     140.801 135.909 149.424  1.00  0.00     0.039 C 
ATOM      2  C   UNL     1     139.543 135.155 149.089  1.00  0.00    -0.077 C 
ATOM      3  C   UNL     1     138.752 134.723 150.089  1.00  0.00    -0.025 C 
ATOM      4  C   UNL     1     137.448 134.005 149.851  1.00  0.00     0.062 C 
ATOM      5  C   UNL     1     137.369 133.295 148.469  1.00  0.00     0.071 C 
ATOM      6  C   UNL     1     137.832 134.319 147.402  1.00  0.00     0.040 C 
ATOM      7  C   UNL     1     139.273 134.788 147.648  1.00  0.00     0.033 C 
ENDROOT
BRANCH   5   8
ATOM      8  C   UNL     1     135.897 132.823 148.158  1.00  0.00     0.015 C 
ATOM      9  C   UNL     1     135.731 132.307 146.715  1.00  0.00     0.010 C 
ATOM     10  C   UNL     1     135.379 131.744 149.131  1.00  0.00     0.010 C 
ENDBRANCH   5   8
BRANCH   5  11
ATOM     11  O   UNL     1     138.253 132.195 148.433  1.00  0.00    -0.389 OA
ATOM     12  H   UNL     1     137.980 131.597 147.690  1.00  0.00     0.211 HD
ENDBRANCH   5  11
TORSDOF 2
ENDMDL
MODEL 9
REMARK VINA RESULT:    -3.751     13.828     14.441
REMARK INTER + INTRA:          -4.245
REMARK INTER:                  -4.078
REMARK INTRA:                  -0.167
REMARK UNBOUND:                -0.165
REMARK SMILES CC1=CC[C@@](O)(C(C)C)CC1
REMARK SMILES IDX 1 1 2 2 3 3 4 4 5 5 10 6 11 7 7 8 8 9 9 10 6 11
REMARK H PARENT 6 12
REMARK Flexibility Score: inf
ROOT
ATOM      1  C   UNL     1     138.276 135.393 146.325  1.00  0.00     0.039 C 
ATOM      2  C   UNL     1     137.727 134.291 147.190  1.00  0.00    -0.077 C 
ATOM      3  C   UNL     1     137.749 133.026 146.730  1.00  0.00    -0.025 C 
ATOM      4  C   UNL     1     137.271 131.850 147.543  1.00  0.00     0.062 C 
ATOM      5  C   UNL     1     136.243 132.232 148.649  1.00  0.00     0.071 C 
ATOM      6  C   UNL     1     136.827 133.446 149.414  1.00  0.00     0.040 C 
ATOM      7  C   UNL     1     137.046 134.653 148.489  1.00  0.00     0.033 C 
ENDROOT
BRANCH   5   8
ATOM      8  C   UNL     1     136.010 131.031 149.643  1.00  0.00     0.015 C 
ATOM      9  C   UNL     1     137.066 129.918 149.489  1.00  0.00     0.010 C 
ATOM     10  C   UNL     1     135.957 131.460 151.124  1.00  0.00     0.010 C 
ENDBRANCH   5   8
BRANCH   5  11
ATOM     11  O   UNL     1     135.021 132.628 148.065  1.00  0.00    -0.389 OA
ATOM     12  H   UNL     1     135.018 133.616 147.983  1.00  0.00     0.211 HD
ENDBRANCH   5  11
TORSDOF 2
ENDMDL
