MODEL 1
REMARK VINA RESULT:    -3.266      0.000      0.000
REMARK INTER + INTRA:          -4.179
REMARK INTER:                  -4.029
REMARK INTRA:                  -0.150
REMARK UNBOUND:                -0.150
REMARK SMILES CCCCC=CC(C)=O
REMARK SMILES IDX 4 1 3 2 2 3 1 4 5 5 6 6 7 7 9 8 8 9
REMARK H PARENT
REMARK Flexibility Score: inf
ROOT
ATOM      1  C   UNL     1       4.372  38.821  92.306  1.00  0.00     0.027 C 
ENDROOT
BRANCH   1   2
ATOM      2  C   UNL     1       5.371  39.934  92.647  1.00  0.00     0.004 C 
BRANCH   2   3
ATOM      3  C   UNL     1       6.457  40.044  91.572  1.00  0.00    -0.003 C 
ATOM      4  C   UNL     1       6.701  41.500  91.184  1.00  0.00     0.004 C 
ENDBRANCH   2   3
ENDBRANCH   1   2
BRANCH   1   5
ATOM      5  C   UNL     1       4.434  37.707  93.311  1.00  0.00    -0.023 C 
ATOM      6  C   UNL     1       4.477  37.953  94.626  1.00  0.00     0.042 C 
BRANCH   6   7
ATOM      7  C   UNL     1       4.551  36.875  95.628  1.00  0.00     0.152 C 
ATOM      8  O   UNL     1       3.583  36.085  95.800  1.00  0.00    -0.295 OA
ATOM      9  C   UNL     1       5.787  36.716  96.454  1.00  0.00     0.093 C 
ENDBRANCH   6   7
ENDBRANCH   1   5
TORSDOF 4
ENDMDL
MODEL 2
REMARK VINA RESULT:    -3.201      2.277      4.815
REMARK INTER + INTRA:          -4.099
REMARK INTER:                  -3.835
REMARK INTRA:                  -0.264
REMARK UNBOUND:                -0.150
REMARK SMILES CCCCC=CC(C)=O
REMARK SMILES IDX 4 1 3 2 2 3 1 4 5 5 6 6 7 7 9 8 8 9
REMARK H PARENT
REMARK Flexibility Score: inf
ROOT
ATOM      1  C   UNL     1       4.335  36.996  93.837  1.00  0.00     0.027 C 
ENDROOT
BRANCH   1   2
ATOM      2  C   UNL     1       4.339  37.551  95.267  1.00  0.00     0.004 C 
BRANCH   2   3
ATOM      3  C   UNL     1       5.514  36.986  96.071  1.00  0.00    -0.003 C 
ATOM      4  C   UNL     1       6.295  35.959  95.255  1.00  0.00     0.004 C 
ENDBRANCH   2   3
ENDBRANCH   1   2
BRANCH   1   5
ATOM      5  C   UNL     1       4.410  38.102  92.824  1.00  0.00    -0.023 C 
ATOM      6  C   UNL     1       5.213  39.158  93.000  1.00  0.00     0.042 C 
BRANCH   6   7
ATOM      7  C   UNL     1       5.292  40.259  92.024  1.00  0.00     0.152 C 
ATOM      8  O   UNL     1       4.246  40.804  91.577  1.00  0.00    -0.295 OA
ATOM      9  C   UNL     1       6.629  40.737  91.553  1.00  0.00     0.093 C 
ENDBRANCH   6   7
ENDBRANCH   1   5
TORSDOF 4
ENDMDL
MODEL 3
REMARK VINA RESULT:    -2.740     16.031     16.952
REMARK INTER + INTRA:          -3.531
REMARK INTER:                  -3.246
REMARK INTRA:                  -0.285
REMARK UNBOUND:                -0.150
REMARK SMILES CCCCC=CC(C)=O
REMARK SMILES IDX 4 1 3 2 2 3 1 4 5 5 6 6 7 7 9 8 8 9
REMARK H PARENT
REMARK Flexibility Score: inf
ROOT
ATOM      1  C   UNL     1      21.565  42.895  88.937  1.00  0.00     0.027 C 
ENDROOT
BRANCH   1   2
ATOM      2  C   UNL     1      22.351  41.642  88.532  1.00  0.00     0.004 C 
BRANCH   2   3
ATOM      3  C   UNL     1      21.495  40.716  87.661  1.00  0.00    -0.003 C 
ATOM      4  C   UNL     1      20.845  39.618  88.498  1.00  0.00     0.004 C 
ENDBRANCH   2   3
ENDBRANCH   1   2
BRANCH   1   5
ATOM      5  C   UNL     1      21.469  43.018  90.431  1.00  0.00    -0.023 C 
ATOM      6  C   UNL     1      20.578  42.310  91.135  1.00  0.00     0.042 C 
BRANCH   6   7
ATOM      7  C   UNL     1      20.459  42.425  92.599  1.00  0.00     0.152 C 
ATOM      8  O   UNL     1      19.707  41.649  93.250  1.00  0.00    -0.295 OA
ATOM      9  C   UNL     1      21.237  43.476  93.325  1.00  0.00     0.093 C 
ENDBRANCH   6   7
ENDBRANCH   1   5
TORSDOF 4
ENDMDL
MODEL 4
REMARK VINA RESULT:    -2.676     14.347     16.237
REMARK INTER + INTRA:          -3.452
REMARK INTER:                  -3.262
REMARK INTRA:                  -0.190
REMARK UNBOUND:                -0.150
REMARK SMILES CCCCC=CC(C)=O
REMARK SMILES IDX 4 1 3 2 2 3 1 4 5 5 6 6 7 7 9 8 8 9
REMARK H PARENT
REMARK Flexibility Score: inf
ROOT
ATOM      1  C   UNL     1      19.349  39.099  90.515  1.00  0.00     0.027 C 
ENDROOT
BRANCH   1   2
ATOM      2  C   UNL     1      19.810  38.616  89.134  1.00  0.00     0.004 C 
BRANCH   2   3
ATOM      3  C   UNL     1      19.235  37.232  88.818  1.00  0.00    -0.003 C 
ATOM      4  C   UNL     1      17.779  37.126  89.262  1.00  0.00     0.004 C 
ENDBRANCH   2   3
ENDBRANCH   1   2
BRANCH   1   5
ATOM      5  C   UNL     1      19.719  40.537  90.740  1.00  0.00    -0.023 C 
ATOM      6  C   UNL     1      20.748  41.103  90.099  1.00  0.00     0.042 C 
BRANCH   6   7
ATOM      7  C   UNL     1      21.135  42.509  90.315  1.00  0.00     0.152 C 
ATOM      8  O   UNL     1      21.302  42.961  91.480  1.00  0.00    -0.295 OA
ATOM      9  C   UNL     1      21.329  43.413  89.140  1.00  0.00     0.093 C 
ENDBRANCH   6   7
ENDBRANCH   1   5
TORSDOF 4
ENDMDL
MODEL 5
REMARK VINA RESULT:    -2.630     14.974     16.645
REMARK INTER + INTRA:          -3.395
REMARK INTER:                  -3.104
REMARK INTRA:                  -0.292
REMARK UNBOUND:                -0.150
REMARK SMILES CCCCC=CC(C)=O
REMARK SMILES IDX 4 1 3 2 2 3 1 4 5 5 6 6 7 7 9 8 8 9
REMARK H PARENT
REMARK Flexibility Score: inf
ROOT
ATOM      1  C   UNL     1      22.098  40.601  87.787  1.00  0.00     0.027 C 
ENDROOT
BRANCH   1   2
ATOM      2  C   UNL     1      22.646  41.304  89.035  1.00  0.00     0.004 C 
BRANCH   2   3
ATOM      3  C   UNL     1      22.605  42.827  88.869  1.00  0.00    -0.003 C 
ATOM      4  C   UNL     1      21.276  43.397  89.356  1.00  0.00     0.004 C 
ENDBRANCH   2   3
ENDBRANCH   1   2
BRANCH   1   5
ATOM      5  C   UNL     1      20.914  39.742  88.123  1.00  0.00    -0.023 C 
ATOM      6  C   UNL     1      20.570  39.489  89.391  1.00  0.00     0.042 C 
BRANCH   6   7
ATOM      7  C   UNL     1      19.419  38.637  89.742  1.00  0.00     0.152 C 
ATOM      8  O   UNL     1      18.706  38.897  90.749  1.00  0.00    -0.295 OA
ATOM      9  C   UNL     1      19.092  37.449  88.895  1.00  0.00     0.093 C 
ENDBRANCH   6   7
ENDBRANCH   1   5
TORSDOF 4
ENDMDL
MODEL 6
REMARK VINA RESULT:    -2.615     17.143     18.998
REMARK INTER + INTRA:          -3.377
REMARK INTER:                  -3.238
REMARK INTRA:                  -0.139
REMARK UNBOUND:                -0.150
REMARK SMILES CCCCC=CC(C)=O
REMARK SMILES IDX 4 1 3 2 2 3 1 4 5 5 6 6 7 7 9 8 8 9
REMARK H PARENT
REMARK Flexibility Score: inf
ROOT
ATOM      1  C   UNL     1      23.085  46.895  94.294  1.00  0.00     0.027 C 
ENDROOT
BRANCH   1   2
ATOM      2  C   UNL     1      22.824  48.291  93.716  1.00  0.00     0.004 C 
BRANCH   2   3
ATOM      3  C   UNL     1      23.124  49.379  94.753  1.00  0.00    -0.003 C 
ATOM      4  C   UNL     1      22.286  49.183  96.013  1.00  0.00     0.004 C 
ENDBRANCH   2   3
ENDBRANCH   1   2
BRANCH   1   5
ATOM      5  C   UNL     1      22.524  45.824  93.404  1.00  0.00    -0.023 C 
ATOM      6  C   UNL     1      22.056  44.674  93.903  1.00  0.00     0.042 C 
BRANCH   6   7
ATOM      7  C   UNL     1      21.513  43.605  93.046  1.00  0.00     0.152 C 
ATOM      8  O   UNL     1      22.045  43.334  91.935  1.00  0.00    -0.295 OA
ATOM      9  C   UNL     1      20.315  42.832  93.496  1.00  0.00     0.093 C 
ENDBRANCH   6   7
ENDBRANCH   1   5
TORSDOF 4
ENDMDL
MODEL 7
REMARK VINA RESULT:    -2.612     15.830     17.162
REMARK INTER + INTRA:          -3.372
REMARK INTER:                  -3.074
REMARK INTRA:                  -0.298
REMARK UNBOUND:                -0.150
REMARK SMILES CCCCC=CC(C)=O
REMARK SMILES IDX 4 1 3 2 2 3 1 4 5 5 6 6 7 7 9 8 8 9
REMARK H PARENT
REMARK Flexibility Score: inf
ROOT
ATOM      1  C   UNL     1      20.497  42.972  94.789  1.00  0.00     0.027 C 
ENDROOT
BRANCH   1   2
ATOM      2  C   UNL     1      22.008  43.206  94.903  1.00  0.00     0.004 C 
BRANCH   2   3
ATOM      3  C   UNL     1      22.312  44.667  95.249  1.00  0.00    -0.003 C 
ATOM      4  C   UNL     1      22.609  45.480  93.992  1.00  0.00     0.004 C 
ENDBRANCH   2   3
ENDBRANCH   1   2
BRANCH   1   5
ATOM      5  C   UNL     1      20.093  42.701  93.369  1.00  0.00    -0.023 C 
ATOM      6  C   UNL     1      20.999  42.426  92.424  1.00  0.00     0.042 C 
BRANCH   6   7
ATOM      7  C   UNL     1      20.625  42.171  91.021  1.00  0.00     0.152 C 
ATOM      8  O   UNL     1      19.839  41.230  90.723  1.00  0.00    -0.295 OA
ATOM      9  C   UNL     1      21.185  43.034  89.936  1.00  0.00     0.093 C 
ENDBRANCH   6   7
ENDBRANCH   1   5
TORSDOF 4
ENDMDL
MODEL 8
REMARK VINA RESULT:    -2.607     16.030     16.604
REMARK INTER + INTRA:          -3.367
REMARK INTER:                  -3.215
REMARK INTRA:                  -0.152
REMARK UNBOUND:                -0.150
REMARK SMILES CCCCC=CC(C)=O
REMARK SMILES IDX 4 1 3 2 2 3 1 4 5 5 6 6 7 7 9 8 8 9
REMARK H PARENT
REMARK Flexibility Score: inf
ROOT
ATOM      1  C   UNL     1      20.464  42.225  91.007  1.00  0.00     0.027 C 
ENDROOT
BRANCH   1   2
ATOM      2  C   UNL     1      21.546  43.177  90.484  1.00  0.00     0.004 C 
BRANCH   2   3
ATOM      3  C   UNL     1      21.582  43.177  88.952  1.00  0.00    -0.003 C 
ATOM      4  C   UNL     1      21.821  41.771  88.407  1.00  0.00     0.004 C 
ENDBRANCH   2   3
ENDBRANCH   1   2
BRANCH   1   5
ATOM      5  C   UNL     1      20.613  41.990  92.483  1.00  0.00    -0.023 C 
ATOM      6  C   UNL     1      20.421  42.972  93.371  1.00  0.00     0.042 C 
BRANCH   6   7
ATOM      7  C   UNL     1      20.575  42.765  94.822  1.00  0.00     0.152 C 
ATOM      8  O   UNL     1      19.965  41.831  95.410  1.00  0.00    -0.295 OA
ATOM      9  C   UNL     1      21.463  43.675  95.609  1.00  0.00     0.093 C 
ENDBRANCH   6   7
ENDBRANCH   1   5
TORSDOF 4
ENDMDL
MODEL 9
REMARK VINA RESULT:    -2.572     16.537     17.707
REMARK INTER + INTRA:          -3.324
REMARK INTER:                  -3.131
REMARK INTRA:                  -0.193
REMARK UNBOUND:                -0.150
REMARK SMILES CCCCC=CC(C)=O
REMARK SMILES IDX 4 1 3 2 2 3 1 4 5 5 6 6 7 7 9 8 8 9
REMARK H PARENT
REMARK Flexibility Score: inf
ROOT
ATOM      1  C   UNL     1      21.841  43.650  92.970  1.00  0.00     0.027 C 
ENDROOT
BRANCH   1   2
ATOM      2  C   UNL     1      20.519  43.003  93.404  1.00  0.00     0.004 C 
BRANCH   2   3
ATOM      3  C   UNL     1      20.494  42.772  94.918  1.00  0.00    -0.003 C 
ATOM      4  C   UNL     1      21.556  43.612  95.621  1.00  0.00     0.004 C 
ENDBRANCH   2   3
ENDBRANCH   1   2
BRANCH   1   5
ATOM      5  C   UNL     1      21.996  43.622  91.477  1.00  0.00    -0.023 C 
ATOM      6  C   UNL     1      21.295  42.774  90.716  1.00  0.00     0.042 C 
BRANCH   6   7
ATOM      7  C   UNL     1      21.442  42.721  89.251  1.00  0.00     0.152 C 
ATOM      8  O   UNL     1      21.256  43.750  88.545  1.00  0.00    -0.295 OA
ATOM      9  C   UNL     1      21.813  41.433  88.589  1.00  0.00     0.093 C 
ENDBRANCH   6   7
ENDBRANCH   1   5
TORSDOF 4
ENDMDL
