MODEL 1
REMARK VINA RESULT:    -5.120      0.000      0.000
REMARK INTER + INTRA:          -5.710
REMARK INTER:                  -5.420
REMARK INTRA:                  -0.290
REMARK UNBOUND:                -0.290
REMARK SMILES C=C(C)[C@H]1CC[C@H](C)[C@@]12CC=C(C)CC2
REMARK SMILES IDX 8 1 7 2 6 3 5 4 4 5 9 6 15 7 14 8 12 9 11 10 10 11 13 12
REMARK SMILES IDX 2 13 1 14 3 15
REMARK H PARENT
REMARK Flexibility Score: inf
ROOT
ATOM      1  C   UNL     1       1.250  12.031  14.212  1.00  0.00     0.008 C 
ATOM      2  C   UNL     1       1.880  12.992  15.247  1.00  0.00    -0.007 C 
ATOM      3  C   UNL     1       2.923  13.882  14.548  1.00  0.00     0.004 C 
ATOM      4  C   UNL     1       2.237  15.209  14.226  1.00  0.00     0.009 C 
ATOM      5  C   UNL     1       0.842  15.147  14.871  1.00  0.00     0.021 C 
ATOM      6  C   UNL     1       0.889  13.999  15.924  1.00  0.00    -0.017 C 
ATOM      7  C   UNL     1      -0.550  13.384  16.172  1.00  0.00     0.012 C 
ATOM      8  C   UNL     1      -1.124  13.707  17.560  1.00  0.00     0.031 C 
ATOM      9  C   UNL     1      -0.129  13.257  18.604  1.00  0.00    -0.077 C 
ATOM     10  C   UNL     1       1.159  13.590  18.431  1.00  0.00    -0.027 C 
ATOM     11  C   UNL     1       1.529  14.487  17.280  1.00  0.00     0.035 C 
ATOM     12  C   UNL     1      -0.538  12.371  19.748  1.00  0.00     0.039 C 
ENDROOT
BRANCH   5  13
ATOM     13  C   UNL     1       0.281  16.492  15.348  1.00  0.00    -0.077 C 
ATOM     14  C   UNL     1      -1.046  16.701  15.314  1.00  0.00     0.008 C 
ATOM     15  C   UNL     1       1.158  17.615  15.858  1.00  0.00     0.039 C 
ENDBRANCH   5  13
TORSDOF 1
ENDMDL
MODEL 2
REMARK VINA RESULT:    -4.869      1.145      4.220
REMARK INTER + INTRA:          -5.443
REMARK INTER:                  -5.144
REMARK INTRA:                  -0.300
REMARK UNBOUND:                -0.290
REMARK SMILES C=C(C)[C@H]1CC[C@H](C)[C@@]12CC=C(C)CC2
REMARK SMILES IDX 8 1 7 2 6 3 5 4 4 5 9 6 15 7 14 8 12 9 11 10 10 11 13 12
REMARK SMILES IDX 2 13 1 14 3 15
REMARK H PARENT
REMARK Flexibility Score: inf
ROOT
ATOM      1  C   UNL     1      -0.656  16.548  14.930  1.00  0.00     0.008 C 
ATOM      2  C   UNL     1       0.824  16.149  15.143  1.00  0.00    -0.007 C 
ATOM      3  C   UNL     1       1.489  17.154  16.100  1.00  0.00     0.004 C 
ATOM      4  C   UNL     1       1.464  16.529  17.495  1.00  0.00     0.009 C 
ATOM      5  C   UNL     1       0.922  15.100  17.323  1.00  0.00     0.021 C 
ATOM      6  C   UNL     1       1.056  14.751  15.810  1.00  0.00    -0.017 C 
ATOM      7  C   UNL     1      -0.011  13.666  15.370  1.00  0.00     0.012 C 
ATOM      8  C   UNL     1       0.606  12.299  15.037  1.00  0.00     0.031 C 
ATOM      9  C   UNL     1       1.673  12.500  13.987  1.00  0.00    -0.077 C 
ATOM     10  C   UNL     1       2.558  13.493  14.171  1.00  0.00    -0.027 C 
ATOM     11  C   UNL     1       2.517  14.273  15.457  1.00  0.00     0.035 C 
ATOM     12  C   UNL     1       1.690  11.693  12.719  1.00  0.00     0.039 C 
ENDROOT
BRANCH   5  13
ATOM     13  C   UNL     1       1.470  14.068  18.316  1.00  0.00    -0.077 C 
ATOM     14  C   UNL     1       2.654  14.293  18.911  1.00  0.00     0.008 C 
ATOM     15  C   UNL     1       0.740  12.789  18.661  1.00  0.00     0.039 C 
ENDBRANCH   5  13
TORSDOF 1
ENDMDL
MODEL 3
REMARK VINA RESULT:    -4.809      1.194      3.299
REMARK INTER + INTRA:          -5.380
REMARK INTER:                  -5.094
REMARK INTRA:                  -0.286
REMARK UNBOUND:                -0.290
REMARK SMILES C=C(C)[C@H]1CC[C@H](C)[C@@]12CC=C(C)CC2
REMARK SMILES IDX 8 1 7 2 6 3 5 4 4 5 9 6 15 7 14 8 12 9 11 10 10 11 13 12
REMARK SMILES IDX 2 13 1 14 3 15
REMARK H PARENT
REMARK Flexibility Score: inf
ROOT
ATOM      1  C   UNL     1       2.250  17.241  17.830  1.00  0.00     0.008 C 
ATOM      2  C   UNL     1       0.942  16.772  17.149  1.00  0.00    -0.007 C 
ATOM      3  C   UNL     1       0.716  17.589  15.864  1.00  0.00     0.004 C 
ATOM      4  C   UNL     1       1.235  16.745  14.700  1.00  0.00     0.009 C 
ATOM      5  C   UNL     1       1.622  15.378  15.290  1.00  0.00     0.021 C 
ATOM      6  C   UNL     1       0.923  15.278  16.679  1.00  0.00    -0.017 C 
ATOM      7  C   UNL     1       1.710  14.308  17.654  1.00  0.00     0.012 C 
ATOM      8  C   UNL     1       0.964  12.998  17.950  1.00  0.00     0.031 C 
ATOM      9  C   UNL     1      -0.409  13.340  18.480  1.00  0.00    -0.077 C 
ATOM     10  C   UNL     1      -1.125  14.265  17.822  1.00  0.00    -0.027 C 
ATOM     11  C   UNL     1      -0.581  14.825  16.536  1.00  0.00     0.035 C 
ATOM     12  C   UNL     1      -0.924  12.751  19.763  1.00  0.00     0.039 C 
ENDROOT
BRANCH   5  13
ATOM     13  C   UNL     1       1.445  14.183  14.346  1.00  0.00    -0.077 C 
ATOM     14  C   UNL     1       2.262  13.124  14.466  1.00  0.00     0.008 C 
ATOM     15  C   UNL     1       0.386  14.137  13.267  1.00  0.00     0.039 C 
ENDBRANCH   5  13
TORSDOF 1
ENDMDL
MODEL 4
REMARK VINA RESULT:    -4.804      1.165      3.799
REMARK INTER + INTRA:          -5.375
REMARK INTER:                  -5.084
REMARK INTRA:                  -0.291
REMARK UNBOUND:                -0.290
REMARK SMILES C=C(C)[C@H]1CC[C@H](C)[C@@]12CC=C(C)CC2
REMARK SMILES IDX 8 1 7 2 6 3 5 4 4 5 9 6 15 7 14 8 12 9 11 10 10 11 13 12
REMARK SMILES IDX 2 13 1 14 3 15
REMARK H PARENT
REMARK Flexibility Score: inf
ROOT
ATOM      1  C   UNL     1       1.144  12.931  18.837  1.00  0.00     0.008 C 
ATOM      2  C   UNL     1      -0.012  13.087  17.819  1.00  0.00    -0.007 C 
ATOM      3  C   UNL     1      -1.124  13.950  18.441  1.00  0.00     0.004 C 
ATOM      4  C   UNL     1      -0.923  15.377  17.930  1.00  0.00     0.009 C 
ATOM      5  C   UNL     1       0.213  15.314  16.895  1.00  0.00     0.021 C 
ATOM      6  C   UNL     1       0.359  13.818  16.484  1.00  0.00    -0.017 C 
ATOM      7  C   UNL     1       1.828  13.497  15.985  1.00  0.00     0.012 C 
ATOM      8  C   UNL     1       1.915  13.208  14.479  1.00  0.00     0.031 C 
ATOM      9  C   UNL     1       0.950  12.093  14.150  1.00  0.00    -0.077 C 
ATOM     10  C   UNL     1      -0.296  12.173  14.642  1.00  0.00    -0.027 C 
ATOM     11  C   UNL     1      -0.703  13.414  15.390  1.00  0.00     0.035 C 
ATOM     12  C   UNL     1       1.389  10.872  13.390  1.00  0.00     0.039 C 
ENDROOT
BRANCH   5  13
ATOM     13  C   UNL     1       0.114  16.332  15.753  1.00  0.00    -0.077 C 
ATOM     14  C   UNL     1      -1.072  16.901  15.480  1.00  0.00     0.008 C 
ATOM     15  C   UNL     1       1.300  16.731  14.902  1.00  0.00     0.039 C 
ENDBRANCH   5  13
TORSDOF 1
ENDMDL
MODEL 5
REMARK VINA RESULT:    -4.712      1.643      3.611
REMARK INTER + INTRA:          -5.277
REMARK INTER:                  -4.976
REMARK INTRA:                  -0.300
REMARK UNBOUND:                -0.290
REMARK SMILES C=C(C)[C@H]1CC[C@H](C)[C@@]12CC=C(C)CC2
REMARK SMILES IDX 8 1 7 2 6 3 5 4 4 5 9 6 15 7 14 8 12 9 11 10 10 11 13 12
REMARK SMILES IDX 2 13 1 14 3 15
REMARK H PARENT
REMARK Flexibility Score: inf
ROOT
ATOM      1  C   UNL     1      -0.590  16.421  12.525  1.00  0.00     0.008 C 
ATOM      2  C   UNL     1       0.759  16.137  13.229  1.00  0.00    -0.007 C 
ATOM      3  C   UNL     1       1.422  17.471  13.616  1.00  0.00     0.004 C 
ATOM      4  C   UNL     1       1.088  17.728  15.086  1.00  0.00     0.009 C 
ATOM      5  C   UNL     1       0.358  16.472  15.594  1.00  0.00     0.021 C 
ATOM      6  C   UNL     1       0.664  15.336  14.571  1.00  0.00    -0.017 C 
ATOM      7  C   UNL     1      -0.482  14.242  14.565  1.00  0.00     0.012 C 
ATOM      8  C   UNL     1      -0.046  12.893  15.155  1.00  0.00     0.031 C 
ATOM      9  C   UNL     1       1.186  12.425  14.416  1.00  0.00    -0.077 C 
ATOM     10  C   UNL     1       2.178  13.308  14.225  1.00  0.00    -0.027 C 
ATOM     11  C   UNL     1       2.067  14.672  14.851  1.00  0.00     0.035 C 
ATOM     12  C   UNL     1       1.266  11.049  13.815  1.00  0.00     0.039 C 
ENDROOT
BRANCH   5  13
ATOM     13  C   UNL     1       0.580  16.140  17.074  1.00  0.00    -0.077 C 
ATOM     14  C   UNL     1       1.705  16.556  17.679  1.00  0.00     0.008 C 
ATOM     15  C   UNL     1      -0.415  15.354  17.899  1.00  0.00     0.039 C 
ENDBRANCH   5  13
TORSDOF 1
ENDMDL
MODEL 6
REMARK VINA RESULT:    -4.702      1.330      4.533
REMARK INTER + INTRA:          -5.267
REMARK INTER:                  -5.040
REMARK INTRA:                  -0.227
REMARK UNBOUND:                -0.290
REMARK SMILES C=C(C)[C@H]1CC[C@H](C)[C@@]12CC=C(C)CC2
REMARK SMILES IDX 8 1 7 2 6 3 5 4 4 5 9 6 15 7 14 8 12 9 11 10 10 11 13 12
REMARK SMILES IDX 2 13 1 14 3 15
REMARK H PARENT
REMARK Flexibility Score: inf
ROOT
ATOM      1  C   UNL     1       0.694  17.495  15.255  1.00  0.00     0.008 C 
ATOM      2  C   UNL     1       1.505  16.391  15.976  1.00  0.00    -0.007 C 
ATOM      3  C   UNL     1       1.246  16.477  17.491  1.00  0.00     0.004 C 
ATOM      4  C   UNL     1       0.171  15.442  17.821  1.00  0.00     0.009 C 
ATOM      5  C   UNL     1      -0.086  14.651  16.527  1.00  0.00     0.021 C 
ATOM      6  C   UNL     1       1.131  14.920  15.592  1.00  0.00    -0.017 C 
ATOM      7  C   UNL     1       0.734  14.755  14.067  1.00  0.00     0.012 C 
ATOM      8  C   UNL     1       1.365  13.525  13.398  1.00  0.00     0.031 C 
ATOM      9  C   UNL     1       2.863  13.593  13.588  1.00  0.00    -0.077 C 
ATOM     10  C   UNL     1       3.329  13.875  14.815  1.00  0.00    -0.027 C 
ATOM     11  C   UNL     1       2.352  13.989  15.954  1.00  0.00     0.035 C 
ATOM     12  C   UNL     1       3.809  13.461  12.427  1.00  0.00     0.039 C 
ENDROOT
BRANCH   5  13
ATOM     13  C   UNL     1      -0.488  13.185  16.725  1.00  0.00    -0.077 C 
ATOM     14  C   UNL     1      -1.119  12.537  15.732  1.00  0.00     0.008 C 
ATOM     15  C   UNL     1      -0.213  12.421  18.001  1.00  0.00     0.039 C 
ENDBRANCH   5  13
TORSDOF 1
ENDMDL
MODEL 7
REMARK VINA RESULT:    -4.606      1.650      3.729
REMARK INTER + INTRA:          -5.165
REMARK INTER:                  -4.890
REMARK INTRA:                  -0.275
REMARK UNBOUND:                -0.290
REMARK SMILES C=C(C)[C@H]1CC[C@H](C)[C@@]12CC=C(C)CC2
REMARK SMILES IDX 8 1 7 2 6 3 5 4 4 5 9 6 15 7 14 8 12 9 11 10 10 11 13 12
REMARK SMILES IDX 2 13 1 14 3 15
REMARK H PARENT
REMARK Flexibility Score: inf
ROOT
ATOM      1  C   UNL     1       2.222  14.524  17.960  1.00  0.00     0.008 C 
ATOM      2  C   UNL     1       0.938  14.533  17.097  1.00  0.00    -0.007 C 
ATOM      3  C   UNL     1       0.090  15.765  17.459  1.00  0.00     0.004 C 
ATOM      4  C   UNL     1       0.399  16.843  16.420  1.00  0.00     0.009 C 
ATOM      5  C   UNL     1       1.311  16.189  15.369  1.00  0.00     0.021 C 
ATOM      6  C   UNL     1       1.166  14.647  15.551  1.00  0.00    -0.017 C 
ATOM      7  C   UNL     1       2.461  13.882  15.054  1.00  0.00     0.012 C 
ATOM      8  C   UNL     1       2.235  13.062  13.774  1.00  0.00     0.031 C 
ATOM      9  C   UNL     1       1.077  12.120  14.009  1.00  0.00    -0.077 C 
ATOM     10  C   UNL     1      -0.037  12.619  14.568  1.00  0.00    -0.027 C 
ATOM     11  C   UNL     1      -0.121  14.100  14.821  1.00  0.00     0.035 C 
ATOM     12  C   UNL     1       1.194  10.647  13.732  1.00  0.00     0.039 C 
ENDROOT
BRANCH   5  13
ATOM     13  C   UNL     1       1.158  16.727  13.942  1.00  0.00    -0.077 C 
ATOM     14  C   UNL     1       0.061  17.434  13.620  1.00  0.00     0.008 C 
ATOM     15  C   UNL     1       2.190  16.497  12.860  1.00  0.00     0.039 C 
ENDBRANCH   5  13
TORSDOF 1
ENDMDL
MODEL 8
REMARK VINA RESULT:    -4.528      1.220      4.121
REMARK INTER + INTRA:          -5.083
REMARK INTER:                  -4.840
REMARK INTRA:                  -0.243
REMARK UNBOUND:                -0.290
REMARK SMILES C=C(C)[C@H]1CC[C@H](C)[C@@]12CC=C(C)CC2
REMARK SMILES IDX 8 1 7 2 6 3 5 4 4 5 9 6 15 7 14 8 12 9 11 10 10 11 13 12
REMARK SMILES IDX 2 13 1 14 3 15
REMARK H PARENT
REMARK Flexibility Score: inf
ROOT
ATOM      1  C   UNL     1       3.189  14.255  13.743  1.00  0.00     0.008 C 
ATOM      2  C   UNL     1       1.673  13.972  13.873  1.00  0.00    -0.007 C 
ATOM      3  C   UNL     1       1.430  12.454  13.788  1.00  0.00     0.004 C 
ATOM      4  C   UNL     1       1.312  11.939  15.223  1.00  0.00     0.009 C 
ATOM      5  C   UNL     1       1.337  13.176  16.136  1.00  0.00     0.021 C 
ATOM      6  C   UNL     1       1.020  14.404  15.229  1.00  0.00    -0.017 C 
ATOM      7  C   UNL     1       1.640  15.736  15.823  1.00  0.00     0.012 C 
ATOM      8  C   UNL     1       0.586  16.720  16.352  1.00  0.00     0.031 C 
ATOM      9  C   UNL     1      -0.403  17.002  15.245  1.00  0.00    -0.077 C 
ATOM     10  C   UNL     1      -0.894  15.958  14.560  1.00  0.00    -0.027 C 
ATOM     11  C   UNL     1      -0.533  14.566  15.000  1.00  0.00     0.035 C 
ATOM     12  C   UNL     1      -0.750  18.408  14.841  1.00  0.00     0.039 C 
ENDROOT
BRANCH   5  13
ATOM     13  C   UNL     1       0.525  13.052  17.430  1.00  0.00    -0.077 C 
ATOM     14  C   UNL     1       1.045  13.515  18.579  1.00  0.00     0.008 C 
ATOM     15  C   UNL     1      -0.849  12.421  17.482  1.00  0.00     0.039 C 
ENDBRANCH   5  13
TORSDOF 1
ENDMDL
MODEL 9
REMARK VINA RESULT:    -4.491      1.601      4.657
REMARK INTER + INTRA:          -5.043
REMARK INTER:                  -4.869
REMARK INTRA:                  -0.174
REMARK UNBOUND:                -0.290
REMARK SMILES C=C(C)[C@H]1CC[C@H](C)[C@@]12CC=C(C)CC2
REMARK SMILES IDX 8 1 7 2 6 3 5 4 4 5 9 6 15 7 14 8 12 9 11 10 10 11 13 12
REMARK SMILES IDX 2 13 1 14 3 15
REMARK H PARENT
REMARK Flexibility Score: inf
ROOT
ATOM      1  C   UNL     1      -0.998  15.380  17.953  1.00  0.00     0.008 C 
ATOM      2  C   UNL     1       0.270  15.919  17.248  1.00  0.00    -0.007 C 
ATOM      3  C   UNL     1       1.514  15.508  18.056  1.00  0.00     0.004 C 
ATOM      4  C   UNL     1       2.083  14.252  17.395  1.00  0.00     0.009 C 
ATOM      5  C   UNL     1       1.259  14.019  16.117  1.00  0.00     0.021 C 
ATOM      6  C   UNL     1       0.529  15.361  15.808  1.00  0.00    -0.017 C 
ATOM      7  C   UNL     1      -0.802  15.118  14.984  1.00  0.00     0.012 C 
ATOM      8  C   UNL     1      -0.726  15.616  13.533  1.00  0.00     0.031 C 
ATOM      9  C   UNL     1      -0.331  17.075  13.550  1.00  0.00    -0.077 C 
ATOM     10  C   UNL     1       0.699  17.438  14.330  1.00  0.00    -0.027 C 
ATOM     11  C   UNL     1       1.476  16.371  15.051  1.00  0.00     0.035 C 
ATOM     12  C   UNL     1      -1.125  18.112  12.807  1.00  0.00     0.039 C 
ENDROOT
BRANCH   5  13
ATOM     13  C   UNL     1       2.021  13.370  14.957  1.00  0.00    -0.077 C 
ATOM     14  C   UNL     1       1.487  12.306  14.333  1.00  0.00     0.008 C 
ATOM     15  C   UNL     1       3.365  13.868  14.473  1.00  0.00     0.039 C 
ENDBRANCH   5  13
TORSDOF 1
ENDMDL
