MODEL 1
REMARK VINA RESULT:    -4.117      0.000      0.000
REMARK INTER + INTRA:          -4.774
REMARK INTER:                  -4.718
REMARK INTRA:                  -0.055
REMARK UNBOUND:                -0.055
REMARK SMILES CC(C)[C@@H]([NH3+])C(=O)[O-]
REMARK SMILES IDX 4 1 5 2 6 6 7 7 8 8 2 9 1 10 3 11
REMARK H PARENT 5 3 5 4 5 5
REMARK Flexibility Score: inf
ROOT
ATOM      1  C   UNL     1      -8.732 -39.679  -9.282  1.00  0.00     0.230 C 
ENDROOT
BRANCH   1   2
ATOM      2  N   UNL     1      -8.876 -38.223  -9.423  1.00  0.00    -0.350 N 
ATOM      3  H   UNL     1      -8.513 -37.729  -8.574  1.00  0.00     0.345 HD
ATOM      4  H   UNL     1      -9.880 -37.971  -9.571  1.00  0.00     0.345 HD
ATOM      5  H   UNL     1      -8.348 -37.888 -10.262  1.00  0.00     0.345 HD
ENDBRANCH   1   2
BRANCH   1   6
ATOM      6  C   UNL     1      -7.279 -40.057  -9.436  1.00  0.00     0.099 C 
ATOM      7  O   UNL     1      -6.521 -39.384 -10.183  1.00  0.00    -0.544 OA
ATOM      8  O   UNL     1      -6.768 -41.150  -8.746  1.00  0.00    -0.544 OA
ENDBRANCH   1   6
BRANCH   1   9
ATOM      9  C   UNL     1      -9.298 -40.191  -7.922  1.00  0.00     0.047 C 
ATOM     10  C   UNL     1     -10.578 -41.019  -8.127  1.00  0.00     0.014 C 
ATOM     11  C   UNL     1      -9.597 -39.034  -6.953  1.00  0.00     0.014 C 
ENDBRANCH   1   9
TORSDOF 3
ENDMDL
MODEL 2
REMARK VINA RESULT:    -4.042      1.208      1.394
REMARK INTER + INTRA:          -4.689
REMARK INTER:                  -4.629
REMARK INTRA:                  -0.060
REMARK UNBOUND:                -0.055
REMARK SMILES CC(C)[C@@H]([NH3+])C(=O)[O-]
REMARK SMILES IDX 4 1 5 2 6 6 7 7 8 8 2 9 1 10 3 11
REMARK H PARENT 5 3 5 4 5 5
REMARK Flexibility Score: inf
ROOT
ATOM      1  C   UNL     1      -8.981 -39.741  -8.522  1.00  0.00     0.230 C 
ENDROOT
BRANCH   1   2
ATOM      2  N   UNL     1      -8.921 -38.927  -7.300  1.00  0.00    -0.350 N 
ATOM      3  H   UNL     1      -7.933 -38.827  -6.968  1.00  0.00     0.345 HD
ATOM      4  H   UNL     1      -9.501 -39.361  -6.546  1.00  0.00     0.345 HD
ATOM      5  H   UNL     1      -9.316 -37.975  -7.481  1.00  0.00     0.345 HD
ENDBRANCH   1   2
BRANCH   1   6
ATOM      6  C   UNL     1      -7.602 -39.846  -9.125  1.00  0.00     0.099 C 
ATOM      7  O   UNL     1      -7.188 -38.967  -9.927  1.00  0.00    -0.544 OA
ATOM      8  O   UNL     1      -6.776 -40.913  -8.791  1.00  0.00    -0.544 OA
ENDBRANCH   1   6
BRANCH   1   9
ATOM      9  C   UNL     1      -9.577 -41.157  -8.250  1.00  0.00     0.047 C 
ATOM     10  C   UNL     1     -10.305 -41.703  -9.491  1.00  0.00     0.014 C 
ATOM     11  C   UNL     1     -10.550 -41.150  -7.059  1.00  0.00     0.014 C 
ENDBRANCH   1   9
TORSDOF 3
ENDMDL
MODEL 3
REMARK VINA RESULT:    -4.039      2.490      3.470
REMARK INTER + INTRA:          -4.685
REMARK INTER:                  -4.629
REMARK INTRA:                  -0.055
REMARK UNBOUND:                -0.055
REMARK SMILES CC(C)[C@@H]([NH3+])C(=O)[O-]
REMARK SMILES IDX 4 1 5 2 6 6 7 7 8 8 2 9 1 10 3 11
REMARK H PARENT 5 3 5 4 5 5
REMARK Flexibility Score: inf
ROOT
ATOM      1  C   UNL     1      -9.056 -39.905  -7.772  1.00  0.00     0.230 C 
ENDROOT
BRANCH   1   2
ATOM      2  N   UNL     1      -9.149 -38.640  -7.029  1.00  0.00    -0.350 N 
ATOM      3  H   UNL     1      -9.796 -37.973  -7.511  1.00  0.00     0.345 HD
ATOM      4  H   UNL     1      -8.203 -38.206  -6.935  1.00  0.00     0.345 HD
ATOM      5  H   UNL     1      -9.504 -38.817  -6.060  1.00  0.00     0.345 HD
ENDBRANCH   1   2
BRANCH   1   6
ATOM      6  C   UNL     1     -10.439 -40.476  -7.968  1.00  0.00     0.099 C 
ATOM      7  O   UNL     1     -11.342 -40.267  -7.115  1.00  0.00    -0.544 OA
ATOM      8  O   UNL     1     -10.726 -41.230  -9.100  1.00  0.00    -0.544 OA
ENDBRANCH   1   6
BRANCH   1   9
ATOM      9  C   UNL     1      -8.330 -39.725  -9.141  1.00  0.00     0.047 C 
ATOM     10  C   UNL     1      -6.958 -40.420  -9.139  1.00  0.00     0.014 C 
ATOM     11  C   UNL     1      -8.142 -38.241  -9.498  1.00  0.00     0.014 C 
ENDBRANCH   1   9
TORSDOF 3
ENDMDL
MODEL 4
REMARK VINA RESULT:    -3.971      2.477      2.930
REMARK INTER + INTRA:          -4.607
REMARK INTER:                  -4.538
REMARK INTRA:                  -0.069
REMARK UNBOUND:                -0.055
REMARK SMILES CC(C)[C@@H]([NH3+])C(=O)[O-]
REMARK SMILES IDX 4 1 5 2 6 6 7 7 8 8 2 9 1 10 3 11
REMARK H PARENT 5 3 5 4 5 5
REMARK Flexibility Score: inf
ROOT
ATOM      1  C   UNL     1      -8.065 -40.935  -9.107  1.00  0.00     0.230 C 
ENDROOT
BRANCH   1   2
ATOM      2  N   UNL     1      -6.727 -40.880  -8.501  1.00  0.00    -0.350 N 
ATOM      3  H   UNL     1      -5.984 -40.931  -9.238  1.00  0.00     0.345 HD
ATOM      4  H   UNL     1      -6.603 -41.666  -7.824  1.00  0.00     0.345 HD
ATOM      5  H   UNL     1      -6.611 -39.989  -7.964  1.00  0.00     0.345 HD
ENDBRANCH   1   2
BRANCH   1   6
ATOM      6  C   UNL     1      -8.846 -42.073  -8.498  1.00  0.00     0.099 C 
ATOM      7  O   UNL     1      -9.984 -42.376  -8.945  1.00  0.00    -0.544 OA
ATOM      8  O   UNL     1      -8.308 -42.799  -7.443  1.00  0.00    -0.544 OA
ENDBRANCH   1   6
BRANCH   1   9
ATOM      9  C   UNL     1      -8.833 -39.586  -8.946  1.00  0.00     0.047 C 
ATOM     10  C   UNL     1      -8.016 -38.410  -9.509  1.00  0.00     0.014 C 
ATOM     11  C   UNL     1      -9.182 -39.298  -7.476  1.00  0.00     0.014 C 
ENDBRANCH   1   9
TORSDOF 3
ENDMDL
MODEL 5
REMARK VINA RESULT:    -3.931      1.973      2.538
REMARK INTER + INTRA:          -4.561
REMARK INTER:                  -4.510
REMARK INTRA:                  -0.052
REMARK UNBOUND:                -0.055
REMARK SMILES CC(C)[C@@H]([NH3+])C(=O)[O-]
REMARK SMILES IDX 4 1 5 2 6 6 7 7 8 8 2 9 1 10 3 11
REMARK H PARENT 5 3 5 4 5 5
REMARK Flexibility Score: inf
ROOT
ATOM      1  C   UNL     1      -8.659 -41.111  -8.577  1.00  0.00     0.230 C 
ENDROOT
BRANCH   1   2
ATOM      2  N   UNL     1      -8.211 -42.426  -9.057  1.00  0.00    -0.350 N 
ATOM      3  H   UNL     1      -8.812 -42.757  -9.848  1.00  0.00     0.345 HD
ATOM      4  H   UNL     1      -8.239 -43.124  -8.280  1.00  0.00     0.345 HD
ATOM      5  H   UNL     1      -7.218 -42.370  -9.385  1.00  0.00     0.345 HD
ENDBRANCH   1   2
BRANCH   1   6
ATOM      6  C   UNL     1      -7.735 -40.041  -9.103  1.00  0.00     0.099 C 
ATOM      7  O   UNL     1      -6.560 -40.330  -9.455  1.00  0.00    -0.544 OA
ATOM      8  O   UNL     1      -8.179 -38.729  -9.210  1.00  0.00    -0.544 OA
ENDBRANCH   1   6
BRANCH   1   9
ATOM      9  C   UNL     1     -10.137 -40.816  -8.981  1.00  0.00     0.047 C 
ATOM     10  C   UNL     1     -11.056 -40.785  -7.748  1.00  0.00     0.014 C 
ATOM     11  C   UNL     1     -10.674 -41.852  -9.983  1.00  0.00     0.014 C 
ENDBRANCH   1   9
TORSDOF 3
ENDMDL
MODEL 6
REMARK VINA RESULT:    -3.911      2.846      3.688
REMARK INTER + INTRA:          -4.538
REMARK INTER:                  -4.486
REMARK INTRA:                  -0.052
REMARK UNBOUND:                -0.055
REMARK SMILES CC(C)[C@@H]([NH3+])C(=O)[O-]
REMARK SMILES IDX 4 1 5 2 6 6 7 7 8 8 2 9 1 10 3 11
REMARK H PARENT 5 3 5 4 5 5
REMARK Flexibility Score: inf
ROOT
ATOM      1  C   UNL     1      -9.244 -40.931  -9.137  1.00  0.00     0.230 C 
ENDROOT
BRANCH   1   2
ATOM      2  N   UNL     1      -8.842 -42.341  -9.244  1.00  0.00    -0.350 N 
ATOM      3  H   UNL     1      -9.670 -42.948  -9.452  1.00  0.00     0.345 HD
ATOM      4  H   UNL     1      -8.390 -42.657  -8.357  1.00  0.00     0.345 HD
ATOM      5  H   UNL     1      -8.136 -42.457 -10.008  1.00  0.00     0.345 HD
ENDBRANCH   1   2
BRANCH   1   6
ATOM      6  C   UNL     1     -10.347 -40.798  -8.116  1.00  0.00     0.099 C 
ATOM      7  O   UNL     1     -11.510 -41.204  -8.378  1.00  0.00    -0.544 OA
ATOM      8  O   UNL     1     -10.081 -40.232  -6.875  1.00  0.00    -0.544 OA
ENDBRANCH   1   6
BRANCH   1   9
ATOM      9  C   UNL     1      -8.039 -40.009  -8.776  1.00  0.00     0.047 C 
ATOM     10  C   UNL     1      -8.205 -38.608  -9.392  1.00  0.00     0.014 C 
ATOM     11  C   UNL     1      -6.700 -40.606  -9.241  1.00  0.00     0.014 C 
ENDBRANCH   1   9
TORSDOF 3
ENDMDL
MODEL 7
REMARK VINA RESULT:    -3.823      2.212      2.760
REMARK INTER + INTRA:          -4.437
REMARK INTER:                  -4.381
REMARK INTRA:                  -0.056
REMARK UNBOUND:                -0.055
REMARK SMILES CC(C)[C@@H]([NH3+])C(=O)[O-]
REMARK SMILES IDX 4 1 5 2 6 6 7 7 8 8 2 9 1 10 3 11
REMARK H PARENT 5 3 5 4 5 5
REMARK Flexibility Score: inf
ROOT
ATOM      1  C   UNL     1      -8.742 -40.755  -8.941  1.00  0.00     0.230 C 
ENDROOT
BRANCH   1   2
ATOM      2  N   UNL     1      -9.776 -40.914  -9.974  1.00  0.00    -0.350 N 
ATOM      3  H   UNL     1      -9.459 -41.578 -10.718  1.00  0.00     0.345 HD
ATOM      4  H   UNL     1     -10.004 -39.989 -10.404  1.00  0.00     0.345 HD
ATOM      5  H   UNL     1     -10.659 -41.280  -9.546  1.00  0.00     0.345 HD
ENDBRANCH   1   2
BRANCH   1   6
ATOM      6  C   UNL     1      -8.659 -39.305  -8.532  1.00  0.00     0.099 C 
ATOM      7  O   UNL     1      -8.984 -38.952  -7.367  1.00  0.00    -0.544 OA
ATOM      8  O   UNL     1      -8.214 -38.351  -9.439  1.00  0.00    -0.544 OA
ENDBRANCH   1   6
BRANCH   1   9
ATOM      9  C   UNL     1      -9.009 -41.667  -7.705  1.00  0.00     0.047 C 
ATOM     10  C   UNL     1      -8.055 -42.874  -7.686  1.00  0.00     0.014 C 
ATOM     11  C   UNL     1     -10.461 -42.173  -7.669  1.00  0.00     0.014 C 
ENDBRANCH   1   9
TORSDOF 3
ENDMDL
MODEL 8
REMARK VINA RESULT:    -3.782      1.991      2.605
REMARK INTER + INTRA:          -4.391
REMARK INTER:                  -4.330
REMARK INTRA:                  -0.061
REMARK UNBOUND:                -0.055
REMARK SMILES CC(C)[C@@H]([NH3+])C(=O)[O-]
REMARK SMILES IDX 4 1 5 2 6 6 7 7 8 8 2 9 1 10 3 11
REMARK H PARENT 5 3 5 4 5 5
REMARK Flexibility Score: inf
ROOT
ATOM      1  C   UNL     1      -9.215 -41.711  -9.311  1.00  0.00     0.230 C 
ENDROOT
BRANCH   1   2
ATOM      2  N   UNL     1      -9.273 -40.257  -9.522  1.00  0.00    -0.350 N 
ATOM      3  H   UNL     1      -8.368 -39.902  -9.912  1.00  0.00     0.345 HD
ATOM      4  H   UNL     1      -9.483 -39.769  -8.623  1.00  0.00     0.345 HD
ATOM      5  H   UNL     1     -10.045 -40.021 -10.188  1.00  0.00     0.345 HD
ENDBRANCH   1   2
BRANCH   1   6
ATOM      6  C   UNL     1      -7.928 -42.066  -8.608  1.00  0.00     0.099 C 
ATOM      7  O   UNL     1      -7.893 -43.020  -7.787  1.00  0.00    -0.544 OA
ATOM      8  O   UNL     1      -6.771 -41.343  -8.869  1.00  0.00    -0.544 OA
ENDBRANCH   1   6
BRANCH   1   9
ATOM      9  C   UNL     1     -10.448 -42.233  -8.511  1.00  0.00     0.047 C 
ATOM     10  C   UNL     1     -11.436 -42.972  -9.430  1.00  0.00     0.014 C 
ATOM     11  C   UNL     1     -11.188 -41.093  -7.791  1.00  0.00     0.014 C 
ENDBRANCH   1   9
TORSDOF 3
ENDMDL
MODEL 9
REMARK VINA RESULT:    -3.609      4.512      5.034
REMARK INTER + INTRA:          -4.192
REMARK INTER:                  -4.136
REMARK INTRA:                  -0.056
REMARK UNBOUND:                -0.055
REMARK SMILES CC(C)[C@@H]([NH3+])C(=O)[O-]
REMARK SMILES IDX 4 1 5 2 6 6 7 7 8 8 2 9 1 10 3 11
REMARK H PARENT 5 3 5 4 5 5
REMARK Flexibility Score: inf
ROOT
ATOM      1  C   UNL     1     -11.458 -42.015  -8.997  1.00  0.00     0.230 C 
ENDROOT
BRANCH   1   2
ATOM      2  N   UNL     1     -10.472 -42.754  -9.798  1.00  0.00    -0.350 N 
ATOM      3  H   UNL     1     -10.132 -42.171 -10.599  1.00  0.00     0.345 HD
ATOM      4  H   UNL     1     -10.891 -43.639 -10.162  1.00  0.00     0.345 HD
ATOM      5  H   UNL     1      -9.653 -43.024  -9.204  1.00  0.00     0.345 HD
ENDBRANCH   1   2
BRANCH   1   6
ATOM      6  C   UNL     1     -12.730 -42.820  -8.898  1.00  0.00     0.099 C 
ATOM      7  O   UNL     1     -13.444 -42.758  -7.862  1.00  0.00    -0.544 OA
ATOM      8  O   UNL     1     -13.125 -43.629  -9.956  1.00  0.00    -0.544 OA
ENDBRANCH   1   6
BRANCH   1   9
ATOM      9  C   UNL     1     -10.910 -41.665  -7.579  1.00  0.00     0.047 C 
ATOM     10  C   UNL     1     -11.027 -40.158  -7.293  1.00  0.00     0.014 C 
ATOM     11  C   UNL     1      -9.444 -42.096  -7.408  1.00  0.00     0.014 C 
ENDBRANCH   1   9
TORSDOF 3
ENDMDL
