MODEL 1
REMARK VINA RESULT:    -5.132      0.000      0.000
REMARK INTER + INTRA:         -11.603
REMARK INTER:                  -9.632
REMARK INTRA:                  -1.971
REMARK UNBOUND:                -1.971
REMARK SMILES CCCCCCCCCCCCCC=CC=CC(=O)OC
REMARK SMILES IDX 9 1 8 2 7 3 6 4 5 5 4 6 3 7 2 8 1 9 10 10 11 11 12 12 13 13
REMARK SMILES IDX 14 14 15 15 16 16 17 17 18 18 19 19 20 20 21 21
REMARK H PARENT
REMARK Flexibility Score: inf
ROOT
ATOM      1  C   UNL     1      99.292 -60.301 105.783  1.00  0.00     0.000 C 
ENDROOT
BRANCH   1   2
ATOM      2  C   UNL     1      97.843 -60.778 105.528  1.00  0.00     0.000 C 
BRANCH   2   3
ATOM      3  C   UNL     1      96.870 -59.634 105.194  1.00  0.00     0.000 C 
BRANCH   3   4
ATOM      4  C   UNL     1      95.459 -60.148 104.862  1.00  0.00    -0.000 C 
BRANCH   4   5
ATOM      5  C   UNL     1      94.574 -59.075 104.203  1.00  0.00    -0.000 C 
BRANCH   5   6
ATOM      6  C   UNL     1      93.868 -59.519 102.907  1.00  0.00    -0.000 C 
BRANCH   6   7
ATOM      7  C   UNL     1      92.405 -59.052 102.766  1.00  0.00    -0.000 C 
BRANCH   7   8
ATOM      8  C   UNL     1      91.980 -58.681 101.333  1.00  0.00    -0.003 C 
ATOM      9  C   UNL     1      92.047 -59.863 100.367  1.00  0.00     0.004 C 
ENDBRANCH   7   8
ENDBRANCH   6   7
ENDBRANCH   5   6
ENDBRANCH   4   5
ENDBRANCH   3   4
ENDBRANCH   2   3
ENDBRANCH   1   2
BRANCH   1  10
ATOM     10  C   UNL     1     100.230 -61.417 106.279  1.00  0.00     0.000 C 
BRANCH  10  11
ATOM     11  C   UNL     1      99.822 -62.840 105.851  1.00  0.00     0.000 C 
BRANCH  11  12
ATOM     12  C   UNL     1     100.333 -63.271 104.463  1.00  0.00     0.004 C 
BRANCH  12  13
ATOM     13  C   UNL     1      99.214 -63.345 103.412  1.00  0.00     0.027 C 
BRANCH  13  14
ATOM     14  C   UNL     1      98.052 -64.165 103.904  1.00  0.00    -0.027 C 
ATOM     15  C   UNL     1      96.774 -63.977 103.544  1.00  0.00    -0.004 C 
BRANCH  15  16
ATOM     16  C   UNL     1      96.336 -62.955 102.563  1.00  0.00     0.007 C 
ATOM     17  C   UNL     1      95.073 -62.795 102.138  1.00  0.00     0.093 C 
BRANCH  17  18
ATOM     18  C   UNL     1      93.878 -63.475 102.673  1.00  0.00     0.330 C 
ATOM     19  O   UNL     1      93.189 -62.958 103.596  1.00  0.00    -0.247 OA
BRANCH  18  20
ATOM     20  O   UNL     1      93.480 -64.680 102.090  1.00  0.00    -0.466 OA
ATOM     21  C   UNL     1      93.583 -64.926 100.692  1.00  0.00     0.282 C 
ENDBRANCH  18  20
ENDBRANCH  17  18
ENDBRANCH  15  16
ENDBRANCH  13  14
ENDBRANCH  12  13
ENDBRANCH  11  12
ENDBRANCH  10  11
ENDBRANCH   1  10
TORSDOF 15
ENDMDL
MODEL 2
REMARK VINA RESULT:    -5.122      2.333      3.432
REMARK INTER + INTRA:         -11.585
REMARK INTER:                  -8.962
REMARK INTRA:                  -2.623
REMARK UNBOUND:                -1.971
REMARK SMILES CCCCCCCCCCCCCC=CC=CC(=O)OC
REMARK SMILES IDX 9 1 8 2 7 3 6 4 5 5 4 6 3 7 2 8 1 9 10 10 11 11 12 12 13 13
REMARK SMILES IDX 14 14 15 15 16 16 17 17 18 18 19 19 20 20 21 21
REMARK H PARENT
REMARK Flexibility Score: inf
ROOT
ATOM      1  C   UNL     1      98.016 -59.987 105.504  1.00  0.00     0.000 C 
ENDROOT
BRANCH   1   2
ATOM      2  C   UNL     1      96.715 -59.214 105.187  1.00  0.00     0.000 C 
BRANCH   2   3
ATOM      3  C   UNL     1      95.493 -60.126 104.984  1.00  0.00     0.000 C 
BRANCH   3   4
ATOM      4  C   UNL     1      94.546 -59.596 103.893  1.00  0.00    -0.000 C 
BRANCH   4   5
ATOM      5  C   UNL     1      94.435 -60.548 102.689  1.00  0.00    -0.000 C 
BRANCH   5   6
ATOM      6  C   UNL     1      93.063 -61.234 102.527  1.00  0.00    -0.000 C 
BRANCH   6   7
ATOM      7  C   UNL     1      92.235 -60.763 101.315  1.00  0.00    -0.000 C 
BRANCH   7   8
ATOM      8  C   UNL     1      92.693 -59.430 100.697  1.00  0.00    -0.003 C 
ATOM      9  C   UNL     1      91.791 -58.257 101.078  1.00  0.00     0.004 C 
ENDBRANCH   7   8
ENDBRANCH   6   7
ENDBRANCH   5   6
ENDBRANCH   4   5
ENDBRANCH   3   4
ENDBRANCH   2   3
ENDBRANCH   1   2
BRANCH   1  10
ATOM     10  C   UNL     1      97.835 -61.517 105.527  1.00  0.00     0.000 C 
BRANCH  10  11
ATOM     11  C   UNL     1      98.992 -62.313 104.895  1.00  0.00     0.000 C 
BRANCH  11  12
ATOM     12  C   UNL     1      98.618 -63.107 103.629  1.00  0.00     0.004 C 
BRANCH  12  13
ATOM     13  C   UNL     1      97.220 -62.756 103.095  1.00  0.00     0.027 C 
BRANCH  13  14
ATOM     14  C   UNL     1      96.385 -63.992 102.892  1.00  0.00    -0.027 C 
ATOM     15  C   UNL     1      95.461 -64.442 103.753  1.00  0.00    -0.004 C 
BRANCH  15  16
ATOM     16  C   UNL     1      95.100 -63.747 105.012  1.00  0.00     0.007 C 
ATOM     17  C   UNL     1      95.478 -64.140 106.238  1.00  0.00     0.093 C 
BRANCH  17  18
ATOM     18  C   UNL     1      96.439 -65.215 106.554  1.00  0.00     0.330 C 
ATOM     19  O   UNL     1      96.087 -66.427 106.557  1.00  0.00    -0.247 OA
BRANCH  18  20
ATOM     20  O   UNL     1      97.772 -64.870 106.784  1.00  0.00    -0.466 OA
ATOM     21  C   UNL     1      98.246 -64.447 108.058  1.00  0.00     0.282 C 
ENDBRANCH  18  20
ENDBRANCH  17  18
ENDBRANCH  15  16
ENDBRANCH  13  14
ENDBRANCH  12  13
ENDBRANCH  11  12
ENDBRANCH  10  11
ENDBRANCH   1  10
TORSDOF 15
ENDMDL
MODEL 3
REMARK VINA RESULT:    -5.015      1.823      2.595
REMARK INTER + INTRA:         -11.384
REMARK INTER:                  -9.545
REMARK INTRA:                  -1.839
REMARK UNBOUND:                -1.971
REMARK SMILES CCCCCCCCCCCCCC=CC=CC(=O)OC
REMARK SMILES IDX 9 1 8 2 7 3 6 4 5 5 4 6 3 7 2 8 1 9 10 10 11 11 12 12 13 13
REMARK SMILES IDX 14 14 15 15 16 16 17 17 18 18 19 19 20 20 21 21
REMARK H PARENT
REMARK Flexibility Score: inf
ROOT
ATOM      1  C   UNL     1      99.109 -61.716 106.521  1.00  0.00     0.000 C 
ENDROOT
BRANCH   1   2
ATOM      2  C   UNL     1      98.709 -60.372 105.869  1.00  0.00     0.000 C 
BRANCH   2   3
ATOM      3  C   UNL     1      97.286 -60.373 105.285  1.00  0.00     0.000 C 
BRANCH   3   4
ATOM      4  C   UNL     1      96.728 -58.950 105.108  1.00  0.00    -0.000 C 
BRANCH   4   5
ATOM      5  C   UNL     1      95.253 -58.939 104.672  1.00  0.00    -0.000 C 
BRANCH   5   6
ATOM      6  C   UNL     1      94.772 -60.225 103.970  1.00  0.00    -0.000 C 
BRANCH   6   7
ATOM      7  C   UNL     1      94.024 -60.004 102.640  1.00  0.00    -0.000 C 
BRANCH   7   8
ATOM      8  C   UNL     1      92.591 -59.461 102.787  1.00  0.00    -0.003 C 
ATOM      9  C   UNL     1      92.158 -58.598 101.602  1.00  0.00     0.004 C 
ENDBRANCH   7   8
ENDBRANCH   6   7
ENDBRANCH   5   6
ENDBRANCH   4   5
ENDBRANCH   3   4
ENDBRANCH   2   3
ENDBRANCH   1   2
BRANCH   1  10
ATOM     10  C   UNL     1      98.358 -62.930 105.942  1.00  0.00     0.000 C 
BRANCH  10  11
ATOM     11  C   UNL     1      97.789 -63.899 106.996  1.00  0.00     0.000 C 
BRANCH  11  12
ATOM     12  C   UNL     1      96.289 -64.216 106.844  1.00  0.00     0.004 C 
BRANCH  12  13
ATOM     13  C   UNL     1      95.615 -63.393 105.735  1.00  0.00     0.027 C 
BRANCH  13  14
ATOM     14  C   UNL     1      95.449 -64.202 104.476  1.00  0.00    -0.027 C 
ATOM     15  C   UNL     1      94.334 -64.239 103.731  1.00  0.00    -0.004 C 
BRANCH  15  16
ATOM     16  C   UNL     1      93.120 -63.441 104.024  1.00  0.00     0.007 C 
ATOM     17  C   UNL     1      92.103 -63.254 103.169  1.00  0.00     0.093 C 
BRANCH  17  18
ATOM     18  C   UNL     1      91.922 -63.924 101.866  1.00  0.00     0.330 C 
ATOM     19  O   UNL     1      92.102 -63.306 100.781  1.00  0.00    -0.247 OA
BRANCH  18  20
ATOM     20  O   UNL     1      91.611 -65.286 101.856  1.00  0.00    -0.466 OA
ATOM     21  C   UNL     1      90.296 -65.774 102.096  1.00  0.00     0.282 C 
ENDBRANCH  18  20
ENDBRANCH  17  18
ENDBRANCH  15  16
ENDBRANCH  13  14
ENDBRANCH  12  13
ENDBRANCH  11  12
ENDBRANCH  10  11
ENDBRANCH   1  10
TORSDOF 15
ENDMDL
MODEL 4
REMARK VINA RESULT:    -4.966      2.108      5.096
REMARK INTER + INTRA:         -11.293
REMARK INTER:                  -8.727
REMARK INTRA:                  -2.566
REMARK UNBOUND:                -1.971
REMARK SMILES CCCCCCCCCCCCCC=CC=CC(=O)OC
REMARK SMILES IDX 9 1 8 2 7 3 6 4 5 5 4 6 3 7 2 8 1 9 10 10 11 11 12 12 13 13
REMARK SMILES IDX 14 14 15 15 16 16 17 17 18 18 19 19 20 20 21 21
REMARK H PARENT
REMARK Flexibility Score: inf
ROOT
ATOM      1  C   UNL     1      96.831 -59.277 105.329  1.00  0.00     0.000 C 
ENDROOT
BRANCH   1   2
ATOM      2  C   UNL     1      98.106 -60.127 105.534  1.00  0.00     0.000 C 
BRANCH   2   3
ATOM      3  C   UNL     1      97.912 -61.615 105.196  1.00  0.00     0.000 C 
BRANCH   3   4
ATOM      4  C   UNL     1      98.448 -62.538 106.304  1.00  0.00    -0.000 C 
BRANCH   4   5
ATOM      5  C   UNL     1      97.471 -63.674 106.656  1.00  0.00    -0.000 C 
BRANCH   5   6
ATOM      6  C   UNL     1      96.195 -63.726 105.792  1.00  0.00    -0.000 C 
BRANCH   6   7
ATOM      7  C   UNL     1      95.711 -65.143 105.426  1.00  0.00    -0.000 C 
BRANCH   7   8
ATOM      8  C   UNL     1      96.270 -65.696 104.103  1.00  0.00    -0.003 C 
ATOM      9  C   UNL     1      96.767 -64.600 103.162  1.00  0.00     0.004 C 
ENDBRANCH   7   8
ENDBRANCH   6   7
ENDBRANCH   5   6
ENDBRANCH   4   5
ENDBRANCH   3   4
ENDBRANCH   2   3
ENDBRANCH   1   2
BRANCH   1  10
ATOM     10  C   UNL     1      95.593 -60.105 104.939  1.00  0.00     0.000 C 
BRANCH  10  11
ATOM     11  C   UNL     1      94.577 -59.367 104.047  1.00  0.00     0.000 C 
BRANCH  11  12
ATOM     12  C   UNL     1      94.126 -60.146 102.797  1.00  0.00     0.004 C 
BRANCH  12  13
ATOM     13  C   UNL     1      94.839 -61.499 102.646  1.00  0.00     0.027 C 
BRANCH  13  14
ATOM     14  C   UNL     1      94.011 -62.469 101.846  1.00  0.00    -0.027 C 
ATOM     15  C   UNL     1      93.194 -63.394 102.372  1.00  0.00    -0.004 C 
BRANCH  15  16
ATOM     16  C   UNL     1      92.956 -63.552 103.826  1.00  0.00     0.007 C 
ATOM     17  C   UNL     1      92.115 -64.445 104.371  1.00  0.00     0.093 C 
BRANCH  17  18
ATOM     18  C   UNL     1      91.407 -65.527 103.658  1.00  0.00     0.330 C 
ATOM     19  O   UNL     1      90.212 -65.387 103.277  1.00  0.00    -0.247 OA
BRANCH  18  20
ATOM     20  O   UNL     1      92.111 -66.693 103.350  1.00  0.00    -0.466 OA
ATOM     21  C   UNL     1      91.654 -67.987 103.727  1.00  0.00     0.282 C 
ENDBRANCH  18  20
ENDBRANCH  17  18
ENDBRANCH  15  16
ENDBRANCH  13  14
ENDBRANCH  12  13
ENDBRANCH  11  12
ENDBRANCH  10  11
ENDBRANCH   1  10
TORSDOF 15
ENDMDL
MODEL 5
REMARK VINA RESULT:    -4.935      1.237      5.056
REMARK INTER + INTRA:         -11.233
REMARK INTER:                  -9.063
REMARK INTRA:                  -2.171
REMARK UNBOUND:                -1.971
REMARK SMILES CCCCCCCCCCCCCC=CC=CC(=O)OC
REMARK SMILES IDX 9 1 8 2 7 3 6 4 5 5 4 6 3 7 2 8 1 9 10 10 11 11 12 12 13 13
REMARK SMILES IDX 14 14 15 15 16 16 17 17 18 18 19 19 20 20 21 21
REMARK H PARENT
REMARK Flexibility Score: inf
ROOT
ATOM      1  C   UNL     1      97.650 -60.603 105.487  1.00  0.00     0.000 C 
ENDROOT
BRANCH   1   2
ATOM      2  C   UNL     1      99.105 -60.187 105.805  1.00  0.00     0.000 C 
BRANCH   2   3
ATOM      3  C   UNL     1      99.852 -61.197 106.693  1.00  0.00     0.000 C 
BRANCH   3   4
ATOM      4  C   UNL     1     100.040 -62.556 105.996  1.00  0.00    -0.000 C 
BRANCH   4   5
ATOM      5  C   UNL     1     100.694 -62.429 104.609  1.00  0.00    -0.000 C 
BRANCH   5   6
ATOM      6  C   UNL     1      99.828 -62.925 103.434  1.00  0.00    -0.000 C 
BRANCH   6   7
ATOM      7  C   UNL     1      98.629 -63.808 103.832  1.00  0.00    -0.000 C 
BRANCH   7   8
ATOM      8  C   UNL     1      97.280 -63.379 103.226  1.00  0.00    -0.003 C 
ATOM      9  C   UNL     1      96.105 -63.587 104.180  1.00  0.00     0.004 C 
ENDBRANCH   7   8
ENDBRANCH   6   7
ENDBRANCH   5   6
ENDBRANCH   4   5
ENDBRANCH   3   4
ENDBRANCH   2   3
ENDBRANCH   1   2
BRANCH   1  10
ATOM     10  C   UNL     1      96.710 -59.410 105.231  1.00  0.00     0.000 C 
BRANCH  10  11
ATOM     11  C   UNL     1      95.230 -59.787 105.024  1.00  0.00     0.000 C 
BRANCH  11  12
ATOM     12  C   UNL     1      94.417 -58.788 104.180  1.00  0.00     0.004 C 
BRANCH  12  13
ATOM     13  C   UNL     1      93.603 -59.470 103.069  1.00  0.00     0.027 C 
BRANCH  13  14
ATOM     14  C   UNL     1      94.353 -60.632 102.474  1.00  0.00    -0.027 C 
ATOM     15  C   UNL     1      93.782 -61.754 102.009  1.00  0.00    -0.004 C 
BRANCH  15  16
ATOM     16  C   UNL     1      92.318 -61.979 101.972  1.00  0.00     0.007 C 
ATOM     17  C   UNL     1      91.705 -63.098 102.389  1.00  0.00     0.093 C 
BRANCH  17  18
ATOM     18  C   UNL     1      92.337 -64.227 103.101  1.00  0.00     0.330 C 
ATOM     19  O   UNL     1      92.494 -64.205 104.353  1.00  0.00    -0.247 OA
BRANCH  18  20
ATOM     20  O   UNL     1      92.701 -65.358 102.366  1.00  0.00    -0.466 OA
ATOM     21  C   UNL     1      94.034 -65.590 101.926  1.00  0.00     0.282 C 
ENDBRANCH  18  20
ENDBRANCH  17  18
ENDBRANCH  15  16
ENDBRANCH  13  14
ENDBRANCH  12  13
ENDBRANCH  11  12
ENDBRANCH  10  11
ENDBRANCH   1  10
TORSDOF 15
ENDMDL
MODEL 6
REMARK VINA RESULT:    -4.921      1.647      5.087
REMARK INTER + INTRA:         -11.207
REMARK INTER:                  -8.927
REMARK INTRA:                  -2.280
REMARK UNBOUND:                -1.971
REMARK SMILES CCCCCCCCCCCCCC=CC=CC(=O)OC
REMARK SMILES IDX 9 1 8 2 7 3 6 4 5 5 4 6 3 7 2 8 1 9 10 10 11 11 12 12 13 13
REMARK SMILES IDX 14 14 15 15 16 16 17 17 18 18 19 19 20 20 21 21
REMARK H PARENT
REMARK Flexibility Score: inf
ROOT
ATOM      1  C   UNL     1      97.636 -60.760 105.135  1.00  0.00     0.000 C 
ENDROOT
BRANCH   1   2
ATOM      2  C   UNL     1      98.954 -60.489 105.896  1.00  0.00     0.000 C 
BRANCH   2   3
ATOM      3  C   UNL     1      99.535 -61.738 106.580  1.00  0.00     0.000 C 
BRANCH   3   4
ATOM      4  C   UNL     1      99.202 -63.030 105.813  1.00  0.00    -0.000 C 
BRANCH   4   5
ATOM      5  C   UNL     1      98.516 -64.087 106.698  1.00  0.00    -0.000 C 
BRANCH   5   6
ATOM      6  C   UNL     1      97.017 -63.840 106.962  1.00  0.00    -0.000 C 
BRANCH   6   7
ATOM      7  C   UNL     1      96.055 -64.585 106.015  1.00  0.00    -0.000 C 
BRANCH   7   8
ATOM      8  C   UNL     1      95.216 -63.675 105.099  1.00  0.00    -0.003 C 
ATOM      9  C   UNL     1      95.800 -63.545 103.692  1.00  0.00     0.004 C 
ENDBRANCH   7   8
ENDBRANCH   6   7
ENDBRANCH   5   6
ENDBRANCH   4   5
ENDBRANCH   3   4
ENDBRANCH   2   3
ENDBRANCH   1   2
BRANCH   1  10
ATOM     10  C   UNL     1      96.612 -59.615 105.249  1.00  0.00     0.000 C 
BRANCH  10  11
ATOM     11  C   UNL     1      95.203 -59.955 104.728  1.00  0.00     0.000 C 
BRANCH  11  12
ATOM     12  C   UNL     1      94.444 -58.777 104.090  1.00  0.00     0.004 C 
BRANCH  12  13
ATOM     13  C   UNL     1      93.215 -59.225 103.283  1.00  0.00     0.027 C 
BRANCH  13  14
ATOM     14  C   UNL     1      93.614 -60.073 102.105  1.00  0.00    -0.027 C 
ATOM     15  C   UNL     1      93.292 -61.366 101.949  1.00  0.00    -0.004 C 
BRANCH  15  16
ATOM     16  C   UNL     1      92.450 -62.127 102.902  1.00  0.00     0.007 C 
ATOM     17  C   UNL     1      91.990 -63.371 102.694  1.00  0.00     0.093 C 
BRANCH  17  18
ATOM     18  C   UNL     1      92.362 -64.264 101.579  1.00  0.00     0.330 C 
ATOM     19  O   UNL     1      93.173 -65.217 101.747  1.00  0.00    -0.247 OA
BRANCH  18  20
ATOM     20  O   UNL     1      91.745 -64.076 100.341  1.00  0.00    -0.466 OA
ATOM     21  C   UNL     1      92.038 -64.885  99.208  1.00  0.00     0.282 C 
ENDBRANCH  18  20
ENDBRANCH  17  18
ENDBRANCH  15  16
ENDBRANCH  13  14
ENDBRANCH  12  13
ENDBRANCH  11  12
ENDBRANCH  10  11
ENDBRANCH   1  10
TORSDOF 15
ENDMDL
MODEL 7
REMARK VINA RESULT:    -4.898      1.709      4.801
REMARK INTER + INTRA:         -11.164
REMARK INTER:                  -8.538
REMARK INTRA:                  -2.627
REMARK UNBOUND:                -1.971
REMARK SMILES CCCCCCCCCCCCCC=CC=CC(=O)OC
REMARK SMILES IDX 9 1 8 2 7 3 6 4 5 5 4 6 3 7 2 8 1 9 10 10 11 11 12 12 13 13
REMARK SMILES IDX 14 14 15 15 16 16 17 17 18 18 19 19 20 20 21 21
REMARK H PARENT
REMARK Flexibility Score: inf
ROOT
ATOM      1  C   UNL     1      98.137 -60.125 105.518  1.00  0.00     0.000 C 
ENDROOT
BRANCH   1   2
ATOM      2  C   UNL     1      97.853 -61.641 105.625  1.00  0.00     0.000 C 
BRANCH   2   3
ATOM      3  C   UNL     1      99.054 -62.520 105.236  1.00  0.00     0.000 C 
BRANCH   3   4
ATOM      4  C   UNL     1      98.749 -63.422 104.028  1.00  0.00    -0.000 C 
BRANCH   4   5
ATOM      5  C   UNL     1      97.644 -62.849 103.122  1.00  0.00    -0.000 C 
BRANCH   5   6
ATOM      6  C   UNL     1      96.416 -63.763 102.938  1.00  0.00    -0.000 C 
BRANCH   6   7
ATOM      7  C   UNL     1      96.396 -65.020 103.831  1.00  0.00    -0.000 C 
BRANCH   7   8
ATOM      8  C   UNL     1      95.429 -64.948 105.027  1.00  0.00    -0.003 C 
ATOM      9  C   UNL     1      94.759 -63.582 105.171  1.00  0.00     0.004 C 
ENDBRANCH   7   8
ENDBRANCH   6   7
ENDBRANCH   5   6
ENDBRANCH   4   5
ENDBRANCH   3   4
ENDBRANCH   2   3
ENDBRANCH   1   2
BRANCH   1  10
ATOM     10  C   UNL     1      96.885 -59.284 105.206  1.00  0.00     0.000 C 
BRANCH  10  11
ATOM     11  C   UNL     1      95.586 -60.096 105.040  1.00  0.00     0.000 C 
BRANCH  11  12
ATOM     12  C   UNL     1      94.629 -59.574 103.953  1.00  0.00     0.004 C 
BRANCH  12  13
ATOM     13  C   UNL     1      94.413 -60.583 102.813  1.00  0.00     0.027 C 
BRANCH  13  14
ATOM     14  C   UNL     1      92.963 -60.658 102.415  1.00  0.00    -0.027 C 
ATOM     15  C   UNL     1      92.396 -61.694 101.779  1.00  0.00    -0.004 C 
BRANCH  15  16
ATOM     16  C   UNL     1      93.120 -62.938 101.423  1.00  0.00     0.007 C 
ATOM     17  C   UNL     1      92.855 -64.150 101.935  1.00  0.00     0.093 C 
BRANCH  17  18
ATOM     18  C   UNL     1      91.714 -64.502 102.803  1.00  0.00     0.330 C 
ATOM     19  O   UNL     1      91.642 -64.083 103.991  1.00  0.00    -0.247 OA
BRANCH  18  20
ATOM     20  O   UNL     1      90.672 -65.257 102.260  1.00  0.00    -0.466 OA
ATOM     21  C   UNL     1      90.341 -65.224 100.877  1.00  0.00     0.282 C 
ENDBRANCH  18  20
ENDBRANCH  17  18
ENDBRANCH  15  16
ENDBRANCH  13  14
ENDBRANCH  12  13
ENDBRANCH  11  12
ENDBRANCH  10  11
ENDBRANCH   1  10
TORSDOF 15
ENDMDL
MODEL 8
REMARK VINA RESULT:    -4.894      1.817      2.202
REMARK INTER + INTRA:         -11.157
REMARK INTER:                  -9.129
REMARK INTRA:                  -2.028
REMARK UNBOUND:                -1.971
REMARK SMILES CCCCCCCCCCCCCC=CC=CC(=O)OC
REMARK SMILES IDX 9 1 8 2 7 3 6 4 5 5 4 6 3 7 2 8 1 9 10 10 11 11 12 12 13 13
REMARK SMILES IDX 14 14 15 15 16 16 17 17 18 18 19 19 20 20 21 21
REMARK H PARENT
REMARK Flexibility Score: inf
ROOT
ATOM      1  C   UNL     1      97.753 -61.162 105.131  1.00  0.00     0.000 C 
ENDROOT
BRANCH   1   2
ATOM      2  C   UNL     1      97.783 -59.666 105.520  1.00  0.00     0.000 C 
BRANCH   2   3
ATOM      3  C   UNL     1      96.498 -58.908 105.145  1.00  0.00     0.000 C 
BRANCH   3   4
ATOM      4  C   UNL     1      95.316 -59.859 104.884  1.00  0.00    -0.000 C 
BRANCH   4   5
ATOM      5  C   UNL     1      94.387 -59.360 103.764  1.00  0.00    -0.000 C 
BRANCH   5   6
ATOM      6  C   UNL     1      94.252 -60.311 102.558  1.00  0.00    -0.000 C 
BRANCH   6   7
ATOM      7  C   UNL     1      92.813 -60.508 102.038  1.00  0.00    -0.000 C 
BRANCH   7   8
ATOM      8  C   UNL     1      92.459 -59.681 100.789  1.00  0.00    -0.003 C 
ATOM      9  C   UNL     1      91.935 -58.286 101.128  1.00  0.00     0.004 C 
ENDBRANCH   7   8
ENDBRANCH   6   7
ENDBRANCH   5   6
ENDBRANCH   4   5
ENDBRANCH   3   4
ENDBRANCH   2   3
ENDBRANCH   1   2
BRANCH   1  10
ATOM     10  C   UNL     1      98.854 -61.998 105.811  1.00  0.00     0.000 C 
BRANCH  10  11
ATOM     11  C   UNL     1      98.337 -63.141 106.704  1.00  0.00     0.000 C 
BRANCH  11  12
ATOM     12  C   UNL     1      98.384 -64.540 106.060  1.00  0.00     0.004 C 
BRANCH  12  13
ATOM     13  C   UNL     1      96.988 -65.092 105.731  1.00  0.00     0.027 C 
BRANCH  13  14
ATOM     14  C   UNL     1      95.903 -64.178 106.236  1.00  0.00    -0.027 C 
ATOM     15  C   UNL     1      95.082 -63.460 105.455  1.00  0.00    -0.004 C 
BRANCH  15  16
ATOM     16  C   UNL     1      95.101 -63.510 103.974  1.00  0.00     0.007 C 
ATOM     17  C   UNL     1      94.333 -64.318 103.226  1.00  0.00     0.093 C 
BRANCH  17  18
ATOM     18  C   UNL     1      93.231 -65.171 103.712  1.00  0.00     0.330 C 
ATOM     19  O   UNL     1      93.439 -66.357 104.090  1.00  0.00    -0.247 OA
BRANCH  18  20
ATOM     20  O   UNL     1      91.953 -64.617 103.810  1.00  0.00    -0.466 OA
ATOM     21  C   UNL     1      90.796 -65.260 103.288  1.00  0.00     0.282 C 
ENDBRANCH  18  20
ENDBRANCH  17  18
ENDBRANCH  15  16
ENDBRANCH  13  14
ENDBRANCH  12  13
ENDBRANCH  11  12
ENDBRANCH  10  11
ENDBRANCH   1  10
TORSDOF 15
ENDMDL
MODEL 9
REMARK VINA RESULT:    -4.845      2.254      5.444
REMARK INTER + INTRA:         -11.064
REMARK INTER:                  -8.980
REMARK INTRA:                  -2.084
REMARK UNBOUND:                -1.971
REMARK SMILES CCCCCCCCCCCCCC=CC=CC(=O)OC
REMARK SMILES IDX 9 1 8 2 7 3 6 4 5 5 4 6 3 7 2 8 1 9 10 10 11 11 12 12 13 13
REMARK SMILES IDX 14 14 15 15 16 16 17 17 18 18 19 19 20 20 21 21
REMARK H PARENT
REMARK Flexibility Score: inf
ROOT
ATOM      1  C   UNL     1      94.234 -59.002 104.040  1.00  0.00     0.000 C 
ENDROOT
BRANCH   1   2
ATOM      2  C   UNL     1      95.334 -59.816 104.759  1.00  0.00     0.000 C 
BRANCH   2   3
ATOM      3  C   UNL     1      96.571 -58.981 105.131  1.00  0.00     0.000 C 
BRANCH   3   4
ATOM      4  C   UNL     1      97.776 -59.861 105.508  1.00  0.00    -0.000 C 
BRANCH   4   5
ATOM      5  C   UNL     1      97.518 -61.359 105.263  1.00  0.00    -0.000 C 
BRANCH   5   6
ATOM      6  C   UNL     1      98.761 -62.262 105.391  1.00  0.00    -0.000 C 
BRANCH   6   7
ATOM      7  C   UNL     1      98.469 -63.727 105.773  1.00  0.00    -0.000 C 
BRANCH   7   8
ATOM      8  C   UNL     1      97.920 -63.927 107.197  1.00  0.00    -0.003 C 
ATOM      9  C   UNL     1      96.441 -64.312 107.216  1.00  0.00     0.004 C 
ENDBRANCH   7   8
ENDBRANCH   6   7
ENDBRANCH   5   6
ENDBRANCH   4   5
ENDBRANCH   3   4
ENDBRANCH   2   3
ENDBRANCH   1   2
BRANCH   1  10
ATOM     10  C   UNL     1      93.678 -59.694 102.782  1.00  0.00     0.000 C 
BRANCH  10  11
ATOM     11  C   UNL     1      93.640 -61.233 102.855  1.00  0.00     0.000 C 
BRANCH  11  12
ATOM     12  C   UNL     1      94.802 -61.945 102.136  1.00  0.00     0.004 C 
BRANCH  12  13
ATOM     13  C   UNL     1      95.324 -63.165 102.910  1.00  0.00     0.027 C 
BRANCH  13  14
ATOM     14  C   UNL     1      94.546 -63.382 104.180  1.00  0.00    -0.027 C 
ATOM     15  C   UNL     1      93.739 -64.428 104.415  1.00  0.00    -0.004 C 
BRANCH  15  16
ATOM     16  C   UNL     1      93.543 -65.547 103.463  1.00  0.00     0.007 C 
ATOM     17  C   UNL     1      92.396 -65.807 102.814  1.00  0.00     0.093 C 
BRANCH  17  18
ATOM     18  C   UNL     1      91.191 -64.955 102.794  1.00  0.00     0.330 C 
ATOM     19  O   UNL     1      91.154 -63.889 102.119  1.00  0.00    -0.247 OA
BRANCH  18  20
ATOM     20  O   UNL     1      90.059 -65.387 103.488  1.00  0.00    -0.466 OA
ATOM     21  C   UNL     1      89.911 -66.722 103.960  1.00  0.00     0.282 C 
ENDBRANCH  18  20
ENDBRANCH  17  18
ENDBRANCH  15  16
ENDBRANCH  13  14
ENDBRANCH  12  13
ENDBRANCH  11  12
ENDBRANCH  10  11
ENDBRANCH   1  10
TORSDOF 15
ENDMDL
