MODEL 1
REMARK VINA RESULT:    -4.897      0.000      0.000
REMARK INTER + INTRA:          -5.375
REMARK INTER:                  -6.757
REMARK INTRA:                   1.382
REMARK UNBOUND:                 1.382
REMARK SMILES O=C([O-])[C@@H]1O[C@H](Oc2cc3oc(-c4ccccc4)cc(=O)c3c(O)c2O)[C@@H](O)[C@H](O)[C@H]1O
REMARK SMILES IDX 7 1 6 2 4 3 31 4 5 5 29 6 27 7 2 8 1 9 3 10 32 11 30 13
REMARK SMILES IDX 28 15 8 17 25 18 9 19 23 20 10 21 22 22 11 23 20 24 12 25
REMARK SMILES IDX 19 26 21 27 26 28 24 30 13 32 14 33 18 34 15 35 17 36 16 37
REMARK H PARENT 32 12 30 14 28 16 26 29 24 31
REMARK Flexibility Score: inf
ROOT
ATOM      1  O   UNL     1     -12.695   5.758   5.739  1.00  0.00    -0.458 OA
ENDROOT
BRANCH   1   2
ATOM      2  C   UNL     1     -13.185   4.876   6.757  1.00  0.00     0.339 C 
ATOM      3  C   UNL     1     -11.390   3.312   6.596  1.00  0.00     0.199 C 
ATOM      4  C   UNL     1     -10.806   3.743   7.969  1.00  0.00     0.180 C 
ATOM      5  O   UNL     1     -12.793   3.534   6.496  1.00  0.00    -0.328 OA
ATOM      6  C   UNL     1     -11.237   5.168   8.347  1.00  0.00     0.181 C 
ATOM      7  C   UNL     1     -12.755   5.338   8.163  1.00  0.00     0.214 C 
BRANCH   3   8
ATOM      8  C   UNL     1     -10.645   3.848   5.396  1.00  0.00     0.073 C 
ATOM      9  O   UNL     1     -11.006   3.507   4.239  1.00  0.00    -0.547 OA
ATOM     10  O   UNL     1      -9.512   4.638   5.547  1.00  0.00    -0.547 OA
ENDBRANCH   3   8
BRANCH   4  11
ATOM     11  O   UNL     1     -11.247   2.854   8.966  1.00  0.00    -0.387 OA
ATOM     12  H   UNL     1     -11.188   3.337   9.832  1.00  0.00     0.211 HD
ENDBRANCH   4  11
BRANCH   6  13
ATOM     13  O   UNL     1     -10.539   6.099   7.558  1.00  0.00    -0.387 OA
ATOM     14  H   UNL     1     -11.064   6.942   7.573  1.00  0.00     0.211 HD
ENDBRANCH   6  13
BRANCH   7  15
ATOM     15  O   UNL     1     -13.453   4.589   9.125  1.00  0.00    -0.384 OA
ATOM     16  H   UNL     1     -13.888   3.837   8.645  1.00  0.00     0.211 HD
ENDBRANCH   7  15
ENDBRANCH   1   2
BRANCH   1  17
ATOM     17  C   UNL     1     -12.383   7.122   5.904  1.00  0.00     0.172 A 
ATOM     18  C   UNL     1     -13.437   8.042   6.055  1.00  0.00     0.201 A 
ATOM     19  C   UNL     1     -11.056   7.588   5.930  1.00  0.00     0.098 A 
ATOM     20  C   UNL     1     -13.170   9.414   6.229  1.00  0.00     0.176 A 
ATOM     21  C   UNL     1     -10.781   8.945   6.101  1.00  0.00     0.146 A 
ATOM     22  C   UNL     1     -11.834   9.874   6.252  1.00  0.00     0.111 A 
ATOM     23  O   UNL     1      -9.514   9.350   6.119  1.00  0.00    -0.456 OA
ATOM     24  C   UNL     1     -11.487  11.232   6.415  1.00  0.00     0.197 A 
ATOM     25  C   UNL     1      -9.153  10.620   6.280  1.00  0.00     0.138 A 
ATOM     26  C   UNL     1     -10.142  11.605   6.427  1.00  0.00     0.100 A 
ATOM     27  O   UNL     1     -12.369  12.124   6.546  1.00  0.00    -0.289 OA
BRANCH  18  28
ATOM     28  O   UNL     1     -14.764   7.609   6.030  1.00  0.00    -0.502 OA
ATOM     29  H   UNL     1     -15.359   7.634   6.847  1.00  0.00     0.293 HD
ENDBRANCH  18  28
BRANCH  20  30
ATOM     30  O   UNL     1     -14.228  10.315   6.377  1.00  0.00    -0.504 OA
ATOM     31  H   UNL     1     -14.083  11.301   6.555  1.00  0.00     0.293 HD
ENDBRANCH  20  30
BRANCH  25  32
ATOM     32  C   UNL     1      -7.707  10.957   6.282  1.00  0.00     0.017 A 
ATOM     33  C   UNL     1      -7.151  11.833   7.235  1.00  0.00     0.012 A 
ATOM     34  C   UNL     1      -6.857  10.365   5.329  1.00  0.00     0.012 A 
ATOM     35  C   UNL     1      -5.783  12.123   7.217  1.00  0.00     0.001 A 
ATOM     36  C   UNL     1      -5.490  10.659   5.315  1.00  0.00     0.001 A 
ATOM     37  C   UNL     1      -4.954  11.540   6.257  1.00  0.00     0.000 A 
ENDBRANCH  25  32
ENDBRANCH   1  17
TORSDOF 9
ENDMDL
MODEL 2
REMARK VINA RESULT:    -4.079      1.132      2.351
REMARK INTER + INTRA:          -4.247
REMARK INTER:                  -3.737
REMARK INTRA:                  -0.510
REMARK UNBOUND:                 1.382
REMARK SMILES O=C([O-])[C@@H]1O[C@H](Oc2cc3oc(-c4ccccc4)cc(=O)c3c(O)c2O)[C@@H](O)[C@H](O)[C@H]1O
REMARK SMILES IDX 7 1 6 2 4 3 31 4 5 5 29 6 27 7 2 8 1 9 3 10 32 11 30 13
REMARK SMILES IDX 28 15 8 17 25 18 9 19 23 20 10 21 22 22 11 23 20 24 12 25
REMARK SMILES IDX 19 26 21 27 26 28 24 30 13 32 14 33 18 34 15 35 17 36 16 37
REMARK H PARENT 32 12 30 14 28 16 26 29 24 31
REMARK Flexibility Score: inf
ROOT
ATOM      1  O   UNL     1     -12.128   5.804   6.176  1.00  0.00    -0.458 OA
ENDROOT
BRANCH   1   2
ATOM      2  C   UNL     1     -11.189   4.750   6.423  1.00  0.00     0.339 C 
ATOM      3  C   UNL     1     -11.388   4.812   8.800  1.00  0.00     0.199 C 
ATOM      4  C   UNL     1     -12.142   3.455   8.838  1.00  0.00     0.180 C 
ATOM      5  O   UNL     1     -10.531   4.939   7.670  1.00  0.00    -0.328 OA
ATOM      6  C   UNL     1     -12.834   3.153   7.499  1.00  0.00     0.181 C 
ATOM      7  C   UNL     1     -11.856   3.363   6.329  1.00  0.00     0.214 C 
BRANCH   3   8
ATOM      8  C   UNL     1     -12.264   6.028   8.986  1.00  0.00     0.073 C 
ATOM      9  O   UNL     1     -11.733   7.164   9.103  1.00  0.00    -0.547 OA
ATOM     10  O   UNL     1     -13.642   5.908   9.122  1.00  0.00    -0.547 OA
ENDBRANCH   3   8
BRANCH   4  11
ATOM     11  O   UNL     1     -11.234   2.420   9.125  1.00  0.00    -0.387 OA
ATOM     12  H   UNL     1     -11.618   1.896   9.875  1.00  0.00     0.211 HD
ENDBRANCH   4  11
BRANCH   6  13
ATOM     13  O   UNL     1     -13.961   3.978   7.352  1.00  0.00    -0.387 OA
ATOM     14  H   UNL     1     -14.662   3.434   6.906  1.00  0.00     0.211 HD
ENDBRANCH   6  13
BRANCH   7  15
ATOM     15  O   UNL     1     -10.859   2.373   6.339  1.00  0.00    -0.384 OA
ATOM     16  H   UNL     1     -11.138   1.676   5.689  1.00  0.00     0.211 HD
ENDBRANCH   7  15
ENDBRANCH   1   2
BRANCH   1  17
ATOM     17  C   UNL     1     -11.815   7.163   5.981  1.00  0.00     0.172 A 
ATOM     18  C   UNL     1     -12.851   8.053   5.638  1.00  0.00     0.201 A 
ATOM     19  C   UNL     1     -10.506   7.658   6.124  1.00  0.00     0.098 A 
ATOM     20  C   UNL     1     -12.583   9.421   5.440  1.00  0.00     0.176 A 
ATOM     21  C   UNL     1     -10.230   9.012   5.929  1.00  0.00     0.146 A 
ATOM     22  C   UNL     1     -11.264   9.909   5.584  1.00  0.00     0.111 A 
ATOM     23  O   UNL     1      -8.980   9.443   6.072  1.00  0.00    -0.456 OA
ATOM     24  C   UNL     1     -10.918  11.263   5.396  1.00  0.00     0.197 A 
ATOM     25  C   UNL     1      -8.621  10.714   5.911  1.00  0.00     0.138 A 
ATOM     26  C   UNL     1      -9.591  11.665   5.558  1.00  0.00     0.100 A 
ATOM     27  O   UNL     1     -11.781  12.125   5.077  1.00  0.00    -0.289 OA
BRANCH  18  28
ATOM     28  O   UNL     1     -14.159   7.590   5.485  1.00  0.00    -0.502 OA
ATOM     29  H   UNL     1     -14.942   8.213   5.340  1.00  0.00     0.293 HD
ENDBRANCH  18  28
BRANCH  20  30
ATOM     30  O   UNL     1     -13.623  10.290   5.100  1.00  0.00    -0.504 OA
ATOM     31  H   UNL     1     -14.504   9.965   4.723  1.00  0.00     0.293 HD
ENDBRANCH  20  30
BRANCH  25  32
ATOM     32  C   UNL     1      -7.194  11.081   6.095  1.00  0.00     0.017 A 
ATOM     33  C   UNL     1      -6.753  11.801   7.223  1.00  0.00     0.012 A 
ATOM     34  C   UNL     1      -6.246  10.676   5.137  1.00  0.00     0.012 A 
ATOM     35  C   UNL     1      -5.401  12.124   7.373  1.00  0.00     0.001 A 
ATOM     36  C   UNL     1      -4.895  11.003   5.291  1.00  0.00     0.001 A 
ATOM     37  C   UNL     1      -4.474  11.729   6.407  1.00  0.00     0.000 A 
ENDBRANCH  25  32
ENDBRANCH   1  17
TORSDOF 9
ENDMDL
MODEL 3
REMARK VINA RESULT:    -3.977      1.846      3.422
REMARK INTER + INTRA:          -4.106
REMARK INTER:                  -2.997
REMARK INTRA:                  -1.109
REMARK UNBOUND:                 1.382
REMARK SMILES O=C([O-])[C@@H]1O[C@H](Oc2cc3oc(-c4ccccc4)cc(=O)c3c(O)c2O)[C@@H](O)[C@H](O)[C@H]1O
REMARK SMILES IDX 7 1 6 2 4 3 31 4 5 5 29 6 27 7 2 8 1 9 3 10 32 11 30 13
REMARK SMILES IDX 28 15 8 17 25 18 9 19 23 20 10 21 22 22 11 23 20 24 12 25
REMARK SMILES IDX 19 26 21 27 26 28 24 30 13 32 14 33 18 34 15 35 17 36 16 37
REMARK H PARENT 32 12 30 14 28 16 26 29 24 31
REMARK Flexibility Score: inf
ROOT
ATOM      1  O   UNL     1     -10.744   6.471   5.308  1.00  0.00    -0.458 OA
ENDROOT
BRANCH   1   2
ATOM      2  C   UNL     1     -10.120   5.205   5.058  1.00  0.00     0.339 C 
ATOM      3  C   UNL     1     -10.824   4.190   7.100  1.00  0.00     0.199 C 
ATOM      4  C   UNL     1     -11.829   3.260   6.367  1.00  0.00     0.180 C 
ATOM      5  O   UNL     1      -9.730   4.583   6.276  1.00  0.00    -0.328 OA
ATOM      6  C   UNL     1     -12.253   3.842   5.010  1.00  0.00     0.181 C 
ATOM      7  C   UNL     1     -11.019   4.287   4.206  1.00  0.00     0.214 C 
BRANCH   3   8
ATOM      8  C   UNL     1     -11.451   5.367   7.808  1.00  0.00     0.073 C 
ATOM      9  O   UNL     1     -10.753   6.065   8.590  1.00  0.00    -0.547 OA
ATOM     10  O   UNL     1     -12.807   5.642   7.683  1.00  0.00    -0.547 OA
ENDBRANCH   3   8
BRANCH   4  11
ATOM     11  O   UNL     1     -11.238   2.001   6.159  1.00  0.00    -0.387 OA
ATOM     12  H   UNL     1     -11.555   1.674   5.276  1.00  0.00     0.211 HD
ENDBRANCH   4  11
BRANCH   6  13
ATOM     13  O   UNL     1     -13.126   4.924   5.210  1.00  0.00    -0.387 OA
ATOM     14  H   UNL     1     -13.869   4.822   4.558  1.00  0.00     0.211 HD
ENDBRANCH   6  13
BRANCH   7  15
ATOM     15  O   UNL     1     -10.273   3.171   3.792  1.00  0.00    -0.384 OA
ATOM     16  H   UNL     1     -10.491   2.431   4.416  1.00  0.00     0.211 HD
ENDBRANCH   7  15
ENDBRANCH   1   2
BRANCH   1  17
ATOM     17  C   UNL     1     -10.089   7.656   5.696  1.00  0.00     0.172 A 
ATOM     18  C   UNL     1     -10.793   8.592   6.476  1.00  0.00     0.201 A 
ATOM     19  C   UNL     1      -8.757   7.927   5.335  1.00  0.00     0.098 A 
ATOM     20  C   UNL     1     -10.174   9.787   6.891  1.00  0.00     0.176 A 
ATOM     21  C   UNL     1      -8.135   9.108   5.740  1.00  0.00     0.146 A 
ATOM     22  C   UNL     1      -8.835  10.053   6.522  1.00  0.00     0.111 A 
ATOM     23  O   UNL     1      -6.875   9.331   5.379  1.00  0.00    -0.456 OA
ATOM     24  C   UNL     1      -8.151  11.229   6.894  1.00  0.00     0.197 A 
ATOM     25  C   UNL     1      -6.197  10.424   5.719  1.00  0.00     0.138 A 
ATOM     26  C   UNL     1      -6.828  11.414   6.489  1.00  0.00     0.100 A 
ATOM     27  O   UNL     1      -8.710  12.125   7.583  1.00  0.00    -0.289 OA
BRANCH  18  28
ATOM     28  O   UNL     1     -12.118   8.352   6.846  1.00  0.00    -0.502 OA
ATOM     29  H   UNL     1     -12.868   8.296   6.172  1.00  0.00     0.293 HD
ENDBRANCH  18  28
BRANCH  20  30
ATOM     30  O   UNL     1     -10.887  10.707   7.665  1.00  0.00    -0.504 OA
ATOM     31  H   UNL     1     -10.946  10.640   8.673  1.00  0.00     0.293 HD
ENDBRANCH  20  30
BRANCH  25  32
ATOM     32  C   UNL     1      -4.794  10.567   5.257  1.00  0.00     0.017 A 
ATOM     33  C   UNL     1      -4.415  11.563   4.335  1.00  0.00     0.012 A 
ATOM     34  C   UNL     1      -3.804   9.710   5.773  1.00  0.00     0.012 A 
ATOM     35  C   UNL     1      -3.082  11.679   3.925  1.00  0.00     0.001 A 
ATOM     36  C   UNL     1      -2.473   9.830   5.360  1.00  0.00     0.001 A 
ATOM     37  C   UNL     1      -2.114  10.812   4.434  1.00  0.00     0.000 A 
ENDBRANCH  25  32
ENDBRANCH   1  17
TORSDOF 9
ENDMDL
