MODEL 1
REMARK VINA RESULT:    -4.459      0.000      0.000
REMARK INTER + INTRA:          -4.816
REMARK INTER:                  -4.719
REMARK INTRA:                  -0.096
REMARK UNBOUND:                -0.096
REMARK SMILES C=C(C)[C@H]1CC=C(C)C(=O)C1
REMARK SMILES IDX 8 1 7 2 6 3 5 4 4 5 11 6 9 7 10 8 2 9 1 10 3 11
REMARK H PARENT
REMARK Flexibility Score: inf
ROOT
ATOM      1  C   UNL     1      20.065 -18.296  21.815  1.00  0.00     0.048 C 
ATOM      2  C   UNL     1      19.370 -19.339  22.646  1.00  0.00    -0.012 C 
ATOM      3  C   UNL     1      18.032 -19.305  22.779  1.00  0.00    -0.019 C 
ATOM      4  C   UNL     1      17.288 -20.312  23.614  1.00  0.00     0.036 C 
ATOM      5  C   UNL     1      17.987 -21.684  23.582  1.00  0.00     0.025 C 
ATOM      6  C   UNL     1      19.458 -21.544  24.012  1.00  0.00     0.089 C 
ATOM      7  C   UNL     1      20.144 -20.471  23.212  1.00  0.00     0.158 C 
ATOM      8  O   UNL     1      21.394 -20.524  23.057  1.00  0.00    -0.295 OA
ENDROOT
BRANCH   5   9
ATOM      9  C   UNL     1      17.251 -22.706  24.438  1.00  0.00    -0.077 C 
ATOM     10  C   UNL     1      17.777 -23.925  24.633  1.00  0.00     0.008 C 
ATOM     11  C   UNL     1      15.927 -22.381  25.085  1.00  0.00     0.039 C 
ENDBRANCH   5   9
TORSDOF 1
ENDMDL
MODEL 2
REMARK VINA RESULT:    -4.451      2.319      4.509
REMARK INTER + INTRA:          -4.807
REMARK INTER:                  -4.709
REMARK INTRA:                  -0.098
REMARK UNBOUND:                -0.096
REMARK SMILES C=C(C)[C@H]1CC=C(C)C(=O)C1
REMARK SMILES IDX 8 1 7 2 6 3 5 4 4 5 11 6 9 7 10 8 2 9 1 10 3 11
REMARK H PARENT
REMARK Flexibility Score: inf
ROOT
ATOM      1  C   UNL     1      14.016 -20.122  23.374  1.00  0.00     0.048 C 
ATOM      2  C   UNL     1      15.470 -19.987  23.016  1.00  0.00    -0.012 C 
ATOM      3  C   UNL     1      15.859 -19.037  22.148  1.00  0.00    -0.019 C 
ATOM      4  C   UNL     1      17.298 -18.870  21.739  1.00  0.00     0.036 C 
ATOM      5  C   UNL     1      18.248 -19.244  22.892  1.00  0.00     0.025 C 
ATOM      6  C   UNL     1      17.947 -20.667  23.393  1.00  0.00     0.089 C 
ATOM      7  C   UNL     1      16.485 -20.817  23.711  1.00  0.00     0.158 C 
ATOM      8  O   UNL     1      16.125 -21.685  24.553  1.00  0.00    -0.295 OA
ENDROOT
BRANCH   5   9
ATOM      9  C   UNL     1      19.708 -19.095  22.483  1.00  0.00    -0.077 C 
ATOM     10  C   UNL     1      20.657 -19.816  23.100  1.00  0.00     0.008 C 
ATOM     11  C   UNL     1      20.123 -18.147  21.384  1.00  0.00     0.039 C 
ENDBRANCH   5   9
TORSDOF 1
ENDMDL
MODEL 3
REMARK VINA RESULT:    -4.430      1.777      3.215
REMARK INTER + INTRA:          -4.785
REMARK INTER:                  -4.687
REMARK INTRA:                  -0.098
REMARK UNBOUND:                -0.096
REMARK SMILES C=C(C)[C@H]1CC=C(C)C(=O)C1
REMARK SMILES IDX 8 1 7 2 6 3 5 4 4 5 11 6 9 7 10 8 2 9 1 10 3 11
REMARK H PARENT
REMARK Flexibility Score: inf
ROOT
ATOM      1  C   UNL     1      21.822 -21.474  23.264  1.00  0.00     0.048 C 
ATOM      2  C   UNL     1      20.451 -20.860  23.324  1.00  0.00    -0.012 C 
ATOM      3  C   UNL     1      20.238 -19.647  22.786  1.00  0.00    -0.019 C 
ATOM      4  C   UNL     1      18.890 -18.977  22.836  1.00  0.00     0.036 C 
ATOM      5  C   UNL     1      17.754 -20.015  22.781  1.00  0.00     0.025 C 
ATOM      6  C   UNL     1      17.927 -21.058  23.899  1.00  0.00     0.089 C 
ATOM      7  C   UNL     1      19.312 -21.643  23.867  1.00  0.00     0.158 C 
ATOM      8  O   UNL     1      19.504 -22.796  24.340  1.00  0.00    -0.295 OA
ENDROOT
BRANCH   5   9
ATOM      9  C   UNL     1      16.386 -19.349  22.849  1.00  0.00    -0.077 C 
ATOM     10  C   UNL     1      15.587 -19.556  23.908  1.00  0.00     0.008 C 
ATOM     11  C   UNL     1      15.895 -18.447  21.742  1.00  0.00     0.039 C 
ENDBRANCH   5   9
TORSDOF 1
ENDMDL
MODEL 4
REMARK VINA RESULT:    -4.331      2.614      3.519
REMARK INTER + INTRA:          -4.681
REMARK INTER:                  -4.582
REMARK INTRA:                  -0.098
REMARK UNBOUND:                -0.096
REMARK SMILES C=C(C)[C@H]1CC=C(C)C(=O)C1
REMARK SMILES IDX 8 1 7 2 6 3 5 4 4 5 11 6 9 7 10 8 2 9 1 10 3 11
REMARK H PARENT
REMARK Flexibility Score: inf
ROOT
ATOM      1  C   UNL     1      15.275 -18.195  22.111  1.00  0.00     0.048 C 
ATOM      2  C   UNL     1      16.137 -19.350  22.541  1.00  0.00    -0.012 C 
ATOM      3  C   UNL     1      17.435 -19.146  22.825  1.00  0.00    -0.019 C 
ATOM      4  C   UNL     1      18.347 -20.269  23.242  1.00  0.00     0.036 C 
ATOM      5  C   UNL     1      17.580 -21.337  24.043  1.00  0.00     0.025 C 
ATOM      6  C   UNL     1      16.367 -21.839  23.240  1.00  0.00     0.089 C 
ATOM      7  C   UNL     1      15.527 -20.683  22.771  1.00  0.00     0.158 C 
ATOM      8  O   UNL     1      14.301 -20.868  22.540  1.00  0.00    -0.295 OA
ENDROOT
BRANCH   5   9
ATOM      9  C   UNL     1      18.490 -22.487  24.454  1.00  0.00    -0.077 C 
ATOM     10  C   UNL     1      17.990 -23.725  24.594  1.00  0.00     0.008 C 
ATOM     11  C   UNL     1      19.961 -22.271  24.711  1.00  0.00     0.039 C 
ENDBRANCH   5   9
TORSDOF 1
ENDMDL
MODEL 5
REMARK VINA RESULT:    -4.323      1.532      2.933
REMARK INTER + INTRA:          -4.672
REMARK INTER:                  -4.574
REMARK INTRA:                  -0.098
REMARK UNBOUND:                -0.096
REMARK SMILES C=C(C)[C@H]1CC=C(C)C(=O)C1
REMARK SMILES IDX 8 1 7 2 6 3 5 4 4 5 11 6 9 7 10 8 2 9 1 10 3 11
REMARK H PARENT
REMARK Flexibility Score: inf
ROOT
ATOM      1  C   UNL     1      21.237 -20.846  23.486  1.00  0.00     0.048 C 
ATOM      2  C   UNL     1      19.749 -20.734  23.304  1.00  0.00    -0.012 C 
ATOM      3  C   UNL     1      18.956 -21.774  23.616  1.00  0.00    -0.019 C 
ATOM      4  C   UNL     1      17.462 -21.722  23.435  1.00  0.00     0.036 C 
ATOM      5  C   UNL     1      16.926 -20.297  23.663  1.00  0.00     0.025 C 
ATOM      6  C   UNL     1      17.658 -19.297  22.751  1.00  0.00     0.089 C 
ATOM      7  C   UNL     1      19.148 -19.438  22.899  1.00  0.00     0.158 C 
ATOM      8  O   UNL     1      19.888 -18.450  22.641  1.00  0.00    -0.295 OA
ENDROOT
BRANCH   5   9
ATOM      9  C   UNL     1      15.417 -20.230  23.464  1.00  0.00    -0.077 C 
ATOM     10  C   UNL     1      14.829 -19.062  23.159  1.00  0.00     0.008 C 
ATOM     11  C   UNL     1      14.552 -21.458  23.601  1.00  0.00     0.039 C 
ENDBRANCH   5   9
TORSDOF 1
ENDMDL
MODEL 6
REMARK VINA RESULT:    -4.317      1.570      2.092
REMARK INTER + INTRA:          -4.666
REMARK INTER:                  -4.567
REMARK INTRA:                  -0.099
REMARK UNBOUND:                -0.096
REMARK SMILES C=C(C)[C@H]1CC=C(C)C(=O)C1
REMARK SMILES IDX 8 1 7 2 6 3 5 4 4 5 11 6 9 7 10 8 2 9 1 10 3 11
REMARK H PARENT
REMARK Flexibility Score: inf
ROOT
ATOM      1  C   UNL     1      19.879 -18.884  22.392  1.00  0.00     0.048 C 
ATOM      2  C   UNL     1      18.605 -19.499  22.901  1.00  0.00    -0.012 C 
ATOM      3  C   UNL     1      17.424 -18.927  22.611  1.00  0.00    -0.019 C 
ATOM      4  C   UNL     1      16.120 -19.490  23.110  1.00  0.00     0.036 C 
ATOM      5  C   UNL     1      16.185 -21.025  23.218  1.00  0.00     0.025 C 
ATOM      6  C   UNL     1      17.376 -21.450  24.095  1.00  0.00     0.089 C 
ATOM      7  C   UNL     1      18.644 -20.800  23.614  1.00  0.00     0.158 C 
ATOM      8  O   UNL     1      19.750 -21.357  23.855  1.00  0.00    -0.295 OA
ENDROOT
BRANCH   5   9
ATOM      9  C   UNL     1      14.876 -21.604  23.740  1.00  0.00    -0.077 C 
ATOM     10  C   UNL     1      14.866 -22.347  24.857  1.00  0.00     0.008 C 
ATOM     11  C   UNL     1      13.569 -21.360  23.026  1.00  0.00     0.039 C 
ENDBRANCH   5   9
TORSDOF 1
ENDMDL
MODEL 7
REMARK VINA RESULT:    -4.293      8.410     10.063
REMARK INTER + INTRA:          -4.641
REMARK INTER:                  -4.542
REMARK INTRA:                  -0.098
REMARK UNBOUND:                -0.096
REMARK SMILES C=C(C)[C@H]1CC=C(C)C(=O)C1
REMARK SMILES IDX 8 1 7 2 6 3 5 4 4 5 11 6 9 7 10 8 2 9 1 10 3 11
REMARK H PARENT
REMARK Flexibility Score: inf
ROOT
ATOM      1  C   UNL     1       7.957 -16.273  25.923  1.00  0.00     0.048 C 
ATOM      2  C   UNL     1       9.329 -16.166  25.318  1.00  0.00    -0.012 C 
ATOM      3  C   UNL     1      10.299 -17.012  25.707  1.00  0.00    -0.019 C 
ATOM      4  C   UNL     1      11.695 -16.937  25.149  1.00  0.00     0.036 C 
ATOM      5  C   UNL     1      11.681 -16.460  23.684  1.00  0.00     0.025 C 
ATOM      6  C   UNL     1      10.933 -15.120  23.565  1.00  0.00     0.089 C 
ATOM      7  C   UNL     1       9.577 -15.212  24.208  1.00  0.00     0.158 C 
ATOM      8  O   UNL     1       8.658 -14.443  23.817  1.00  0.00    -0.295 OA
ENDROOT
BRANCH   5   9
ATOM      9  C   UNL     1      13.091 -16.363  23.115  1.00  0.00    -0.077 C 
ATOM     10  C   UNL     1      13.631 -15.163  22.856  1.00  0.00     0.008 C 
ATOM     11  C   UNL     1      13.910 -17.599  22.832  1.00  0.00     0.039 C 
ENDBRANCH   5   9
TORSDOF 1
ENDMDL
MODEL 8
REMARK VINA RESULT:    -4.267     11.175     12.209
REMARK INTER + INTRA:          -4.613
REMARK INTER:                  -4.518
REMARK INTRA:                  -0.095
REMARK UNBOUND:                -0.096
REMARK SMILES C=C(C)[C@H]1CC=C(C)C(=O)C1
REMARK SMILES IDX 8 1 7 2 6 3 5 4 4 5 11 6 9 7 10 8 2 9 1 10 3 11
REMARK H PARENT
REMARK Flexibility Score: inf
ROOT
ATOM      1  C   UNL     1       7.998 -22.463  20.998  1.00  0.00     0.048 C 
ATOM      2  C   UNL     1       7.594 -21.032  21.219  1.00  0.00    -0.012 C 
ATOM      3  C   UNL     1       7.044 -20.665  22.390  1.00  0.00    -0.019 C 
ATOM      4  C   UNL     1       6.604 -19.250  22.657  1.00  0.00     0.036 C 
ATOM      5  C   UNL     1       7.505 -18.242  21.921  1.00  0.00     0.025 C 
ATOM      6  C   UNL     1       7.552 -18.563  20.417  1.00  0.00     0.089 C 
ATOM      7  C   UNL     1       7.914 -20.006  20.196  1.00  0.00     0.158 C 
ATOM      8  O   UNL     1       8.462 -20.342  19.111  1.00  0.00    -0.295 OA
ENDROOT
BRANCH   5   9
ATOM      9  C   UNL     1       7.057 -16.808  22.170  1.00  0.00    -0.077 C 
ATOM     10  C   UNL     1       6.639 -16.435  23.390  1.00  0.00     0.008 C 
ATOM     11  C   UNL     1       7.071 -15.777  21.067  1.00  0.00     0.039 C 
ENDBRANCH   5   9
TORSDOF 1
ENDMDL
MODEL 9
REMARK VINA RESULT:    -4.246     10.706     11.721
REMARK INTER + INTRA:          -4.590
REMARK INTER:                  -4.492
REMARK INTRA:                  -0.098
REMARK UNBOUND:                -0.096
REMARK SMILES C=C(C)[C@H]1CC=C(C)C(=O)C1
REMARK SMILES IDX 8 1 7 2 6 3 5 4 4 5 11 6 9 7 10 8 2 9 1 10 3 11
REMARK H PARENT
REMARK Flexibility Score: inf
ROOT
ATOM      1  C   UNL     1       6.030 -17.354  23.931  1.00  0.00     0.048 C 
ATOM      2  C   UNL     1       6.764 -18.343  23.069  1.00  0.00    -0.012 C 
ATOM      3  C   UNL     1       6.480 -19.653  23.162  1.00  0.00    -0.019 C 
ATOM      4  C   UNL     1       7.199 -20.687  22.337  1.00  0.00     0.036 C 
ATOM      5  C   UNL     1       7.596 -20.119  20.962  1.00  0.00     0.025 C 
ATOM      6  C   UNL     1       8.423 -18.833  21.133  1.00  0.00     0.089 C 
ATOM      7  C   UNL     1       7.710 -17.861  22.031  1.00  0.00     0.158 C 
ATOM      8  O   UNL     1       7.951 -16.628  21.917  1.00  0.00    -0.295 OA
ENDROOT
BRANCH   5   9
ATOM      9  C   UNL     1       8.340 -21.152  20.125  1.00  0.00    -0.077 C 
ATOM     10  C   UNL     1       8.702 -22.325  20.669  1.00  0.00     0.008 C 
ATOM     11  C   UNL     1       8.685 -20.891  18.679  1.00  0.00     0.039 C 
ENDBRANCH   5   9
TORSDOF 1
ENDMDL
