MODEL 1
REMARK VINA RESULT:    12.717      0.000      0.000
REMARK INTER + INTRA:          21.827
REMARK INTER:                  19.036
REMARK INTRA:                   2.792
REMARK UNBOUND:                 2.792
REMARK SMILES C=C(CC[C@@H](C(=O)[O-])[C@H]1[C@@H](O)C[C@@]2(C)C3=C(CC[C@]12C)[C@]1(C)CC[C@@H](OC(C)=O)C(C)(C)[C@@H]1CC3)C(C)C
REMARK SMILES IDX 4 1 5 2 6 3 7 4 8 5 9 6 10 7 19 8 12 9 13 10 18 11 20 12
REMARK SMILES IDX 14 13 15 14 17 15 16 16 35 17 21 18 34 19 33 20 23 21 22 22
REMARK SMILES IDX 30 23 24 24 25 25 31 26 32 27 11 28 26 30 27 31 29 32 28 33
REMARK SMILES IDX 3 34 2 35 1 36 36 37 37 38 38 39
REMARK H PARENT 11 29
REMARK Flexibility Score: inf
ROOT
ATOM      1  C   UNL     1      16.873  27.880  13.123  1.00  0.00     0.014 C 
ENDROOT
BRANCH   1   2
ATOM      2  C   UNL     1      17.953  27.546  12.052  1.00  0.00     0.042 C 
BRANCH   2   3
ATOM      3  C   UNL     1      19.105  26.764  12.658  1.00  0.00     0.045 C 
ATOM      4  O   UNL     1      20.234  27.303  12.799  1.00  0.00    -0.550 OA
ATOM      5  O   UNL     1      18.928  25.467  13.125  1.00  0.00    -0.550 OA
ENDBRANCH   2   3
BRANCH   2   6
ATOM      6  C   UNL     1      17.310  26.949  10.741  1.00  0.00     0.033 C 
ATOM      7  C   UNL     1      15.967  27.581  10.256  1.00  0.00     0.119 C 
ATOM      8  C   UNL     1      18.134  26.762   9.432  1.00  0.00    -0.017 C 
ATOM      9  C   UNL     1      15.924  27.386   8.718  1.00  0.00     0.043 C 
ATOM     10  C   UNL     1      17.024  26.356   8.413  1.00  0.00    -0.003 C 
ATOM     11  C   UNL     1      19.195  25.647   9.433  1.00  0.00     0.012 C 
ATOM     12  C   UNL     1      18.830  28.110   9.040  1.00  0.00     0.013 C 
ATOM     13  C   UNL     1      16.399  24.935   8.616  1.00  0.00     0.017 C 
ATOM     14  C   UNL     1      17.609  26.335   7.010  1.00  0.00    -0.064 C 
ATOM     15  C   UNL     1      19.737  25.375   8.001  1.00  0.00     0.032 C 
ATOM     16  C   UNL     1      18.825  25.743   6.804  1.00  0.00    -0.064 C 
ATOM     17  C   UNL     1      16.767  26.706   5.819  1.00  0.00     0.032 C 
ATOM     18  C   UNL     1      19.383  25.642   5.354  1.00  0.00    -0.008 C 
ATOM     19  C   UNL     1      16.794  25.541   4.843  1.00  0.00     0.009 C 
ATOM     20  C   UNL     1      18.236  25.257   4.298  1.00  0.00     0.009 C 
ATOM     21  C   UNL     1      20.088  27.017   5.057  1.00  0.00     0.015 C 
ATOM     22  C   UNL     1      20.452  24.505   5.313  1.00  0.00     0.016 C 
ATOM     23  C   UNL     1      18.514  25.666   2.760  1.00  0.00     0.005 C 
ATOM     24  C   UNL     1      19.752  27.661   3.717  1.00  0.00     0.047 C 
ATOM     25  C   UNL     1      19.738  26.629   2.597  1.00  0.00     0.182 C 
ATOM     26  C   UNL     1      17.297  26.360   2.076  1.00  0.00     0.015 C 
ATOM     27  C   UNL     1      18.778  24.384   1.924  1.00  0.00     0.015 C 
BRANCH   7  28
ATOM     28  O   UNL     1      15.871  28.942  10.566  1.00  0.00    -0.393 OA
ATOM     29  H   UNL     1      16.711  29.187  11.036  1.00  0.00     0.210 HD
ENDBRANCH   7  28
BRANCH  25  30
ATOM     30  O   UNL     1      20.978  25.913   2.573  1.00  0.00    -0.462 OA
BRANCH  30  31
ATOM     31  C   UNL     1      22.169  26.390   3.131  1.00  0.00     0.302 C 
ATOM     32  O   UNL     1      22.925  25.627   3.792  1.00  0.00    -0.253 OA
ATOM     33  C   UNL     1      22.522  27.829   2.982  1.00  0.00     0.139 C 
ENDBRANCH  30  31
ENDBRANCH  25  30
ENDBRANCH   2   6
ENDBRANCH   1   2
BRANCH   1  34
ATOM     34  C   UNL     1      16.409  29.351  13.124  1.00  0.00     0.031 C 
BRANCH  34  35
ATOM     35  C   UNL     1      17.506  30.361  12.832  1.00  0.00    -0.075 C 
ATOM     36  C   UNL     1      18.781  30.049  13.123  1.00  0.00     0.008 C 
BRANCH  35  37
ATOM     37  C   UNL     1      17.164  31.793  12.433  1.00  0.00     0.008 C 
ATOM     38  C   UNL     1      15.665  32.057  12.618  1.00  0.00     0.012 C 
ATOM     39  C   UNL     1      17.602  32.125  11.001  1.00  0.00     0.012 C 
ENDBRANCH  35  37
ENDBRANCH  34  35
ENDBRANCH   1  34
TORSDOF 9
ENDMDL
MODEL 2
REMARK VINA RESULT:    14.767      1.645      8.334
REMARK INTER + INTRA:          24.896
REMARK INTER:                  15.502
REMARK INTRA:                   9.394
REMARK UNBOUND:                 2.792
REMARK SMILES C=C(CC[C@@H](C(=O)[O-])[C@H]1[C@@H](O)C[C@@]2(C)C3=C(CC[C@]12C)[C@]1(C)CC[C@@H](OC(C)=O)C(C)(C)[C@@H]1CC3)C(C)C
REMARK SMILES IDX 4 1 5 2 6 3 7 4 8 5 9 6 10 7 19 8 12 9 13 10 18 11 20 12
REMARK SMILES IDX 14 13 15 14 17 15 16 16 35 17 21 18 34 19 33 20 23 21 22 22
REMARK SMILES IDX 30 23 24 24 25 25 31 26 32 27 11 28 26 30 27 31 29 32 28 33
REMARK SMILES IDX 3 34 2 35 1 36 36 37 37 38 38 39
REMARK H PARENT 11 29
REMARK Flexibility Score: inf
ROOT
ATOM      1  C   UNL     1      18.510  26.009   2.334  1.00  0.00     0.014 C 
ENDROOT
BRANCH   1   2
ATOM      2  C   UNL     1      19.126  24.825   3.135  1.00  0.00     0.042 C 
BRANCH   2   3
ATOM      3  C   UNL     1      20.642  24.910   3.164  1.00  0.00     0.045 C 
ATOM      4  O   UNL     1      21.295  24.960   2.090  1.00  0.00    -0.550 OA
ATOM      5  O   UNL     1      21.336  24.997   4.365  1.00  0.00    -0.550 OA
ENDBRANCH   2   3
BRANCH   2   6
ATOM      6  C   UNL     1      18.406  24.624   4.525  1.00  0.00     0.033 C 
ATOM      7  C   UNL     1      18.494  23.207   5.174  1.00  0.00     0.119 C 
ATOM      8  C   UNL     1      18.634  25.600   5.717  1.00  0.00    -0.017 C 
ATOM      9  C   UNL     1      18.392  23.421   6.706  1.00  0.00     0.043 C 
ATOM     10  C   UNL     1      17.891  24.865   6.877  1.00  0.00    -0.003 C 
ATOM     11  C   UNL     1      18.022  27.007   5.590  1.00  0.00     0.012 C 
ATOM     12  C   UNL     1      20.168  25.750   6.002  1.00  0.00     0.013 C 
ATOM     13  C   UNL     1      16.329  24.831   6.771  1.00  0.00     0.017 C 
ATOM     14  C   UNL     1      18.185  25.569   8.191  1.00  0.00    -0.064 C 
ATOM     15  C   UNL     1      18.071  27.773   6.943  1.00  0.00     0.032 C 
ATOM     16  C   UNL     1      18.126  26.935   8.244  1.00  0.00    -0.064 C 
ATOM     17  C   UNL     1      18.270  24.792   9.478  1.00  0.00     0.032 C 
ATOM     18  C   UNL     1      18.339  27.651   9.610  1.00  0.00    -0.008 C 
ATOM     19  C   UNL     1      17.270  25.388  10.454  1.00  0.00     0.009 C 
ATOM     20  C   UNL     1      17.603  26.878  10.810  1.00  0.00     0.009 C 
ATOM     21  C   UNL     1      19.895  27.787   9.798  1.00  0.00     0.015 C 
ATOM     22  C   UNL     1      17.712  29.078   9.524  1.00  0.00     0.016 C 
ATOM     23  C   UNL     1      18.180  27.148  12.295  1.00  0.00     0.005 C 
ATOM     24  C   UNL     1      20.438  27.382  11.164  1.00  0.00     0.047 C 
ATOM     25  C   UNL     1      19.552  27.904  12.287  1.00  0.00     0.182 C 
ATOM     26  C   UNL     1      18.387  25.844  13.124  1.00  0.00     0.015 C 
ATOM     27  C   UNL     1      17.155  27.990  13.103  1.00  0.00     0.015 C 
BRANCH   7  28
ATOM     28  O   UNL     1      19.689  22.548   4.864  1.00  0.00    -0.393 OA
ATOM     29  H   UNL     1      19.507  21.988   4.064  1.00  0.00     0.210 HD
ENDBRANCH   7  28
BRANCH  25  30
ATOM     30  O   UNL     1      19.378  29.319  12.158  1.00  0.00    -0.462 OA
BRANCH  30  31
ATOM     31  C   UNL     1      18.322  30.035  12.734  1.00  0.00     0.302 C 
ATOM     32  O   UNL     1      17.198  29.495  12.918  1.00  0.00    -0.253 OA
ATOM     33  C   UNL     1      18.519  31.468  13.089  1.00  0.00     0.139 C 
ENDBRANCH  30  31
ENDBRANCH  25  30
ENDBRANCH   2   6
ENDBRANCH   1   2
BRANCH   1  34
ATOM     34  C   UNL     1      18.280  27.289   3.164  1.00  0.00     0.031 C 
BRANCH  34  35
ATOM     35  C   UNL     1      19.375  28.334   3.035  1.00  0.00    -0.075 C 
ATOM     36  C   UNL     1      19.107  29.491   2.404  1.00  0.00     0.008 C 
BRANCH  35  37
ATOM     37  C   UNL     1      20.818  28.003   3.400  1.00  0.00     0.008 C 
ATOM     38  C   UNL     1      21.352  29.006   4.431  1.00  0.00     0.012 C 
ATOM     39  C   UNL     1      21.736  27.943   2.173  1.00  0.00     0.012 C 
ENDBRANCH  35  37
ENDBRANCH  34  35
ENDBRANCH   1  34
TORSDOF 9
ENDMDL
