MODEL 1
REMARK VINA RESULT:    -3.248      0.000      0.000
REMARK INTER + INTRA:          -3.856
REMARK INTER:                  -3.817
REMARK INTRA:                  -0.039
REMARK UNBOUND:                -0.039
REMARK SMILES O=C([O-])CCC(=O)[O-]
REMARK SMILES IDX 4 1 2 2 1 3 3 4 5 5 6 6 7 7 8 8
REMARK H PARENT
REMARK Flexibility Score: inf
ROOT
ATOM      1  C   UNL     1       8.379 -10.452  12.573  1.00  0.00     0.059 C 
ENDROOT
BRANCH   1   2
ATOM      2  C   UNL     1       7.033 -11.060  12.822  1.00  0.00     0.042 C 
ATOM      3  O   UNL     1       6.111 -10.929  11.975  1.00  0.00    -0.550 OA
ATOM      4  O   UNL     1       6.809 -11.805  13.973  1.00  0.00    -0.550 OA
ENDBRANCH   1   2
BRANCH   1   5
ATOM      5  C   UNL     1       8.468  -9.830  11.176  1.00  0.00     0.059 C 
BRANCH   5   6
ATOM      6  C   UNL     1       9.681  -8.962  11.035  1.00  0.00     0.042 C 
ATOM      7  O   UNL     1       9.945  -8.415   9.932  1.00  0.00    -0.550 OA
ATOM      8  O   UNL     1      10.541  -8.789  12.112  1.00  0.00    -0.550 OA
ENDBRANCH   5   6
ENDBRANCH   1   5
TORSDOF 3
ENDMDL
MODEL 2
REMARK VINA RESULT:    -3.129      1.263      4.312
REMARK INTER + INTRA:          -3.717
REMARK INTER:                  -3.599
REMARK INTRA:                  -0.118
REMARK UNBOUND:                -0.039
REMARK SMILES O=C([O-])CCC(=O)[O-]
REMARK SMILES IDX 4 1 2 2 1 3 3 4 5 5 6 6 7 7 8 8
REMARK H PARENT
REMARK Flexibility Score: inf
ROOT
ATOM      1  C   UNL     1       7.863 -10.451  11.458  1.00  0.00     0.059 C 
ENDROOT
BRANCH   1   2
ATOM      2  C   UNL     1       9.197  -9.787  11.607  1.00  0.00     0.042 C 
ATOM      3  O   UNL     1      10.041 -10.236  12.426  1.00  0.00    -0.550 OA
ATOM      4  O   UNL     1       9.525  -8.697  10.810  1.00  0.00    -0.550 OA
ENDBRANCH   1   2
BRANCH   1   5
ATOM      5  C   UNL     1       6.978 -10.222  12.687  1.00  0.00     0.059 C 
BRANCH   5   6
ATOM      6  C   UNL     1       6.910 -11.443  13.553  1.00  0.00     0.042 C 
ATOM      7  O   UNL     1       7.695 -11.573  14.529  1.00  0.00    -0.550 OA
ATOM      8  O   UNL     1       6.008 -12.456  13.257  1.00  0.00    -0.550 OA
ENDBRANCH   5   6
ENDBRANCH   1   5
TORSDOF 3
ENDMDL
MODEL 3
REMARK VINA RESULT:    -3.064      2.917      4.111
REMARK INTER + INTRA:          -3.640
REMARK INTER:                  -3.547
REMARK INTRA:                  -0.093
REMARK UNBOUND:                -0.039
REMARK SMILES O=C([O-])CCC(=O)[O-]
REMARK SMILES IDX 4 1 2 2 1 3 3 4 5 5 6 6 7 7 8 8
REMARK H PARENT
REMARK Flexibility Score: inf
ROOT
ATOM      1  C   UNL     1      10.748 -10.490  12.286  1.00  0.00     0.059 C 
ENDROOT
BRANCH   1   2
ATOM      2  C   UNL     1       9.543  -9.800  11.724  1.00  0.00     0.042 C 
ATOM      3  O   UNL     1       8.387 -10.207  12.013  1.00  0.00    -0.550 OA
ATOM      4  O   UNL     1       9.696  -8.683  10.913  1.00  0.00    -0.550 OA
ENDBRANCH   1   2
BRANCH   1   5
ATOM      5  C   UNL     1      11.243  -9.809  13.566  1.00  0.00     0.059 C 
BRANCH   5   6
ATOM      6  C   UNL     1      11.268 -10.762  14.722  1.00  0.00     0.042 C 
ATOM      7  O   UNL     1      10.228 -11.392  15.049  1.00  0.00    -0.550 OA
ATOM      8  O   UNL     1      12.431 -10.925  15.464  1.00  0.00    -0.550 OA
ENDBRANCH   5   6
ENDBRANCH   1   5
TORSDOF 3
ENDMDL
MODEL 4
REMARK VINA RESULT:    -2.611      6.020      7.000
REMARK INTER + INTRA:          -3.107
REMARK INTER:                  -2.989
REMARK INTRA:                  -0.118
REMARK UNBOUND:                -0.039
REMARK SMILES O=C([O-])CCC(=O)[O-]
REMARK SMILES IDX 4 1 2 2 1 3 3 4 5 5 6 6 7 7 8 8
REMARK H PARENT
REMARK Flexibility Score: inf
ROOT
ATOM      1  C   UNL     1      11.935  -9.899  16.613  1.00  0.00     0.059 C 
ENDROOT
BRANCH   1   2
ATOM      2  C   UNL     1      11.442 -10.888  15.603  1.00  0.00     0.042 C 
ATOM      3  O   UNL     1      11.201 -12.076  15.943  1.00  0.00    -0.550 OA
ATOM      4  O   UNL     1      11.209 -10.488  14.293  1.00  0.00    -0.550 OA
ENDBRANCH   1   2
BRANCH   1   5
ATOM      5  C   UNL     1      12.494 -10.594  17.858  1.00  0.00     0.059 C 
BRANCH   5   6
ATOM      6  C   UNL     1      13.963 -10.856  17.731  1.00  0.00     0.042 C 
ATOM      7  O   UNL     1      14.380 -12.011  17.447  1.00  0.00    -0.550 OA
ATOM      8  O   UNL     1      14.875  -9.835  17.965  1.00  0.00    -0.550 OA
ENDBRANCH   5   6
ENDBRANCH   1   5
TORSDOF 3
ENDMDL
MODEL 5
REMARK VINA RESULT:    -2.608      9.415      9.603
REMARK INTER + INTRA:          -3.104
REMARK INTER:                  -3.035
REMARK INTRA:                  -0.069
REMARK UNBOUND:                -0.039
REMARK SMILES O=C([O-])CCC(=O)[O-]
REMARK SMILES IDX 4 1 2 2 1 3 3 4 5 5 6 6 7 7 8 8
REMARK H PARENT
REMARK Flexibility Score: inf
ROOT
ATOM      1  C   UNL     1      10.916 -18.817   7.938  1.00  0.00     0.059 C 
ENDROOT
BRANCH   1   2
ATOM      2  C   UNL     1      10.443 -20.108   8.530  1.00  0.00     0.042 C 
ATOM      3  O   UNL     1      11.059 -20.625   9.499  1.00  0.00    -0.550 OA
ATOM      4  O   UNL     1       9.297 -20.721   8.039  1.00  0.00    -0.550 OA
ENDBRANCH   1   2
BRANCH   1   5
ATOM      5  C   UNL     1      11.978 -18.147   8.816  1.00  0.00     0.059 C 
BRANCH   5   6
ATOM      6  C   UNL     1      11.638 -16.715   9.097  1.00  0.00     0.042 C 
ATOM      7  O   UNL     1      10.542 -16.418   9.641  1.00  0.00    -0.550 OA
ATOM      8  O   UNL     1      12.514 -15.705   8.720  1.00  0.00    -0.550 OA
ENDBRANCH   5   6
ENDBRANCH   1   5
TORSDOF 3
ENDMDL
MODEL 6
REMARK VINA RESULT:    -2.540      7.869      7.989
REMARK INTER + INTRA:          -3.024
REMARK INTER:                  -2.982
REMARK INTRA:                  -0.043
REMARK UNBOUND:                -0.039
REMARK SMILES O=C([O-])CCC(=O)[O-]
REMARK SMILES IDX 4 1 2 2 1 3 3 4 5 5 6 6 7 7 8 8
REMARK H PARENT
REMARK Flexibility Score: inf
ROOT
ATOM      1  C   UNL     1      12.859 -16.383   8.801  1.00  0.00     0.059 C 
ENDROOT
BRANCH   1   2
ATOM      2  C   UNL     1      11.457 -16.735   9.191  1.00  0.00     0.042 C 
ATOM      3  O   UNL     1      10.733 -15.894   9.787  1.00  0.00    -0.550 OA
ATOM      4  O   UNL     1      10.934 -17.979   8.860  1.00  0.00    -0.550 OA
ENDBRANCH   1   2
BRANCH   1   5
ATOM      5  C   UNL     1      12.930 -15.007   8.130  1.00  0.00     0.059 C 
BRANCH   5   6
ATOM      6  C   UNL     1      14.310 -14.428   8.206  1.00  0.00     0.042 C 
ATOM      7  O   UNL     1      15.219 -15.034   8.831  1.00  0.00    -0.550 OA
ATOM      8  O   UNL     1      14.580 -13.197   7.621  1.00  0.00    -0.550 OA
ENDBRANCH   5   6
ENDBRANCH   1   5
TORSDOF 3
ENDMDL
MODEL 7
REMARK VINA RESULT:    -2.517      9.250     10.555
REMARK INTER + INTRA:          -2.997
REMARK INTER:                  -2.876
REMARK INTRA:                  -0.120
REMARK UNBOUND:                -0.039
REMARK SMILES O=C([O-])CCC(=O)[O-]
REMARK SMILES IDX 4 1 2 2 1 3 3 4 5 5 6 6 7 7 8 8
REMARK H PARENT
REMARK Flexibility Score: inf
ROOT
ATOM      1  C   UNL     1      13.226  -3.148  16.980  1.00  0.00     0.059 C 
ENDROOT
BRANCH   1   2
ATOM      2  C   UNL     1      13.656  -3.047  18.411  1.00  0.00     0.042 C 
ATOM      3  O   UNL     1      14.016  -4.076  19.040  1.00  0.00    -0.550 OA
ATOM      4  O   UNL     1      13.696  -1.808  19.040  1.00  0.00    -0.550 OA
ENDBRANCH   1   2
BRANCH   1   5
ATOM      5  C   UNL     1      11.745  -3.521  16.860  1.00  0.00     0.059 C 
BRANCH   5   6
ATOM      6  C   UNL     1      10.887  -2.309  16.654  1.00  0.00     0.042 C 
ATOM      7  O   UNL     1      10.383  -1.714  17.643  1.00  0.00    -0.550 OA
ATOM      8  O   UNL     1      10.611  -1.862  15.369  1.00  0.00    -0.550 OA
ENDBRANCH   5   6
ENDBRANCH   1   5
TORSDOF 3
ENDMDL
MODEL 8
REMARK VINA RESULT:    -2.505      7.042      7.951
REMARK INTER + INTRA:          -2.983
REMARK INTER:                  -2.797
REMARK INTRA:                  -0.186
REMARK UNBOUND:                -0.039
REMARK SMILES O=C([O-])CCC(=O)[O-]
REMARK SMILES IDX 4 1 2 2 1 3 3 4 5 5 6 6 7 7 8 8
REMARK H PARENT
REMARK Flexibility Score: inf
ROOT
ATOM      1  C   UNL     1      12.836 -11.058  16.193  1.00  0.00     0.059 C 
ENDROOT
BRANCH   1   2
ATOM      2  C   UNL     1      13.051 -12.490  16.572  1.00  0.00     0.042 C 
ATOM      3  O   UNL     1      12.117 -13.158  17.089  1.00  0.00    -0.550 OA
ATOM      4  O   UNL     1      14.273 -13.101  16.318  1.00  0.00    -0.550 OA
ENDBRANCH   1   2
BRANCH   1   5
ATOM      5  C   UNL     1      12.673 -10.165  17.428  1.00  0.00     0.059 C 
BRANCH   5   6
ATOM      6  C   UNL     1      13.885 -10.216  18.308  1.00  0.00     0.042 C 
ATOM      7  O   UNL     1      14.990  -9.778  17.893  1.00  0.00    -0.550 OA
ATOM      8  O   UNL     1      13.802 -10.785  19.573  1.00  0.00    -0.550 OA
ENDBRANCH   5   6
ENDBRANCH   1   5
TORSDOF 3
ENDMDL
MODEL 9
REMARK VINA RESULT:    -2.495      8.032      8.957
REMARK INTER + INTRA:          -2.971
REMARK INTER:                  -2.938
REMARK INTRA:                  -0.033
REMARK UNBOUND:                -0.039
REMARK SMILES O=C([O-])CCC(=O)[O-]
REMARK SMILES IDX 4 1 2 2 1 3 3 4 5 5 6 6 7 7 8 8
REMARK H PARENT
REMARK Flexibility Score: inf
ROOT
ATOM      1  C   UNL     1      10.131  -3.318  15.538  1.00  0.00     0.059 C 
ENDROOT
BRANCH   1   2
ATOM      2  C   UNL     1       9.101  -2.369  15.008  1.00  0.00     0.042 C 
ATOM      3  O   UNL     1       8.110  -2.803  14.363  1.00  0.00    -0.550 OA
ATOM      4  O   UNL     1       9.213  -1.007  15.262  1.00  0.00    -0.550 OA
ENDBRANCH   1   2
BRANCH   1   5
ATOM      5  C   UNL     1      11.185  -2.594  16.382  1.00  0.00     0.059 C 
BRANCH   5   6
ATOM      6  C   UNL     1      12.105  -3.561  17.063  1.00  0.00     0.042 C 
ATOM      7  O   UNL     1      13.352  -3.391  17.016  1.00  0.00    -0.550 OA
ATOM      8  O   UNL     1      11.587  -4.673  17.715  1.00  0.00    -0.550 OA
ENDBRANCH   5   6
ENDBRANCH   1   5
TORSDOF 3
ENDMDL
