MODEL 1
REMARK VINA RESULT:    -3.261      0.000      0.000
REMARK INTER + INTRA:          -4.597
REMARK INTER:                  -4.214
REMARK INTRA:                  -0.383
REMARK UNBOUND:                -0.383
REMARK SMILES CCCCCCC=O
REMARK SMILES IDX 4 1 3 2 2 3 1 4 5 5 6 6 7 7 8 8
REMARK H PARENT
REMARK Flexibility Score: inf
ROOT
ATOM      1  C   UNL     1      -2.028   6.913   4.737  1.00  0.00     0.000 C 
ENDROOT
BRANCH   1   2
ATOM      2  C   UNL     1      -0.986   7.371   5.773  1.00  0.00    -0.000 C 
BRANCH   2   3
ATOM      3  C   UNL     1       0.239   6.448   5.908  1.00  0.00    -0.003 C 
ATOM      4  C   UNL     1       1.533   7.095   5.415  1.00  0.00     0.004 C 
ENDBRANCH   2   3
ENDBRANCH   1   2
BRANCH   1   5
ATOM      5  C   UNL     1      -1.901   7.652   3.393  1.00  0.00     0.008 C 
BRANCH   5   6
ATOM      6  C   UNL     1      -0.929   6.947   2.437  1.00  0.00     0.072 C 
BRANCH   6   7
ATOM      7  C   UNL     1      -0.956   5.454   2.594  1.00  0.00     0.224 C 
ATOM      8  O   UNL     1       0.088   4.837   2.728  1.00  0.00    -0.303 OA
ENDBRANCH   6   7
ENDBRANCH   5   6
ENDBRANCH   1   5
TORSDOF 5
ENDMDL
MODEL 2
REMARK VINA RESULT:    -3.209      1.313      1.775
REMARK INTER + INTRA:          -4.529
REMARK INTER:                  -4.228
REMARK INTRA:                  -0.302
REMARK UNBOUND:                -0.383
REMARK SMILES CCCCCCC=O
REMARK SMILES IDX 4 1 3 2 2 3 1 4 5 5 6 6 7 7 8 8
REMARK H PARENT
REMARK Flexibility Score: inf
ROOT
ATOM      1  C   UNL     1      -0.320   6.564   5.328  1.00  0.00     0.000 C 
ENDROOT
BRANCH   1   2
ATOM      2  C   UNL     1       1.006   7.259   4.971  1.00  0.00    -0.000 C 
BRANCH   2   3
ATOM      3  C   UNL     1       1.023   8.780   5.207  1.00  0.00    -0.003 C 
ATOM      4  C   UNL     1       1.231   9.583   3.923  1.00  0.00     0.004 C 
ENDBRANCH   2   3
ENDBRANCH   1   2
BRANCH   1   5
ATOM      5  C   UNL     1      -1.438   6.852   4.310  1.00  0.00     0.008 C 
BRANCH   5   6
ATOM      6  C   UNL     1      -0.964   6.661   2.862  1.00  0.00     0.072 C 
BRANCH   6   7
ATOM      7  C   UNL     1      -0.935   5.215   2.457  1.00  0.00     0.224 C 
ATOM      8  O   UNL     1       0.103   4.579   2.547  1.00  0.00    -0.303 OA
ENDBRANCH   6   7
ENDBRANCH   5   6
ENDBRANCH   1   5
TORSDOF 5
ENDMDL
MODEL 3
REMARK VINA RESULT:    -3.105      1.360      1.923
REMARK INTER + INTRA:          -4.395
REMARK INTER:                  -4.243
REMARK INTRA:                  -0.152
REMARK UNBOUND:                -0.383
REMARK SMILES CCCCCCC=O
REMARK SMILES IDX 4 1 3 2 2 3 1 4 5 5 6 6 7 7 8 8
REMARK H PARENT
REMARK Flexibility Score: inf
ROOT
ATOM      1  C   UNL     1       0.517   6.629   4.614  1.00  0.00     0.000 C 
ENDROOT
BRANCH   1   2
ATOM      2  C   UNL     1       1.736   7.219   5.346  1.00  0.00    -0.000 C 
BRANCH   2   3
ATOM      3  C   UNL     1       1.650   7.174   6.883  1.00  0.00    -0.003 C 
ATOM      4  C   UNL     1       0.824   5.998   7.402  1.00  0.00     0.004 C 
ENDBRANCH   2   3
ENDBRANCH   1   2
BRANCH   1   5
ATOM      5  C   UNL     1      -0.343   7.702   3.923  1.00  0.00     0.008 C 
BRANCH   5   6
ATOM      6  C   UNL     1      -1.127   7.134   2.731  1.00  0.00     0.072 C 
BRANCH   6   7
ATOM      7  C   UNL     1      -0.897   5.661   2.547  1.00  0.00     0.224 C 
ATOM      8  O   UNL     1      -1.267   5.112   1.522  1.00  0.00    -0.303 OA
ENDBRANCH   6   7
ENDBRANCH   5   6
ENDBRANCH   1   5
TORSDOF 5
ENDMDL
MODEL 4
REMARK VINA RESULT:    -3.087      2.525      4.198
REMARK INTER + INTRA:          -4.372
REMARK INTER:                  -4.183
REMARK INTRA:                  -0.189
REMARK UNBOUND:                -0.383
REMARK SMILES CCCCCCC=O
REMARK SMILES IDX 4 1 3 2 2 3 1 4 5 5 6 6 7 7 8 8
REMARK H PARENT
REMARK Flexibility Score: inf
ROOT
ATOM      1  C   UNL     1       0.483   6.555   4.640  1.00  0.00     0.000 C 
ENDROOT
BRANCH   1   2
ATOM      2  C   UNL     1      -0.613   7.305   3.864  1.00  0.00    -0.000 C 
BRANCH   2   3
ATOM      3  C   UNL     1      -1.026   6.650   2.533  1.00  0.00    -0.003 C 
ATOM      4  C   UNL     1      -0.693   5.160   2.471  1.00  0.00     0.004 C 
ENDBRANCH   2   3
ENDBRANCH   1   2
BRANCH   1   5
ATOM      5  C   UNL     1       1.493   7.501   5.315  1.00  0.00     0.008 C 
BRANCH   5   6
ATOM      6  C   UNL     1       1.482   8.901   4.684  1.00  0.00     0.072 C 
BRANCH   6   7
ATOM      7  C   UNL     1       2.840   9.543   4.699  1.00  0.00     0.224 C 
ATOM      8  O   UNL     1       3.834   8.860   4.884  1.00  0.00    -0.303 OA
ENDBRANCH   6   7
ENDBRANCH   5   6
ENDBRANCH   1   5
TORSDOF 5
ENDMDL
MODEL 5
REMARK VINA RESULT:    -3.026     13.349     14.544
REMARK INTER + INTRA:          -4.294
REMARK INTER:                  -4.075
REMARK INTRA:                  -0.219
REMARK UNBOUND:                -0.383
REMARK SMILES CCCCCCC=O
REMARK SMILES IDX 4 1 3 2 2 3 1 4 5 5 6 6 7 7 8 8
REMARK H PARENT
REMARK Flexibility Score: inf
ROOT
ATOM      1  C   UNL     1       8.405  -4.283  -0.557  1.00  0.00     0.000 C 
ENDROOT
BRANCH   1   2
ATOM      2  C   UNL     1       8.012  -2.990   0.179  1.00  0.00    -0.000 C 
BRANCH   2   3
ATOM      3  C   UNL     1       7.120  -3.197   1.417  1.00  0.00    -0.003 C 
ATOM      4  C   UNL     1       7.067  -1.971   2.328  1.00  0.00     0.004 C 
ENDBRANCH   2   3
ENDBRANCH   1   2
BRANCH   1   5
ATOM      5  C   UNL     1       8.261  -5.538   0.321  1.00  0.00     0.008 C 
BRANCH   5   6
ATOM      6  C   UNL     1       7.550  -6.681  -0.418  1.00  0.00     0.072 C 
BRANCH   6   7
ATOM      7  C   UNL     1       6.269  -7.085   0.254  1.00  0.00     0.224 C 
ATOM      8  O   UNL     1       5.760  -6.351   1.085  1.00  0.00    -0.303 OA
ENDBRANCH   6   7
ENDBRANCH   5   6
ENDBRANCH   1   5
TORSDOF 5
ENDMDL
MODEL 6
REMARK VINA RESULT:    -2.992     11.705     12.709
REMARK INTER + INTRA:          -4.249
REMARK INTER:                  -4.150
REMARK INTRA:                  -0.098
REMARK UNBOUND:                -0.383
REMARK SMILES CCCCCCC=O
REMARK SMILES IDX 4 1 3 2 2 3 1 4 5 5 6 6 7 7 8 8
REMARK H PARENT
REMARK Flexibility Score: inf
ROOT
ATOM      1  C   UNL     1       7.942  -2.273   1.908  1.00  0.00     0.000 C 
ENDROOT
BRANCH   1   2
ATOM      2  C   UNL     1       6.815  -1.697   2.783  1.00  0.00    -0.000 C 
BRANCH   2   3
ATOM      3  C   UNL     1       7.270  -1.157   4.151  1.00  0.00    -0.003 C 
ATOM      4  C   UNL     1       6.891   0.307   4.372  1.00  0.00     0.004 C 
ENDBRANCH   2   3
ENDBRANCH   1   2
BRANCH   1   5
ATOM      5  C   UNL     1       7.460  -3.400   0.977  1.00  0.00     0.008 C 
BRANCH   5   6
ATOM      6  C   UNL     1       6.882  -4.588   1.759  1.00  0.00     0.072 C 
BRANCH   6   7
ATOM      7  C   UNL     1       6.721  -5.811   0.901  1.00  0.00     0.224 C 
ATOM      8  O   UNL     1       5.722  -6.503   1.011  1.00  0.00    -0.303 OA
ENDBRANCH   6   7
ENDBRANCH   5   6
ENDBRANCH   1   5
TORSDOF 5
ENDMDL
MODEL 7
REMARK VINA RESULT:    -2.985     12.813     13.917
REMARK INTER + INTRA:          -4.241
REMARK INTER:                  -3.967
REMARK INTRA:                  -0.273
REMARK UNBOUND:                -0.383
REMARK SMILES CCCCCCC=O
REMARK SMILES IDX 4 1 3 2 2 3 1 4 5 5 6 6 7 7 8 8
REMARK H PARENT
REMARK Flexibility Score: inf
ROOT
ATOM      1  C   UNL     1       7.820  -3.213   0.214  1.00  0.00     0.000 C 
ENDROOT
BRANCH   1   2
ATOM      2  C   UNL     1       8.782  -2.371   1.071  1.00  0.00    -0.000 C 
BRANCH   2   3
ATOM      3  C   UNL     1       8.324  -2.144   2.524  1.00  0.00    -0.003 C 
ATOM      4  C   UNL     1       6.829  -1.852   2.641  1.00  0.00     0.004 C 
ENDBRANCH   2   3
ENDBRANCH   1   2
BRANCH   1   5
ATOM      5  C   UNL     1       8.474  -4.491  -0.340  1.00  0.00     0.008 C 
BRANCH   5   6
ATOM      6  C   UNL     1       8.019  -5.747   0.416  1.00  0.00     0.072 C 
BRANCH   6   7
ATOM      7  C   UNL     1       6.784  -5.503   1.236  1.00  0.00     0.224 C 
ATOM      8  O   UNL     1       5.747  -6.085   0.963  1.00  0.00    -0.303 OA
ENDBRANCH   6   7
ENDBRANCH   5   6
ENDBRANCH   1   5
TORSDOF 5
ENDMDL
MODEL 8
REMARK VINA RESULT:    -2.957      2.193      3.673
REMARK INTER + INTRA:          -4.205
REMARK INTER:                  -3.967
REMARK INTRA:                  -0.238
REMARK UNBOUND:                -0.383
REMARK SMILES CCCCCCC=O
REMARK SMILES IDX 4 1 3 2 2 3 1 4 5 5 6 6 7 7 8 8
REMARK H PARENT
REMARK Flexibility Score: inf
ROOT
ATOM      1  C   UNL     1      -0.559   6.527   5.623  1.00  0.00     0.000 C 
ENDROOT
BRANCH   1   2
ATOM      2  C   UNL     1       0.198   6.516   4.284  1.00  0.00    -0.000 C 
BRANCH   2   3
ATOM      3  C   UNL     1      -0.700   6.465   3.034  1.00  0.00    -0.003 C 
ATOM      4  C   UNL     1      -0.771   5.074   2.405  1.00  0.00     0.004 C 
ENDBRANCH   2   3
ENDBRANCH   1   2
BRANCH   1   5
ATOM      5  C   UNL     1      -0.979   7.941   6.062  1.00  0.00     0.008 C 
BRANCH   5   6
ATOM      6  C   UNL     1      -2.464   8.010   6.446  1.00  0.00     0.072 C 
BRANCH   6   7
ATOM      7  C   UNL     1      -3.363   7.563   5.330  1.00  0.00     0.224 C 
ATOM      8  O   UNL     1      -3.526   8.280   4.356  1.00  0.00    -0.303 OA
ENDBRANCH   6   7
ENDBRANCH   5   6
ENDBRANCH   1   5
TORSDOF 5
ENDMDL
MODEL 9
REMARK VINA RESULT:    -2.895      2.555      4.257
REMARK INTER + INTRA:          -4.124
REMARK INTER:                  -3.884
REMARK INTRA:                  -0.241
REMARK UNBOUND:                -0.383
REMARK SMILES CCCCCCC=O
REMARK SMILES IDX 4 1 3 2 2 3 1 4 5 5 6 6 7 7 8 8
REMARK H PARENT
REMARK Flexibility Score: inf
ROOT
ATOM      1  C   UNL     1       0.474   6.541   4.606  1.00  0.00     0.000 C 
ENDROOT
BRANCH   1   2
ATOM      2  C   UNL     1      -0.484   7.375   3.736  1.00  0.00    -0.000 C 
BRANCH   2   3
ATOM      3  C   UNL     1      -0.997   6.661   2.472  1.00  0.00    -0.003 C 
ATOM      4  C   UNL     1      -0.729   5.157   2.485  1.00  0.00     0.004 C 
ENDBRANCH   2   3
ENDBRANCH   1   2
BRANCH   1   5
ATOM      5  C   UNL     1       0.132   6.608   6.105  1.00  0.00     0.008 C 
BRANCH   5   6
ATOM      6  C   UNL     1      -1.211   7.306   6.360  1.00  0.00     0.072 C 
BRANCH   6   7
ATOM      7  C   UNL     1      -1.087   8.447   7.329  1.00  0.00     0.224 C 
ATOM      8  O   UNL     1      -1.618   9.517   7.080  1.00  0.00    -0.303 OA
ENDBRANCH   6   7
ENDBRANCH   5   6
ENDBRANCH   1   5
TORSDOF 5
ENDMDL
