MODEL 1
REMARK VINA RESULT:    -4.408      0.000      0.000
REMARK INTER + INTRA:          -6.689
REMARK INTER:                  -6.727
REMARK INTRA:                   0.038
REMARK UNBOUND:                 0.038
REMARK SMILES CC1=CCC[C@@H](C)C(=O)C[C@H](C(C)C)C(=O)C1
REMARK SMILES IDX 8 1 9 2 6 3 7 4 5 5 4 6 3 7 2 8 1 9 10 11 11 12 15 13 16 14
REMARK SMILES IDX 17 15 12 17 13 18 14 19
REMARK H PARENT
REMARK Flexibility Score: 70.00
ROOT
ATOM      1  C   UNL     1      38.249  10.836  28.262  1.00  0.00     0.136 C 
ATOM      2  O   UNL     1      37.996  11.995  28.561  1.00  0.00    -0.299 OA
ENDROOT
BRANCH   1   3
ATOM      3  C   UNL     1      39.607  10.522  27.661  1.00  0.00     0.053 C 
ATOM      4  C   UNL     1      39.835  11.309  26.364  1.00  0.00     0.016 C 
BRANCH   3   5
ATOM      5  C   UNL     1      39.798   9.010  27.433  1.00  0.00     0.015 C 
BRANCH   5   6
ATOM      6  C   UNL     1      39.782   8.632  25.935  1.00  0.00     0.028 C 
BRANCH   6   7
ATOM      7  C   UNL     1      39.181   7.264  25.728  1.00  0.00    -0.028 C 
ATOM      8  C   UNL     1      37.882   7.015  25.429  1.00  0.00    -0.070 CG0
ATOM      9  C   UNL     1      37.479   5.583  25.185  1.00  0.00     0.039 C 
ATOM     10  G   UNL     1      36.818   8.099  25.357  1.00  0.00     0.000 G0
ENDBRANCH   6   7
ENDBRANCH   5   6
ENDBRANCH   3   5
ENDBRANCH   1   3
BRANCH   1  11
ATOM     11  C   UNL     1      37.186   9.780  28.494  1.00  0.00     0.087 C 
BRANCH  11  12
ATOM     12  C   UNL     1      36.090   9.723  27.391  1.00  0.00     0.066 C 
BRANCH  12  13
ATOM     13  C   UNL     1      36.094   8.368  26.689  1.00  0.00     0.140 C 
ATOM     14  O   UNL     1      35.461   7.452  27.193  1.00  0.00    -0.299 OA
BRANCH  13  15
ATOM     15  C   UNL     1      36.805   8.089  25.378  1.00  0.00     0.106 CG0
ATOM     16  G   UNL     1      37.879   7.012  25.423  1.00  0.00     0.000 G0
ENDBRANCH  13  15
ENDBRANCH  12  13
BRANCH  12  17
ATOM     17  C   UNL     1      34.673  10.022  27.977  1.00  0.00    -0.006 C 
ATOM     18  C   UNL     1      34.594  11.417  28.623  1.00  0.00     0.008 C 
ATOM     19  C   UNL     1      33.583   9.916  26.894  1.00  0.00     0.008 C 
ENDBRANCH  12  17
ENDBRANCH  11  12
ENDBRANCH   1  11
TORSDOF 1
ENDMDL
MODEL 2
REMARK VINA RESULT:    -4.305      2.048      3.577
REMARK INTER + INTRA:          -6.532
REMARK INTER:                  -6.777
REMARK INTRA:                   0.246
REMARK UNBOUND:                 0.038
REMARK SMILES CC1=CCC[C@@H](C)C(=O)C[C@H](C(C)C)C(=O)C1
REMARK SMILES IDX 8 1 9 2 6 3 7 4 5 5 4 6 3 7 2 8 1 9 10 11 11 12 15 13 16 14
REMARK SMILES IDX 17 15 12 17 13 18 14 19
REMARK H PARENT
REMARK Flexibility Score: 70.00
ROOT
ATOM      1  C   UNL     1      36.651   9.443  25.466  1.00  0.00     0.136 C 
ATOM      2  O   UNL     1      37.619   9.865  24.849  1.00  0.00    -0.299 OA
ENDROOT
BRANCH   1   3
ATOM      3  C   UNL     1      36.224   8.002  25.250  1.00  0.00     0.053 C 
ATOM      4  C   UNL     1      35.059   7.624  26.173  1.00  0.00     0.016 C 
BRANCH   3   5
ATOM      5  C   UNL     1      37.403   7.023  25.415  1.00  0.00     0.015 C 
BRANCH   5   6
ATOM      6  C   UNL     1      37.728   6.736  26.898  1.00  0.00     0.028 C 
BRANCH   6   7
ATOM      7  C   UNL     1      39.064   7.321  27.282  1.00  0.00    -0.028 C 
ATOM      8  C   UNL     1      39.269   8.230  28.268  1.00  0.00    -0.070 CG0
ATOM      9  C   UNL     1      40.689   8.645  28.557  1.00  0.00     0.039 C 
ATOM     10  G   UNL     1      38.141   8.865  29.067  1.00  0.00     0.000 G0
ENDBRANCH   6   7
ENDBRANCH   5   6
ENDBRANCH   3   5
ENDBRANCH   1   3
BRANCH   1  11
ATOM     11  C   UNL     1      35.921  10.387  26.401  1.00  0.00     0.087 C 
BRANCH  11  12
ATOM     12  C   UNL     1      35.979   9.976  27.900  1.00  0.00     0.066 C 
BRANCH  12  13
ATOM     13  C   UNL     1      37.410  10.031  28.426  1.00  0.00     0.140 C 
ATOM     14  O   UNL     1      38.015  11.090  28.350  1.00  0.00    -0.299 OA
BRANCH  13  15
ATOM     15  C   UNL     1      38.126   8.861  29.074  1.00  0.00     0.106 CG0
ATOM     16  G   UNL     1      39.257   8.246  28.264  1.00  0.00     0.000 G0
ENDBRANCH  13  15
ENDBRANCH  12  13
BRANCH  12  17
ATOM     17  C   UNL     1      35.048  10.873  28.776  1.00  0.00    -0.006 C 
ATOM     18  C   UNL     1      35.265  12.373  28.507  1.00  0.00     0.008 C 
ATOM     19  C   UNL     1      33.562  10.539  28.544  1.00  0.00     0.008 C 
ENDBRANCH  12  17
ENDBRANCH  11  12
ENDBRANCH   1  11
TORSDOF 1
ENDMDL
MODEL 3
REMARK VINA RESULT:    -4.265      1.718      3.851
REMARK INTER + INTRA:          -6.471
REMARK INTER:                  -6.340
REMARK INTRA:                  -0.131
REMARK UNBOUND:                 0.038
REMARK SMILES CC1=CCC[C@@H](C)C(=O)C[C@H](C(C)C)C(=O)C1
REMARK SMILES IDX 8 1 9 2 6 3 7 4 5 5 4 6 3 7 2 8 1 9 10 11 11 12 15 13 16 14
REMARK SMILES IDX 17 15 12 17 13 18 14 19
REMARK H PARENT
REMARK Flexibility Score: 70.00
ROOT
ATOM      1  C   UNL     1      36.329   7.816  25.893  1.00  0.00     0.136 C 
ATOM      2  O   UNL     1      35.450   7.015  25.611  1.00  0.00    -0.299 OA
ENDROOT
BRANCH   1   3
ATOM      3  C   UNL     1      37.740   7.299  26.109  1.00  0.00     0.053 C 
ATOM      4  C   UNL     1      38.117   6.258  25.049  1.00  0.00     0.016 C 
BRANCH   3   5
ATOM      5  C   UNL     1      37.934   6.738  27.532  1.00  0.00     0.015 C 
BRANCH   5   6
ATOM      6  C   UNL     1      39.027   7.493  28.320  1.00  0.00     0.028 C 
BRANCH   6   7
ATOM      7  C   UNL     1      39.460   8.739  27.586  1.00  0.00    -0.028 C 
ATOM      8  C   UNL     1      38.959   9.982  27.789  1.00  0.00    -0.070 CG0
ATOM      9  C   UNL     1      39.569  11.121  27.012  1.00  0.00     0.039 C 
ATOM     10  G   UNL     1      37.803  10.274  28.733  1.00  0.00     0.000 G0
ENDBRANCH   6   7
ENDBRANCH   5   6
ENDBRANCH   3   5
ENDBRANCH   1   3
BRANCH   1  11
ATOM     11  C   UNL     1      35.958   9.280  26.028  1.00  0.00     0.087 C 
BRANCH  11  12
ATOM     12  C   UNL     1      35.504   9.697  27.457  1.00  0.00     0.066 C 
BRANCH  12  13
ATOM     13  C   UNL     1      36.488  10.688  28.073  1.00  0.00     0.140 C 
ATOM     14  O   UNL     1      36.192  11.874  28.074  1.00  0.00    -0.299 OA
BRANCH  13  15
ATOM     15  C   UNL     1      37.801  10.294  28.723  1.00  0.00     0.106 CG0
ATOM     16  G   UNL     1      38.942   9.976  27.770  1.00  0.00     0.000 G0
ENDBRANCH  13  15
ENDBRANCH  12  13
BRANCH  12  17
ATOM     17  C   UNL     1      34.065  10.302  27.447  1.00  0.00    -0.006 C 
ATOM     18  C   UNL     1      33.113   9.523  26.520  1.00  0.00     0.008 C 
ATOM     19  C   UNL     1      33.458  10.336  28.862  1.00  0.00     0.008 C 
ENDBRANCH  12  17
ENDBRANCH  11  12
ENDBRANCH   1  11
TORSDOF 1
ENDMDL
MODEL 4
REMARK VINA RESULT:    -4.089      1.886      4.727
REMARK INTER + INTRA:          -6.203
REMARK INTER:                  -6.100
REMARK INTRA:                  -0.102
REMARK UNBOUND:                 0.038
REMARK SMILES CC1=CCC[C@@H](C)C(=O)C[C@H](C(C)C)C(=O)C1
REMARK SMILES IDX 8 1 9 2 6 3 7 4 5 5 4 6 3 7 2 8 1 9 10 11 11 12 15 13 16 14
REMARK SMILES IDX 17 15 12 17 13 18 14 19
REMARK H PARENT
REMARK Flexibility Score: 70.00
ROOT
ATOM      1  C   UNL     1      35.219   8.816  26.988  1.00  0.00     0.136 C 
ATOM      2  O   UNL     1      34.554   8.634  25.978  1.00  0.00    -0.299 OA
ENDROOT
BRANCH   1   3
ATOM      3  C   UNL     1      34.880  10.000  27.876  1.00  0.00     0.053 C 
ATOM      4  C   UNL     1      33.435  10.463  27.654  1.00  0.00     0.016 C 
BRANCH   3   5
ATOM      5  C   UNL     1      35.871  11.164  27.685  1.00  0.00     0.015 C 
BRANCH   5   6
ATOM      6  C   UNL     1      37.037  11.119  28.698  1.00  0.00     0.028 C 
BRANCH   6   7
ATOM      7  C   UNL     1      38.350  11.434  28.025  1.00  0.00    -0.028 C 
ATOM      8  C   UNL     1      39.222  10.516  27.539  1.00  0.00    -0.070 CG0
ATOM      9  C   UNL     1      40.453  11.022  26.831  1.00  0.00     0.039 C 
ATOM     10  G   UNL     1      39.033   9.015  27.699  1.00  0.00     0.000 G0
ENDBRANCH   6   7
ENDBRANCH   5   6
ENDBRANCH   3   5
ENDBRANCH   1   3
BRANCH   1  11
ATOM     11  C   UNL     1      36.356   7.859  27.290  1.00  0.00     0.087 C 
BRANCH  11  12
ATOM     12  C   UNL     1      37.350   7.654  26.111  1.00  0.00     0.066 C 
BRANCH  12  13
ATOM     13  C   UNL     1      38.724   8.224  26.451  1.00  0.00     0.140 C 
ATOM     14  O   UNL     1      39.631   8.071  25.646  1.00  0.00    -0.299 OA
BRANCH  13  15
ATOM     15  C   UNL     1      39.034   9.005  27.715  1.00  0.00     0.106 CG0
ATOM     16  G   UNL     1      39.232  10.502  27.536  1.00  0.00     0.000 G0
ENDBRANCH  13  15
ENDBRANCH  12  13
BRANCH  12  17
ATOM     17  C   UNL     1      37.473   6.147  25.721  1.00  0.00    -0.006 C 
ATOM     18  C   UNL     1      37.954   5.279  26.898  1.00  0.00     0.008 C 
ATOM     19  C   UNL     1      36.133   5.587  25.209  1.00  0.00     0.008 C 
ENDBRANCH  12  17
ENDBRANCH  11  12
ENDBRANCH   1  11
TORSDOF 1
ENDMDL
MODEL 5
REMARK VINA RESULT:    -4.019      1.579      3.971
REMARK INTER + INTRA:          -6.096
REMARK INTER:                  -6.073
REMARK INTRA:                  -0.023
REMARK UNBOUND:                 0.038
REMARK SMILES CC1=CCC[C@@H](C)C(=O)C[C@H](C(C)C)C(=O)C1
REMARK SMILES IDX 8 1 9 2 6 3 7 4 5 5 4 6 3 7 2 8 1 9 10 11 11 12 15 13 16 14
REMARK SMILES IDX 17 15 12 17 13 18 14 19
REMARK H PARENT
REMARK Flexibility Score: 70.00
ROOT
ATOM      1  C   UNL     1      37.585  10.478  28.116  1.00  0.00     0.136 C 
ATOM      2  O   UNL     1      37.830   9.887  29.158  1.00  0.00    -0.299 OA
ENDROOT
BRANCH   1   3
ATOM      3  C   UNL     1      36.169  10.970  27.878  1.00  0.00     0.053 C 
ATOM      4  C   UNL     1      35.817  12.126  28.823  1.00  0.00     0.016 C 
BRANCH   3   5
ATOM      5  C   UNL     1      35.138   9.829  27.989  1.00  0.00     0.015 C 
BRANCH   5   6
ATOM      6  C   UNL     1      35.057   8.979  26.701  1.00  0.00     0.028 C 
BRANCH   6   7
ATOM      7  C   UNL     1      35.686   7.624  26.908  1.00  0.00    -0.028 C 
ATOM      8  C   UNL     1      36.700   7.109  26.170  1.00  0.00    -0.070 CG0
ATOM      9  C   UNL     1      37.250   5.764  26.572  1.00  0.00     0.039 C 
ATOM     10  G   UNL     1      37.283   7.805  24.949  1.00  0.00     0.000 G0
ENDBRANCH   6   7
ENDBRANCH   5   6
ENDBRANCH   3   5
ENDBRANCH   1   3
BRANCH   1  11
ATOM     11  C   UNL     1      38.704  10.673  27.113  1.00  0.00     0.087 C 
BRANCH  11  12
ATOM     12  C   UNL     1      39.030   9.411  26.262  1.00  0.00     0.066 C 
BRANCH  12  13
ATOM     13  C   UNL     1      37.943   9.161  25.220  1.00  0.00     0.140 C 
ATOM     14  O   UNL     1      37.575  10.100  24.529  1.00  0.00    -0.299 OA
BRANCH  13  15
ATOM     15  C   UNL     1      37.308   7.808  24.957  1.00  0.00     0.106 CG0
ATOM     16  G   UNL     1      36.707   7.112  26.169  1.00  0.00     0.000 G0
ENDBRANCH  13  15
ENDBRANCH  12  13
BRANCH  12  17
ATOM     17  C   UNL     1      40.424   9.532  25.569  1.00  0.00    -0.006 C 
ATOM     18  C   UNL     1      41.099  10.886  25.851  1.00  0.00     0.008 C 
ATOM     19  C   UNL     1      41.373   8.404  26.013  1.00  0.00     0.008 C 
ENDBRANCH  12  17
ENDBRANCH  11  12
ENDBRANCH   1  11
TORSDOF 1
ENDMDL
MODEL 6
REMARK VINA RESULT:    -3.922      1.706      4.129
REMARK INTER + INTRA:          -5.948
REMARK INTER:                  -5.810
REMARK INTRA:                  -0.137
REMARK UNBOUND:                 0.038
REMARK SMILES CC1=CCC[C@@H](C)C(=O)C[C@H](C(C)C)C(=O)C1
REMARK SMILES IDX 8 1 9 2 6 3 7 4 5 5 4 6 3 7 2 8 1 9 10 11 11 12 15 13 16 14
REMARK SMILES IDX 17 15 12 17 13 18 14 19
REMARK H PARENT
REMARK Flexibility Score: 70.00
ROOT
ATOM      1  C   UNL     1      37.111  10.070  27.302  1.00  0.00     0.136 C 
ATOM      2  O   UNL     1      37.379  10.420  28.443  1.00  0.00    -0.299 OA
ENDROOT
BRANCH   1   3
ATOM      3  C   UNL     1      35.653  10.033  26.878  1.00  0.00     0.053 C 
ATOM      4  C   UNL     1      34.721  10.216  28.082  1.00  0.00     0.016 C 
BRANCH   3   5
ATOM      5  C   UNL     1      35.314   8.744  26.104  1.00  0.00     0.015 C 
BRANCH   5   6
ATOM      6  C   UNL     1      35.751   7.469  26.860  1.00  0.00     0.028 C 
BRANCH   6   7
ATOM      7  C   UNL     1      36.261   6.421  25.902  1.00  0.00    -0.028 C 
ATOM      8  C   UNL     1      37.490   5.851  25.946  1.00  0.00    -0.070 CG0
ATOM      9  C   UNL     1      37.797   4.764  24.947  1.00  0.00     0.039 C 
ATOM     10  G   UNL     1      38.574   6.273  26.927  1.00  0.00     0.000 G0
ENDBRANCH   6   7
ENDBRANCH   5   6
ENDBRANCH   3   5
ENDBRANCH   1   3
BRANCH   1  11
ATOM     11  C   UNL     1      38.247   9.677  26.379  1.00  0.00     0.087 C 
BRANCH  11  12
ATOM     12  C   UNL     1      39.372   8.848  27.064  1.00  0.00     0.066 C 
BRANCH  12  13
ATOM     13  C   UNL     1      39.452   7.444  26.471  1.00  0.00     0.140 C 
ATOM     14  O   UNL     1      40.278   7.232  25.595  1.00  0.00    -0.299 OA
BRANCH  13  15
ATOM     15  C   UNL     1      38.596   6.277  26.924  1.00  0.00     0.106 CG0
ATOM     16  G   UNL     1      37.507   5.839  25.955  1.00  0.00     0.000 G0
ENDBRANCH  13  15
ENDBRANCH  12  13
BRANCH  12  17
ATOM     17  C   UNL     1      40.757   9.561  26.954  1.00  0.00    -0.006 C 
ATOM     18  C   UNL     1      40.621  11.035  26.533  1.00  0.00     0.008 C 
ATOM     19  C   UNL     1      41.532   9.495  28.283  1.00  0.00     0.008 C 
ENDBRANCH  12  17
ENDBRANCH  11  12
ENDBRANCH   1  11
TORSDOF 1
ENDMDL
MODEL 7
REMARK VINA RESULT:    -3.868      1.928      3.987
REMARK INTER + INTRA:          -5.866
REMARK INTER:                  -5.681
REMARK INTRA:                  -0.185
REMARK UNBOUND:                 0.038
REMARK SMILES CC1=CCC[C@@H](C)C(=O)C[C@H](C(C)C)C(=O)C1
REMARK SMILES IDX 8 1 9 2 6 3 7 4 5 5 4 6 3 7 2 8 1 9 10 11 11 12 15 13 16 14
REMARK SMILES IDX 17 15 12 17 13 18 14 19
REMARK H PARENT
REMARK Flexibility Score: 70.00
ROOT
ATOM      1  C   UNL     1      36.518   6.620  25.518  1.00  0.00     0.136 C 
ATOM      2  O   UNL     1      35.639   5.784  25.672  1.00  0.00    -0.299 OA
ENDROOT
BRANCH   1   3
ATOM      3  C   UNL     1      37.965   6.162  25.533  1.00  0.00     0.053 C 
ATOM      4  C   UNL     1      38.192   5.008  24.548  1.00  0.00     0.016 C 
BRANCH   3   5
ATOM      5  C   UNL     1      38.432   5.780  26.951  1.00  0.00     0.015 C 
BRANCH   5   6
ATOM      6  C   UNL     1      39.234   6.911  27.633  1.00  0.00     0.028 C 
BRANCH   6   7
ATOM      7  C   UNL     1      40.271   7.479  26.695  1.00  0.00    -0.028 C 
ATOM      8  C   UNL     1      40.325   8.766  26.273  1.00  0.00    -0.070 CG0
ATOM      9  C   UNL     1      41.481   9.169  25.393  1.00  0.00     0.039 C 
ATOM     10  G   UNL     1      39.269   9.805  26.618  1.00  0.00     0.000 G0
ENDBRANCH   6   7
ENDBRANCH   5   6
ENDBRANCH   3   5
ENDBRANCH   1   3
BRANCH   1  11
ATOM     11  C   UNL     1      36.115   8.070  25.335  1.00  0.00     0.087 C 
BRANCH  11  12
ATOM     12  C   UNL     1      36.710   9.039  26.397  1.00  0.00     0.066 C 
BRANCH  12  13
ATOM     13  C   UNL     1      37.965   9.725  25.866  1.00  0.00     0.140 C 
ATOM     14  O   UNL     1      37.912  10.262  24.769  1.00  0.00    -0.299 OA
BRANCH  13  15
ATOM     15  C   UNL     1      39.273   9.819  26.628  1.00  0.00     0.106 CG0
ATOM     16  G   UNL     1      40.321   8.775  26.276  1.00  0.00     0.000 G0
ENDBRANCH  13  15
ENDBRANCH  12  13
BRANCH  12  17
ATOM     17  C   UNL     1      35.662  10.105  26.850  1.00  0.00    -0.006 C 
ATOM     18  C   UNL     1      34.221   9.570  26.782  1.00  0.00     0.008 C 
ATOM     19  C   UNL     1      35.941  10.595  28.283  1.00  0.00     0.008 C 
ENDBRANCH  12  17
ENDBRANCH  11  12
ENDBRANCH   1  11
TORSDOF 1
ENDMDL
MODEL 8
REMARK VINA RESULT:    -3.811      2.231      3.833
REMARK INTER + INTRA:          -5.778
REMARK INTER:                  -5.830
REMARK INTRA:                   0.052
REMARK UNBOUND:                 0.038
REMARK SMILES CC1=CCC[C@@H](C)C(=O)C[C@H](C(C)C)C(=O)C1
REMARK SMILES IDX 8 1 9 2 6 3 7 4 5 5 4 6 3 7 2 8 1 9 10 11 11 12 15 13 16 14
REMARK SMILES IDX 17 15 12 17 13 18 14 19
REMARK H PARENT
REMARK Flexibility Score: 70.00
ROOT
ATOM      1  C   UNL     1      37.952   6.690  27.154  1.00  0.00     0.136 C 
ATOM      2  O   UNL     1      37.487   5.676  27.655  1.00  0.00    -0.299 OA
ENDROOT
BRANCH   1   3
ATOM      3  C   UNL     1      39.432   6.975  27.334  1.00  0.00     0.053 C 
ATOM      4  C   UNL     1      40.276   5.727  27.049  1.00  0.00     0.016 C 
BRANCH   3   5
ATOM      5  C   UNL     1      39.740   7.546  28.732  1.00  0.00     0.015 C 
BRANCH   5   6
ATOM      6  C   UNL     1      40.437   8.923  28.667  1.00  0.00     0.028 C 
BRANCH   6   7
ATOM      7  C   UNL     1      41.138   9.112  27.345  1.00  0.00    -0.028 C 
ATOM      8  C   UNL     1      40.691   9.882  26.323  1.00  0.00    -0.070 CG0
ATOM      9  C   UNL     1      41.567  10.008  25.102  1.00  0.00     0.039 C 
ATOM     10  G   UNL     1      39.347  10.594  26.338  1.00  0.00     0.000 G0
ENDBRANCH   6   7
ENDBRANCH   5   6
ENDBRANCH   3   5
ENDBRANCH   1   3
BRANCH   1  11
ATOM     11  C   UNL     1      37.021   7.614  26.394  1.00  0.00     0.087 C 
BRANCH  11  12
ATOM     12  C   UNL     1      37.157   9.116  26.776  1.00  0.00     0.066 C 
BRANCH  12  13
ATOM     13  C   UNL     1      38.149   9.825  25.858  1.00  0.00     0.140 C 
ATOM     14  O   UNL     1      37.951   9.788  24.653  1.00  0.00    -0.299 OA
BRANCH  13  15
ATOM     15  C   UNL     1      39.353  10.608  26.347  1.00  0.00     0.106 CG0
ATOM     16  G   UNL     1      40.684   9.872  26.304  1.00  0.00     0.000 G0
ENDBRANCH  13  15
ENDBRANCH  12  13
BRANCH  12  17
ATOM     17  C   UNL     1      35.775   9.843  26.741  1.00  0.00    -0.006 C 
ATOM     18  C   UNL     1      34.691   8.997  26.049  1.00  0.00     0.008 C 
ATOM     19  C   UNL     1      35.292  10.203  28.158  1.00  0.00     0.008 C 
ENDBRANCH  12  17
ENDBRANCH  11  12
ENDBRANCH   1  11
TORSDOF 1
ENDMDL
MODEL 9
REMARK VINA RESULT:    -3.807      2.060      4.816
REMARK INTER + INTRA:          -5.772
REMARK INTER:                  -5.477
REMARK INTRA:                  -0.296
REMARK UNBOUND:                 0.038
REMARK SMILES CC1=CCC[C@@H](C)C(=O)C[C@H](C(C)C)C(=O)C1
REMARK SMILES IDX 8 1 9 2 6 3 7 4 5 5 4 6 3 7 2 8 1 9 10 11 11 12 15 13 16 14
REMARK SMILES IDX 17 15 12 17 13 18 14 19
REMARK H PARENT
REMARK Flexibility Score: 70.00
ROOT
ATOM      1  C   UNL     1      35.970   7.779  26.805  1.00  0.00     0.136 C 
ATOM      2  O   UNL     1      34.976   7.259  26.319  1.00  0.00    -0.299 OA
ENDROOT
BRANCH   1   3
ATOM      3  C   UNL     1      36.101   9.290  26.745  1.00  0.00     0.053 C 
ATOM      4  C   UNL     1      34.923   9.978  27.446  1.00  0.00     0.016 C 
BRANCH   3   5
ATOM      5  C   UNL     1      36.258   9.795  25.298  1.00  0.00     0.015 C 
BRANCH   5   6
ATOM      6  C   UNL     1      37.713   9.690  24.790  1.00  0.00     0.028 C 
BRANCH   6   7
ATOM      7  C   UNL     1      38.668  10.365  25.743  1.00  0.00    -0.028 C 
ATOM      8  C   UNL     1      39.790   9.803  26.258  1.00  0.00    -0.070 CG0
ATOM      9  C   UNL     1      40.663  10.658  27.140  1.00  0.00     0.039 C 
ATOM     10  G   UNL     1      40.188   8.355  26.013  1.00  0.00     0.000 G0
ENDBRANCH   6   7
ENDBRANCH   5   6
ENDBRANCH   3   5
ENDBRANCH   1   3
BRANCH   1  11
ATOM     11  C   UNL     1      37.023   6.884  27.428  1.00  0.00     0.087 C 
BRANCH  11  12
ATOM     12  C   UNL     1      38.224   6.562  26.492  1.00  0.00     0.066 C 
BRANCH  12  13
ATOM     13  C   UNL     1      39.467   7.341  26.912  1.00  0.00     0.140 C 
ATOM     14  O   UNL     1      39.943   7.122  28.016  1.00  0.00    -0.299 OA
BRANCH  13  15
ATOM     15  C   UNL     1      40.178   8.352  26.032  1.00  0.00     0.106 CG0
ATOM     16  G   UNL     1      39.801   9.808  26.257  1.00  0.00     0.000 G0
ENDBRANCH  13  15
ENDBRANCH  12  13
BRANCH  12  17
ATOM     17  C   UNL     1      38.532   5.031  26.462  1.00  0.00    -0.006 C 
ATOM     18  C   UNL     1      37.336   4.188  26.941  1.00  0.00     0.008 C 
ATOM     19  C   UNL     1      38.932   4.565  25.050  1.00  0.00     0.008 C 
ENDBRANCH  12  17
ENDBRANCH  11  12
ENDBRANCH   1  11
TORSDOF 1
ENDMDL
