MODEL 1
REMARK VINA RESULT:     5.451      0.000      0.000
REMARK INTER + INTRA:           5.866
REMARK INTER:                   5.929
REMARK INTRA:                  -0.064
REMARK UNBOUND:                -0.064
REMARK SMILES COc1cc2ccc(=O)oc2cc1O
REMARK SMILES IDX 3 1 13 2 12 3 11 4 5 5 4 6 6 7 7 8 8 9 9 10 10 11 2 12 1 13
REMARK SMILES IDX 14 14
REMARK H PARENT 14 15
REMARK Flexibility Score: inf
ROOT
ATOM      1  C   UNL     1      -0.001  -2.450  -0.830  1.00  0.00     0.161 A 
ATOM      2  C   UNL     1      -0.768  -2.292   0.341  1.00  0.00     0.161 A 
ATOM      3  C   UNL     1      -0.227  -1.640   1.456  1.00  0.00     0.098 A 
ATOM      4  C   UNL     1       1.075  -1.139   1.419  1.00  0.00     0.142 A 
ATOM      5  C   UNL     1       1.851  -1.292   0.252  1.00  0.00     0.022 A 
ATOM      6  C   UNL     1       1.314  -1.944  -0.867  1.00  0.00     0.062 A 
ATOM      7  C   UNL     1       3.153  -0.779   0.245  1.00  0.00     0.019 A 
ATOM      8  C   UNL     1       3.643  -0.138   1.382  1.00  0.00     0.094 A 
ATOM      9  C   UNL     1       2.815  -0.024   2.504  1.00  0.00     0.336 A 
ATOM     10  O   UNL     1       3.237   0.552   3.541  1.00  0.00    -0.246 OA
ATOM     11  O   UNL     1       1.581  -0.520   2.484  1.00  0.00    -0.423 OA
ENDROOT
BRANCH   1  12
ATOM     12  O   UNL     1      -0.574  -3.110  -1.930  1.00  0.00    -0.493 OA
ATOM     13  C   UNL     1      -1.002  -2.466  -3.125  1.00  0.00     0.278 C 
ENDBRANCH   1  12
BRANCH   2  14
ATOM     14  O   UNL     1      -2.073  -2.779   0.417  1.00  0.00    -0.504 OA
ATOM     15  H   UNL     1      -2.874  -2.166   0.504  1.00  0.00     0.293 HD
ENDBRANCH   2  14
TORSDOF 2
ENDMDL
MODEL 2
REMARK VINA RESULT:     5.822      0.589      0.589
REMARK INTER + INTRA:           6.269
REMARK INTER:                   6.313
REMARK INTRA:                  -0.045
REMARK UNBOUND:                -0.064
REMARK SMILES COc1cc2ccc(=O)oc2cc1O
REMARK SMILES IDX 3 1 13 2 12 3 11 4 5 5 4 6 6 7 7 8 8 9 9 10 10 11 2 12 1 13
REMARK SMILES IDX 14 14
REMARK H PARENT 14 15
REMARK Flexibility Score: inf
ROOT
ATOM      1  C   UNL     1      -0.350  -2.287  -0.775  1.00  0.00     0.161 A 
ATOM      2  C   UNL     1      -0.733  -2.478   0.567  1.00  0.00     0.161 A 
ATOM      3  C   UNL     1       0.087  -2.024   1.606  1.00  0.00     0.098 A 
ATOM      4  C   UNL     1       1.291  -1.375   1.325  1.00  0.00     0.142 A 
ATOM      5  C   UNL     1       1.684  -1.179  -0.015  1.00  0.00     0.022 A 
ATOM      6  C   UNL     1       0.866  -1.633  -1.059  1.00  0.00     0.062 A 
ATOM      7  C   UNL     1       2.896  -0.528  -0.266  1.00  0.00     0.019 A 
ATOM      8  C   UNL     1       3.675  -0.094   0.807  1.00  0.00     0.094 A 
ATOM      9  C   UNL     1       3.222  -0.324   2.110  1.00  0.00     0.336 A 
ATOM     10  O   UNL     1       3.910   0.059   3.092  1.00  0.00    -0.246 OA
ATOM     11  O   UNL     1       2.065  -0.947   2.320  1.00  0.00    -0.423 OA
ENDROOT
BRANCH   1  12
ATOM     12  O   UNL     1      -1.196  -2.756  -1.793  1.00  0.00    -0.493 OA
ATOM     13  C   UNL     1      -0.771  -3.072  -3.115  1.00  0.00     0.278 C 
ENDBRANCH   1  12
BRANCH   2  14
ATOM     14  O   UNL     1      -1.928  -3.121   0.889  1.00  0.00    -0.504 OA
ATOM     15  H   UNL     1      -2.754  -2.612   1.180  1.00  0.00     0.293 HD
ENDBRANCH   2  14
TORSDOF 2
ENDMDL
MODEL 3
REMARK VINA RESULT:     5.975      1.363      5.383
REMARK INTER + INTRA:           6.435
REMARK INTER:                   5.553
REMARK INTRA:                   0.882
REMARK UNBOUND:                -0.064
REMARK SMILES COc1cc2ccc(=O)oc2cc1O
REMARK SMILES IDX 3 1 13 2 12 3 11 4 5 5 4 6 6 7 7 8 8 9 9 10 10 11 2 12 1 13
REMARK SMILES IDX 14 14
REMARK H PARENT 14 15
REMARK Flexibility Score: inf
ROOT
ATOM      1  C   UNL     1       1.878  -0.822   1.888  1.00  0.00     0.161 A 
ATOM      2  C   UNL     1       2.598  -0.515   0.717  1.00  0.00     0.161 A 
ATOM      3  C   UNL     1       2.129  -0.940  -0.530  1.00  0.00     0.098 A 
ATOM      4  C   UNL     1       0.943  -1.672  -0.629  1.00  0.00     0.142 A 
ATOM      5  C   UNL     1       0.216  -1.985   0.537  1.00  0.00     0.022 A 
ATOM      6  C   UNL     1       0.682  -1.560   1.789  1.00  0.00     0.062 A 
ATOM      7  C   UNL     1      -0.968  -2.719   0.408  1.00  0.00     0.019 A 
ATOM      8  C   UNL     1      -1.391  -3.118  -0.860  1.00  0.00     0.094 A 
ATOM      9  C   UNL     1      -0.617  -2.772  -1.972  1.00  0.00     0.336 A 
ATOM     10  O   UNL     1      -0.980  -3.122  -3.125  1.00  0.00    -0.246 OA
ATOM     11  O   UNL     1       0.505  -2.073  -1.820  1.00  0.00    -0.423 OA
ENDROOT
BRANCH   1  12
ATOM     12  O   UNL     1       2.378  -0.380   3.125  1.00  0.00    -0.493 OA
ATOM     13  C   UNL     1       3.438   0.558   3.279  1.00  0.00     0.278 C 
ENDBRANCH   1  12
BRANCH   2  14
ATOM     14  O   UNL     1       3.786   0.214   0.774  1.00  0.00    -0.504 OA
ATOM     15  H   UNL     1       3.801   1.212   0.941  1.00  0.00     0.293 HD
ENDBRANCH   2  14
TORSDOF 2
ENDMDL
MODEL 4
REMARK VINA RESULT:     6.252      1.279      4.832
REMARK INTER + INTRA:           6.736
REMARK INTER:                   6.801
REMARK INTRA:                  -0.065
REMARK UNBOUND:                -0.064
REMARK SMILES COc1cc2ccc(=O)oc2cc1O
REMARK SMILES IDX 3 1 13 2 12 3 11 4 5 5 4 6 6 7 7 8 8 9 9 10 10 11 2 12 1 13
REMARK SMILES IDX 14 14
REMARK H PARENT 14 15
REMARK Flexibility Score: inf
ROOT
ATOM      1  C   UNL     1       3.073  -0.695   0.983  1.00  0.00     0.161 A 
ATOM      2  C   UNL     1       2.237  -0.470   2.094  1.00  0.00     0.161 A 
ATOM      3  C   UNL     1       0.885  -0.827   2.043  1.00  0.00     0.098 A 
ATOM      4  C   UNL     1       0.350  -1.411   0.893  1.00  0.00     0.142 A 
ATOM      5  C   UNL     1       1.178  -1.641  -0.224  1.00  0.00     0.022 A 
ATOM      6  C   UNL     1       2.533  -1.285  -0.178  1.00  0.00     0.062 A 
ATOM      7  C   UNL     1       0.615  -2.227  -1.363  1.00  0.00     0.019 A 
ATOM      8  C   UNL     1      -0.738  -2.564  -1.360  1.00  0.00     0.094 A 
ATOM      9  C   UNL     1      -1.499  -2.306  -0.215  1.00  0.00     0.336 A 
ATOM     10  O   UNL     1      -2.722  -2.603  -0.192  1.00  0.00    -0.246 OA
ATOM     11  O   UNL     1      -0.937  -1.747   0.854  1.00  0.00    -0.423 OA
ENDROOT
BRANCH   1  12
ATOM     12  O   UNL     1       4.425  -0.324   1.068  1.00  0.00    -0.493 OA
ATOM     13  C   UNL     1       5.500  -1.232   1.283  1.00  0.00     0.278 C 
ENDBRANCH   1  12
BRANCH   2  14
ATOM     14  O   UNL     1       2.733   0.112   3.261  1.00  0.00    -0.504 OA
ATOM     15  H   UNL     1       3.547  -0.251   3.742  1.00  0.00     0.293 HD
ENDBRANCH   2  14
TORSDOF 2
ENDMDL
