MODEL 1
REMARK VINA RESULT:    -3.697      0.000      0.000
REMARK INTER + INTRA:          -4.335
REMARK INTER:                  -4.129
REMARK INTRA:                  -0.206
REMARK UNBOUND:                -0.206
REMARK SMILES CC(C)c1ccc(C(=O)[O-])cc1
REMARK SMILES IDX 7 1 6 2 11 3 5 4 12 5 4 6 8 7 9 8 10 9 2 10 1 11 3 12
REMARK H PARENT
REMARK Flexibility Score: inf
ROOT
ATOM      1  C   UNL     1      19.270  -3.291  17.443  1.00  0.00    -0.003 A 
ATOM      2  C   UNL     1      19.123  -1.895  17.388  1.00  0.00     0.010 A 
ATOM      3  C   UNL     1      18.190  -4.104  17.060  1.00  0.00     0.010 A 
ATOM      4  C   UNL     1      17.922  -1.323  16.961  1.00  0.00     0.004 A 
ATOM      5  C   UNL     1      16.989  -3.532  16.632  1.00  0.00     0.004 A 
ATOM      6  C   UNL     1      16.842  -2.134  16.577  1.00  0.00    -0.045 A 
ENDROOT
BRANCH   1   7
ATOM      7  C   UNL     1      20.544  -3.892  17.897  1.00  0.00     0.071 C 
ATOM      8  O   UNL     1      20.659  -4.343  19.067  1.00  0.00    -0.545 OA
ATOM      9  O   UNL     1      21.633  -3.967  17.037  1.00  0.00    -0.545 OA
ENDBRANCH   1   7
BRANCH   6  10
ATOM     10  C   UNL     1      15.543  -1.500  16.114  1.00  0.00     0.013 C 
ATOM     11  C   UNL     1      14.612  -2.542  15.485  1.00  0.00     0.012 C 
ATOM     12  C   UNL     1      14.847  -0.763  17.265  1.00  0.00     0.012 C 
ENDBRANCH   6  10
TORSDOF 2
ENDMDL
MODEL 2
REMARK VINA RESULT:    -3.696      0.159      1.406
REMARK INTER + INTRA:          -4.334
REMARK INTER:                  -4.128
REMARK INTRA:                  -0.207
REMARK UNBOUND:                -0.206
REMARK SMILES CC(C)c1ccc(C(=O)[O-])cc1
REMARK SMILES IDX 7 1 6 2 11 3 5 4 12 5 4 6 8 7 9 8 10 9 2 10 1 11 3 12
REMARK H PARENT
REMARK Flexibility Score: inf
ROOT
ATOM      1  C   UNL     1      19.243  -3.179  17.360  1.00  0.00    -0.003 A 
ATOM      2  C   UNL     1      18.158  -4.009  17.034  1.00  0.00     0.010 A 
ATOM      3  C   UNL     1      19.073  -1.785  17.306  1.00  0.00     0.010 A 
ATOM      4  C   UNL     1      16.929  -3.458  16.661  1.00  0.00     0.004 A 
ATOM      5  C   UNL     1      17.844  -1.234  16.935  1.00  0.00     0.004 A 
ATOM      6  C   UNL     1      16.757  -2.065  16.608  1.00  0.00    -0.045 A 
ENDROOT
BRANCH   1   7
ATOM      7  C   UNL     1      20.542  -3.766  17.753  1.00  0.00     0.071 C 
ATOM      8  O   UNL     1      20.699  -4.267  18.899  1.00  0.00    -0.545 OA
ATOM      9  O   UNL     1      21.611  -3.775  16.864  1.00  0.00    -0.545 OA
ENDBRANCH   1   7
BRANCH   6  10
ATOM     10  C   UNL     1      15.416  -1.480  16.202  1.00  0.00     0.013 C 
ATOM     11  C   UNL     1      14.518  -2.546  15.567  1.00  0.00     0.012 C 
ATOM     12  C   UNL     1      14.722  -0.813  17.395  1.00  0.00     0.012 C 
ENDBRANCH   6  10
TORSDOF 2
ENDMDL
MODEL 3
REMARK VINA RESULT:    -3.554      3.093      5.233
REMARK INTER + INTRA:          -4.176
REMARK INTER:                  -3.971
REMARK INTRA:                  -0.205
REMARK UNBOUND:                -0.206
REMARK SMILES CC(C)c1ccc(C(=O)[O-])cc1
REMARK SMILES IDX 7 1 6 2 11 3 5 4 12 5 4 6 8 7 9 8 10 9 2 10 1 11 3 12
REMARK H PARENT
REMARK Flexibility Score: inf
ROOT
ATOM      1  C   UNL     1      16.530  -2.369  16.565  1.00  0.00    -0.003 A 
ATOM      2  C   UNL     1      16.693  -3.760  16.456  1.00  0.00     0.010 A 
ATOM      3  C   UNL     1      17.621  -1.586  16.975  1.00  0.00     0.010 A 
ATOM      4  C   UNL     1      17.922  -4.356  16.752  1.00  0.00     0.004 A 
ATOM      5  C   UNL     1      18.851  -2.182  17.271  1.00  0.00     0.004 A 
ATOM      6  C   UNL     1      19.014  -3.575  17.162  1.00  0.00    -0.045 A 
ENDROOT
BRANCH   1   7
ATOM      7  C   UNL     1      15.227  -1.743  16.251  1.00  0.00     0.071 C 
ATOM      8  O   UNL     1      14.514  -2.183  15.310  1.00  0.00    -0.545 OA
ATOM      9  O   UNL     1      14.770  -0.658  16.990  1.00  0.00    -0.545 OA
ENDBRANCH   1   7
BRANCH   6  10
ATOM     10  C   UNL     1      20.344  -4.236  17.480  1.00  0.00     0.013 C 
ATOM     11  C   UNL     1      21.478  -3.619  16.655  1.00  0.00     0.012 C 
ATOM     12  C   UNL     1      20.651  -4.164  18.981  1.00  0.00     0.012 C 
ENDBRANCH   6  10
TORSDOF 2
ENDMDL
MODEL 4
REMARK VINA RESULT:    -3.513      3.049      5.015
REMARK INTER + INTRA:          -4.130
REMARK INTER:                  -3.922
REMARK INTRA:                  -0.207
REMARK UNBOUND:                -0.206
REMARK SMILES CC(C)c1ccc(C(=O)[O-])cc1
REMARK SMILES IDX 7 1 6 2 11 3 5 4 12 5 4 6 8 7 9 8 10 9 2 10 1 11 3 12
REMARK H PARENT
REMARK Flexibility Score: inf
ROOT
ATOM      1  C   UNL     1      16.689  -2.133  16.718  1.00  0.00    -0.003 A 
ATOM      2  C   UNL     1      17.738  -1.269  17.074  1.00  0.00     0.010 A 
ATOM      3  C   UNL     1      16.916  -3.519  16.727  1.00  0.00     0.010 A 
ATOM      4  C   UNL     1      18.989  -1.781  17.432  1.00  0.00     0.004 A 
ATOM      5  C   UNL     1      18.166  -4.031  17.086  1.00  0.00     0.004 A 
ATOM      6  C   UNL     1      19.218  -3.166  17.443  1.00  0.00    -0.045 A 
ENDROOT
BRANCH   1   7
ATOM      7  C   UNL     1      15.368  -1.587  16.339  1.00  0.00     0.071 C 
ATOM      8  O   UNL     1      14.864  -0.626  16.979  1.00  0.00    -0.545 OA
ATOM      9  O   UNL     1      14.661  -2.127  15.271  1.00  0.00    -0.545 OA
ENDBRANCH   1   7
BRANCH   6  10
ATOM     10  C   UNL     1      20.580  -3.708  17.834  1.00  0.00     0.013 C 
ATOM     11  C   UNL     1      20.467  -5.125  18.408  1.00  0.00     0.012 C 
ATOM     12  C   UNL     1      21.552  -3.669  16.648  1.00  0.00     0.012 C 
ENDBRANCH   6  10
TORSDOF 2
ENDMDL
MODEL 5
REMARK VINA RESULT:    -3.127      1.098      1.552
REMARK INTER + INTRA:          -3.699
REMARK INTER:                  -3.491
REMARK INTRA:                  -0.208
REMARK UNBOUND:                -0.206
REMARK SMILES CC(C)c1ccc(C(=O)[O-])cc1
REMARK SMILES IDX 7 1 6 2 11 3 5 4 12 5 4 6 8 7 9 8 10 9 2 10 1 11 3 12
REMARK H PARENT
REMARK Flexibility Score: inf
ROOT
ATOM      1  C   UNL     1      18.844  -2.996  17.765  1.00  0.00    -0.003 A 
ATOM      2  C   UNL     1      18.487  -1.757  17.209  1.00  0.00     0.010 A 
ATOM      3  C   UNL     1      17.841  -3.801  18.332  1.00  0.00     0.010 A 
ATOM      4  C   UNL     1      17.157  -1.329  17.220  1.00  0.00     0.004 A 
ATOM      5  C   UNL     1      16.510  -3.374  18.342  1.00  0.00     0.004 A 
ATOM      6  C   UNL     1      16.153  -2.132  17.785  1.00  0.00    -0.045 A 
ENDROOT
BRANCH   1   7
ATOM      7  C   UNL     1      20.254  -3.444  17.751  1.00  0.00     0.071 C 
ATOM      8  O   UNL     1      20.757  -4.007  18.760  1.00  0.00    -0.545 OA
ATOM      9  O   UNL     1      21.044  -3.249  16.625  1.00  0.00    -0.545 OA
ENDBRANCH   1   7
BRANCH   6  10
ATOM     10  C   UNL     1      14.711  -1.657  17.790  1.00  0.00     0.013 C 
ATOM     11  C   UNL     1      14.623  -0.164  18.126  1.00  0.00     0.012 C 
ATOM     12  C   UNL     1      14.025  -1.963  16.453  1.00  0.00     0.012 C 
ENDBRANCH   6  10
TORSDOF 2
ENDMDL
MODEL 6
REMARK VINA RESULT:    -2.940      1.691      2.296
REMARK INTER + INTRA:          -3.490
REMARK INTER:                  -3.273
REMARK INTRA:                  -0.217
REMARK UNBOUND:                -0.206
REMARK SMILES CC(C)c1ccc(C(=O)[O-])cc1
REMARK SMILES IDX 7 1 6 2 11 3 5 4 12 5 4 6 8 7 9 8 10 9 2 10 1 11 3 12
REMARK H PARENT
REMARK Flexibility Score: inf
ROOT
ATOM      1  C   UNL     1      18.414  -4.025  18.984  1.00  0.00    -0.003 A 
ATOM      2  C   UNL     1      17.013  -4.070  18.897  1.00  0.00     0.010 A 
ATOM      3  C   UNL     1      19.129  -3.253  18.053  1.00  0.00     0.010 A 
ATOM      4  C   UNL     1      16.340  -3.358  17.900  1.00  0.00     0.004 A 
ATOM      5  C   UNL     1      18.457  -2.540  17.057  1.00  0.00     0.004 A 
ATOM      6  C   UNL     1      17.053  -2.586  16.969  1.00  0.00    -0.045 A 
ENDROOT
BRANCH   1   7
ATOM      7  C   UNL     1      19.122  -4.780  20.041  1.00  0.00     0.071 C 
ATOM      8  O   UNL     1      18.523  -5.120  21.096  1.00  0.00    -0.545 OA
ATOM      9  O   UNL     1      20.460  -5.125  19.886  1.00  0.00    -0.545 OA
ENDBRANCH   1   7
BRANCH   6  10
ATOM     10  C   UNL     1      16.310  -1.817  15.891  1.00  0.00     0.013 C 
ATOM     11  C   UNL     1      14.794  -1.999  16.028  1.00  0.00     0.012 C 
ATOM     12  C   UNL     1      16.691  -0.332  15.909  1.00  0.00     0.012 C 
ENDBRANCH   6  10
TORSDOF 2
ENDMDL
MODEL 7
REMARK VINA RESULT:    -2.623      2.380      3.225
REMARK INTER + INTRA:          -3.136
REMARK INTER:                  -2.931
REMARK INTRA:                  -0.205
REMARK UNBOUND:                -0.206
REMARK SMILES CC(C)c1ccc(C(=O)[O-])cc1
REMARK SMILES IDX 7 1 6 2 11 3 5 4 12 5 4 6 8 7 9 8 10 9 2 10 1 11 3 12
REMARK H PARENT
REMARK Flexibility Score: inf
ROOT
ATOM      1  C   UNL     1      19.450  -4.074  17.415  1.00  0.00    -0.003 A 
ATOM      2  C   UNL     1      19.633  -4.433  18.760  1.00  0.00     0.010 A 
ATOM      3  C   UNL     1      18.191  -3.609  17.000  1.00  0.00     0.010 A 
ATOM      4  C   UNL     1      18.579  -4.330  19.673  1.00  0.00     0.004 A 
ATOM      5  C   UNL     1      17.137  -3.505  17.913  1.00  0.00     0.004 A 
ATOM      6  C   UNL     1      17.320  -3.865  19.260  1.00  0.00    -0.045 A 
ENDROOT
BRANCH   1   7
ATOM      7  C   UNL     1      20.569  -4.184  16.453  1.00  0.00     0.071 C 
ATOM      8  O   UNL     1      21.659  -3.591  16.667  1.00  0.00    -0.545 OA
ATOM      9  O   UNL     1      20.432  -4.946  15.298  1.00  0.00    -0.545 OA
ENDBRANCH   1   7
BRANCH   6  10
ATOM     10  C   UNL     1      16.184  -3.758  20.262  1.00  0.00     0.013 C 
ATOM     11  C   UNL     1      15.203  -2.649  19.867  1.00  0.00     0.012 C 
ATOM     12  C   UNL     1      15.463  -5.101  20.424  1.00  0.00     0.012 C 
ENDBRANCH   6  10
TORSDOF 2
ENDMDL
MODEL 8
REMARK VINA RESULT:    -2.596      2.537      2.882
REMARK INTER + INTRA:          -3.106
REMARK INTER:                  -2.885
REMARK INTRA:                  -0.221
REMARK UNBOUND:                -0.206
REMARK SMILES CC(C)c1ccc(C(=O)[O-])cc1
REMARK SMILES IDX 7 1 6 2 11 3 5 4 12 5 4 6 8 7 9 8 10 9 2 10 1 11 3 12
REMARK H PARENT
REMARK Flexibility Score: inf
ROOT
ATOM      1  C   UNL     1      18.220  -2.761  17.789  1.00  0.00    -0.003 A 
ATOM      2  C   UNL     1      17.273  -1.756  17.532  1.00  0.00     0.010 A 
ATOM      3  C   UNL     1      17.884  -3.802  18.670  1.00  0.00     0.010 A 
ATOM      4  C   UNL     1      16.017  -1.790  18.143  1.00  0.00     0.004 A 
ATOM      5  C   UNL     1      16.628  -3.838  19.281  1.00  0.00     0.004 A 
ATOM      6  C   UNL     1      15.679  -2.831  19.024  1.00  0.00    -0.045 A 
ENDROOT
BRANCH   1   7
ATOM      7  C   UNL     1      19.548  -2.720  17.139  1.00  0.00     0.071 C 
ATOM      8  O   UNL     1      20.400  -3.621  17.364  1.00  0.00    -0.545 OA
ATOM      9  O   UNL     1      19.877  -1.686  16.270  1.00  0.00    -0.545 OA
ENDBRANCH   1   7
BRANCH   6  10
ATOM     10  C   UNL     1      14.311  -2.856  19.681  1.00  0.00     0.013 C 
ATOM     11  C   UNL     1      14.288  -3.822  20.871  1.00  0.00     0.012 C 
ATOM     12  C   UNL     1      13.875  -1.448  20.104  1.00  0.00     0.012 C 
ENDBRANCH   6  10
TORSDOF 2
ENDMDL
MODEL 9
REMARK VINA RESULT:    -2.376      1.612      1.802
REMARK INTER + INTRA:          -2.859
REMARK INTER:                  -2.647
REMARK INTRA:                  -0.212
REMARK UNBOUND:                -0.206
REMARK SMILES CC(C)c1ccc(C(=O)[O-])cc1
REMARK SMILES IDX 7 1 6 2 11 3 5 4 12 5 4 6 8 7 9 8 10 9 2 10 1 11 3 12
REMARK H PARENT
REMARK Flexibility Score: inf
ROOT
ATOM      1  C   UNL     1      20.240  -3.441  17.217  1.00  0.00    -0.003 A 
ATOM      2  C   UNL     1      19.946  -2.257  16.521  1.00  0.00     0.010 A 
ATOM      3  C   UNL     1      19.256  -4.004  18.047  1.00  0.00     0.010 A 
ATOM      4  C   UNL     1      18.696  -1.647  16.652  1.00  0.00     0.004 A 
ATOM      5  C   UNL     1      18.005  -3.394  18.178  1.00  0.00     0.004 A 
ATOM      6  C   UNL     1      17.711  -2.208  17.481  1.00  0.00    -0.045 A 
ENDROOT
BRANCH   1   7
ATOM      7  C   UNL     1      21.565  -4.083  17.075  1.00  0.00     0.071 C 
ATOM      8  O   UNL     1      22.542  -3.696  17.769  1.00  0.00    -0.545 OA
ATOM      9  O   UNL     1      21.751  -5.124  16.173  1.00  0.00    -0.545 OA
ENDBRANCH   1   7
BRANCH   6  10
ATOM     10  C   UNL     1      16.356  -1.535  17.614  1.00  0.00     0.013 C 
ATOM     11  C   UNL     1      15.609  -2.038  18.854  1.00  0.00     0.012 C 
ATOM     12  C   UNL     1      16.498  -0.009  17.636  1.00  0.00     0.012 C 
ENDBRANCH   6  10
TORSDOF 2
ENDMDL
