MODEL 1
REMARK VINA RESULT:    -4.284      0.000      0.000
REMARK INTER + INTRA:          -4.673
REMARK INTER:                  -4.535
REMARK INTRA:                  -0.138
REMARK UNBOUND:                -0.138
REMARK SMILES CC1=CC=C(C(C)C)CC1
REMARK SMILES IDX 1 1 2 2 3 3 4 4 5 5 9 6 10 7 6 8 7 9 8 10
REMARK H PARENT
REMARK Flexibility Score: inf
ROOT
ATOM      1  C   UNL     1     136.875 141.375 137.372  1.00  0.00     0.039 C 
ATOM      2  C   UNL     1     137.642 141.942 136.214  1.00  0.00    -0.073 C 
ATOM      3  C   UNL     1     138.430 143.012 136.394  1.00  0.00    -0.001 C 
ATOM      4  C   UNL     1     139.189 143.590 135.269  1.00  0.00    -0.001 C 
ATOM      5  C   UNL     1     138.943 143.211 133.999  1.00  0.00    -0.067 C 
ATOM      6  C   UNL     1     137.795 142.261 133.724  1.00  0.00     0.035 C 
ATOM      7  C   UNL     1     137.611 141.254 134.870  1.00  0.00     0.035 C 
ENDROOT
BRANCH   5   8
ATOM      8  C   UNL     1     139.731 143.785 132.837  1.00  0.00     0.009 C 
ATOM      9  C   UNL     1     140.871 144.684 133.330  1.00  0.00     0.012 C 
ATOM     10  C   UNL     1     138.820 144.536 131.857  1.00  0.00     0.012 C 
ENDBRANCH   5   8
TORSDOF 1
ENDMDL
MODEL 2
REMARK VINA RESULT:    -4.281      3.877      5.008
REMARK INTER + INTRA:          -4.670
REMARK INTER:                  -4.532
REMARK INTRA:                  -0.138
REMARK UNBOUND:                -0.138
REMARK SMILES CC1=CC=C(C(C)C)CC1
REMARK SMILES IDX 1 1 2 2 3 3 4 4 5 5 9 6 10 7 6 8 7 9 8 10
REMARK H PARENT
REMARK Flexibility Score: inf
ROOT
ATOM      1  C   UNL     1     141.368 145.200 137.140  1.00  0.00     0.039 C 
ATOM      2  C   UNL     1     141.955 144.477 135.964  1.00  0.00    -0.073 C 
ATOM      3  C   UNL     1     143.012 143.669 136.135  1.00  0.00    -0.001 C 
ATOM      4  C   UNL     1     143.610 142.954 134.992  1.00  0.00    -0.001 C 
ATOM      5  C   UNL     1     143.267 143.261 133.726  1.00  0.00    -0.067 C 
ATOM      6  C   UNL     1     142.337 144.432 133.478  1.00  0.00     0.035 C 
ATOM      7  C   UNL     1     141.302 144.576 134.605  1.00  0.00     0.035 C 
ENDROOT
BRANCH   5   8
ATOM      8  C   UNL     1     143.861 142.518 132.544  1.00  0.00     0.009 C 
ATOM      9  C   UNL     1     144.704 141.323 133.007  1.00  0.00     0.012 C 
ATOM     10  C   UNL     1     144.679 143.455 131.646  1.00  0.00     0.012 C 
ENDBRANCH   5   8
TORSDOF 1
ENDMDL
MODEL 3
REMARK VINA RESULT:    -4.269      3.922      5.016
REMARK INTER + INTRA:          -4.657
REMARK INTER:                  -4.519
REMARK INTRA:                  -0.138
REMARK UNBOUND:                -0.138
REMARK SMILES CC1=CC=C(C(C)C)CC1
REMARK SMILES IDX 1 1 2 2 3 3 4 4 5 5 9 6 10 7 6 8 7 9 8 10
REMARK H PARENT
REMARK Flexibility Score: inf
ROOT
ATOM      1  C   UNL     1     140.802 136.898 137.332  1.00  0.00     0.039 C 
ATOM      2  C   UNL     1     140.242 137.634 136.150  1.00  0.00    -0.073 C 
ATOM      3  C   UNL     1     139.161 138.414 136.299  1.00  0.00    -0.001 C 
ATOM      4  C   UNL     1     138.589 139.141 135.151  1.00  0.00    -0.001 C 
ATOM      5  C   UNL     1     138.986 138.871 133.892  1.00  0.00    -0.067 C 
ATOM      6  C   UNL     1     139.952 137.728 133.653  1.00  0.00     0.035 C 
ATOM      7  C   UNL     1     140.947 137.580 134.815  1.00  0.00     0.035 C 
ENDROOT
BRANCH   5   8
ATOM      8  C   UNL     1     138.419 139.627 132.705  1.00  0.00     0.009 C 
ATOM      9  C   UNL     1     137.578 140.825 133.162  1.00  0.00     0.012 C 
ATOM     10  C   UNL     1     137.611 138.703 131.785  1.00  0.00     0.012 C 
ENDBRANCH   5   8
TORSDOF 1
ENDMDL
MODEL 4
REMARK VINA RESULT:    -4.260      6.217      7.013
REMARK INTER + INTRA:          -4.647
REMARK INTER:                  -4.509
REMARK INTRA:                  -0.138
REMARK UNBOUND:                -0.138
REMARK SMILES CC1=CC=C(C(C)C)CC1
REMARK SMILES IDX 1 1 2 2 3 3 4 4 5 5 9 6 10 7 6 8 7 9 8 10
REMARK H PARENT
REMARK Flexibility Score: inf
ROOT
ATOM      1  C   UNL     1     145.194 140.818 137.251  1.00  0.00     0.039 C 
ATOM      2  C   UNL     1     144.445 140.228 136.093  1.00  0.00    -0.073 C 
ATOM      3  C   UNL     1     143.638 139.174 136.285  1.00  0.00    -0.001 C 
ATOM      4  C   UNL     1     142.897 138.573 135.160  1.00  0.00    -0.001 C 
ATOM      5  C   UNL     1     143.178 138.911 133.886  1.00  0.00    -0.067 C 
ATOM      6  C   UNL     1     144.345 139.837 133.610  1.00  0.00     0.035 C 
ATOM      7  C   UNL     1     144.516 140.876 134.730  1.00  0.00     0.035 C 
ENDROOT
BRANCH   5   8
ATOM      8  C   UNL     1     142.408 138.314 132.723  1.00  0.00     0.009 C 
ATOM      9  C   UNL     1     141.272 137.410 133.216  1.00  0.00     0.012 C 
ATOM     10  C   UNL     1     143.337 137.560 131.763  1.00  0.00     0.012 C 
ENDBRANCH   5   8
TORSDOF 1
ENDMDL
MODEL 5
REMARK VINA RESULT:    -4.214      2.181      4.428
REMARK INTER + INTRA:          -4.598
REMARK INTER:                  -4.453
REMARK INTRA:                  -0.145
REMARK UNBOUND:                -0.138
REMARK SMILES CC1=CC=C(C(C)C)CC1
REMARK SMILES IDX 1 1 2 2 3 3 4 4 5 5 9 6 10 7 6 8 7 9 8 10
REMARK H PARENT
REMARK Flexibility Score: inf
ROOT
ATOM      1  C   UNL     1     137.855 138.509 131.355  1.00  0.00     0.039 C 
ATOM      2  C   UNL     1     137.988 139.359 132.585  1.00  0.00    -0.073 C 
ATOM      3  C   UNL     1     138.431 138.816 133.729  1.00  0.00    -0.001 C 
ATOM      4  C   UNL     1     138.563 139.630 134.951  1.00  0.00    -0.001 C 
ATOM      5  C   UNL     1     138.035 140.868 135.020  1.00  0.00    -0.067 C 
ATOM      6  C   UNL     1     137.202 141.379 133.862  1.00  0.00     0.035 C 
ATOM      7  C   UNL     1     137.721 140.844 132.517  1.00  0.00     0.035 C 
ENDROOT
BRANCH   5   8
ATOM      8  C   UNL     1     138.183 141.721 136.266  1.00  0.00     0.009 C 
ATOM      9  C   UNL     1     136.890 141.726 137.090  1.00  0.00     0.012 C 
ATOM     10  C   UNL     1     138.622 143.150 135.918  1.00  0.00     0.012 C 
ENDBRANCH   5   8
TORSDOF 1
ENDMDL
MODEL 6
REMARK VINA RESULT:    -4.210      5.516      7.213
REMARK INTER + INTRA:          -4.595
REMARK INTER:                  -4.450
REMARK INTRA:                  -0.145
REMARK UNBOUND:                -0.138
REMARK SMILES CC1=CC=C(C(C)C)CC1
REMARK SMILES IDX 1 1 2 2 3 3 4 4 5 5 9 6 10 7 6 8 7 9 8 10
REMARK H PARENT
REMARK Flexibility Score: inf
ROOT
ATOM      1  C   UNL     1     144.558 143.551 131.372  1.00  0.00     0.039 C 
ATOM      2  C   UNL     1     144.349 142.708 132.596  1.00  0.00    -0.073 C 
ATOM      3  C   UNL     1     143.929 143.277 133.736  1.00  0.00    -0.001 C 
ATOM      4  C   UNL     1     143.722 142.469 134.953  1.00  0.00    -0.001 C 
ATOM      5  C   UNL     1     144.161 141.197 135.023  1.00  0.00    -0.067 C 
ATOM      6  C   UNL     1     144.972 140.633 133.874  1.00  0.00     0.035 C 
ATOM      7  C   UNL     1     144.512 141.208 132.525  1.00  0.00     0.035 C 
ENDROOT
BRANCH   5   8
ATOM      8  C   UNL     1     143.936 140.351 136.262  1.00  0.00     0.009 C 
ATOM      9  C   UNL     1     145.184 140.328 137.152  1.00  0.00     0.012 C 
ATOM     10  C   UNL     1     143.490 138.929 135.898  1.00  0.00     0.012 C 
ENDBRANCH   5   8
TORSDOF 1
ENDMDL
MODEL 7
REMARK VINA RESULT:    -4.195      5.641      7.186
REMARK INTER + INTRA:          -4.578
REMARK INTER:                  -4.433
REMARK INTRA:                  -0.145
REMARK UNBOUND:                -0.138
REMARK SMILES CC1=CC=C(C(C)C)CC1
REMARK SMILES IDX 1 1 2 2 3 3 4 4 5 5 9 6 10 7 6 8 7 9 8 10
REMARK H PARENT
REMARK Flexibility Score: inf
ROOT
ATOM      1  C   UNL     1     143.495 137.826 131.369  1.00  0.00     0.039 C 
ATOM      2  C   UNL     1     142.708 137.941 132.642  1.00  0.00    -0.073 C 
ATOM      3  C   UNL     1     143.311 138.361 133.764  1.00  0.00    -0.001 C 
ATOM      4  C   UNL     1     142.559 138.476 135.028  1.00  0.00    -0.001 C 
ATOM      5  C   UNL     1     141.323 137.953 135.150  1.00  0.00    -0.067 C 
ATOM      6  C   UNL     1     140.750 137.143 134.004  1.00  0.00     0.035 C 
ATOM      7  C   UNL     1     141.220 137.683 132.644  1.00  0.00     0.035 C 
ENDROOT
BRANCH   5   8
ATOM      8  C   UNL     1     140.534 138.083 136.439  1.00  0.00     0.009 C 
ATOM      9  C   UNL     1     140.607 136.794 137.265  1.00  0.00     0.012 C 
ATOM     10  C   UNL     1     139.078 138.484 136.167  1.00  0.00     0.012 C 
ENDBRANCH   5   8
TORSDOF 1
ENDMDL
MODEL 8
REMARK VINA RESULT:    -4.181      4.269      6.120
REMARK INTER + INTRA:          -4.564
REMARK INTER:                  -4.413
REMARK INTRA:                  -0.151
REMARK UNBOUND:                -0.138
REMARK SMILES CC1=CC=C(C(C)C)CC1
REMARK SMILES IDX 1 1 2 2 3 3 4 4 5 5 9 6 10 7 6 8 7 9 8 10
REMARK H PARENT
REMARK Flexibility Score: inf
ROOT
ATOM      1  C   UNL     1     137.394 139.328 131.384  1.00  0.00     0.039 C 
ATOM      2  C   UNL     1     138.373 138.934 132.451  1.00  0.00    -0.073 C 
ATOM      3  C   UNL     1     139.312 138.012 132.190  1.00  0.00    -0.001 C 
ATOM      4  C   UNL     1     140.280 137.605 133.225  1.00  0.00    -0.001 C 
ATOM      5  C   UNL     1     140.113 137.968 134.512  1.00  0.00    -0.067 C 
ATOM      6  C   UNL     1     138.854 138.711 134.909  1.00  0.00     0.035 C 
ATOM      7  C   UNL     1     138.371 139.641 133.786  1.00  0.00     0.035 C 
ENDROOT
BRANCH   5   8
ATOM      8  C   UNL     1     141.114 137.571 135.580  1.00  0.00     0.009 C 
ATOM      9  C   UNL     1     140.417 137.298 136.919  1.00  0.00     0.012 C 
ATOM     10  C   UNL     1     142.216 138.626 135.737  1.00  0.00     0.012 C 
ENDBRANCH   5   8
TORSDOF 1
ENDMDL
MODEL 9
REMARK VINA RESULT:    -4.171      1.046      4.558
REMARK INTER + INTRA:          -4.553
REMARK INTER:                  -4.403
REMARK INTRA:                  -0.150
REMARK UNBOUND:                -0.138
REMARK SMILES CC1=CC=C(C(C)C)CC1
REMARK SMILES IDX 1 1 2 2 3 3 4 4 5 5 9 6 10 7 6 8 7 9 8 10
REMARK H PARENT
REMARK Flexibility Score: inf
ROOT
ATOM      1  C   UNL     1     139.287 144.777 131.413  1.00  0.00     0.039 C 
ATOM      2  C   UNL     1     138.900 143.799 132.483  1.00  0.00    -0.073 C 
ATOM      3  C   UNL     1     137.973 142.863 132.231  1.00  0.00    -0.001 C 
ATOM      4  C   UNL     1     137.572 141.896 133.270  1.00  0.00    -0.001 C 
ATOM      5  C   UNL     1     137.949 142.062 134.553  1.00  0.00    -0.067 C 
ATOM      6  C   UNL     1     138.700 143.318 134.944  1.00  0.00     0.035 C 
ATOM      7  C   UNL     1     139.620 143.799 133.811  1.00  0.00     0.035 C 
ENDROOT
BRANCH   5   8
ATOM      8  C   UNL     1     137.559 141.062 135.626  1.00  0.00     0.009 C 
ATOM      9  C   UNL     1     137.208 141.768 136.940  1.00  0.00     0.012 C 
ATOM     10  C   UNL     1     138.656 140.011 135.839  1.00  0.00     0.012 C 
ENDBRANCH   5   8
TORSDOF 1
ENDMDL
