MODEL 1
REMARK VINA RESULT:    -4.507      0.000      0.000
REMARK INTER + INTRA:         -12.164
REMARK INTER:                  -9.777
REMARK INTRA:                  -2.387
REMARK UNBOUND:                -2.387
REMARK SMILES CCCCCCCCCCCCCCCCCCCCCC(=O)[O-]
REMARK SMILES IDX 12 1 11 2 10 3 9 4 8 5 7 6 6 7 5 8 4 9 3 10 2 11 1 12 13 13
REMARK SMILES IDX 14 14 15 15 16 16 17 17 18 18 19 19 20 20 21 21 22 22 23 23
REMARK SMILES IDX 24 24
REMARK H PARENT
REMARK Flexibility Score: inf
ROOT
ATOM      1  C   UNL     1      -1.392  -6.516   3.491  1.00  0.00     0.000 C 
ENDROOT
BRANCH   1   2
ATOM      2  C   UNL     1      -1.332  -7.884   4.185  1.00  0.00     0.000 C 
BRANCH   2   3
ATOM      3  C   UNL     1       0.067  -8.221   4.730  1.00  0.00     0.000 C 
BRANCH   3   4
ATOM      4  C   UNL     1       0.079  -8.544   6.238  1.00  0.00    -0.000 C 
BRANCH   4   5
ATOM      5  C   UNL     1      -0.003  -7.274   7.103  1.00  0.00    -0.000 C 
BRANCH   5   6
ATOM      6  C   UNL     1      -1.177  -7.313   8.095  1.00  0.00    -0.000 C 
BRANCH   6   7
ATOM      7  C   UNL     1      -2.218  -6.216   7.800  1.00  0.00    -0.000 C 
BRANCH   7   8
ATOM      8  C   UNL     1      -1.583  -4.935   7.238  1.00  0.00    -0.000 C 
BRANCH   8   9
ATOM      9  C   UNL     1      -2.471  -4.242   6.194  1.00  0.00    -0.000 C 
BRANCH   9  10
ATOM     10  C   UNL     1      -3.956  -4.499   6.478  1.00  0.00    -0.000 C 
BRANCH  10  11
ATOM     11  C   UNL     1      -4.845  -3.743   5.486  1.00  0.00    -0.003 C 
ATOM     12  C   UNL     1      -5.938  -2.961   6.209  1.00  0.00     0.004 C 
ENDBRANCH  10  11
ENDBRANCH   9  10
ENDBRANCH   8   9
ENDBRANCH   7   8
ENDBRANCH   6   7
ENDBRANCH   5   6
ENDBRANCH   4   5
ENDBRANCH   3   4
ENDBRANCH   2   3
ENDBRANCH   1   2
BRANCH   1  13
ATOM     13  C   UNL     1      -2.829  -6.163   3.089  1.00  0.00     0.000 C 
BRANCH  13  14
ATOM     14  C   UNL     1      -2.888  -4.787   2.406  1.00  0.00     0.000 C 
BRANCH  14  15
ATOM     15  C   UNL     1      -3.033  -4.891   0.879  1.00  0.00     0.000 C 
BRANCH  15  16
ATOM     16  C   UNL     1      -1.878  -4.214   0.126  1.00  0.00     0.000 C 
BRANCH  16  17
ATOM     17  C   UNL     1      -1.456  -5.044  -1.093  1.00  0.00     0.000 C 
BRANCH  17  18
ATOM     18  C   UNL     1      -2.575  -5.078  -2.145  1.00  0.00     0.000 C 
BRANCH  18  19
ATOM     19  C   UNL     1      -3.066  -6.504  -2.443  1.00  0.00     0.000 C 
BRANCH  19  20
ATOM     20  C   UNL     1      -4.551  -6.702  -2.100  1.00  0.00     0.006 C 
BRANCH  20  21
ATOM     21  C   UNL     1      -5.290  -5.360  -2.066  1.00  0.00     0.053 C 
BRANCH  21  22
ATOM     22  C   UNL     1      -6.154  -5.207  -3.279  1.00  0.00     0.041 C 
ATOM     23  O   UNL     1      -6.059  -4.177  -3.998  1.00  0.00    -0.550 OA
ATOM     24  O   UNL     1      -7.025  -6.226  -3.644  1.00  0.00    -0.550 OA
ENDBRANCH  21  22
ENDBRANCH  20  21
ENDBRANCH  19  20
ENDBRANCH  18  19
ENDBRANCH  17  18
ENDBRANCH  16  17
ENDBRANCH  15  16
ENDBRANCH  14  15
ENDBRANCH  13  14
ENDBRANCH   1  13
TORSDOF 20
ENDMDL
MODEL 2
REMARK VINA RESULT:    -4.507      3.033      8.127
REMARK INTER + INTRA:         -12.163
REMARK INTER:                 -10.280
REMARK INTRA:                  -1.883
REMARK UNBOUND:                -2.387
REMARK SMILES CCCCCCCCCCCCCCCCCCCCCC(=O)[O-]
REMARK SMILES IDX 12 1 11 2 10 3 9 4 8 5 7 6 6 7 5 8 4 9 3 10 2 11 1 12 13 13
REMARK SMILES IDX 14 14 15 15 16 16 17 17 18 18 19 19 20 20 21 21 22 22 23 23
REMARK SMILES IDX 24 24
REMARK H PARENT
REMARK Flexibility Score: inf
ROOT
ATOM      1  C   UNL     1      -1.301  -7.902   3.952  1.00  0.00     0.000 C 
ENDROOT
BRANCH   1   2
ATOM      2  C   UNL     1      -1.477  -6.448   3.492  1.00  0.00     0.000 C 
BRANCH   2   3
ATOM      3  C   UNL     1      -0.413  -6.008   2.473  1.00  0.00     0.000 C 
BRANCH   3   4
ATOM      4  C   UNL     1      -0.963  -5.076   1.372  1.00  0.00    -0.000 C 
BRANCH   4   5
ATOM      5  C   UNL     1      -2.481  -4.860   1.504  1.00  0.00    -0.000 C 
BRANCH   5   6
ATOM      6  C   UNL     1      -3.224  -5.087   0.177  1.00  0.00    -0.000 C 
BRANCH   6   7
ATOM      7  C   UNL     1      -2.273  -5.032  -1.034  1.00  0.00    -0.000 C 
BRANCH   7   8
ATOM      8  C   UNL     1      -2.637  -6.060  -2.116  1.00  0.00    -0.000 C 
BRANCH   8   9
ATOM      9  C   UNL     1      -3.916  -5.687  -2.882  1.00  0.00    -0.000 C 
BRANCH   9  10
ATOM     10  C   UNL     1      -5.083  -6.596  -2.475  1.00  0.00    -0.000 C 
BRANCH  10  11
ATOM     11  C   UNL     1      -6.418  -5.847  -2.557  1.00  0.00    -0.003 C 
ATOM     12  C   UNL     1      -6.268  -4.400  -2.095  1.00  0.00     0.004 C 
ENDBRANCH  10  11
ENDBRANCH   9  10
ENDBRANCH   8   9
ENDBRANCH   7   8
ENDBRANCH   6   7
ENDBRANCH   5   6
ENDBRANCH   4   5
ENDBRANCH   3   4
ENDBRANCH   2   3
ENDBRANCH   1   2
BRANCH   1  13
ATOM     13  C   UNL     1       0.050  -8.101   4.650  1.00  0.00     0.000 C 
BRANCH  13  14
ATOM     14  C   UNL     1      -0.136  -8.303   6.163  1.00  0.00     0.000 C 
BRANCH  14  15
ATOM     15  C   UNL     1       0.404  -7.124   6.988  1.00  0.00     0.000 C 
BRANCH  15  16
ATOM     16  C   UNL     1      -0.653  -6.034   7.225  1.00  0.00     0.000 C 
BRANCH  16  17
ATOM     17  C   UNL     1      -1.981  -6.648   7.686  1.00  0.00     0.000 C 
BRANCH  17  18
ATOM     18  C   UNL     1      -2.675  -5.742   8.713  1.00  0.00     0.000 C 
BRANCH  18  19
ATOM     19  C   UNL     1      -4.060  -5.266   8.246  1.00  0.00     0.000 C 
BRANCH  19  20
ATOM     20  C   UNL     1      -4.031  -3.844   7.663  1.00  0.00     0.006 C 
BRANCH  20  21
ATOM     21  C   UNL     1      -4.395  -3.852   6.175  1.00  0.00     0.053 C 
BRANCH  21  22
ATOM     22  C   UNL     1      -5.852  -3.567   5.990  1.00  0.00     0.041 C 
ATOM     23  O   UNL     1      -6.513  -3.024   6.915  1.00  0.00    -0.550 OA
ATOM     24  O   UNL     1      -6.467  -3.850   4.777  1.00  0.00    -0.550 OA
ENDBRANCH  21  22
ENDBRANCH  20  21
ENDBRANCH  19  20
ENDBRANCH  18  19
ENDBRANCH  17  18
ENDBRANCH  16  17
ENDBRANCH  15  16
ENDBRANCH  14  15
ENDBRANCH  13  14
ENDBRANCH   1  13
TORSDOF 20
ENDMDL
MODEL 3
REMARK VINA RESULT:    -4.431      1.186      3.931
REMARK INTER + INTRA:         -11.998
REMARK INTER:                  -9.644
REMARK INTRA:                  -2.354
REMARK UNBOUND:                -2.387
REMARK SMILES CCCCCCCCCCCCCCCCCCCCCC(=O)[O-]
REMARK SMILES IDX 12 1 11 2 10 3 9 4 8 5 7 6 6 7 5 8 4 9 3 10 2 11 1 12 13 13
REMARK SMILES IDX 14 14 15 15 16 16 17 17 18 18 19 19 20 20 21 21 22 22 23 23
REMARK SMILES IDX 24 24
REMARK H PARENT
REMARK Flexibility Score: inf
ROOT
ATOM      1  C   UNL     1      -3.137  -4.078   4.578  1.00  0.00     0.000 C 
ENDROOT
BRANCH   1   2
ATOM      2  C   UNL     1      -4.387  -4.075   5.469  1.00  0.00     0.000 C 
BRANCH   2   3
ATOM      3  C   UNL     1      -4.078  -3.728   6.936  1.00  0.00     0.000 C 
BRANCH   3   4
ATOM      4  C   UNL     1      -4.446  -4.853   7.925  1.00  0.00    -0.000 C 
BRANCH   4   5
ATOM      5  C   UNL     1      -3.232  -5.728   8.283  1.00  0.00    -0.000 C 
BRANCH   5   6
ATOM      6  C   UNL     1      -1.896  -5.002   8.051  1.00  0.00    -0.000 C 
BRANCH   6   7
ATOM      7  C   UNL     1      -0.770  -5.976   7.656  1.00  0.00    -0.000 C 
BRANCH   7   8
ATOM      8  C   UNL     1      -1.223  -7.445   7.687  1.00  0.00    -0.000 C 
BRANCH   8   9
ATOM      9  C   UNL     1      -0.269  -8.375   6.921  1.00  0.00    -0.000 C 
BRANCH   9  10
ATOM     10  C   UNL     1      -0.379  -8.147   5.408  1.00  0.00    -0.000 C 
BRANCH  10  11
ATOM     11  C   UNL     1       0.959  -7.678   4.824  1.00  0.00    -0.003 C 
ATOM     12  C   UNL     1       2.119  -8.508   5.367  1.00  0.00     0.004 C 
ENDBRANCH  10  11
ENDBRANCH   9  10
ENDBRANCH   8   9
ENDBRANCH   7   8
ENDBRANCH   6   7
ENDBRANCH   5   6
ENDBRANCH   4   5
ENDBRANCH   3   4
ENDBRANCH   2   3
ENDBRANCH   1   2
BRANCH   1  13
ATOM     13  C   UNL     1      -2.529  -5.483   4.483  1.00  0.00     0.000 C 
BRANCH  13  14
ATOM     14  C   UNL     1      -2.581  -6.009   3.040  1.00  0.00     0.000 C 
BRANCH  14  15
ATOM     15  C   UNL     1      -1.211  -5.966   2.344  1.00  0.00     0.000 C 
BRANCH  15  16
ATOM     16  C   UNL     1      -1.260  -5.257   0.982  1.00  0.00     0.000 C 
BRANCH  16  17
ATOM     17  C   UNL     1      -2.662  -4.699   0.704  1.00  0.00     0.000 C 
BRANCH  17  18
ATOM     18  C   UNL     1      -2.831  -4.363  -0.785  1.00  0.00     0.000 C 
BRANCH  18  19
ATOM     19  C   UNL     1      -2.273  -5.458  -1.709  1.00  0.00     0.000 C 
BRANCH  19  20
ATOM     20  C   UNL     1      -3.356  -6.440  -2.183  1.00  0.00     0.006 C 
BRANCH  20  21
ATOM     21  C   UNL     1      -4.758  -5.886  -1.910  1.00  0.00     0.053 C 
BRANCH  21  22
ATOM     22  C   UNL     1      -5.710  -6.318  -2.981  1.00  0.00     0.041 C 
ATOM     23  O   UNL     1      -5.674  -5.774  -4.117  1.00  0.00    -0.550 OA
ATOM     24  O   UNL     1      -6.599  -7.358  -2.742  1.00  0.00    -0.550 OA
ENDBRANCH  21  22
ENDBRANCH  20  21
ENDBRANCH  19  20
ENDBRANCH  18  19
ENDBRANCH  17  18
ENDBRANCH  16  17
ENDBRANCH  15  16
ENDBRANCH  14  15
ENDBRANCH  13  14
ENDBRANCH   1  13
TORSDOF 20
ENDMDL
MODEL 4
REMARK VINA RESULT:    -4.427     12.274     15.400
REMARK INTER + INTRA:         -11.991
REMARK INTER:                  -9.641
REMARK INTRA:                  -2.350
REMARK UNBOUND:                -2.387
REMARK SMILES CCCCCCCCCCCCCCCCCCCCCC(=O)[O-]
REMARK SMILES IDX 12 1 11 2 10 3 9 4 8 5 7 6 6 7 5 8 4 9 3 10 2 11 1 12 13 13
REMARK SMILES IDX 14 14 15 15 16 16 17 17 18 18 19 19 20 20 21 21 22 22 23 23
REMARK SMILES IDX 24 24
REMARK H PARENT
REMARK Flexibility Score: inf
ROOT
ATOM      1  C   UNL     1      -0.926   8.665   5.290  1.00  0.00     0.000 C 
ENDROOT
BRANCH   1   2
ATOM      2  C   UNL     1      -0.520   7.366   4.580  1.00  0.00     0.000 C 
BRANCH   2   3
ATOM      3  C   UNL     1       0.844   7.468   3.875  1.00  0.00     0.000 C 
BRANCH   3   4
ATOM      4  C   UNL     1       1.039   6.419   2.760  1.00  0.00    -0.000 C 
BRANCH   4   5
ATOM      5  C   UNL     1       2.519   6.037   2.579  1.00  0.00    -0.000 C 
BRANCH   5   6
ATOM      6  C   UNL     1       2.701   4.809   1.672  1.00  0.00    -0.000 C 
BRANCH   6   7
ATOM      7  C   UNL     1       3.386   5.171   0.341  1.00  0.00    -0.000 C 
BRANCH   7   8
ATOM      8  C   UNL     1       2.381   5.360  -0.807  1.00  0.00    -0.000 C 
BRANCH   8   9
ATOM      9  C   UNL     1       2.989   6.095  -2.011  1.00  0.00    -0.000 C 
BRANCH   9  10
ATOM     10  C   UNL     1       4.344   6.716  -1.649  1.00  0.00    -0.000 C 
BRANCH  10  11
ATOM     11  C   UNL     1       5.406   6.370  -2.698  1.00  0.00    -0.003 C 
ATOM     12  C   UNL     1       6.283   5.210  -2.235  1.00  0.00     0.004 C 
ENDBRANCH  10  11
ENDBRANCH   9  10
ENDBRANCH   8   9
ENDBRANCH   7   8
ENDBRANCH   6   7
ENDBRANCH   5   6
ENDBRANCH   4   5
ENDBRANCH   3   4
ENDBRANCH   2   3
ENDBRANCH   1   2
BRANCH   1  13
ATOM     13  C   UNL     1       0.041   8.996   6.433  1.00  0.00     0.000 C 
BRANCH  13  14
ATOM     14  C   UNL     1      -0.128   8.011   7.601  1.00  0.00     0.000 C 
BRANCH  14  15
ATOM     15  C   UNL     1       1.187   7.310   7.980  1.00  0.00     0.000 C 
BRANCH  15  16
ATOM     16  C   UNL     1       1.009   5.803   8.218  1.00  0.00     0.000 C 
BRANCH  16  17
ATOM     17  C   UNL     1       0.175   5.166   7.099  1.00  0.00     0.000 C 
BRANCH  17  18
ATOM     18  C   UNL     1       1.041   4.245   6.228  1.00  0.00     0.000 C 
BRANCH  18  19
ATOM     19  C   UNL     1       2.437   4.827   5.952  1.00  0.00     0.000 C 
BRANCH  19  20
ATOM     20  C   UNL     1       3.548   3.770   6.047  1.00  0.00     0.006 C 
BRANCH  20  21
ATOM     21  C   UNL     1       4.705   4.102   5.098  1.00  0.00     0.053 C 
BRANCH  21  22
ATOM     22  C   UNL     1       6.015   3.729   5.719  1.00  0.00     0.041 C 
ATOM     23  O   UNL     1       6.922   3.206   5.018  1.00  0.00    -0.550 OA
ATOM     24  O   UNL     1       6.254   4.010   7.058  1.00  0.00    -0.550 OA
ENDBRANCH  21  22
ENDBRANCH  20  21
ENDBRANCH  19  20
ENDBRANCH  18  19
ENDBRANCH  17  18
ENDBRANCH  16  17
ENDBRANCH  15  16
ENDBRANCH  14  15
ENDBRANCH  13  14
ENDBRANCH   1  13
TORSDOF 20
ENDMDL
MODEL 5
REMARK VINA RESULT:    -4.426     11.940     14.007
REMARK INTER + INTRA:         -11.987
REMARK INTER:                  -8.156
REMARK INTRA:                  -3.831
REMARK UNBOUND:                -2.387
REMARK SMILES CCCCCCCCCCCCCCCCCCCCCC(=O)[O-]
REMARK SMILES IDX 12 1 11 2 10 3 9 4 8 5 7 6 6 7 5 8 4 9 3 10 2 11 1 12 13 13
REMARK SMILES IDX 14 14 15 15 16 16 17 17 18 18 19 19 20 20 21 21 22 22 23 23
REMARK SMILES IDX 24 24
REMARK H PARENT
REMARK Flexibility Score: inf
ROOT
ATOM      1  C   UNL     1      -0.363   3.658   5.325  1.00  0.00     0.000 C 
ENDROOT
BRANCH   1   2
ATOM      2  C   UNL     1      -0.995   4.856   6.047  1.00  0.00     0.000 C 
BRANCH   2   3
ATOM      3  C   UNL     1      -0.205   5.292   7.294  1.00  0.00     0.000 C 
BRANCH   3   4
ATOM      4  C   UNL     1       1.258   5.678   6.991  1.00  0.00    -0.000 C 
BRANCH   4   5
ATOM      5  C   UNL     1       1.434   7.200   6.839  1.00  0.00    -0.000 C 
BRANCH   5   6
ATOM      6  C   UNL     1       0.229   7.987   7.379  1.00  0.00    -0.000 C 
BRANCH   6   7
ATOM      7  C   UNL     1      -0.166   9.148   6.447  1.00  0.00    -0.000 C 
BRANCH   7   8
ATOM      8  C   UNL     1      -1.074   8.695   5.293  1.00  0.00    -0.000 C 
BRANCH   8   9
ATOM      9  C   UNL     1      -2.437   8.178   5.779  1.00  0.00    -0.000 C 
BRANCH   9  10
ATOM     10  C   UNL     1      -3.440   9.329   5.927  1.00  0.00    -0.000 C 
BRANCH  10  11
ATOM     11  C   UNL     1      -3.930   9.448   7.375  1.00  0.00    -0.003 C 
ATOM     12  C   UNL     1      -3.418   8.291   8.228  1.00  0.00     0.004 C 
ENDBRANCH  10  11
ENDBRANCH   9  10
ENDBRANCH   8   9
ENDBRANCH   7   8
ENDBRANCH   6   7
ENDBRANCH   5   6
ENDBRANCH   4   5
ENDBRANCH   3   4
ENDBRANCH   2   3
ENDBRANCH   1   2
BRANCH   1  13
ATOM     13  C   UNL     1      -0.284   3.903   3.813  1.00  0.00     0.000 C 
BRANCH  13  14
ATOM     14  C   UNL     1      -0.637   5.360   3.472  1.00  0.00     0.000 C 
BRANCH  14  15
ATOM     15  C   UNL     1       0.351   5.990   2.478  1.00  0.00     0.000 C 
BRANCH  15  16
ATOM     16  C   UNL     1       1.288   7.012   3.141  1.00  0.00     0.000 C 
BRANCH  16  17
ATOM     17  C   UNL     1       2.650   6.383   3.458  1.00  0.00     0.000 C 
BRANCH  17  18
ATOM     18  C   UNL     1       2.934   5.194   2.528  1.00  0.00     0.000 C 
BRANCH  18  19
ATOM     19  C   UNL     1       3.390   3.940   3.291  1.00  0.00     0.000 C 
BRANCH  19  20
ATOM     20  C   UNL     1       3.761   4.239   4.752  1.00  0.00     0.006 C 
BRANCH  20  21
ATOM     21  C   UNL     1       5.279   4.181   4.957  1.00  0.00     0.053 C 
BRANCH  21  22
ATOM     22  C   UNL     1       5.603   3.814   6.371  1.00  0.00     0.041 C 
ATOM     23  O   UNL     1       5.028   4.403   7.326  1.00  0.00    -0.550 OA
ATOM     24  O   UNL     1       6.499   2.786   6.635  1.00  0.00    -0.550 OA
ENDBRANCH  21  22
ENDBRANCH  20  21
ENDBRANCH  19  20
ENDBRANCH  18  19
ENDBRANCH  17  18
ENDBRANCH  16  17
ENDBRANCH  15  16
ENDBRANCH  14  15
ENDBRANCH  13  14
ENDBRANCH   1  13
TORSDOF 20
ENDMDL
MODEL 6
REMARK VINA RESULT:    -4.423      1.448      2.988
REMARK INTER + INTRA:         -11.982
REMARK INTER:                 -10.248
REMARK INTRA:                  -1.733
REMARK UNBOUND:                -2.387
REMARK SMILES CCCCCCCCCCCCCCCCCCCCCC(=O)[O-]
REMARK SMILES IDX 12 1 11 2 10 3 9 4 8 5 7 6 6 7 5 8 4 9 3 10 2 11 1 12 13 13
REMARK SMILES IDX 14 14 15 15 16 16 17 17 18 18 19 19 20 20 21 21 22 22 23 23
REMARK SMILES IDX 24 24
REMARK H PARENT
REMARK Flexibility Score: inf
ROOT
ATOM      1  C   UNL     1      -2.992  -4.721   2.298  1.00  0.00     0.000 C 
ENDROOT
BRANCH   1   2
ATOM      2  C   UNL     1      -2.867  -5.912   3.258  1.00  0.00     0.000 C 
BRANCH   2   3
ATOM      3  C   UNL     1      -1.424  -6.426   3.393  1.00  0.00     0.000 C 
BRANCH   3   4
ATOM      4  C   UNL     1      -1.330  -7.847   3.987  1.00  0.00    -0.000 C 
BRANCH   4   5
ATOM      5  C   UNL     1       0.053  -8.128   4.600  1.00  0.00    -0.000 C 
BRANCH   5   6
ATOM      6  C   UNL     1      -0.039  -8.664   6.038  1.00  0.00    -0.000 C 
BRANCH   6   7
ATOM      7  C   UNL     1      -0.037  -7.528   7.079  1.00  0.00    -0.000 C 
BRANCH   7   8
ATOM      8  C   UNL     1      -1.140  -7.695   8.136  1.00  0.00    -0.000 C 
BRANCH   8   9
ATOM      9  C   UNL     1      -2.017  -6.442   8.281  1.00  0.00    -0.000 C 
BRANCH   9  10
ATOM     10  C   UNL     1      -2.193  -5.737   6.930  1.00  0.00    -0.000 C 
BRANCH  10  11
ATOM     11  C   UNL     1      -3.395  -4.786   6.958  1.00  0.00    -0.003 C 
ATOM     12  C   UNL     1      -4.279  -5.051   8.174  1.00  0.00     0.004 C 
ENDBRANCH  10  11
ENDBRANCH   9  10
ENDBRANCH   8   9
ENDBRANCH   7   8
ENDBRANCH   6   7
ENDBRANCH   5   6
ENDBRANCH   4   5
ENDBRANCH   3   4
ENDBRANCH   2   3
ENDBRANCH   1   2
BRANCH   1  13
ATOM     13  C   UNL     1      -2.132  -4.929   1.045  1.00  0.00     0.000 C 
BRANCH  13  14
ATOM     14  C   UNL     1      -3.007  -5.010  -0.216  1.00  0.00     0.000 C 
BRANCH  14  15
ATOM     15  C   UNL     1      -2.246  -5.570  -1.429  1.00  0.00     0.000 C 
BRANCH  15  16
ATOM     16  C   UNL     1      -3.168  -6.280  -2.431  1.00  0.00     0.000 C 
BRANCH  16  17
ATOM     17  C   UNL     1      -4.513  -6.634  -1.784  1.00  0.00     0.000 C 
BRANCH  17  18
ATOM     18  C   UNL     1      -5.666  -6.450  -2.781  1.00  0.00     0.000 C 
BRANCH  18  19
ATOM     19  C   UNL     1      -5.806  -4.998  -3.266  1.00  0.00     0.000 C 
BRANCH  19  20
ATOM     20  C   UNL     1      -5.858  -4.889  -4.798  1.00  0.00     0.006 C 
BRANCH  20  21
ATOM     21  C   UNL     1      -6.847  -3.804  -5.238  1.00  0.00     0.053 C 
BRANCH  21  22
ATOM     22  C   UNL     1      -8.163  -4.414  -5.608  1.00  0.00     0.041 C 
ATOM     23  O   UNL     1      -9.236  -3.803  -5.357  1.00  0.00    -0.550 OA
ATOM     24  O   UNL     1      -8.202  -5.630  -6.276  1.00  0.00    -0.550 OA
ENDBRANCH  21  22
ENDBRANCH  20  21
ENDBRANCH  19  20
ENDBRANCH  18  19
ENDBRANCH  17  18
ENDBRANCH  16  17
ENDBRANCH  15  16
ENDBRANCH  14  15
ENDBRANCH  13  14
ENDBRANCH   1  13
TORSDOF 20
ENDMDL
MODEL 7
REMARK VINA RESULT:    -4.405     11.357     13.298
REMARK INTER + INTRA:         -11.943
REMARK INTER:                  -8.572
REMARK INTRA:                  -3.371
REMARK UNBOUND:                -2.387
REMARK SMILES CCCCCCCCCCCCCCCCCCCCCC(=O)[O-]
REMARK SMILES IDX 12 1 11 2 10 3 9 4 8 5 7 6 6 7 5 8 4 9 3 10 2 11 1 12 13 13
REMARK SMILES IDX 14 14 15 15 16 16 17 17 18 18 19 19 20 20 21 21 22 22 23 23
REMARK SMILES IDX 24 24
REMARK H PARENT
REMARK Flexibility Score: inf
ROOT
ATOM      1  C   UNL     1       1.499   7.873   3.919  1.00  0.00     0.000 C 
ENDROOT
BRANCH   1   2
ATOM      2  C   UNL     1       0.065   7.717   4.443  1.00  0.00     0.000 C 
BRANCH   2   3
ATOM      3  C   UNL     1      -0.775   6.732   3.611  1.00  0.00     0.000 C 
BRANCH   3   4
ATOM      4  C   UNL     1      -1.309   5.537   4.428  1.00  0.00    -0.000 C 
BRANCH   4   5
ATOM      5  C   UNL     1      -0.734   4.197   3.938  1.00  0.00    -0.000 C 
BRANCH   5   6
ATOM      6  C   UNL     1       0.333   3.632   4.890  1.00  0.00    -0.000 C 
BRANCH   6   7
ATOM      7  C   UNL     1       0.316   4.336   6.259  1.00  0.00    -0.000 C 
BRANCH   7   8
ATOM      8  C   UNL     1       1.562   4.019   7.101  1.00  0.00    -0.000 C 
BRANCH   8   9
ATOM      9  C   UNL     1       2.748   3.542   6.248  1.00  0.00    -0.000 C 
BRANCH   9  10
ATOM     10  C   UNL     1       3.992   4.399   6.511  1.00  0.00    -0.000 C 
BRANCH  10  11
ATOM     11  C   UNL     1       5.126   4.033   5.547  1.00  0.00    -0.003 C 
ATOM     12  C   UNL     1       6.073   3.012   6.172  1.00  0.00     0.004 C 
ENDBRANCH  10  11
ENDBRANCH   9  10
ENDBRANCH   8   9
ENDBRANCH   7   8
ENDBRANCH   6   7
ENDBRANCH   5   6
ENDBRANCH   4   5
ENDBRANCH   3   4
ENDBRANCH   2   3
ENDBRANCH   1   2
BRANCH   1  13
ATOM     13  C   UNL     1       2.286   6.564   4.064  1.00  0.00     0.000 C 
BRANCH  13  14
ATOM     14  C   UNL     1       2.877   6.124   2.716  1.00  0.00     0.000 C 
BRANCH  14  15
ATOM     15  C   UNL     1       3.057   4.601   2.617  1.00  0.00     0.000 C 
BRANCH  15  16
ATOM     16  C   UNL     1       2.269   3.985   1.451  1.00  0.00     0.000 C 
BRANCH  16  17
ATOM     17  C   UNL     1       1.263   4.991   0.877  1.00  0.00     0.000 C 
BRANCH  17  18
ATOM     18  C   UNL     1       1.354   5.042  -0.655  1.00  0.00     0.000 C 
BRANCH  18  19
ATOM     19  C   UNL     1       2.797   4.918  -1.169  1.00  0.00     0.000 C 
BRANCH  19  20
ATOM     20  C   UNL     1       3.198   6.080  -2.091  1.00  0.00     0.006 C 
BRANCH  20  21
ATOM     21  C   UNL     1       4.555   6.663  -1.682  1.00  0.00     0.053 C 
BRANCH  21  22
ATOM     22  C   UNL     1       5.518   6.598  -2.825  1.00  0.00     0.041 C 
ATOM     23  O   UNL     1       5.195   6.013  -3.894  1.00  0.00    -0.550 OA
ATOM     24  O   UNL     1       6.751   7.231  -2.731  1.00  0.00    -0.550 OA
ENDBRANCH  21  22
ENDBRANCH  20  21
ENDBRANCH  19  20
ENDBRANCH  18  19
ENDBRANCH  17  18
ENDBRANCH  16  17
ENDBRANCH  15  16
ENDBRANCH  14  15
ENDBRANCH  13  14
ENDBRANCH   1  13
TORSDOF 20
ENDMDL
MODEL 8
REMARK VINA RESULT:    -4.375     12.116     15.562
REMARK INTER + INTRA:         -11.877
REMARK INTER:                  -9.753
REMARK INTRA:                  -2.124
REMARK UNBOUND:                -2.387
REMARK SMILES CCCCCCCCCCCCCCCCCCCCCC(=O)[O-]
REMARK SMILES IDX 12 1 11 2 10 3 9 4 8 5 7 6 6 7 5 8 4 9 3 10 2 11 1 12 13 13
REMARK SMILES IDX 14 14 15 15 16 16 17 17 18 18 19 19 20 20 21 21 22 22 23 23
REMARK SMILES IDX 24 24
REMARK H PARENT
REMARK Flexibility Score: inf
ROOT
ATOM      1  C   UNL     1       2.895   5.892   3.602  1.00  0.00     0.000 C 
ENDROOT
BRANCH   1   2
ATOM      2  C   UNL     1       2.598   4.827   2.537  1.00  0.00     0.000 C 
BRANCH   2   3
ATOM      3  C   UNL     1       2.929   5.295   1.110  1.00  0.00     0.000 C 
BRANCH   3   4
ATOM      4  C   UNL     1       2.034   4.653   0.028  1.00  0.00    -0.000 C 
BRANCH   4   5
ATOM      5  C   UNL     1       2.777   4.479  -1.308  1.00  0.00    -0.000 C 
BRANCH   5   6
ATOM      6  C   UNL     1       2.313   5.486  -2.373  1.00  0.00    -0.000 C 
BRANCH   6   7
ATOM      7  C   UNL     1       3.229   6.722  -2.438  1.00  0.00    -0.000 C 
BRANCH   7   8
ATOM      8  C   UNL     1       4.546   6.521  -1.671  1.00  0.00    -0.000 C 
BRANCH   8   9
ATOM      9  C   UNL     1       5.782   6.623  -2.579  1.00  0.00    -0.000 C 
BRANCH   9  10
ATOM     10  C   UNL     1       6.650   5.363  -2.467  1.00  0.00    -0.000 C 
BRANCH  10  11
ATOM     11  C   UNL     1       5.975   4.168  -3.149  1.00  0.00    -0.003 C 
ATOM     12  C   UNL     1       5.552   4.513  -4.574  1.00  0.00     0.004 C 
ENDBRANCH  10  11
ENDBRANCH   9  10
ENDBRANCH   8   9
ENDBRANCH   7   8
ENDBRANCH   6   7
ENDBRANCH   5   6
ENDBRANCH   4   5
ENDBRANCH   3   4
ENDBRANCH   2   3
ENDBRANCH   1   2
BRANCH   1  13
ATOM     13  C   UNL     1       1.864   7.027   3.551  1.00  0.00     0.000 C 
BRANCH  13  14
ATOM     14  C   UNL     1       0.445   6.493   3.806  1.00  0.00     0.000 C 
BRANCH  14  15
ATOM     15  C   UNL     1       0.004   6.660   5.268  1.00  0.00     0.000 C 
BRANCH  15  16
ATOM     16  C   UNL     1       0.943   7.573   6.071  1.00  0.00     0.000 C 
BRANCH  16  17
ATOM     17  C   UNL     1       1.271   6.959   7.438  1.00  0.00     0.000 C 
BRANCH  17  18
ATOM     18  C   UNL     1       2.449   5.981   7.331  1.00  0.00     0.000 C 
BRANCH  18  19
ATOM     19  C   UNL     1       2.003   4.547   7.004  1.00  0.00     0.000 C 
BRANCH  19  20
ATOM     20  C   UNL     1       3.164   3.541   7.049  1.00  0.00     0.006 C 
BRANCH  20  21
ATOM     21  C   UNL     1       4.498   4.254   7.295  1.00  0.00     0.053 C 
BRANCH  21  22
ATOM     22  C   UNL     1       5.515   3.827   6.283  1.00  0.00     0.041 C 
ATOM     23  O   UNL     1       5.366   4.130   5.069  1.00  0.00    -0.550 OA
ATOM     24  O   UNL     1       6.653   3.142   6.689  1.00  0.00    -0.550 OA
ENDBRANCH  21  22
ENDBRANCH  20  21
ENDBRANCH  19  20
ENDBRANCH  18  19
ENDBRANCH  17  18
ENDBRANCH  16  17
ENDBRANCH  15  16
ENDBRANCH  14  15
ENDBRANCH  13  14
ENDBRANCH   1  13
TORSDOF 20
ENDMDL
MODEL 9
REMARK VINA RESULT:    -4.298     12.117     13.802
REMARK INTER + INTRA:         -11.709
REMARK INTER:                  -9.347
REMARK INTRA:                  -2.362
REMARK UNBOUND:                -2.387
REMARK SMILES CCCCCCCCCCCCCCCCCCCCCC(=O)[O-]
REMARK SMILES IDX 12 1 11 2 10 3 9 4 8 5 7 6 6 7 5 8 4 9 3 10 2 11 1 12 13 13
REMARK SMILES IDX 14 14 15 15 16 16 17 17 18 18 19 19 20 20 21 21 22 22 23 23
REMARK SMILES IDX 24 24
REMARK H PARENT
REMARK Flexibility Score: inf
ROOT
ATOM      1  C   UNL     1       2.542   4.900   2.795  1.00  0.00     0.000 C 
ENDROOT
BRANCH   1   2
ATOM      2  C   UNL     1       2.711   6.302   3.398  1.00  0.00     0.000 C 
BRANCH   2   3
ATOM      3  C   UNL     1       1.390   7.087   3.472  1.00  0.00     0.000 C 
BRANCH   3   4
ATOM      4  C   UNL     1       0.534   6.735   4.707  1.00  0.00    -0.000 C 
BRANCH   4   5
ATOM      5  C   UNL     1       0.982   7.509   5.960  1.00  0.00    -0.000 C 
BRANCH   5   6
ATOM      6  C   UNL     1       1.898   6.674   6.869  1.00  0.00    -0.000 C 
BRANCH   6   7
ATOM      7  C   UNL     1       1.530   5.178   6.843  1.00  0.00    -0.000 C 
BRANCH   7   8
ATOM      8  C   UNL     1       2.758   4.272   6.667  1.00  0.00    -0.000 C 
BRANCH   8   9
ATOM      9  C   UNL     1       3.970   4.750   7.481  1.00  0.00    -0.000 C 
BRANCH   9  10
ATOM     10  C   UNL     1       5.268   4.132   6.947  1.00  0.00    -0.000 C 
BRANCH  10  11
ATOM     11  C   UNL     1       5.223   3.991   5.422  1.00  0.00    -0.003 C 
ATOM     12  C   UNL     1       6.127   2.857   4.946  1.00  0.00     0.004 C 
ENDBRANCH  10  11
ENDBRANCH   9  10
ENDBRANCH   8   9
ENDBRANCH   7   8
ENDBRANCH   6   7
ENDBRANCH   5   6
ENDBRANCH   4   5
ENDBRANCH   3   4
ENDBRANCH   2   3
ENDBRANCH   1   2
BRANCH   1  13
ATOM     13  C   UNL     1       3.066   4.852   1.354  1.00  0.00     0.000 C 
BRANCH  13  14
ATOM     14  C   UNL     1       2.067   4.139   0.429  1.00  0.00     0.000 C 
BRANCH  14  15
ATOM     15  C   UNL     1       1.268   5.119  -0.445  1.00  0.00     0.000 C 
BRANCH  15  16
ATOM     16  C   UNL     1       1.267   4.724  -1.930  1.00  0.00     0.000 C 
BRANCH  16  17
ATOM     17  C   UNL     1       2.608   5.068  -2.590  1.00  0.00     0.000 C 
BRANCH  17  18
ATOM     18  C   UNL     1       3.000   6.526  -2.307  1.00  0.00     0.000 C 
BRANCH  18  19
ATOM     19  C   UNL     1       4.437   6.663  -1.780  1.00  0.00     0.000 C 
BRANCH  19  20
ATOM     20  C   UNL     1       5.274   5.394  -2.007  1.00  0.00     0.006 C 
BRANCH  20  21
ATOM     21  C   UNL     1       6.150   5.530  -3.258  1.00  0.00     0.053 C 
BRANCH  21  22
ATOM     22  C   UNL     1       7.555   5.112  -2.961  1.00  0.00     0.041 C 
ATOM     23  O   UNL     1       8.406   5.048  -3.888  1.00  0.00    -0.550 OA
ATOM     24  O   UNL     1       7.939   4.845  -1.653  1.00  0.00    -0.550 OA
ENDBRANCH  21  22
ENDBRANCH  20  21
ENDBRANCH  19  20
ENDBRANCH  18  19
ENDBRANCH  17  18
ENDBRANCH  16  17
ENDBRANCH  15  16
ENDBRANCH  14  15
ENDBRANCH  13  14
ENDBRANCH   1  13
TORSDOF 20
ENDMDL
