MODEL 1
REMARK VINA RESULT:    -3.839      0.000      0.000
REMARK INTER + INTRA:          -3.951
REMARK INTER:                  -3.951
REMARK INTRA:                   0.000
REMARK UNBOUND:                 0.000
REMARK SMILES Nc1ncnc2nc[nH]c12
REMARK SMILES IDX 8 1 7 2 6 3 5 4 4 5 3 6 2 7 10 8 9 9 1 11
REMARK H PARENT 9 10 1 12 1 13
REMARK Flexibility Score: inf
ROOT
ATOM      1  C   UNL     1     174.949 161.542 154.882  1.00  0.00     0.199 A 
ATOM      2  N   UNL     1     175.060 162.464 155.878  1.00  0.00    -0.217 NA
ATOM      3  C   UNL     1     175.853 161.835 156.761  1.00  0.00     0.182 A 
ATOM      4  N   UNL     1     176.282 162.321 157.951  1.00  0.00    -0.215 NA
ATOM      5  C   UNL     1     177.090 161.529 158.718  1.00  0.00     0.226 A 
ATOM      6  N   UNL     1     177.452 160.278 158.286  1.00  0.00    -0.217 NA
ATOM      7  C   UNL     1     177.021 159.786 157.086  1.00  0.00     0.152 A 
ATOM      8  C   UNL     1     176.199 160.605 156.316  1.00  0.00     0.127 A 
ATOM      9  N   UNL     1     175.634 160.396 155.120  1.00  0.00    -0.340 N 
ATOM     10  H   UNL     1     175.698 159.554 154.507  1.00  0.00     0.168 HD
ENDROOT
BRANCH   7  11
ATOM     11  N   UNL     1     177.411 158.481 156.656  1.00  0.00    -0.382 N 
ATOM     12  H   UNL     1     178.062 157.894 157.222  1.00  0.00     0.158 HD
ATOM     13  H   UNL     1     177.043 158.096 155.757  1.00  0.00     0.158 HD
ENDBRANCH   7  11
TORSDOF 1
ENDMDL
MODEL 2
REMARK VINA RESULT:    -3.821     21.273     22.720
REMARK INTER + INTRA:          -3.933
REMARK INTER:                  -3.933
REMARK INTRA:                   0.000
REMARK UNBOUND:                 0.000
REMARK SMILES Nc1ncnc2nc[nH]c12
REMARK SMILES IDX 8 1 7 2 6 3 5 4 4 5 3 6 2 7 10 8 9 9 1 11
REMARK H PARENT 9 10 1 12 1 13
REMARK Flexibility Score: inf
ROOT
ATOM      1  C   UNL     1     164.436 177.641 151.693  1.00  0.00     0.199 A 
ATOM      2  N   UNL     1     164.043 177.875 152.976  1.00  0.00    -0.217 NA
ATOM      3  C   UNL     1     162.704 177.894 152.865  1.00  0.00     0.182 A 
ATOM      4  N   UNL     1     161.813 178.093 153.865  1.00  0.00    -0.215 NA
ATOM      5  C   UNL     1     160.481 178.077 153.557  1.00  0.00     0.226 A 
ATOM      6  N   UNL     1     160.069 177.865 152.265  1.00  0.00    -0.217 NA
ATOM      7  C   UNL     1     160.966 177.664 151.255  1.00  0.00     0.152 A 
ATOM      8  C   UNL     1     162.319 177.682 151.586  1.00  0.00     0.127 A 
ATOM      9  N   UNL     1     163.405 177.519 150.821  1.00  0.00    -0.340 N 
ATOM     10  H   UNL     1     163.459 177.339 149.794  1.00  0.00     0.168 HD
ENDROOT
BRANCH   7  11
ATOM     11  N   UNL     1     160.513 177.444 149.918  1.00  0.00    -0.382 N 
ATOM     12  H   UNL     1     159.844 176.678 149.689  1.00  0.00     0.158 HD
ATOM     13  H   UNL     1     160.854 178.058 149.144  1.00  0.00     0.158 HD
ENDBRANCH   7  11
TORSDOF 1
ENDMDL
MODEL 3
REMARK VINA RESULT:    -3.801      7.363      8.926
REMARK INTER + INTRA:          -3.912
REMARK INTER:                  -3.912
REMARK INTRA:                   0.000
REMARK UNBOUND:                 0.000
REMARK SMILES Nc1ncnc2nc[nH]c12
REMARK SMILES IDX 8 1 7 2 6 3 5 4 4 5 3 6 2 7 10 8 9 9 1 11
REMARK H PARENT 9 10 1 12 1 13
REMARK Flexibility Score: inf
ROOT
ATOM      1  C   UNL     1     174.356 160.519 163.342  1.00  0.00     0.199 A 
ATOM      2  N   UNL     1     175.031 159.362 163.097  1.00  0.00    -0.217 NA
ATOM      3  C   UNL     1     175.546 159.073 164.303  1.00  0.00     0.182 A 
ATOM      4  N   UNL     1     176.317 158.004 164.617  1.00  0.00    -0.215 NA
ATOM      5  C   UNL     1     176.751 157.876 165.907  1.00  0.00     0.226 A 
ATOM      6  N   UNL     1     176.409 158.812 166.851  1.00  0.00    -0.217 NA
ATOM      7  C   UNL     1     175.631 159.890 166.537  1.00  0.00     0.152 A 
ATOM      8  C   UNL     1     175.197 160.005 165.219  1.00  0.00     0.127 A 
ATOM      9  N   UNL     1     174.439 160.937 164.630  1.00  0.00    -0.340 N 
ATOM     10  H   UNL     1     174.007 161.789 165.051  1.00  0.00     0.168 HD
ENDROOT
BRANCH   7  11
ATOM     11  N   UNL     1     175.287 160.850 167.537  1.00  0.00    -0.382 N 
ATOM     12  H   UNL     1     174.412 161.415 167.470  1.00  0.00     0.158 HD
ATOM     13  H   UNL     1     175.917 160.999 168.357  1.00  0.00     0.158 HD
ENDBRANCH   7  11
TORSDOF 1
ENDMDL
MODEL 4
REMARK VINA RESULT:    -3.797      5.693      7.198
REMARK INTER + INTRA:          -3.908
REMARK INTER:                  -3.908
REMARK INTRA:                   0.000
REMARK UNBOUND:                 0.000
REMARK SMILES Nc1ncnc2nc[nH]c12
REMARK SMILES IDX 8 1 7 2 6 3 5 4 4 5 3 6 2 7 10 8 9 9 1 11
REMARK H PARENT 9 10 1 12 1 13
REMARK Flexibility Score: inf
ROOT
ATOM      1  C   UNL     1     177.343 158.233 164.344  1.00  0.00     0.199 A 
ATOM      2  N   UNL     1     175.982 158.241 164.321  1.00  0.00    -0.217 NA
ATOM      3  C   UNL     1     175.716 159.306 163.547  1.00  0.00     0.182 A 
ATOM      4  N   UNL     1     174.491 159.766 163.198  1.00  0.00    -0.215 NA
ATOM      5  C   UNL     1     174.419 160.870 162.395  1.00  0.00     0.226 A 
ATOM      6  N   UNL     1     175.564 161.490 161.961  1.00  0.00    -0.217 NA
ATOM      7  C   UNL     1     176.801 161.027 162.311  1.00  0.00     0.152 A 
ATOM      8  C   UNL     1     176.856 159.901 163.128  1.00  0.00     0.127 A 
ATOM      9  N   UNL     1     177.907 159.235 163.624  1.00  0.00    -0.340 N 
ATOM     10  H   UNL     1     178.924 159.431 163.494  1.00  0.00     0.168 HD
ENDROOT
BRANCH   7  11
ATOM     11  N   UNL     1     177.979 161.688 161.845  1.00  0.00    -0.382 N 
ATOM     12  H   UNL     1     177.934 162.627 161.393  1.00  0.00     0.158 HD
ATOM     13  H   UNL     1     178.912 161.229 161.955  1.00  0.00     0.158 HD
ENDBRANCH   7  11
TORSDOF 1
ENDMDL
MODEL 5
REMARK VINA RESULT:    -3.725     12.964     14.014
REMARK INTER + INTRA:          -3.834
REMARK INTER:                  -3.834
REMARK INTRA:                   0.000
REMARK UNBOUND:                 0.000
REMARK SMILES Nc1ncnc2nc[nH]c12
REMARK SMILES IDX 8 1 7 2 6 3 5 4 4 5 3 6 2 7 10 8 9 9 1 11
REMARK H PARENT 9 10 1 12 1 13
REMARK Flexibility Score: inf
ROOT
ATOM      1  C   UNL     1     161.619 161.711 152.366  1.00  0.00     0.199 A 
ATOM      2  N   UNL     1     162.414 161.478 151.286  1.00  0.00    -0.217 NA
ATOM      3  C   UNL     1     163.142 160.424 151.691  1.00  0.00     0.182 A 
ATOM      4  N   UNL     1     164.102 159.785 150.980  1.00  0.00    -0.215 NA
ATOM      5  C   UNL     1     164.739 158.724 151.563  1.00  0.00     0.226 A 
ATOM      6  N   UNL     1     164.408 158.327 152.834  1.00  0.00    -0.217 NA
ATOM      7  C   UNL     1     163.440 158.971 153.552  1.00  0.00     0.152 A 
ATOM      8  C   UNL     1     162.801 160.048 152.944  1.00  0.00     0.127 A 
ATOM      9  N   UNL     1     161.832 160.854 153.396  1.00  0.00    -0.340 N 
ATOM     10  H   UNL     1     161.347 160.837 154.320  1.00  0.00     0.168 HD
ENDROOT
BRANCH   7  11
ATOM     11  N   UNL     1     163.112 158.539 154.874  1.00  0.00    -0.382 N 
ATOM     12  H   UNL     1     162.520 157.696 155.040  1.00  0.00     0.158 HD
ATOM     13  H   UNL     1     163.466 159.072 155.700  1.00  0.00     0.158 HD
ENDBRANCH   7  11
TORSDOF 1
ENDMDL
MODEL 6
REMARK VINA RESULT:    -3.695      3.408      5.224
REMARK INTER + INTRA:          -3.803
REMARK INTER:                  -3.803
REMARK INTRA:                   0.000
REMARK UNBOUND:                 0.000
REMARK SMILES Nc1ncnc2nc[nH]c12
REMARK SMILES IDX 8 1 7 2 6 3 5 4 4 5 3 6 2 7 10 8 9 9 1 11
REMARK H PARENT 9 10 1 12 1 13
REMARK Flexibility Score: inf
ROOT
ATOM      1  C   UNL     1     171.942 159.838 152.584  1.00  0.00     0.199 A 
ATOM      2  N   UNL     1     172.322 160.521 151.469  1.00  0.00    -0.217 NA
ATOM      3  C   UNL     1     173.564 160.920 151.788  1.00  0.00     0.182 A 
ATOM      4  N   UNL     1     174.403 161.648 151.014  1.00  0.00    -0.215 NA
ATOM      5  C   UNL     1     175.637 161.959 151.513  1.00  0.00     0.226 A 
ATOM      6  N   UNL     1     176.005 161.541 152.767  1.00  0.00    -0.217 NA
ATOM      7  C   UNL     1     175.161 160.806 153.550  1.00  0.00     0.152 A 
ATOM      8  C   UNL     1     173.908 160.497 153.026  1.00  0.00     0.127 A 
ATOM      9  N   UNL     1     172.890 159.806 153.553  1.00  0.00    -0.340 N 
ATOM     10  H   UNL     1     172.828 159.346 154.488  1.00  0.00     0.168 HD
ENDROOT
BRANCH   7  11
ATOM     11  N   UNL     1     175.566 160.381 154.853  1.00  0.00    -0.382 N 
ATOM     12  H   UNL     1     174.869 160.076 155.566  1.00  0.00     0.158 HD
ATOM     13  H   UNL     1     176.579 160.373 155.107  1.00  0.00     0.158 HD
ENDBRANCH   7  11
TORSDOF 1
ENDMDL
MODEL 7
REMARK VINA RESULT:    -3.693     11.980     13.448
REMARK INTER + INTRA:          -3.801
REMARK INTER:                  -3.801
REMARK INTRA:                   0.000
REMARK UNBOUND:                 0.000
REMARK SMILES Nc1ncnc2nc[nH]c12
REMARK SMILES IDX 8 1 7 2 6 3 5 4 4 5 3 6 2 7 10 8 9 9 1 11
REMARK H PARENT 9 10 1 12 1 13
REMARK Flexibility Score: inf
ROOT
ATOM      1  C   UNL     1     175.467 175.583 152.168  1.00  0.00     0.199 A 
ATOM      2  N   UNL     1     175.023 174.848 151.112  1.00  0.00    -0.217 NA
ATOM      3  C   UNL     1     175.564 173.643 151.355  1.00  0.00     0.182 A 
ATOM      4  N   UNL     1     175.432 172.530 150.596  1.00  0.00    -0.215 NA
ATOM      5  C   UNL     1     176.061 171.388 151.008  1.00  0.00     0.226 A 
ATOM      6  N   UNL     1     176.804 171.381 152.162  1.00  0.00    -0.217 NA
ATOM      7  C   UNL     1     176.939 172.503 152.929  1.00  0.00     0.152 A 
ATOM      8  C   UNL     1     176.292 173.658 152.496  1.00  0.00     0.127 A 
ATOM      9  N   UNL     1     176.245 174.883 153.031  1.00  0.00    -0.340 N 
ATOM     10  H   UNL     1     176.696 175.231 153.906  1.00  0.00     0.168 HD
ENDROOT
BRANCH   7  11
ATOM     11  N   UNL     1     177.718 172.472 154.127  1.00  0.00    -0.382 N 
ATOM     12  H   UNL     1     177.605 173.198 154.867  1.00  0.00     0.158 HD
ATOM     13  H   UNL     1     178.418 171.712 154.274  1.00  0.00     0.158 HD
ENDBRANCH   7  11
TORSDOF 1
ENDMDL
MODEL 8
REMARK VINA RESULT:    -3.691     11.206     12.696
REMARK INTER + INTRA:          -3.799
REMARK INTER:                  -3.799
REMARK INTRA:                   0.000
REMARK UNBOUND:                 0.000
REMARK SMILES Nc1ncnc2nc[nH]c12
REMARK SMILES IDX 8 1 7 2 6 3 5 4 4 5 3 6 2 7 10 8 9 9 1 11
REMARK H PARENT 9 10 1 12 1 13
REMARK Flexibility Score: inf
ROOT
ATOM      1  C   UNL     1     176.279 170.242 150.773  1.00  0.00     0.199 A 
ATOM      2  N   UNL     1     175.623 171.267 150.161  1.00  0.00    -0.217 NA
ATOM      3  C   UNL     1     175.850 172.291 151.000  1.00  0.00     0.182 A 
ATOM      4  N   UNL     1     175.411 173.564 150.858  1.00  0.00    -0.215 NA
ATOM      5  C   UNL     1     175.747 174.475 151.821  1.00  0.00     0.226 A 
ATOM      6  N   UNL     1     176.508 174.098 152.899  1.00  0.00    -0.217 NA
ATOM      7  C   UNL     1     176.952 172.815 153.044  1.00  0.00     0.152 A 
ATOM      8  C   UNL     1     176.602 171.900 152.054  1.00  0.00     0.127 A 
ATOM      9  N   UNL     1     176.888 170.598 151.931  1.00  0.00    -0.340 N 
ATOM     10  H   UNL     1     177.445 169.989 152.570  1.00  0.00     0.168 HD
ENDROOT
BRANCH   7  11
ATOM     11  N   UNL     1     177.744 172.446 154.175  1.00  0.00    -0.382 N 
ATOM     12  H   UNL     1     178.384 173.128 154.636  1.00  0.00     0.158 HD
ATOM     13  H   UNL     1     177.689 171.475 154.555  1.00  0.00     0.158 HD
ENDBRANCH   7  11
TORSDOF 1
ENDMDL
