MODEL 1
REMARK VINA RESULT:    -2.320      0.000      0.000
REMARK INTER + INTRA:          -2.320
REMARK INTER:                  -2.320
REMARK INTRA:                   0.000
REMARK UNBOUND:                 0.000
REMARK SMILES CC(=O)[O-]
REMARK SMILES IDX 1 1 2 2 3 3 4 4
REMARK H PARENT
REMARK Flexibility Score: inf
ROOT
ATOM      1  C   UNL     1      30.888  -6.857  32.801  1.00  0.00     0.063 C 
ATOM      2  C   UNL     1      31.639  -7.930  33.514  1.00  0.00     0.038 C 
ATOM      3  O   UNL     1      31.530  -9.129  33.146  1.00  0.00    -0.550 OA
ATOM      4  O   UNL     1      32.504  -7.604  34.550  1.00  0.00    -0.550 OA
ENDROOT
TORSDOF 0
ENDMDL
MODEL 2
REMARK VINA RESULT:    -2.270      0.452      1.660
REMARK INTER + INTRA:          -2.270
REMARK INTER:                  -2.270
REMARK INTRA:                   0.000
REMARK UNBOUND:                 0.000
REMARK SMILES CC(=O)[O-]
REMARK SMILES IDX 1 1 2 2 3 3 4 4
REMARK H PARENT
REMARK Flexibility Score: inf
ROOT
ATOM      1  C   UNL     1      30.560  -6.977  32.747  1.00  0.00     0.063 C 
ATOM      2  C   UNL     1      31.443  -8.055  33.280  1.00  0.00     0.038 C 
ATOM      3  O   UNL     1      32.082  -7.877  34.350  1.00  0.00    -0.550 OA
ATOM      4  O   UNL     1      31.520  -9.278  32.628  1.00  0.00    -0.550 OA
ENDROOT
TORSDOF 0
ENDMDL
MODEL 3
REMARK VINA RESULT:    -2.243      1.756      1.856
REMARK INTER + INTRA:          -2.243
REMARK INTER:                  -2.243
REMARK INTRA:                   0.000
REMARK UNBOUND:                 0.000
REMARK SMILES CC(=O)[O-]
REMARK SMILES IDX 1 1 2 2 3 3 4 4
REMARK H PARENT
REMARK Flexibility Score: inf
ROOT
ATOM      1  C   UNL     1      31.763  -7.661  31.374  1.00  0.00     0.063 C 
ATOM      2  C   UNL     1      31.088  -7.590  32.702  1.00  0.00     0.038 C 
ATOM      3  O   UNL     1      30.045  -6.900  32.844  1.00  0.00    -0.550 OA
ATOM      4  O   UNL     1      31.577  -8.328  33.772  1.00  0.00    -0.550 OA
ENDROOT
TORSDOF 0
ENDMDL
MODEL 4
REMARK VINA RESULT:    -2.212      2.017      2.391
REMARK INTER + INTRA:          -2.212
REMARK INTER:                  -2.212
REMARK INTRA:                   0.000
REMARK UNBOUND:                 0.000
REMARK SMILES CC(=O)[O-]
REMARK SMILES IDX 1 1 2 2 3 3 4 4
REMARK H PARENT
REMARK Flexibility Score: inf
ROOT
ATOM      1  C   UNL     1      31.763  -8.147  33.797  1.00  0.00     0.063 C 
ATOM      2  C   UNL     1      31.078  -7.475  32.655  1.00  0.00     0.038 C 
ATOM      3  O   UNL     1      29.983  -6.880  32.837  1.00  0.00    -0.550 OA
ATOM      4  O   UNL     1      31.672  -7.456  31.400  1.00  0.00    -0.550 OA
ENDROOT
TORSDOF 0
ENDMDL
MODEL 5
REMARK VINA RESULT:    -2.196      1.583      1.987
REMARK INTER + INTRA:          -2.196
REMARK INTER:                  -2.196
REMARK INTRA:                   0.000
REMARK UNBOUND:                 0.000
REMARK SMILES CC(=O)[O-]
REMARK SMILES IDX 1 1 2 2 3 3 4 4
REMARK H PARENT
REMARK Flexibility Score: inf
ROOT
ATOM      1  C   UNL     1      30.403  -6.898  32.504  1.00  0.00     0.063 C 
ATOM      2  C   UNL     1      31.543  -7.789  32.143  1.00  0.00     0.038 C 
ATOM      3  O   UNL     1      31.887  -8.721  32.917  1.00  0.00    -0.550 OA
ATOM      4  O   UNL     1      32.195  -7.628  30.928  1.00  0.00    -0.550 OA
ENDROOT
TORSDOF 0
ENDMDL
MODEL 6
REMARK VINA RESULT:    -2.048     12.777     13.092
REMARK INTER + INTRA:          -2.048
REMARK INTER:                  -2.048
REMARK INTRA:                   0.000
REMARK UNBOUND:                 0.000
REMARK SMILES CC(=O)[O-]
REMARK SMILES IDX 1 1 2 2 3 3 4 4
REMARK H PARENT
REMARK Flexibility Score: inf
ROOT
ATOM      1  C   UNL     1      21.977  -0.146  40.169  1.00  0.00     0.063 C 
ATOM      2  C   UNL     1      22.672  -1.440  40.428  1.00  0.00     0.038 C 
ATOM      3  O   UNL     1      23.053  -2.157  39.465  1.00  0.00    -0.550 OA
ATOM      4  O   UNL     1      22.950  -1.833  41.730  1.00  0.00    -0.550 OA
ENDROOT
TORSDOF 0
ENDMDL
MODEL 7
REMARK VINA RESULT:    -1.965     14.805     15.212
REMARK INTER + INTRA:          -1.965
REMARK INTER:                  -1.965
REMARK INTRA:                   0.000
REMARK UNBOUND:                 0.000
REMARK SMILES CC(=O)[O-]
REMARK SMILES IDX 1 1 2 2 3 3 4 4
REMARK H PARENT
REMARK Flexibility Score: inf
ROOT
ATOM      1  C   UNL     1      38.687   4.996  40.963  1.00  0.00     0.063 C 
ATOM      2  C   UNL     1      38.248   4.079  39.872  1.00  0.00     0.038 C 
ATOM      3  O   UNL     1      38.918   3.046  39.607  1.00  0.00    -0.550 OA
ATOM      4  O   UNL     1      37.071   4.333  39.181  1.00  0.00    -0.550 OA
ENDROOT
TORSDOF 0
ENDMDL
MODEL 8
REMARK VINA RESULT:    -1.953     13.778     14.085
REMARK INTER + INTRA:          -1.953
REMARK INTER:                  -1.953
REMARK INTRA:                   0.000
REMARK UNBOUND:                 0.000
REMARK SMILES CC(=O)[O-]
REMARK SMILES IDX 1 1 2 2 3 3 4 4
REMARK H PARENT
REMARK Flexibility Score: inf
ROOT
ATOM      1  C   UNL     1      21.085  -2.003  42.896  1.00  0.00     0.063 C 
ATOM      2  C   UNL     1      22.430  -2.543  42.545  1.00  0.00     0.038 C 
ATOM      3  O   UNL     1      23.107  -2.007  41.628  1.00  0.00    -0.550 OA
ATOM      4  O   UNL     1      22.964  -3.605  43.263  1.00  0.00    -0.550 OA
ENDROOT
TORSDOF 0
ENDMDL
MODEL 9
REMARK VINA RESULT:    -1.925     13.220     13.540
REMARK INTER + INTRA:          -1.925
REMARK INTER:                  -1.925
REMARK INTRA:                   0.000
REMARK UNBOUND:                 0.000
REMARK SMILES CC(=O)[O-]
REMARK SMILES IDX 1 1 2 2 3 3 4 4
REMARK H PARENT
REMARK Flexibility Score: inf
ROOT
ATOM      1  C   UNL     1      22.386  -1.346  41.902  1.00  0.00     0.063 C 
ATOM      2  C   UNL     1      22.441  -1.074  40.437  1.00  0.00     0.038 C 
ATOM      3  O   UNL     1      22.805  -1.979  39.640  1.00  0.00    -0.550 OA
ATOM      4  O   UNL     1      22.041   0.159  39.942  1.00  0.00    -0.550 OA
ENDROOT
TORSDOF 0
ENDMDL
