MODEL 1
REMARK VINA RESULT:    -5.108      0.000      0.000
REMARK INTER + INTRA:          -6.319
REMARK INTER:                  -6.004
REMARK INTRA:                  -0.315
REMARK UNBOUND:                -0.315
REMARK SMILES O=c1cc(-c2ccc(O)c(O)c2)oc2cc(O)cc(O)c12
REMARK SMILES IDX 4 1 3 2 2 3 1 4 21 5 19 6 18 7 16 8 15 9 14 10 13 11 5 12
REMARK SMILES IDX 6 13 7 14 8 15 12 16 10 17 9 18 11 20 20 22 17 24
REMARK H PARENT 9 19 11 21 20 23 17 25
REMARK Flexibility Score: inf
ROOT
ATOM      1  C   UNL     1     216.801 220.753 224.779  1.00  0.00     0.138 A 
ATOM      2  C   UNL     1     217.203 219.414 224.697  1.00  0.00     0.100 A 
ATOM      3  C   UNL     1     218.561 219.103 224.628  1.00  0.00     0.197 A 
ATOM      4  O   UNL     1     218.890 217.888 224.611  1.00  0.00    -0.289 OA
ATOM      5  C   UNL     1     219.521 220.142 224.606  1.00  0.00     0.107 A 
ATOM      6  C   UNL     1     220.931 219.946 224.506  1.00  0.00     0.134 A 
ATOM      7  C   UNL     1     221.790 221.049 224.593  1.00  0.00     0.093 A 
ATOM      8  C   UNL     1     221.286 222.347 224.720  1.00  0.00     0.123 A 
ATOM      9  C   UNL     1     219.910 222.552 224.769  1.00  0.00     0.094 A 
ATOM     10  C   UNL     1     219.029 221.470 224.720  1.00  0.00     0.146 A 
ATOM     11  O   UNL     1     217.723 221.711 224.789  1.00  0.00    -0.456 OA
ENDROOT
BRANCH   1  12
ATOM     12  C   UNL     1     215.370 221.143 224.850  1.00  0.00     0.021 A 
ATOM     13  C   UNL     1     214.380 220.201 224.524  1.00  0.00     0.016 A 
ATOM     14  C   UNL     1     213.027 220.544 224.576  1.00  0.00     0.051 A 
ATOM     15  C   UNL     1     212.638 221.834 224.943  1.00  0.00     0.157 A 
ATOM     16  C   UNL     1     214.974 222.447 225.208  1.00  0.00     0.062 A 
ATOM     17  C   UNL     1     213.616 222.793 225.258  1.00  0.00     0.158 A 
BRANCH  15  18
ATOM     18  O   UNL     1     211.280 222.147 224.988  1.00  0.00    -0.504 OA
ATOM     19  H   UNL     1     210.652 221.927 224.224  1.00  0.00     0.293 HD
ENDBRANCH  15  18
BRANCH  17  20
ATOM     20  O   UNL     1     213.235 224.085 225.614  1.00  0.00    -0.504 OA
ATOM     21  H   UNL     1     213.837 224.683 226.169  1.00  0.00     0.293 HD
ENDBRANCH  17  20
ENDBRANCH   1  12
BRANCH   6  22
ATOM     22  O   UNL     1     221.538 218.703 224.296  1.00  0.00    -0.507 OA
ATOM     23  H   UNL     1     221.705 218.013 225.011  1.00  0.00     0.293 HD
ENDBRANCH   6  22
BRANCH   8  24
ATOM     24  O   UNL     1     222.148 223.439 224.791  1.00  0.00    -0.508 OA
ATOM     25  H   UNL     1     223.118 223.368 224.506  1.00  0.00     0.293 HD
ENDBRANCH   8  24
TORSDOF 5
ENDMDL
MODEL 2
REMARK VINA RESULT:    -5.095      6.290      7.772
REMARK INTER + INTRA:          -6.304
REMARK INTER:                  -6.038
REMARK INTRA:                  -0.266
REMARK UNBOUND:                -0.315
REMARK SMILES O=c1cc(-c2ccc(O)c(O)c2)oc2cc(O)cc(O)c12
REMARK SMILES IDX 4 1 3 2 2 3 1 4 21 5 19 6 18 7 16 8 15 9 14 10 13 11 5 12
REMARK SMILES IDX 6 13 7 14 8 15 12 16 10 17 9 18 11 20 20 22 17 24
REMARK H PARENT 9 19 11 21 20 23 17 25
REMARK Flexibility Score: inf
ROOT
ATOM      1  C   UNL     1     211.973 216.910 224.883  1.00  0.00     0.138 A 
ATOM      2  C   UNL     1     210.966 215.994 225.212  1.00  0.00     0.100 A 
ATOM      3  C   UNL     1     211.247 214.628 225.211  1.00  0.00     0.197 A 
ATOM      4  O   UNL     1     210.336 213.835 225.564  1.00  0.00    -0.289 OA
ATOM      5  C   UNL     1     212.537 214.175 224.845  1.00  0.00     0.107 A 
ATOM      6  C   UNL     1     212.930 212.804 224.777  1.00  0.00     0.134 A 
ATOM      7  C   UNL     1     214.265 212.482 224.498  1.00  0.00     0.093 A 
ATOM      8  C   UNL     1     215.206 213.478 224.227  1.00  0.00     0.123 A 
ATOM      9  C   UNL     1     214.820 214.816 224.242  1.00  0.00     0.094 A 
ATOM     10  C   UNL     1     213.506 215.172 224.552  1.00  0.00     0.146 A 
ATOM     11  O   UNL     1     213.186 216.462 224.573  1.00  0.00    -0.456 OA
ENDROOT
BRANCH   1  12
ATOM     12  C   UNL     1     211.729 218.375 224.862  1.00  0.00     0.021 A 
ATOM     13  C   UNL     1     211.870 219.083 223.657  1.00  0.00     0.016 A 
ATOM     14  C   UNL     1     211.653 220.462 223.613  1.00  0.00     0.051 A 
ATOM     15  C   UNL     1     211.301 221.160 224.771  1.00  0.00     0.157 A 
ATOM     16  C   UNL     1     211.387 219.085 226.031  1.00  0.00     0.062 A 
ATOM     17  C   UNL     1     211.170 220.470 225.987  1.00  0.00     0.158 A 
BRANCH  15  18
ATOM     18  O   UNL     1     211.088 222.536 224.695  1.00  0.00    -0.504 OA
ATOM     19  H   UNL     1     211.232 223.056 223.837  1.00  0.00     0.293 HD
ENDBRANCH  15  18
BRANCH  17  20
ATOM     20  O   UNL     1     210.831 221.162 227.148  1.00  0.00    -0.504 OA
ATOM     21  H   UNL     1     209.879 221.460 227.330  1.00  0.00     0.293 HD
ENDBRANCH  17  20
ENDBRANCH   1  12
BRANCH   6  22
ATOM     22  O   UNL     1     212.055 211.728 224.950  1.00  0.00    -0.507 OA
ATOM     23  H   UNL     1     211.456 211.347 224.234  1.00  0.00     0.293 HD
ENDBRANCH   6  22
BRANCH   8  24
ATOM     24  O   UNL     1     216.527 213.147 223.935  1.00  0.00    -0.508 OA
ATOM     25  H   UNL     1     216.871 212.200 224.039  1.00  0.00     0.293 HD
ENDBRANCH   8  24
TORSDOF 5
ENDMDL
MODEL 3
REMARK VINA RESULT:    -5.071      7.373      8.980
REMARK INTER + INTRA:          -6.276
REMARK INTER:                  -6.011
REMARK INTRA:                  -0.265
REMARK UNBOUND:                -0.315
REMARK SMILES O=c1cc(-c2ccc(O)c(O)c2)oc2cc(O)cc(O)c12
REMARK SMILES IDX 4 1 3 2 2 3 1 4 21 5 19 6 18 7 16 8 15 9 14 10 13 11 5 12
REMARK SMILES IDX 6 13 7 14 8 15 12 16 10 17 9 18 11 20 20 22 17 24
REMARK H PARENT 9 19 11 21 20 23 17 25
REMARK Flexibility Score: inf
ROOT
ATOM      1  C   UNL     1     217.501 211.946 224.911  1.00  0.00     0.138 A 
ATOM      2  C   UNL     1     218.414 210.923 225.199  1.00  0.00     0.100 A 
ATOM      3  C   UNL     1     219.781 211.201 225.214  1.00  0.00     0.197 A 
ATOM      4  O   UNL     1     220.571 210.274 225.530  1.00  0.00    -0.289 OA
ATOM      5  C   UNL     1     220.238 212.504 224.903  1.00  0.00     0.107 A 
ATOM      6  C   UNL     1     221.609 212.897 224.854  1.00  0.00     0.134 A 
ATOM      7  C   UNL     1     221.936 214.241 224.632  1.00  0.00     0.093 A 
ATOM      8  C   UNL     1     220.942 215.195 224.399  1.00  0.00     0.123 A 
ATOM      9  C   UNL     1     219.603 214.812 224.394  1.00  0.00     0.094 A 
ATOM     10  C   UNL     1     219.243 213.487 224.648  1.00  0.00     0.146 A 
ATOM     11  O   UNL     1     217.953 213.169 224.653  1.00  0.00    -0.456 OA
ENDROOT
BRANCH   1  12
ATOM     12  C   UNL     1     216.036 211.706 224.877  1.00  0.00     0.021 A 
ATOM     13  C   UNL     1     215.335 211.879 223.672  1.00  0.00     0.016 A 
ATOM     14  C   UNL     1     213.955 211.666 223.616  1.00  0.00     0.051 A 
ATOM     15  C   UNL     1     213.250 211.288 224.761  1.00  0.00     0.157 A 
ATOM     16  C   UNL     1     215.319 211.338 226.034  1.00  0.00     0.062 A 
ATOM     17  C   UNL     1     213.934 211.126 225.977  1.00  0.00     0.158 A 
BRANCH  15  18
ATOM     18  O   UNL     1     211.874 211.081 224.673  1.00  0.00    -0.504 OA
ATOM     19  H   UNL     1     211.225 211.486 225.338  1.00  0.00     0.293 HD
ENDBRANCH  15  18
BRANCH  17  20
ATOM     20  O   UNL     1     213.234 210.761 227.126  1.00  0.00    -0.504 OA
ATOM     21  H   UNL     1     213.643 210.153 227.827  1.00  0.00     0.293 HD
ENDBRANCH  17  20
ENDBRANCH   1  12
BRANCH   6  22
ATOM     22  O   UNL     1     222.684 212.012 224.993  1.00  0.00    -0.507 OA
ATOM     23  H   UNL     1     222.732 211.260 225.662  1.00  0.00     0.293 HD
ENDBRANCH   6  22
BRANCH   8  24
ATOM     24  O   UNL     1     221.277 216.526 224.163  1.00  0.00    -0.508 OA
ATOM     25  H   UNL     1     220.886 217.278 224.720  1.00  0.00     0.293 HD
ENDBRANCH   8  24
TORSDOF 5
ENDMDL
MODEL 4
REMARK VINA RESULT:    -5.069      2.066      7.198
REMARK INTER + INTRA:          -6.273
REMARK INTER:                  -6.007
REMARK INTRA:                  -0.265
REMARK UNBOUND:                -0.315
REMARK SMILES O=c1cc(-c2ccc(O)c(O)c2)oc2cc(O)cc(O)c12
REMARK SMILES IDX 4 1 3 2 2 3 1 4 21 5 19 6 18 7 16 8 15 9 14 10 13 11 5 12
REMARK SMILES IDX 6 13 7 14 8 15 12 16 10 17 9 18 11 20 20 22 17 24
REMARK H PARENT 9 19 11 21 20 23 17 25
REMARK Flexibility Score: inf
ROOT
ATOM      1  C   UNL     1     216.889 222.433 224.902  1.00  0.00     0.138 A 
ATOM      2  C   UNL     1     215.979 223.464 225.170  1.00  0.00     0.100 A 
ATOM      3  C   UNL     1     214.611 223.193 225.181  1.00  0.00     0.197 A 
ATOM      4  O   UNL     1     213.824 224.128 225.480  1.00  0.00    -0.289 OA
ATOM      5  C   UNL     1     214.149 221.888 224.885  1.00  0.00     0.107 A 
ATOM      6  C   UNL     1     212.776 221.502 224.835  1.00  0.00     0.134 A 
ATOM      7  C   UNL     1     212.444 220.157 224.629  1.00  0.00     0.093 A 
ATOM      8  C   UNL     1     213.434 219.194 224.415  1.00  0.00     0.123 A 
ATOM      9  C   UNL     1     214.775 219.570 224.413  1.00  0.00     0.094 A 
ATOM     10  C   UNL     1     215.140 220.897 224.651  1.00  0.00     0.146 A 
ATOM     11  O   UNL     1     216.432 221.208 224.658  1.00  0.00    -0.456 OA
ENDROOT
BRANCH   1  12
ATOM     12  C   UNL     1     218.355 222.665 224.873  1.00  0.00     0.021 A 
ATOM     13  C   UNL     1     219.064 222.463 223.677  1.00  0.00     0.016 A 
ATOM     14  C   UNL     1     220.444 222.667 223.626  1.00  0.00     0.051 A 
ATOM     15  C   UNL     1     221.144 223.066 224.767  1.00  0.00     0.157 A 
ATOM     16  C   UNL     1     219.066 223.054 226.026  1.00  0.00     0.062 A 
ATOM     17  C   UNL     1     220.453 223.257 225.975  1.00  0.00     0.158 A 
BRANCH  15  18
ATOM     18  O   UNL     1     222.522 223.264 224.684  1.00  0.00    -0.504 OA
ATOM     19  H   UNL     1     223.100 223.373 225.509  1.00  0.00     0.293 HD
ENDBRANCH  15  18
BRANCH  17  20
ATOM     20  O   UNL     1     221.146 223.643 227.121  1.00  0.00    -0.504 OA
ATOM     21  H   UNL     1     220.682 223.736 228.017  1.00  0.00     0.293 HD
ENDBRANCH  17  20
ENDBRANCH   1  12
BRANCH   6  22
ATOM     22  O   UNL     1     211.705 222.394 224.954  1.00  0.00    -0.507 OA
ATOM     23  H   UNL     1     211.641 223.287 224.491  1.00  0.00     0.293 HD
ENDBRANCH   6  22
BRANCH   8  24
ATOM     24  O   UNL     1     213.094 217.862 224.195  1.00  0.00    -0.508 OA
ATOM     25  H   UNL     1     212.173 217.598 223.864  1.00  0.00     0.293 HD
ENDBRANCH   8  24
TORSDOF 5
ENDMDL
MODEL 5
REMARK VINA RESULT:    -5.057      4.011      8.458
REMARK INTER + INTRA:          -6.259
REMARK INTER:                  -5.995
REMARK INTRA:                  -0.264
REMARK UNBOUND:                -0.315
REMARK SMILES O=c1cc(-c2ccc(O)c(O)c2)oc2cc(O)cc(O)c12
REMARK SMILES IDX 4 1 3 2 2 3 1 4 21 5 19 6 18 7 16 8 15 9 14 10 13 11 5 12
REMARK SMILES IDX 6 13 7 14 8 15 12 16 10 17 9 18 11 20 20 22 17 24
REMARK H PARENT 9 19 11 21 20 23 17 25
REMARK Flexibility Score: inf
ROOT
ATOM      1  C   UNL     1     222.416 217.459 224.885  1.00  0.00     0.138 A 
ATOM      2  C   UNL     1     223.438 218.376 225.162  1.00  0.00     0.100 A 
ATOM      3  C   UNL     1     223.158 219.743 225.165  1.00  0.00     0.197 A 
ATOM      4  O   UNL     1     224.085 220.537 225.470  1.00  0.00    -0.289 OA
ATOM      5  C   UNL     1     221.853 220.194 224.854  1.00  0.00     0.107 A 
ATOM      6  C   UNL     1     221.459 221.565 224.795  1.00  0.00     0.134 A 
ATOM      7  C   UNL     1     220.113 221.887 224.574  1.00  0.00     0.093 A 
ATOM      8  C   UNL     1     219.160 220.889 224.353  1.00  0.00     0.123 A 
ATOM      9  C   UNL     1     219.544 219.551 224.360  1.00  0.00     0.094 A 
ATOM     10  C   UNL     1     220.871 219.196 224.612  1.00  0.00     0.146 A 
ATOM     11  O   UNL     1     221.191 217.906 224.628  1.00  0.00    -0.456 OA
ENDROOT
BRANCH   1  12
ATOM     12  C   UNL     1     222.658 215.994 224.864  1.00  0.00     0.021 A 
ATOM     13  C   UNL     1     222.521 215.288 223.658  1.00  0.00     0.016 A 
ATOM     14  C   UNL     1     222.736 213.908 223.613  1.00  0.00     0.051 A 
ATOM     15  C   UNL     1     223.082 213.208 224.771  1.00  0.00     0.157 A 
ATOM     16  C   UNL     1     222.994 215.282 226.033  1.00  0.00     0.062 A 
ATOM     17  C   UNL     1     223.208 213.896 225.989  1.00  0.00     0.158 A 
BRANCH  15  18
ATOM     18  O   UNL     1     223.293 211.831 224.694  1.00  0.00    -0.504 OA
ATOM     19  H   UNL     1     224.118 211.391 225.083  1.00  0.00     0.293 HD
ENDBRANCH  15  18
BRANCH  17  20
ATOM     20  O   UNL     1     223.542 213.202 227.150  1.00  0.00    -0.504 OA
ATOM     21  H   UNL     1     224.042 213.647 227.911  1.00  0.00     0.293 HD
ENDBRANCH  17  20
ENDBRANCH   1  12
BRANCH   6  22
ATOM     22  O   UNL     1     222.342 222.642 224.920  1.00  0.00    -0.507 OA
ATOM     23  H   UNL     1     222.678 223.207 224.156  1.00  0.00     0.293 HD
ENDBRANCH   6  22
BRANCH   8  24
ATOM     24  O   UNL     1     217.827 221.220 224.119  1.00  0.00    -0.508 OA
ATOM     25  H   UNL     1     217.108 220.508 224.056  1.00  0.00     0.293 HD
ENDBRANCH   8  24
TORSDOF 5
ENDMDL
MODEL 6
REMARK VINA RESULT:    -5.030      4.257      8.475
REMARK INTER + INTRA:          -6.227
REMARK INTER:                  -5.940
REMARK INTRA:                  -0.287
REMARK UNBOUND:                -0.315
REMARK SMILES O=c1cc(-c2ccc(O)c(O)c2)oc2cc(O)cc(O)c12
REMARK SMILES IDX 4 1 3 2 2 3 1 4 21 5 19 6 18 7 16 8 15 9 14 10 13 11 5 12
REMARK SMILES IDX 6 13 7 14 8 15 12 16 10 17 9 18 11 20 20 22 17 24
REMARK H PARENT 9 19 11 21 20 23 17 25
REMARK Flexibility Score: inf
ROOT
ATOM      1  C   UNL     1     221.460 216.566 224.490  1.00  0.00     0.138 A 
ATOM      2  C   UNL     1     220.060 216.581 224.442  1.00  0.00     0.100 A 
ATOM      3  C   UNL     1     219.378 217.795 224.532  1.00  0.00     0.197 A 
ATOM      4  O   UNL     1     218.124 217.778 224.430  1.00  0.00    -0.289 OA
ATOM      5  C   UNL     1     220.102 218.997 224.706  1.00  0.00     0.107 A 
ATOM      6  C   UNL     1     219.513 220.291 224.842  1.00  0.00     0.134 A 
ATOM      7  C   UNL     1     220.337 221.422 224.910  1.00  0.00     0.093 A 
ATOM      8  C   UNL     1     221.729 221.301 224.904  1.00  0.00     0.123 A 
ATOM      9  C   UNL     1     222.313 220.040 224.822  1.00  0.00     0.094 A 
ATOM     10  C   UNL     1     221.519 218.895 224.717  1.00  0.00     0.146 A 
ATOM     11  O   UNL     1     222.119 217.713 224.622  1.00  0.00    -0.456 OA
ENDROOT
BRANCH   1  12
ATOM     12  C   UNL     1     222.237 215.304 224.404  1.00  0.00     0.021 A 
ATOM     13  C   UNL     1     223.510 215.315 223.810  1.00  0.00     0.016 A 
ATOM     14  C   UNL     1     224.258 214.140 223.710  1.00  0.00     0.051 A 
ATOM     15  C   UNL     1     223.746 212.932 224.191  1.00  0.00     0.157 A 
ATOM     16  C   UNL     1     221.718 214.081 224.876  1.00  0.00     0.062 A 
ATOM     17  C   UNL     1     222.469 212.901 224.774  1.00  0.00     0.158 A 
BRANCH  15  18
ATOM     18  O   UNL     1     224.518 211.776 224.080  1.00  0.00    -0.504 OA
ATOM     19  H   UNL     1     225.518 211.809 223.925  1.00  0.00     0.293 HD
ENDBRANCH  15  18
BRANCH  17  20
ATOM     20  O   UNL     1     221.948 211.697 225.246  1.00  0.00    -0.504 OA
ATOM     21  H   UNL     1     222.107 210.822 224.760  1.00  0.00     0.293 HD
ENDBRANCH  17  20
ENDBRANCH   1  12
BRANCH   6  22
ATOM     22  O   UNL     1     218.137 220.519 224.939  1.00  0.00    -0.507 OA
ATOM     23  H   UNL     1     217.462 219.855 225.287  1.00  0.00     0.293 HD
ENDBRANCH   6  22
BRANCH   8  24
ATOM     24  O   UNL     1     222.540 222.430 224.988  1.00  0.00    -0.508 OA
ATOM     25  H   UNL     1     222.153 223.348 225.174  1.00  0.00     0.293 HD
ENDBRANCH   8  24
TORSDOF 5
ENDMDL
MODEL 7
REMARK VINA RESULT:    -5.029      5.017      7.165
REMARK INTER + INTRA:          -6.226
REMARK INTER:                  -5.939
REMARK INTRA:                  -0.287
REMARK UNBOUND:                -0.315
REMARK SMILES O=c1cc(-c2ccc(O)c(O)c2)oc2cc(O)cc(O)c12
REMARK SMILES IDX 4 1 3 2 2 3 1 4 21 5 19 6 18 7 16 8 15 9 14 10 13 11 5 12
REMARK SMILES IDX 6 13 7 14 8 15 12 16 10 17 9 18 11 20 20 22 17 24
REMARK H PARENT 9 19 11 21 20 23 17 25
REMARK Flexibility Score: inf
ROOT
ATOM      1  C   UNL     1     212.941 217.815 224.486  1.00  0.00     0.138 A 
ATOM      2  C   UNL     1     214.341 217.800 224.439  1.00  0.00     0.100 A 
ATOM      3  C   UNL     1     215.022 216.585 224.530  1.00  0.00     0.197 A 
ATOM      4  O   UNL     1     216.277 216.600 224.428  1.00  0.00    -0.289 OA
ATOM      5  C   UNL     1     214.297 215.383 224.705  1.00  0.00     0.107 A 
ATOM      6  C   UNL     1     214.886 214.090 224.843  1.00  0.00     0.134 A 
ATOM      7  C   UNL     1     214.061 212.959 224.912  1.00  0.00     0.093 A 
ATOM      8  C   UNL     1     212.669 213.081 224.906  1.00  0.00     0.123 A 
ATOM      9  C   UNL     1     212.085 214.343 224.822  1.00  0.00     0.094 A 
ATOM     10  C   UNL     1     212.880 215.486 224.716  1.00  0.00     0.146 A 
ATOM     11  O   UNL     1     212.281 216.669 224.620  1.00  0.00    -0.456 OA
ENDROOT
BRANCH   1  12
ATOM     12  C   UNL     1     212.165 219.078 224.399  1.00  0.00     0.021 A 
ATOM     13  C   UNL     1     210.896 219.069 223.795  1.00  0.00     0.016 A 
ATOM     14  C   UNL     1     210.149 220.245 223.693  1.00  0.00     0.051 A 
ATOM     15  C   UNL     1     210.658 221.450 224.182  1.00  0.00     0.157 A 
ATOM     16  C   UNL     1     212.680 220.298 224.879  1.00  0.00     0.062 A 
ATOM     17  C   UNL     1     211.931 221.480 224.775  1.00  0.00     0.158 A 
BRANCH  15  18
ATOM     18  O   UNL     1     209.887 222.608 224.069  1.00  0.00    -0.504 OA
ATOM     19  H   UNL     1     210.304 223.520 223.926  1.00  0.00     0.293 HD
ENDBRANCH  15  18
BRANCH  17  20
ATOM     20  O   UNL     1     212.449 222.682 225.255  1.00  0.00    -0.504 OA
ATOM     21  H   UNL     1     213.442 222.879 225.232  1.00  0.00     0.293 HD
ENDBRANCH  17  20
ENDBRANCH   1  12
BRANCH   6  22
ATOM     22  O   UNL     1     216.262 213.860 224.941  1.00  0.00    -0.507 OA
ATOM     23  H   UNL     1     216.871 213.653 224.165  1.00  0.00     0.293 HD
ENDBRANCH   6  22
BRANCH   8  24
ATOM     24  O   UNL     1     211.856 211.953 224.991  1.00  0.00    -0.508 OA
ATOM     25  H   UNL     1     212.243 211.034 225.174  1.00  0.00     0.293 HD
ENDBRANCH   8  24
TORSDOF 5
ENDMDL
MODEL 8
REMARK VINA RESULT:    -5.027      7.019      8.813
REMARK INTER + INTRA:          -6.223
REMARK INTER:                  -5.936
REMARK INTRA:                  -0.287
REMARK UNBOUND:                -0.315
REMARK SMILES O=c1cc(-c2ccc(O)c(O)c2)oc2cc(O)cc(O)c12
REMARK SMILES IDX 4 1 3 2 2 3 1 4 21 5 19 6 18 7 16 8 15 9 14 10 13 11 5 12
REMARK SMILES IDX 6 13 7 14 8 15 12 16 10 17 9 18 11 20 20 22 17 24
REMARK H PARENT 9 19 11 21 20 23 17 25
REMARK Flexibility Score: inf
ROOT
ATOM      1  C   UNL     1     216.578 212.952 224.496  1.00  0.00     0.138 A 
ATOM      2  C   UNL     1     216.592 214.352 224.451  1.00  0.00     0.100 A 
ATOM      3  C   UNL     1     217.805 215.034 224.549  1.00  0.00     0.197 A 
ATOM      4  O   UNL     1     217.789 216.288 224.451  1.00  0.00    -0.289 OA
ATOM      5  C   UNL     1     219.007 214.310 224.729  1.00  0.00     0.107 A 
ATOM      6  C   UNL     1     220.300 214.900 224.874  1.00  0.00     0.134 A 
ATOM      7  C   UNL     1     221.431 214.076 224.947  1.00  0.00     0.093 A 
ATOM      8  C   UNL     1     221.310 212.684 224.938  1.00  0.00     0.123 A 
ATOM      9  C   UNL     1     220.050 212.099 224.847  1.00  0.00     0.094 A 
ATOM     10  C   UNL     1     218.906 212.893 224.737  1.00  0.00     0.146 A 
ATOM     11  O   UNL     1     217.724 212.293 224.634  1.00  0.00    -0.456 OA
ENDROOT
BRANCH   1  12
ATOM     12  C   UNL     1     215.317 212.174 224.401  1.00  0.00     0.021 A 
ATOM     13  C   UNL     1     215.329 210.907 223.793  1.00  0.00     0.016 A 
ATOM     14  C   UNL     1     214.155 210.159 223.685  1.00  0.00     0.051 A 
ATOM     15  C   UNL     1     212.947 210.665 224.170  1.00  0.00     0.157 A 
ATOM     16  C   UNL     1     214.093 212.687 224.877  1.00  0.00     0.062 A 
ATOM     17  C   UNL     1     212.913 211.936 224.766  1.00  0.00     0.158 A 
BRANCH  15  18
ATOM     18  O   UNL     1     211.791 209.893 224.049  1.00  0.00    -0.504 OA
ATOM     19  H   UNL     1     210.923 210.276 223.694  1.00  0.00     0.293 HD
ENDBRANCH  15  18
BRANCH  17  20
ATOM     20  O   UNL     1     211.709 212.451 225.242  1.00  0.00    -0.504 OA
ATOM     21  H   UNL     1     211.675 213.074 226.041  1.00  0.00     0.293 HD
ENDBRANCH  17  20
ENDBRANCH   1  12
BRANCH   6  22
ATOM     22  O   UNL     1     220.527 216.275 224.976  1.00  0.00    -0.507 OA
ATOM     23  H   UNL     1     220.085 216.979 224.405  1.00  0.00     0.293 HD
ENDBRANCH   6  22
BRANCH   8  24
ATOM     24  O   UNL     1     222.439 211.872 225.027  1.00  0.00    -0.508 OA
ATOM     25  H   UNL     1     223.374 212.254 224.941  1.00  0.00     0.293 HD
ENDBRANCH   8  24
TORSDOF 5
ENDMDL
MODEL 9
REMARK VINA RESULT:    -5.024      1.552      6.724
REMARK INTER + INTRA:          -6.219
REMARK INTER:                  -5.933
REMARK INTRA:                  -0.287
REMARK UNBOUND:                -0.315
REMARK SMILES O=c1cc(-c2ccc(O)c(O)c2)oc2cc(O)cc(O)c12
REMARK SMILES IDX 4 1 3 2 2 3 1 4 21 5 19 6 18 7 16 8 15 9 14 10 13 11 5 12
REMARK SMILES IDX 6 13 7 14 8 15 12 16 10 17 9 18 11 20 20 22 17 24
REMARK H PARENT 9 19 11 21 20 23 17 25
REMARK Flexibility Score: inf
ROOT
ATOM      1  C   UNL     1     217.821 221.462 224.490  1.00  0.00     0.138 A 
ATOM      2  C   UNL     1     217.799 220.062 224.433  1.00  0.00     0.100 A 
ATOM      3  C   UNL     1     216.583 219.385 224.524  1.00  0.00     0.197 A 
ATOM      4  O   UNL     1     216.593 218.132 224.414  1.00  0.00    -0.289 OA
ATOM      5  C   UNL     1     215.384 220.114 224.708  1.00  0.00     0.107 A 
ATOM      6  C   UNL     1     214.089 219.530 224.845  1.00  0.00     0.134 A 
ATOM      7  C   UNL     1     212.962 220.358 224.924  1.00  0.00     0.093 A 
ATOM      8  C   UNL     1     213.089 221.750 224.927  1.00  0.00     0.123 A 
ATOM      9  C   UNL     1     214.353 222.329 224.843  1.00  0.00     0.094 A 
ATOM     10  C   UNL     1     215.493 221.531 224.728  1.00  0.00     0.146 A 
ATOM     11  O   UNL     1     216.678 222.126 224.631  1.00  0.00    -0.456 OA
ENDROOT
BRANCH   1  12
ATOM     12  C   UNL     1     219.086 222.234 224.403  1.00  0.00     0.021 A 
ATOM     13  C   UNL     1     219.080 223.506 223.807  1.00  0.00     0.016 A 
ATOM     14  C   UNL     1     220.259 224.249 223.707  1.00  0.00     0.051 A 
ATOM     15  C   UNL     1     221.464 223.733 224.189  1.00  0.00     0.157 A 
ATOM     16  C   UNL     1     220.306 221.711 224.876  1.00  0.00     0.062 A 
ATOM     17  C   UNL     1     221.490 222.456 224.774  1.00  0.00     0.158 A 
BRANCH  15  18
ATOM     18  O   UNL     1     222.624 224.500 224.077  1.00  0.00    -0.504 OA
ATOM     19  H   UNL     1     222.800 225.300 224.672  1.00  0.00     0.293 HD
ENDBRANCH  15  18
BRANCH  17  20
ATOM     20  O   UNL     1     222.691 221.931 225.247  1.00  0.00    -0.504 OA
ATOM     21  H   UNL     1     223.374 222.509 225.723  1.00  0.00     0.293 HD
ENDBRANCH  17  20
ENDBRANCH   1  12
BRANCH   6  22
ATOM     22  O   UNL     1     213.854 218.154 224.935  1.00  0.00    -0.507 OA
ATOM     23  H   UNL     1     213.133 217.725 225.494  1.00  0.00     0.293 HD
ENDBRANCH   6  22
BRANCH   8  24
ATOM     24  O   UNL     1     211.964 222.566 225.020  1.00  0.00    -0.508 OA
ATOM     25  H   UNL     1     211.258 222.415 225.731  1.00  0.00     0.293 HD
ENDBRANCH   8  24
TORSDOF 5
ENDMDL
