MODEL 1
REMARK VINA RESULT:    -2.620      0.000      0.000
REMARK INTER + INTRA:          -3.222
REMARK INTER:                  -4.152
REMARK INTRA:                   0.929
REMARK UNBOUND:                 0.929
REMARK SMILES CCCCCCCCCCCC(=O)[O-]
REMARK SMILES IDX 7 1 8 2 9 3 10 4 11 5 12 6 13 7 14 8 6 9 5 10 4 11 3 12 2 13
REMARK SMILES IDX 1 14
REMARK H PARENT
REMARK Flexibility Score: inf
ROOT
ATOM      1  C   UNL     1       3.935 -51.533   9.445  1.00  0.00     0.000 C 
ENDROOT
BRANCH   1   2
ATOM      2  C   UNL     1       2.726 -50.739   8.904  1.00  0.00     0.000 C 
BRANCH   2   3
ATOM      3  C   UNL     1       2.026 -49.924  10.003  1.00  0.00     0.000 C 
BRANCH   3   4
ATOM      4  C   UNL     1       1.441 -50.843  11.084  1.00  0.00     0.006 C 
BRANCH   4   5
ATOM      5  C   UNL     1      -0.093 -50.819  11.096  1.00  0.00     0.053 C 
BRANCH   5   6
ATOM      6  C   UNL     1      -0.656 -50.502   9.744  1.00  0.00     0.041 C 
ATOM      7  O   UNL     1      -0.808 -51.416   8.891  1.00  0.00    -0.550 OA
ATOM      8  O   UNL     1      -0.977 -49.192   9.414  1.00  0.00    -0.550 OA
ENDBRANCH   5   6
ENDBRANCH   4   5
ENDBRANCH   3   4
ENDBRANCH   2   3
ENDBRANCH   1   2
BRANCH   1   9
ATOM      9  C   UNL     1       3.764 -52.014  10.899  1.00  0.00     0.000 C 
BRANCH   9  10
ATOM     10  C   UNL     1       4.043 -53.511  11.125  1.00  0.00    -0.000 C 
BRANCH  10  11
ATOM     11  C   UNL     1       5.454 -53.928  10.682  1.00  0.00    -0.000 C 
BRANCH  11  12
ATOM     12  C   UNL     1       6.493 -52.884  11.117  1.00  0.00    -0.000 C 
BRANCH  12  13
ATOM     13  C   UNL     1       7.794 -52.974  10.306  1.00  0.00    -0.003 C 
ATOM     14  C   UNL     1       8.984 -52.340  11.025  1.00  0.00     0.004 C 
ENDBRANCH  12  13
ENDBRANCH  11  12
ENDBRANCH  10  11
ENDBRANCH   9  10
ENDBRANCH   1   9
TORSDOF 10
ENDMDL
