MODEL 1
REMARK VINA RESULT:    -4.813      0.000      0.000
REMARK INTER + INTRA:          -9.376
REMARK INTER:                  -8.752
REMARK INTRA:                  -0.624
REMARK UNBOUND:                -0.624
REMARK SMILES CCCCCCCCCCCCCCCC(=O)[O-]
REMARK SMILES IDX 9 1 10 2 11 3 12 4 13 5 14 6 15 7 16 8 17 9 18 10 8 11 7 12
REMARK SMILES IDX 6 13 5 14 4 15 3 16 2 17 1 18
REMARK H PARENT
REMARK Flexibility Score: inf
ROOT
ATOM      1  C   UNL     1     -32.550  -6.520  33.725  1.00  0.00     0.000 C 
ENDROOT
BRANCH   1   2
ATOM      2  C   UNL     1     -31.649  -6.991  32.573  1.00  0.00     0.000 C 
BRANCH   2   3
ATOM      3  C   UNL     1     -31.120  -8.422  32.773  1.00  0.00     0.000 C 
BRANCH   3   4
ATOM      4  C   UNL     1     -30.357  -8.659  34.092  1.00  0.00     0.000 C 
BRANCH   4   5
ATOM      5  C   UNL     1     -28.854  -8.952  33.934  1.00  0.00     0.000 C 
BRANCH   5   6
ATOM      6  C   UNL     1     -28.238  -9.607  35.183  1.00  0.00     0.006 C 
BRANCH   6   7
ATOM      7  C   UNL     1     -28.151 -11.133  35.053  1.00  0.00     0.053 C 
BRANCH   7   8
ATOM      8  C   UNL     1     -26.979 -11.553  34.218  1.00  0.00     0.041 C 
ATOM      9  O   UNL     1     -27.146 -11.889  33.016  1.00  0.00    -0.550 OA
ATOM     10  O   UNL     1     -25.701 -11.547  34.760  1.00  0.00    -0.550 OA
ENDBRANCH   7   8
ENDBRANCH   6   7
ENDBRANCH   5   6
ENDBRANCH   4   5
ENDBRANCH   3   4
ENDBRANCH   2   3
ENDBRANCH   1   2
BRANCH   1  11
ATOM     11  C   UNL     1     -33.918  -7.215  33.671  1.00  0.00     0.000 C 
BRANCH  11  12
ATOM     12  C   UNL     1     -34.350  -7.579  32.239  1.00  0.00    -0.000 C 
BRANCH  12  13
ATOM     13  C   UNL     1     -35.794  -7.182  31.875  1.00  0.00    -0.000 C 
BRANCH  13  14
ATOM     14  C   UNL     1     -36.776  -7.133  33.062  1.00  0.00    -0.000 C 
BRANCH  14  15
ATOM     15  C   UNL     1     -38.197  -6.645  32.713  1.00  0.00    -0.000 C 
BRANCH  15  16
ATOM     16  C   UNL     1     -38.791  -5.622  33.696  1.00  0.00    -0.000 C 
BRANCH  16  17
ATOM     17  C   UNL     1     -38.370  -5.878  35.151  1.00  0.00    -0.003 C 
ATOM     18  C   UNL     1     -37.699  -4.648  35.753  1.00  0.00     0.004 C 
ENDBRANCH  16  17
ENDBRANCH  15  16
ENDBRANCH  14  15
ENDBRANCH  13  14
ENDBRANCH  12  13
ENDBRANCH  11  12
ENDBRANCH   1  11
TORSDOF 14
ENDMDL
MODEL 2
REMARK VINA RESULT:    -4.549      3.978      7.920
REMARK INTER + INTRA:          -8.896
REMARK INTER:                  -8.236
REMARK INTRA:                  -0.660
REMARK UNBOUND:                -0.624
REMARK SMILES CCCCCCCCCCCCCCCC(=O)[O-]
REMARK SMILES IDX 9 1 10 2 11 3 12 4 13 5 14 6 15 7 16 8 17 9 18 10 8 11 7 12
REMARK SMILES IDX 6 13 5 14 4 15 3 16 2 17 1 18
REMARK H PARENT
REMARK Flexibility Score: inf
ROOT
ATOM      1  C   UNL     1     -25.660 -11.561  33.168  1.00  0.00     0.000 C 
ENDROOT
BRANCH   1   2
ATOM      2  C   UNL     1     -24.129 -11.632  33.268  1.00  0.00     0.000 C 
BRANCH   2   3
ATOM      3  C   UNL     1     -23.630 -11.768  34.717  1.00  0.00     0.000 C 
BRANCH   3   4
ATOM      4  C   UNL     1     -22.407 -12.689  34.905  1.00  0.00     0.000 C 
BRANCH   4   5
ATOM      5  C   UNL     1     -21.994 -12.937  36.367  1.00  0.00     0.000 C 
BRANCH   5   6
ATOM      6  C   UNL     1     -22.642 -11.944  37.348  1.00  0.00     0.006 C 
BRANCH   6   7
ATOM      7  C   UNL     1     -21.849 -11.820  38.655  1.00  0.00     0.053 C 
BRANCH   7   8
ATOM      8  C   UNL     1     -22.697 -11.289  39.771  1.00  0.00     0.041 C 
ATOM      9  O   UNL     1     -22.927 -11.998  40.785  1.00  0.00    -0.550 OA
ATOM     10  O   UNL     1     -23.208  -9.999  39.703  1.00  0.00    -0.550 OA
ENDBRANCH   7   8
ENDBRANCH   6   7
ENDBRANCH   5   6
ENDBRANCH   4   5
ENDBRANCH   3   4
ENDBRANCH   2   3
ENDBRANCH   1   2
BRANCH   1  11
ATOM     11  C   UNL     1     -26.304 -11.601  34.560  1.00  0.00     0.000 C 
BRANCH  11  12
ATOM     12  C   UNL     1     -27.823 -11.357  34.525  1.00  0.00    -0.000 C 
BRANCH  12  13
ATOM     13  C   UNL     1     -28.269  -9.964  35.012  1.00  0.00    -0.000 C 
BRANCH  13  14
ATOM     14  C   UNL     1     -28.858  -9.050  33.920  1.00  0.00    -0.000 C 
BRANCH  14  15
ATOM     15  C   UNL     1     -30.353  -8.711  34.090  1.00  0.00    -0.000 C 
BRANCH  15  16
ATOM     16  C   UNL     1     -30.979  -7.936  32.917  1.00  0.00    -0.000 C 
BRANCH  16  17
ATOM     17  C   UNL     1     -32.446  -8.316  32.665  1.00  0.00    -0.003 C 
ATOM     18  C   UNL     1     -33.183  -8.563  33.978  1.00  0.00     0.004 C 
ENDBRANCH  16  17
ENDBRANCH  15  16
ENDBRANCH  14  15
ENDBRANCH  13  14
ENDBRANCH  12  13
ENDBRANCH  11  12
ENDBRANCH   1  11
TORSDOF 14
ENDMDL
MODEL 3
REMARK VINA RESULT:    -4.515      4.290     11.296
REMARK INTER + INTRA:          -8.835
REMARK INTER:                  -7.951
REMARK INTRA:                  -0.884
REMARK UNBOUND:                -0.624
REMARK SMILES CCCCCCCCCCCCCCCC(=O)[O-]
REMARK SMILES IDX 9 1 10 2 11 3 12 4 13 5 14 6 15 7 16 8 17 9 18 10 8 11 7 12
REMARK SMILES IDX 6 13 5 14 4 15 3 16 2 17 1 18
REMARK H PARENT
REMARK Flexibility Score: inf
ROOT
ATOM      1  C   UNL     1     -24.906 -11.403  33.088  1.00  0.00     0.000 C 
ENDROOT
BRANCH   1   2
ATOM      2  C   UNL     1     -26.075 -11.601  34.066  1.00  0.00     0.000 C 
BRANCH   2   3
ATOM      3  C   UNL     1     -27.414 -11.089  33.508  1.00  0.00     0.000 C 
BRANCH   3   4
ATOM      4  C   UNL     1     -28.227 -10.200  34.472  1.00  0.00     0.000 C 
BRANCH   4   5
ATOM      5  C   UNL     1     -28.852  -8.946  33.834  1.00  0.00     0.000 C 
BRANCH   5   6
ATOM      6  C   UNL     1     -30.359  -8.818  34.120  1.00  0.00     0.006 C 
BRANCH   6   7
ATOM      7  C   UNL     1     -31.077  -7.969  33.064  1.00  0.00     0.053 C 
BRANCH   7   8
ATOM      8  C   UNL     1     -32.498  -8.406  32.872  1.00  0.00     0.041 C 
ATOM      9  O   UNL     1     -33.001  -9.278  33.629  1.00  0.00    -0.550 OA
ATOM     10  O   UNL     1     -33.275  -7.830  31.876  1.00  0.00    -0.550 OA
ENDBRANCH   7   8
ENDBRANCH   6   7
ENDBRANCH   5   6
ENDBRANCH   4   5
ENDBRANCH   3   4
ENDBRANCH   2   3
ENDBRANCH   1   2
BRANCH   1  11
ATOM     11  C   UNL     1     -24.912 -12.485  31.999  1.00  0.00     0.000 C 
BRANCH  11  12
ATOM     12  C   UNL     1     -23.596 -13.279  31.936  1.00  0.00    -0.000 C 
BRANCH  12  13
ATOM     13  C   UNL     1     -22.481 -12.766  32.869  1.00  0.00    -0.000 C 
BRANCH  13  14
ATOM     14  C   UNL     1     -21.830 -13.841  33.761  1.00  0.00    -0.000 C 
BRANCH  14  15
ATOM     15  C   UNL     1     -21.863 -13.540  35.274  1.00  0.00    -0.000 C 
BRANCH  15  16
ATOM     16  C   UNL     1     -22.654 -12.281  35.668  1.00  0.00    -0.000 C 
BRANCH  16  17
ATOM     17  C   UNL     1     -23.230 -12.358  37.090  1.00  0.00    -0.003 C 
ATOM     18  C   UNL     1     -22.228 -11.839  38.117  1.00  0.00     0.004 C 
ENDBRANCH  16  17
ENDBRANCH  15  16
ENDBRANCH  14  15
ENDBRANCH  13  14
ENDBRANCH  12  13
ENDBRANCH  11  12
ENDBRANCH   1  11
TORSDOF 14
ENDMDL
MODEL 4
REMARK VINA RESULT:    -4.406      4.114     11.246
REMARK INTER + INTRA:          -8.635
REMARK INTER:                  -7.823
REMARK INTRA:                  -0.812
REMARK UNBOUND:                -0.624
REMARK SMILES CCCCCCCCCCCCCCCC(=O)[O-]
REMARK SMILES IDX 9 1 10 2 11 3 12 4 13 5 14 6 15 7 16 8 17 9 18 10 8 11 7 12
REMARK SMILES IDX 6 13 5 14 4 15 3 16 2 17 1 18
REMARK H PARENT
REMARK Flexibility Score: inf
ROOT
ATOM      1  C   UNL     1     -26.697 -10.895  33.241  1.00  0.00     0.000 C 
ENDROOT
BRANCH   1   2
ATOM      2  C   UNL     1     -27.496 -11.292  34.491  1.00  0.00     0.000 C 
BRANCH   2   3
ATOM      3  C   UNL     1     -28.245 -10.106  35.124  1.00  0.00     0.000 C 
BRANCH   3   4
ATOM      4  C   UNL     1     -28.826  -9.089  34.121  1.00  0.00     0.000 C 
BRANCH   4   5
ATOM      5  C   UNL     1     -30.361  -8.969  34.128  1.00  0.00     0.000 C 
BRANCH   5   6
ATOM      6  C   UNL     1     -30.878  -7.854  33.201  1.00  0.00     0.006 C 
BRANCH   6   7
ATOM      7  C   UNL     1     -32.084  -7.119  33.796  1.00  0.00     0.053 C 
BRANCH   7   8
ATOM      8  C   UNL     1     -33.380  -7.723  33.347  1.00  0.00     0.041 C 
ATOM      9  O   UNL     1     -34.467  -7.345  33.859  1.00  0.00    -0.550 OA
ATOM     10  O   UNL     1     -33.390  -8.683  32.344  1.00  0.00    -0.550 OA
ENDBRANCH   7   8
ENDBRANCH   6   7
ENDBRANCH   5   6
ENDBRANCH   4   5
ENDBRANCH   3   4
ENDBRANCH   2   3
ENDBRANCH   1   2
BRANCH   1  11
ATOM     11  C   UNL     1     -25.717 -12.006  32.840  1.00  0.00     0.000 C 
BRANCH  11  12
ATOM     12  C   UNL     1     -24.251 -11.537  32.827  1.00  0.00    -0.000 C 
BRANCH  12  13
ATOM     13  C   UNL     1     -23.317 -12.348  31.906  1.00  0.00    -0.000 C 
BRANCH  13  14
ATOM     14  C   UNL     1     -22.760 -13.646  32.521  1.00  0.00    -0.000 C 
BRANCH  14  15
ATOM     15  C   UNL     1     -21.521 -13.461  33.422  1.00  0.00    -0.000 C 
BRANCH  15  16
ATOM     16  C   UNL     1     -21.721 -13.870  34.892  1.00  0.00    -0.000 C 
BRANCH  16  17
ATOM     17  C   UNL     1     -21.695 -12.673  35.854  1.00  0.00    -0.003 C 
ATOM     18  C   UNL     1     -23.101 -12.135  36.101  1.00  0.00     0.004 C 
ENDBRANCH  16  17
ENDBRANCH  15  16
ENDBRANCH  14  15
ENDBRANCH  13  14
ENDBRANCH  12  13
ENDBRANCH  11  12
ENDBRANCH   1  11
TORSDOF 14
ENDMDL
MODEL 5
REMARK VINA RESULT:    -4.348      3.894     10.438
REMARK INTER + INTRA:          -8.529
REMARK INTER:                  -8.028
REMARK INTRA:                  -0.501
REMARK UNBOUND:                -0.624
REMARK SMILES CCCCCCCCCCCCCCCC(=O)[O-]
REMARK SMILES IDX 9 1 10 2 11 3 12 4 13 5 14 6 15 7 16 8 17 9 18 10 8 11 7 12
REMARK SMILES IDX 6 13 5 14 4 15 3 16 2 17 1 18
REMARK H PARENT
REMARK Flexibility Score: inf
ROOT
ATOM      1  C   UNL     1     -27.885 -10.426  35.470  1.00  0.00     0.000 C 
ENDROOT
BRANCH   1   2
ATOM      2  C   UNL     1     -28.369  -9.341  34.496  1.00  0.00     0.000 C 
BRANCH   2   3
ATOM      3  C   UNL     1     -29.866  -9.460  34.164  1.00  0.00     0.000 C 
BRANCH   3   4
ATOM      4  C   UNL     1     -30.481  -8.231  33.464  1.00  0.00     0.000 C 
BRANCH   4   5
ATOM      5  C   UNL     1     -31.736  -7.653  34.143  1.00  0.00     0.000 C 
BRANCH   5   6
ATOM      6  C   UNL     1     -32.273  -6.396  33.436  1.00  0.00     0.006 C 
BRANCH   6   7
ATOM      7  C   UNL     1     -32.781  -6.700  32.021  1.00  0.00     0.053 C 
BRANCH   7   8
ATOM      8  C   UNL     1     -33.956  -7.630  32.041  1.00  0.00     0.041 C 
ATOM      9  O   UNL     1     -33.786  -8.863  32.234  1.00  0.00    -0.550 OA
ATOM     10  O   UNL     1     -35.241  -7.131  31.875  1.00  0.00    -0.550 OA
ENDBRANCH   7   8
ENDBRANCH   6   7
ENDBRANCH   5   6
ENDBRANCH   4   5
ENDBRANCH   3   4
ENDBRANCH   2   3
ENDBRANCH   1   2
BRANCH   1  11
ATOM     11  C   UNL     1     -27.490 -11.704  34.717  1.00  0.00     0.000 C 
BRANCH  11  12
ATOM     12  C   UNL     1     -26.953 -11.424  33.302  1.00  0.00    -0.000 C 
BRANCH  12  13
ATOM     13  C   UNL     1     -25.420 -11.507  33.161  1.00  0.00    -0.000 C 
BRANCH  13  14
ATOM     14  C   UNL     1     -24.653 -11.715  34.481  1.00  0.00    -0.000 C 
BRANCH  14  15
ATOM     15  C   UNL     1     -23.199 -12.205  34.321  1.00  0.00    -0.000 C 
BRANCH  15  16
ATOM     16  C   UNL     1     -22.479 -12.541  35.638  1.00  0.00    -0.000 C 
BRANCH  16  17
ATOM     17  C   UNL     1     -23.156 -11.913  36.866  1.00  0.00    -0.003 C 
ATOM     18  C   UNL     1     -23.079 -12.844  38.072  1.00  0.00     0.004 C 
ENDBRANCH  16  17
ENDBRANCH  15  16
ENDBRANCH  14  15
ENDBRANCH  13  14
ENDBRANCH  12  13
ENDBRANCH  11  12
ENDBRANCH   1  11
TORSDOF 14
ENDMDL
MODEL 6
REMARK VINA RESULT:    -4.339      4.606     11.290
REMARK INTER + INTRA:          -8.515
REMARK INTER:                  -7.919
REMARK INTRA:                  -0.596
REMARK UNBOUND:                -0.624
REMARK SMILES CCCCCCCCCCCCCCCC(=O)[O-]
REMARK SMILES IDX 9 1 10 2 11 3 12 4 13 5 14 6 15 7 16 8 17 9 18 10 8 11 7 12
REMARK SMILES IDX 6 13 5 14 4 15 3 16 2 17 1 18
REMARK H PARENT
REMARK Flexibility Score: inf
ROOT
ATOM      1  C   UNL     1     -26.177 -11.645  34.862  1.00  0.00     0.000 C 
ENDROOT
BRANCH   1   2
ATOM      2  C   UNL     1     -27.591 -11.517  34.275  1.00  0.00     0.000 C 
BRANCH   2   3
ATOM      3  C   UNL     1     -27.889 -10.109  33.734  1.00  0.00     0.000 C 
BRANCH   3   4
ATOM      4  C   UNL     1     -29.005  -9.345  34.475  1.00  0.00     0.000 C 
BRANCH   4   5
ATOM      5  C   UNL     1     -29.981  -8.572  33.569  1.00  0.00     0.000 C 
BRANCH   5   6
ATOM      6  C   UNL     1     -31.411  -8.524  34.135  1.00  0.00     0.006 C 
BRANCH   6   7
ATOM      7  C   UNL     1     -32.471  -8.731  33.047  1.00  0.00     0.053 C 
BRANCH   7   8
ATOM      8  C   UNL     1     -33.182  -7.454  32.712  1.00  0.00     0.041 C 
ATOM      9  O   UNL     1     -32.529  -6.447  32.333  1.00  0.00    -0.550 OA
ATOM     10  O   UNL     1     -34.566  -7.387  32.792  1.00  0.00    -0.550 OA
ENDBRANCH   7   8
ENDBRANCH   6   7
ENDBRANCH   5   6
ENDBRANCH   4   5
ENDBRANCH   3   4
ENDBRANCH   2   3
ENDBRANCH   1   2
BRANCH   1  11
ATOM     11  C   UNL     1     -25.112 -11.381  33.789  1.00  0.00     0.000 C 
BRANCH  11  12
ATOM     12  C   UNL     1     -23.708 -11.855  34.208  1.00  0.00    -0.000 C 
BRANCH  12  13
ATOM     13  C   UNL     1     -23.414 -11.759  35.718  1.00  0.00    -0.000 C 
BRANCH  13  14
ATOM     14  C   UNL     1     -22.323 -12.719  36.232  1.00  0.00    -0.000 C 
BRANCH  14  15
ATOM     15  C   UNL     1     -22.001 -12.594  37.735  1.00  0.00    -0.000 C 
BRANCH  15  16
ATOM     16  C   UNL     1     -22.470 -11.285  38.393  1.00  0.00    -0.000 C 
BRANCH  16  17
ATOM     17  C   UNL     1     -23.223 -11.515  39.711  1.00  0.00    -0.003 C 
ATOM     18  C   UNL     1     -22.530 -12.573  40.564  1.00  0.00     0.004 C 
ENDBRANCH  16  17
ENDBRANCH  15  16
ENDBRANCH  14  15
ENDBRANCH  13  14
ENDBRANCH  12  13
ENDBRANCH  11  12
ENDBRANCH   1  11
TORSDOF 14
ENDMDL
MODEL 7
REMARK VINA RESULT:    -4.116      8.340     11.912
REMARK INTER + INTRA:          -8.108
REMARK INTER:                  -6.747
REMARK INTRA:                  -1.361
REMARK UNBOUND:                -0.624
REMARK SMILES CCCCCCCCCCCCCCCC(=O)[O-]
REMARK SMILES IDX 9 1 10 2 11 3 12 4 13 5 14 6 15 7 16 8 17 9 18 10 8 11 7 12
REMARK SMILES IDX 6 13 5 14 4 15 3 16 2 17 1 18
REMARK H PARENT
REMARK Flexibility Score: inf
ROOT
ATOM      1  C   UNL     1     -22.744 -12.347  35.747  1.00  0.00     0.000 C 
ENDROOT
BRANCH   1   2
ATOM      2  C   UNL     1     -22.818 -12.196  37.274  1.00  0.00     0.000 C 
BRANCH   2   3
ATOM      3  C   UNL     1     -24.131 -12.735  37.866  1.00  0.00     0.000 C 
BRANCH   3   4
ATOM      4  C   UNL     1     -23.967 -13.866  38.902  1.00  0.00     0.000 C 
BRANCH   4   5
ATOM      5  C   UNL     1     -22.521 -14.346  39.122  1.00  0.00     0.000 C 
BRANCH   5   6
ATOM      6  C   UNL     1     -22.127 -14.393  40.609  1.00  0.00     0.006 C 
BRANCH   6   7
ATOM      7  C   UNL     1     -22.253 -13.022  41.285  1.00  0.00     0.053 C 
BRANCH   7   8
ATOM      8  C   UNL     1     -21.096 -12.130  40.952  1.00  0.00     0.041 C 
ATOM      9  O   UNL     1     -21.262 -11.126  40.209  1.00  0.00    -0.550 OA
ATOM     10  O   UNL     1     -19.840 -12.390  41.485  1.00  0.00    -0.550 OA
ENDBRANCH   7   8
ENDBRANCH   6   7
ENDBRANCH   5   6
ENDBRANCH   4   5
ENDBRANCH   3   4
ENDBRANCH   2   3
ENDBRANCH   1   2
BRANCH   1  11
ATOM     11  C   UNL     1     -21.733 -13.431  35.351  1.00  0.00     0.000 C 
BRANCH  11  12
ATOM     12  C   UNL     1     -21.764 -13.759  33.847  1.00  0.00    -0.000 C 
BRANCH  12  13
ATOM     13  C   UNL     1     -22.395 -12.670  32.957  1.00  0.00    -0.000 C 
BRANCH  13  14
ATOM     14  C   UNL     1     -23.435 -13.180  31.942  1.00  0.00    -0.000 C 
BRANCH  14  15
ATOM     15  C   UNL     1     -24.821 -12.508  32.035  1.00  0.00    -0.000 C 
BRANCH  15  16
ATOM     16  C   UNL     1     -24.927 -11.383  33.079  1.00  0.00    -0.000 C 
BRANCH  16  17
ATOM     17  C   UNL     1     -26.218 -11.458  33.909  1.00  0.00    -0.003 C 
ATOM     18  C   UNL     1     -27.434 -11.677  33.015  1.00  0.00     0.004 C 
ENDBRANCH  16  17
ENDBRANCH  15  16
ENDBRANCH  14  15
ENDBRANCH  13  14
ENDBRANCH  12  13
ENDBRANCH  11  12
ENDBRANCH   1  11
TORSDOF 14
ENDMDL
MODEL 8
REMARK VINA RESULT:    -4.100     12.296     15.505
REMARK INTER + INTRA:          -8.079
REMARK INTER:                  -5.834
REMARK INTRA:                  -2.246
REMARK UNBOUND:                -0.624
REMARK SMILES CCCCCCCCCCCCCCCC(=O)[O-]
REMARK SMILES IDX 9 1 10 2 11 3 12 4 13 5 14 6 15 7 16 8 17 9 18 10 8 11 7 12
REMARK SMILES IDX 6 13 5 14 4 15 3 16 2 17 1 18
REMARK H PARENT
REMARK Flexibility Score: inf
ROOT
ATOM      1  C   UNL     1     -18.889 -13.973  39.183  1.00  0.00     0.000 C 
ENDROOT
BRANCH   1   2
ATOM      2  C   UNL     1     -19.422 -12.630  38.660  1.00  0.00     0.000 C 
BRANCH   2   3
ATOM      3  C   UNL     1     -19.172 -11.467  39.635  1.00  0.00     0.000 C 
BRANCH   3   4
ATOM      4  C   UNL     1     -20.409 -11.003  40.431  1.00  0.00     0.000 C 
BRANCH   4   5
ATOM      5  C   UNL     1     -21.756 -11.171  39.702  1.00  0.00     0.000 C 
BRANCH   5   6
ATOM      6  C   UNL     1     -22.744 -12.065  40.473  1.00  0.00     0.006 C 
BRANCH   6   7
ATOM      7  C   UNL     1     -23.024 -13.383  39.740  1.00  0.00     0.053 C 
BRANCH   7   8
ATOM      8  C   UNL     1     -23.396 -13.154  38.307  1.00  0.00     0.041 C 
ATOM      9  O   UNL     1     -24.498 -12.618  38.016  1.00  0.00    -0.550 OA
ATOM     10  O   UNL     1     -22.515 -13.509  37.294  1.00  0.00    -0.550 OA
ENDBRANCH   7   8
ENDBRANCH   6   7
ENDBRANCH   5   6
ENDBRANCH   4   5
ENDBRANCH   3   4
ENDBRANCH   2   3
ENDBRANCH   1   2
BRANCH   1  11
ATOM     11  C   UNL     1     -20.029 -14.987  39.351  1.00  0.00     0.000 C 
BRANCH  11  12
ATOM     12  C   UNL     1     -20.037 -15.654  40.738  1.00  0.00    -0.000 C 
BRANCH  12  13
ATOM     13  C   UNL     1     -19.440 -14.800  41.874  1.00  0.00    -0.000 C 
BRANCH  13  14
ATOM     14  C   UNL     1     -20.456 -13.934  42.643  1.00  0.00    -0.000 C 
BRANCH  14  15
ATOM     15  C   UNL     1     -20.542 -14.219  44.157  1.00  0.00    -0.000 C 
BRANCH  15  16
ATOM     16  C   UNL     1     -21.806 -14.975  44.604  1.00  0.00    -0.000 C 
BRANCH  16  17
ATOM     17  C   UNL     1     -22.683 -15.422  43.425  1.00  0.00    -0.003 C 
ATOM     18  C   UNL     1     -23.851 -14.465  43.215  1.00  0.00     0.004 C 
ENDBRANCH  16  17
ENDBRANCH  15  16
ENDBRANCH  14  15
ENDBRANCH  13  14
ENDBRANCH  12  13
ENDBRANCH  11  12
ENDBRANCH   1  11
TORSDOF 14
ENDMDL
MODEL 9
REMARK VINA RESULT:    -4.051     12.716     15.814
REMARK INTER + INTRA:          -7.990
REMARK INTER:                  -6.461
REMARK INTRA:                  -1.530
REMARK UNBOUND:                -0.624
REMARK SMILES CCCCCCCCCCCCCCCC(=O)[O-]
REMARK SMILES IDX 9 1 10 2 11 3 12 4 13 5 14 6 15 7 16 8 17 9 18 10 8 11 7 12
REMARK SMILES IDX 6 13 5 14 4 15 3 16 2 17 1 18
REMARK H PARENT
REMARK Flexibility Score: inf
ROOT
ATOM      1  C   UNL     1     -23.017 -13.841  41.817  1.00  0.00     0.000 C 
ENDROOT
BRANCH   1   2
ATOM      2  C   UNL     1     -23.438 -14.639  43.059  1.00  0.00     0.000 C 
BRANCH   2   3
ATOM      3  C   UNL     1     -22.481 -15.801  43.376  1.00  0.00     0.000 C 
BRANCH   3   4
ATOM      4  C   UNL     1     -21.763 -15.706  44.738  1.00  0.00     0.000 C 
BRANCH   4   5
ATOM      5  C   UNL     1     -22.429 -14.769  45.763  1.00  0.00     0.000 C 
BRANCH   5   6
ATOM      6  C   UNL     1     -21.418 -14.126  46.729  1.00  0.00     0.006 C 
BRANCH   6   7
ATOM      7  C   UNL     1     -22.106 -13.459  47.927  1.00  0.00     0.053 C 
BRANCH   7   8
ATOM      8  C   UNL     1     -21.901 -11.974  47.929  1.00  0.00     0.041 C 
ATOM      9  O   UNL     1     -20.762 -11.491  47.698  1.00  0.00    -0.550 OA
ATOM     10  O   UNL     1     -22.975 -11.125  48.157  1.00  0.00    -0.550 OA
ENDBRANCH   7   8
ENDBRANCH   6   7
ENDBRANCH   5   6
ENDBRANCH   4   5
ENDBRANCH   3   4
ENDBRANCH   2   3
ENDBRANCH   1   2
BRANCH   1  11
ATOM     11  C   UNL     1     -21.981 -14.615  40.991  1.00  0.00     0.000 C 
BRANCH  11  12
ATOM     12  C   UNL     1     -22.314 -14.648  39.489  1.00  0.00    -0.000 C 
BRANCH  12  13
ATOM     13  C   UNL     1     -23.785 -14.341  39.143  1.00  0.00    -0.000 C 
BRANCH  13  14
ATOM     14  C   UNL     1     -24.016 -13.010  38.402  1.00  0.00    -0.000 C 
BRANCH  14  15
ATOM     15  C   UNL     1     -22.756 -12.137  38.220  1.00  0.00    -0.000 C 
BRANCH  15  16
ATOM     16  C   UNL     1     -22.643 -10.951  39.192  1.00  0.00    -0.000 C 
BRANCH  16  17
ATOM     17  C   UNL     1     -21.368 -10.999  40.048  1.00  0.00    -0.003 C 
ATOM     18  C   UNL     1     -20.205 -11.604  39.267  1.00  0.00     0.004 C 
ENDBRANCH  16  17
ENDBRANCH  15  16
ENDBRANCH  14  15
ENDBRANCH  13  14
ENDBRANCH  12  13
ENDBRANCH  11  12
ENDBRANCH   1  11
TORSDOF 14
ENDMDL
