MODEL 1
REMARK VINA RESULT:    -3.755      0.000      0.000
REMARK INTER + INTRA:          -4.642
REMARK INTER:                  -4.414
REMARK INTRA:                  -0.228
REMARK UNBOUND:                -0.228
REMARK SMILES [NH3+][C@@H](CO)C(=O)[O-]
REMARK SMILES IDX 3 1 2 2 1 3 5 7 6 8 7 9 4 10
REMARK H PARENT 1 4 1 5 1 6 4 11
REMARK Flexibility Score: inf
ROOT
ATOM      1  C   UNL     1       6.689  26.548  17.766  1.00  0.00     0.227 C 
ENDROOT
BRANCH   1   2
ATOM      2  C   UNL     1       8.093  27.168  17.642  1.00  0.00     0.253 C 
BRANCH   2   3
ATOM      3  N   UNL     1       9.046  26.209  17.068  1.00  0.00    -0.348 N 
ATOM      4  H   UNL     1       9.020  25.313  17.606  1.00  0.00     0.345 HD
ATOM      5  H   UNL     1      10.020  26.594  17.091  1.00  0.00     0.345 HD
ATOM      6  H   UNL     1       8.784  26.001  16.077  1.00  0.00     0.345 HD
ENDBRANCH   2   3
BRANCH   2   7
ATOM      7  C   UNL     1       8.570  27.641  18.989  1.00  0.00     0.102 C 
ATOM      8  O   UNL     1       7.765  27.742  19.953  1.00  0.00    -0.544 OA
ATOM      9  O   UNL     1       9.903  27.986  19.171  1.00  0.00    -0.544 OA
ENDBRANCH   2   7
ENDBRANCH   1   2
BRANCH   1  10
ATOM     10  O   UNL     1       6.716  25.416  18.595  1.00  0.00    -0.390 OA
ATOM     11  H   UNL     1       5.826  25.362  19.031  1.00  0.00     0.210 HD
ENDBRANCH   1  10
TORSDOF 4
ENDMDL
MODEL 2
REMARK VINA RESULT:    -3.615      1.935      2.238
REMARK INTER + INTRA:          -4.476
REMARK INTER:                  -4.252
REMARK INTRA:                  -0.225
REMARK UNBOUND:                -0.228
REMARK SMILES [NH3+][C@@H](CO)C(=O)[O-]
REMARK SMILES IDX 3 1 2 2 1 3 5 7 6 8 7 9 4 10
REMARK H PARENT 1 4 1 5 1 6 4 11
REMARK Flexibility Score: inf
ROOT
ATOM      1  C   UNL     1       6.757  26.775  16.699  1.00  0.00     0.227 C 
ENDROOT
BRANCH   1   2
ATOM      2  C   UNL     1       7.478  26.287  17.969  1.00  0.00     0.253 C 
BRANCH   2   3
ATOM      3  N   UNL     1       6.545  25.617  18.883  1.00  0.00    -0.348 N 
ATOM      4  H   UNL     1       6.623  26.032  19.841  1.00  0.00     0.345 HD
ATOM      5  H   UNL     1       6.748  24.592  18.937  1.00  0.00     0.345 HD
ATOM      6  H   UNL     1       5.563  25.755  18.550  1.00  0.00     0.345 HD
ENDBRANCH   2   3
BRANCH   2   7
ATOM      7  C   UNL     1       8.151  27.444  18.657  1.00  0.00     0.102 C 
ATOM      8  O   UNL     1       9.025  28.125  18.057  1.00  0.00    -0.544 OA
ATOM      9  O   UNL     1       7.821  27.757  19.970  1.00  0.00    -0.544 OA
ENDBRANCH   2   7
ENDBRANCH   1   2
BRANCH   1  10
ATOM     10  O   UNL     1       7.671  26.987  15.657  1.00  0.00    -0.390 OA
ATOM     11  H   UNL     1       8.572  27.032  16.074  1.00  0.00     0.210 HD
ENDBRANCH   1  10
TORSDOF 4
ENDMDL
MODEL 3
REMARK VINA RESULT:    -3.402     19.106     20.131
REMARK INTER + INTRA:          -4.226
REMARK INTER:                  -4.012
REMARK INTRA:                  -0.215
REMARK UNBOUND:                -0.228
REMARK SMILES [NH3+][C@@H](CO)C(=O)[O-]
REMARK SMILES IDX 3 1 2 2 1 3 5 7 6 8 7 9 4 10
REMARK H PARENT 1 4 1 5 1 6 4 11
REMARK Flexibility Score: inf
ROOT
ATOM      1  C   UNL     1      -3.920  11.559  17.480  1.00  0.00     0.227 C 
ENDROOT
BRANCH   1   2
ATOM      2  C   UNL     1      -5.094  11.792  16.511  1.00  0.00     0.253 C 
BRANCH   2   3
ATOM      3  N   UNL     1      -4.739  12.772  15.476  1.00  0.00    -0.348 N 
ATOM      4  H   UNL     1      -3.837  13.240  15.722  1.00  0.00     0.345 HD
ATOM      5  H   UNL     1      -5.487  13.498  15.380  1.00  0.00     0.345 HD
ATOM      6  H   UNL     1      -4.614  12.286  14.558  1.00  0.00     0.345 HD
ENDBRANCH   2   3
BRANCH   2   7
ATOM      7  C   UNL     1      -6.310  12.247  17.272  1.00  0.00     0.102 C 
ATOM      8  O   UNL     1      -6.527  13.475  17.455  1.00  0.00    -0.544 OA
ATOM      9  O   UNL     1      -7.194  11.310  17.791  1.00  0.00    -0.544 OA
ENDBRANCH   2   7
ENDBRANCH   1   2
BRANCH   1  10
ATOM     10  O   UNL     1      -3.594  12.741  18.161  1.00  0.00    -0.390 OA
ATOM     11  H   UNL     1      -4.430  13.062  18.590  1.00  0.00     0.210 HD
ENDBRANCH   1  10
TORSDOF 4
ENDMDL
MODEL 4
REMARK VINA RESULT:    -3.334     19.520     20.634
REMARK INTER + INTRA:          -4.146
REMARK INTER:                  -4.113
REMARK INTRA:                  -0.033
REMARK UNBOUND:                -0.228
REMARK SMILES [NH3+][C@@H](CO)C(=O)[O-]
REMARK SMILES IDX 3 1 2 2 1 3 5 7 6 8 7 9 4 10
REMARK H PARENT 1 4 1 5 1 6 4 11
REMARK Flexibility Score: inf
ROOT
ATOM      1  C   UNL     1      -5.901  13.249  15.498  1.00  0.00     0.227 C 
ENDROOT
BRANCH   1   2
ATOM      2  C   UNL     1      -5.975  12.990  17.014  1.00  0.00     0.253 C 
BRANCH   2   3
ATOM      3  N   UNL     1      -4.644  12.707  17.568  1.00  0.00    -0.348 N 
ATOM      4  H   UNL     1      -4.086  12.142  16.886  1.00  0.00     0.345 HD
ATOM      5  H   UNL     1      -4.721  12.178  18.468  1.00  0.00     0.345 HD
ATOM      6  H   UNL     1      -4.135  13.604  17.740  1.00  0.00     0.345 HD
ENDBRANCH   2   3
BRANCH   2   7
ATOM      7  C   UNL     1      -6.916  11.850  17.298  1.00  0.00     0.102 C 
ATOM      8  O   UNL     1      -6.798  10.755  16.686  1.00  0.00    -0.544 OA
ATOM      9  O   UNL     1      -7.935  12.008  18.229  1.00  0.00    -0.544 OA
ENDBRANCH   2   7
ENDBRANCH   1   2
BRANCH   1  10
ATOM     10  O   UNL     1      -4.590  13.082  15.027  1.00  0.00    -0.390 OA
ATOM     11  H   UNL     1      -4.514  13.624  14.199  1.00  0.00     0.210 HD
ENDBRANCH   1  10
TORSDOF 4
ENDMDL
MODEL 5
REMARK VINA RESULT:    -3.240      1.690      2.083
REMARK INTER + INTRA:          -4.036
REMARK INTER:                  -3.818
REMARK INTRA:                  -0.218
REMARK UNBOUND:                -0.228
REMARK SMILES [NH3+][C@@H](CO)C(=O)[O-]
REMARK SMILES IDX 3 1 2 2 1 3 5 7 6 8 7 9 4 10
REMARK H PARENT 1 4 1 5 1 6 4 11
REMARK Flexibility Score: inf
ROOT
ATOM      1  C   UNL     1       6.677  26.062  17.979  1.00  0.00     0.227 C 
ENDROOT
BRANCH   1   2
ATOM      2  C   UNL     1       7.278  27.134  17.052  1.00  0.00     0.253 C 
BRANCH   2   3
ATOM      3  N   UNL     1       7.017  26.820  15.641  1.00  0.00    -0.348 N 
ATOM      4  H   UNL     1       7.870  26.401  15.205  1.00  0.00     0.345 HD
ATOM      5  H   UNL     1       6.751  27.683  15.111  1.00  0.00     0.345 HD
ATOM      6  H   UNL     1       6.240  26.123  15.571  1.00  0.00     0.345 HD
ENDBRANCH   2   3
BRANCH   2   7
ATOM      7  C   UNL     1       8.757  27.260  17.298  1.00  0.00     0.102 C 
ATOM      8  O   UNL     1       9.563  27.327  16.332  1.00  0.00    -0.544 OA
ATOM      9  O   UNL     1       9.244  27.288  18.599  1.00  0.00    -0.544 OA
ENDBRANCH   2   7
ENDBRANCH   1   2
BRANCH   1  10
ATOM     10  O   UNL     1       6.613  26.526  19.301  1.00  0.00    -0.390 OA
ATOM     11  H   UNL     1       7.185  25.921  19.842  1.00  0.00     0.210 HD
ENDBRANCH   1  10
TORSDOF 4
ENDMDL
MODEL 6
REMARK VINA RESULT:    -3.174     19.613     20.100
REMARK INTER + INTRA:          -3.959
REMARK INTER:                  -3.587
REMARK INTRA:                  -0.372
REMARK UNBOUND:                -0.228
REMARK SMILES [NH3+][C@@H](CO)C(=O)[O-]
REMARK SMILES IDX 3 1 2 2 1 3 5 7 6 8 7 9 4 10
REMARK H PARENT 1 4 1 5 1 6 4 11
REMARK Flexibility Score: inf
ROOT
ATOM      1  C   UNL     1      -4.501  12.321  17.520  1.00  0.00     0.227 C 
ENDROOT
BRANCH   1   2
ATOM      2  C   UNL     1      -5.849  12.966  17.149  1.00  0.00     0.253 C 
BRANCH   2   3
ATOM      3  N   UNL     1      -6.972  12.211  17.721  1.00  0.00    -0.348 N 
ATOM      4  H   UNL     1      -7.523  12.824  18.366  1.00  0.00     0.345 HD
ATOM      5  H   UNL     1      -6.627  11.378  18.252  1.00  0.00     0.345 HD
ATOM      6  H   UNL     1      -7.609  11.890  16.955  1.00  0.00     0.345 HD
ENDBRANCH   2   3
BRANCH   2   7
ATOM      7  C   UNL     1      -5.985  13.059  15.653  1.00  0.00     0.102 C 
ATOM      8  O   UNL     1      -6.401  12.074  14.986  1.00  0.00    -0.544 OA
ATOM      9  O   UNL     1      -5.634  14.231  14.996  1.00  0.00    -0.544 OA
ENDBRANCH   2   7
ENDBRANCH   1   2
BRANCH   1  10
ATOM     10  O   UNL     1      -3.791  11.956  16.367  1.00  0.00    -0.390 OA
ATOM     11  H   UNL     1      -4.368  11.323  15.865  1.00  0.00     0.210 HD
ENDBRANCH   1  10
TORSDOF 4
ENDMDL
MODEL 7
REMARK VINA RESULT:    -3.090     19.149     19.826
REMARK INTER + INTRA:          -3.860
REMARK INTER:                  -3.642
REMARK INTRA:                  -0.218
REMARK UNBOUND:                -0.228
REMARK SMILES [NH3+][C@@H](CO)C(=O)[O-]
REMARK SMILES IDX 3 1 2 2 1 3 5 7 6 8 7 9 4 10
REMARK H PARENT 1 4 1 5 1 6 4 11
REMARK Flexibility Score: inf
ROOT
ATOM      1  C   UNL     1      -2.649  10.291  17.946  1.00  0.00     0.227 C 
ENDROOT
BRANCH   1   2
ATOM      2  C   UNL     1      -3.127  11.711  17.591  1.00  0.00     0.253 C 
BRANCH   2   3
ATOM      3  N   UNL     1      -2.766  12.669  18.644  1.00  0.00    -0.348 N 
ATOM      4  H   UNL     1      -1.738  12.625  18.830  1.00  0.00     0.345 HD
ATOM      5  H   UNL     1      -3.284  12.460  19.529  1.00  0.00     0.345 HD
ATOM      6  H   UNL     1      -2.998  13.640  18.332  1.00  0.00     0.345 HD
ENDBRANCH   2   3
BRANCH   2   7
ATOM      7  C   UNL     1      -4.614  11.714  17.363  1.00  0.00     0.102 C 
ATOM      8  O   UNL     1      -5.252  12.800  17.318  1.00  0.00    -0.544 OA
ATOM      9  O   UNL     1      -5.296  10.513  17.216  1.00  0.00    -0.544 OA
ENDBRANCH   2   7
ENDBRANCH   1   2
BRANCH   1  10
ATOM     10  O   UNL     1      -2.457   9.525  16.787  1.00  0.00    -0.390 OA
ATOM     11  H   UNL     1      -2.595  10.136  16.017  1.00  0.00     0.210 HD
ENDBRANCH   1  10
TORSDOF 4
ENDMDL
MODEL 8
REMARK VINA RESULT:    -3.057     20.122     20.688
REMARK INTER + INTRA:          -3.821
REMARK INTER:                  -3.436
REMARK INTRA:                  -0.385
REMARK UNBOUND:                -0.228
REMARK SMILES [NH3+][C@@H](CO)C(=O)[O-]
REMARK SMILES IDX 3 1 2 2 1 3 5 7 6 8 7 9 4 10
REMARK H PARENT 1 4 1 5 1 6 4 11
REMARK Flexibility Score: inf
ROOT
ATOM      1  C   UNL     1      -4.039  10.923  17.445  1.00  0.00     0.227 C 
ENDROOT
BRANCH   1   2
ATOM      2  C   UNL     1      -5.578  10.974  17.456  1.00  0.00     0.253 C 
BRANCH   2   3
ATOM      3  N   UNL     1      -6.153   9.770  16.843  1.00  0.00    -0.348 N 
ATOM      4  H   UNL     1      -6.576   9.161  17.580  1.00  0.00     0.345 HD
ATOM      5  H   UNL     1      -5.418   9.228  16.330  1.00  0.00     0.345 HD
ATOM      6  H   UNL     1      -6.908  10.041  16.172  1.00  0.00     0.345 HD
ENDBRANCH   2   3
BRANCH   2   7
ATOM      7  C   UNL     1      -6.059  12.209  16.744  1.00  0.00     0.102 C 
ATOM      8  O   UNL     1      -6.330  13.257  17.390  1.00  0.00    -0.544 OA
ATOM      9  O   UNL     1      -6.223  12.195  15.364  1.00  0.00    -0.544 OA
ENDBRANCH   2   7
ENDBRANCH   1   2
BRANCH   1  10
ATOM     10  O   UNL     1      -3.513  11.943  16.639  1.00  0.00    -0.390 OA
ATOM     11  H   UNL     1      -4.064  12.751  16.808  1.00  0.00     0.210 HD
ENDBRANCH   1  10
TORSDOF 4
ENDMDL
MODEL 9
REMARK VINA RESULT:    -3.033     18.245     18.974
REMARK INTER + INTRA:          -3.792
REMARK INTER:                  -3.560
REMARK INTRA:                  -0.232
REMARK UNBOUND:                -0.228
REMARK SMILES [NH3+][C@@H](CO)C(=O)[O-]
REMARK SMILES IDX 3 1 2 2 1 3 5 7 6 8 7 9 4 10
REMARK H PARENT 1 4 1 5 1 6 4 11
REMARK Flexibility Score: inf
ROOT
ATOM      1  C   UNL     1      -4.357  11.607  17.383  1.00  0.00     0.227 C 
ENDROOT
BRANCH   1   2
ATOM      2  C   UNL     1      -2.832  11.404  17.439  1.00  0.00     0.253 C 
BRANCH   2   3
ATOM      3  N   UNL     1      -2.469  10.021  17.107  1.00  0.00    -0.348 N 
ATOM      4  H   UNL     1      -1.740  10.012  16.357  1.00  0.00     0.345 HD
ATOM      5  H   UNL     1      -3.307   9.486  16.776  1.00  0.00     0.345 HD
ATOM      6  H   UNL     1      -2.073   9.547  17.951  1.00  0.00     0.345 HD
ENDBRANCH   2   3
BRANCH   2   7
ATOM      7  C   UNL     1      -2.312  11.772  18.803  1.00  0.00     0.102 C 
ATOM      8  O   UNL     1      -2.102  12.978  19.104  1.00  0.00    -0.544 OA
ATOM      9  O   UNL     1      -2.044  10.778  19.734  1.00  0.00    -0.544 OA
ENDBRANCH   2   7
ENDBRANCH   1   2
BRANCH   1  10
ATOM     10  O   UNL     1      -4.693  12.941  17.654  1.00  0.00    -0.390 OA
ATOM     11  H   UNL     1      -3.877  13.370  18.025  1.00  0.00     0.210 HD
ENDBRANCH   1  10
TORSDOF 4
ENDMDL
