MODEL 1
REMARK VINA RESULT:    -4.487      0.000      0.000
REMARK INTER + INTRA:         -10.535
REMARK INTER:                  -8.422
REMARK INTRA:                  -2.113
REMARK UNBOUND:                -2.113
REMARK SMILES CCCCCCCCC=CCCCCCCCC(=O)[O-]
REMARK SMILES IDX 10 1 9 2 11 3 12 4 13 5 14 6 15 7 16 8 17 9 18 10 19 11
REMARK SMILES IDX 20 12 8 13 7 14 6 15 5 16 4 17 3 18 2 19 1 20
REMARK H PARENT
REMARK Flexibility Score: inf
ROOT
ATOM      1  C   UNL     1      25.266  45.602  35.415  1.00  0.00    -0.031 C 
ATOM      2  C   UNL     1      24.700  46.130  36.512  1.00  0.00    -0.031 C 
ENDROOT
BRANCH   1   3
ATOM      3  C   UNL     1      25.418  46.394  34.145  1.00  0.00     0.027 C 
BRANCH   3   4
ATOM      4  C   UNL     1      24.447  45.902  33.065  1.00  0.00     0.004 C 
BRANCH   4   5
ATOM      5  C   UNL     1      23.014  45.823  33.612  1.00  0.00     0.000 C 
BRANCH   5   6
ATOM      6  C   UNL     1      22.264  47.164  33.515  1.00  0.00     0.000 C 
BRANCH   6   7
ATOM      7  C   UNL     1      22.101  47.919  34.850  1.00  0.00     0.000 C 
BRANCH   7   8
ATOM      8  C   UNL     1      22.518  49.404  34.817  1.00  0.00     0.006 C 
BRANCH   8   9
ATOM      9  C   UNL     1      24.008  49.651  35.102  1.00  0.00     0.053 C 
BRANCH   9  10
ATOM     10  C   UNL     1      24.705  50.272  33.931  1.00  0.00     0.041 C 
ATOM     11  O   UNL     1      24.979  49.581  32.915  1.00  0.00    -0.550 OA
ATOM     12  O   UNL     1      25.084  51.607  33.976  1.00  0.00    -0.550 OA
ENDBRANCH   9  10
ENDBRANCH   8   9
ENDBRANCH   7   8
ENDBRANCH   6   7
ENDBRANCH   5   6
ENDBRANCH   4   5
ENDBRANCH   3   4
ENDBRANCH   1   3
BRANCH   2  13
ATOM     13  C   UNL     1      24.547  45.334  37.781  1.00  0.00     0.027 C 
BRANCH  13  14
ATOM     14  C   UNL     1      24.315  46.233  39.004  1.00  0.00     0.004 C 
BRANCH  14  15
ATOM     15  C   UNL     1      24.011  47.687  38.602  1.00  0.00     0.000 C 
BRANCH  15  16
ATOM     16  C   UNL     1      22.509  48.006  38.642  1.00  0.00     0.000 C 
BRANCH  16  17
ATOM     17  C   UNL     1      22.216  49.371  39.290  1.00  0.00    -0.000 C 
BRANCH  17  18
ATOM     18  C   UNL     1      23.119  49.653  40.501  1.00  0.00    -0.000 C 
BRANCH  18  19
ATOM     19  C   UNL     1      22.585  49.019  41.794  1.00  0.00    -0.003 C 
ATOM     20  C   UNL     1      21.198  49.554  42.140  1.00  0.00     0.004 C 
ENDBRANCH  18  19
ENDBRANCH  17  18
ENDBRANCH  16  17
ENDBRANCH  15  16
ENDBRANCH  14  15
ENDBRANCH  13  14
ENDBRANCH   2  13
TORSDOF 15
ENDMDL
MODEL 2
REMARK VINA RESULT:    -4.482      3.080      6.300
REMARK INTER + INTRA:         -10.525
REMARK INTER:                  -8.612
REMARK INTRA:                  -1.912
REMARK UNBOUND:                -2.113
REMARK SMILES CCCCCCCCC=CCCCCCCCC(=O)[O-]
REMARK SMILES IDX 10 1 9 2 11 3 12 4 13 5 14 6 15 7 16 8 17 9 18 10 19 11
REMARK SMILES IDX 20 12 8 13 7 14 6 15 5 16 4 17 3 18 2 19 1 20
REMARK H PARENT
REMARK Flexibility Score: inf
ROOT
ATOM      1  C   UNL     1      24.688  45.997  36.592  1.00  0.00    -0.031 C 
ATOM      2  C   UNL     1      25.274  45.594  35.453  1.00  0.00    -0.031 C 
ENDROOT
BRANCH   1   3
ATOM      3  C   UNL     1      24.630  45.111  37.806  1.00  0.00     0.027 C 
BRANCH   3   4
ATOM      4  C   UNL     1      24.299  45.919  39.067  1.00  0.00     0.004 C 
BRANCH   4   5
ATOM      5  C   UNL     1      24.209  47.419  38.749  1.00  0.00     0.000 C 
BRANCH   5   6
ATOM      6  C   UNL     1      22.833  48.019  39.087  1.00  0.00     0.000 C 
BRANCH   6   7
ATOM      7  C   UNL     1      22.867  49.459  39.640  1.00  0.00     0.000 C 
BRANCH   7   8
ATOM      8  C   UNL     1      23.374  49.591  41.091  1.00  0.00     0.006 C 
BRANCH   8   9
ATOM      9  C   UNL     1      22.265  49.593  42.154  1.00  0.00     0.053 C 
BRANCH   9  10
ATOM     10  C   UNL     1      21.903  50.982  42.581  1.00  0.00     0.041 C 
ATOM     11  O   UNL     1      21.644  51.865  41.720  1.00  0.00    -0.550 OA
ATOM     12  O   UNL     1      21.887  51.312  43.930  1.00  0.00    -0.550 OA
ENDBRANCH   9  10
ENDBRANCH   8   9
ENDBRANCH   7   8
ENDBRANCH   6   7
ENDBRANCH   5   6
ENDBRANCH   4   5
ENDBRANCH   3   4
ENDBRANCH   1   3
BRANCH   2  13
ATOM     13  C   UNL     1      25.329  46.481  34.238  1.00  0.00     0.027 C 
BRANCH  13  14
ATOM     14  C   UNL     1      24.320  46.054  33.162  1.00  0.00     0.004 C 
BRANCH  14  15
ATOM     15  C   UNL     1      22.907  45.867  33.738  1.00  0.00     0.000 C 
BRANCH  15  16
ATOM     16  C   UNL     1      21.935  46.964  33.275  1.00  0.00     0.000 C 
BRANCH  16  17
ATOM     17  C   UNL     1      22.359  48.364  33.753  1.00  0.00    -0.000 C 
BRANCH  17  18
ATOM     18  C   UNL     1      22.376  48.483  35.285  1.00  0.00    -0.000 C 
BRANCH  18  19
ATOM     19  C   UNL     1      23.401  49.513  35.783  1.00  0.00    -0.003 C 
ATOM     20  C   UNL     1      24.289  50.005  34.642  1.00  0.00     0.004 C 
ENDBRANCH  18  19
ENDBRANCH  17  18
ENDBRANCH  16  17
ENDBRANCH  15  16
ENDBRANCH  14  15
ENDBRANCH  13  14
ENDBRANCH   2  13
TORSDOF 15
ENDMDL
MODEL 3
REMARK VINA RESULT:    -4.144      3.368      6.087
REMARK INTER + INTRA:          -9.890
REMARK INTER:                  -7.941
REMARK INTRA:                  -1.949
REMARK UNBOUND:                -2.113
REMARK SMILES CCCCCCCCC=CCCCCCCCC(=O)[O-]
REMARK SMILES IDX 10 1 9 2 11 3 12 4 13 5 14 6 15 7 16 8 17 9 18 10 19 11
REMARK SMILES IDX 20 12 8 13 7 14 6 15 5 16 4 17 3 18 2 19 1 20
REMARK H PARENT
REMARK Flexibility Score: inf
ROOT
ATOM      1  C   UNL     1      24.254  45.757  36.725  1.00  0.00    -0.031 C 
ATOM      2  C   UNL     1      24.995  45.804  35.607  1.00  0.00    -0.031 C 
ENDROOT
BRANCH   1   3
ATOM      3  C   UNL     1      24.683  44.954  37.923  1.00  0.00     0.027 C 
BRANCH   3   4
ATOM      4  C   UNL     1      24.200  45.603  39.227  1.00  0.00     0.004 C 
BRANCH   4   5
ATOM      5  C   UNL     1      24.144  47.131  39.091  1.00  0.00     0.000 C 
BRANCH   5   6
ATOM      6  C   UNL     1      23.794  47.836  40.412  1.00  0.00     0.000 C 
BRANCH   6   7
ATOM      7  C   UNL     1      24.191  49.325  40.485  1.00  0.00     0.000 C 
BRANCH   7   8
ATOM      8  C   UNL     1      23.020  50.322  40.371  1.00  0.00     0.006 C 
BRANCH   8   9
ATOM      9  C   UNL     1      22.830  51.221  41.603  1.00  0.00     0.053 C 
BRANCH   9  10
ATOM     10  C   UNL     1      21.900  50.608  42.603  1.00  0.00     0.041 C 
ATOM     11  O   UNL     1      21.274  49.550  42.326  1.00  0.00    -0.550 OA
ATOM     12  O   UNL     1      21.695  51.225  43.831  1.00  0.00    -0.550 OA
ENDBRANCH   9  10
ENDBRANCH   8   9
ENDBRANCH   7   8
ENDBRANCH   6   7
ENDBRANCH   5   6
ENDBRANCH   4   5
ENDBRANCH   3   4
ENDBRANCH   1   3
BRANCH   2  13
ATOM     13  C   UNL     1      24.563  46.605  34.408  1.00  0.00     0.027 C 
BRANCH  13  14
ATOM     14  C   UNL     1      25.716  47.425  33.813  1.00  0.00     0.004 C 
BRANCH  14  15
ATOM     15  C   UNL     1      25.360  48.916  33.687  1.00  0.00     0.000 C 
BRANCH  15  16
ATOM     16  C   UNL     1      23.868  49.186  33.933  1.00  0.00     0.000 C 
BRANCH  16  17
ATOM     17  C   UNL     1      23.634  50.191  35.075  1.00  0.00    -0.000 C 
BRANCH  17  18
ATOM     18  C   UNL     1      23.582  49.514  36.454  1.00  0.00    -0.000 C 
BRANCH  18  19
ATOM     19  C   UNL     1      22.196  49.614  37.107  1.00  0.00    -0.003 C 
ATOM     20  C   UNL     1      21.221  48.615  36.488  1.00  0.00     0.004 C 
ENDBRANCH  18  19
ENDBRANCH  17  18
ENDBRANCH  16  17
ENDBRANCH  15  16
ENDBRANCH  14  15
ENDBRANCH  13  14
ENDBRANCH   2  13
TORSDOF 15
ENDMDL
MODEL 4
REMARK VINA RESULT:    -4.103      1.359      2.301
REMARK INTER + INTRA:          -9.815
REMARK INTER:                  -7.927
REMARK INTRA:                  -1.888
REMARK UNBOUND:                -2.113
REMARK SMILES CCCCCCCCC=CCCCCCCCC(=O)[O-]
REMARK SMILES IDX 10 1 9 2 11 3 12 4 13 5 14 6 15 7 16 8 17 9 18 10 19 11
REMARK SMILES IDX 20 12 8 13 7 14 6 15 5 16 4 17 3 18 2 19 1 20
REMARK H PARENT
REMARK Flexibility Score: inf
ROOT
ATOM      1  C   UNL     1      24.411  46.642  36.949  1.00  0.00    -0.031 C 
ATOM      2  C   UNL     1      23.197  47.138  37.236  1.00  0.00    -0.031 C 
ENDROOT
BRANCH   1   3
ATOM      3  C   UNL     1      24.612  45.629  35.854  1.00  0.00     0.027 C 
BRANCH   3   4
ATOM      4  C   UNL     1      25.479  46.198  34.724  1.00  0.00     0.004 C 
BRANCH   4   5
ATOM      5  C   UNL     1      24.741  46.129  33.379  1.00  0.00     0.000 C 
BRANCH   5   6
ATOM      6  C   UNL     1      23.267  45.714  33.528  1.00  0.00     0.000 C 
BRANCH   6   7
ATOM      7  C   UNL     1      22.251  46.872  33.452  1.00  0.00     0.000 C 
BRANCH   7   8
ATOM      8  C   UNL     1      22.851  48.248  33.102  1.00  0.00     0.006 C 
BRANCH   8   9
ATOM      9  C   UNL     1      22.532  49.357  34.117  1.00  0.00     0.053 C 
BRANCH   9  10
ATOM     10  C   UNL     1      23.771  49.896  34.763  1.00  0.00     0.041 C 
ATOM     11  O   UNL     1      24.902  49.667  34.259  1.00  0.00    -0.550 OA
ATOM     12  O   UNL     1      23.679  50.623  35.943  1.00  0.00    -0.550 OA
ENDBRANCH   9  10
ENDBRANCH   8   9
ENDBRANCH   7   8
ENDBRANCH   6   7
ENDBRANCH   5   6
ENDBRANCH   4   5
ENDBRANCH   3   4
ENDBRANCH   1   3
BRANCH   2  13
ATOM     13  C   UNL     1      22.999  48.150  38.333  1.00  0.00     0.027 C 
BRANCH  13  14
ATOM     14  C   UNL     1      24.118  48.092  39.383  1.00  0.00     0.004 C 
BRANCH  14  15
ATOM     15  C   UNL     1      23.723  48.805  40.687  1.00  0.00     0.000 C 
BRANCH  15  16
ATOM     16  C   UNL     1      22.207  49.032  40.796  1.00  0.00     0.000 C 
BRANCH  16  17
ATOM     17  C   UNL     1      21.740  49.188  42.255  1.00  0.00    -0.000 C 
BRANCH  17  18
ATOM     18  C   UNL     1      21.953  50.612  42.792  1.00  0.00    -0.000 C 
BRANCH  18  19
ATOM     19  C   UNL     1      21.222  51.672  41.955  1.00  0.00    -0.003 C 
ATOM     20  C   UNL     1      22.206  52.668  41.345  1.00  0.00     0.004 C 
ENDBRANCH  18  19
ENDBRANCH  17  18
ENDBRANCH  16  17
ENDBRANCH  15  16
ENDBRANCH  14  15
ENDBRANCH  13  14
ENDBRANCH   2  13
TORSDOF 15
ENDMDL
MODEL 5
REMARK VINA RESULT:    -4.100      2.665      5.925
REMARK INTER + INTRA:          -9.808
REMARK INTER:                  -7.522
REMARK INTRA:                  -2.286
REMARK UNBOUND:                -2.113
REMARK SMILES CCCCCCCCC=CCCCCCCCC(=O)[O-]
REMARK SMILES IDX 10 1 9 2 11 3 12 4 13 5 14 6 15 7 16 8 17 9 18 10 19 11
REMARK SMILES IDX 20 12 8 13 7 14 6 15 5 16 4 17 3 18 2 19 1 20
REMARK H PARENT
REMARK Flexibility Score: inf
ROOT
ATOM      1  C   UNL     1      23.543  49.575  35.584  1.00  0.00    -0.031 C 
ATOM      2  C   UNL     1      23.461  49.798  34.263  1.00  0.00    -0.031 C 
ENDROOT
BRANCH   1   3
ATOM      3  C   UNL     1      23.175  50.634  36.587  1.00  0.00     0.027 C 
BRANCH   3   4
ATOM      4  C   UNL     1      21.827  50.324  37.251  1.00  0.00     0.004 C 
BRANCH   4   5
ATOM      5  C   UNL     1      21.507  48.825  37.169  1.00  0.00     0.000 C 
BRANCH   5   6
ATOM      6  C   UNL     1      21.079  48.230  38.522  1.00  0.00     0.000 C 
BRANCH   6   7
ATOM      7  C   UNL     1      21.143  49.206  39.714  1.00  0.00     0.000 C 
BRANCH   7   8
ATOM      8  C   UNL     1      22.321  48.980  40.684  1.00  0.00     0.006 C 
BRANCH   8   9
ATOM      9  C   UNL     1      23.503  49.941  40.481  1.00  0.00     0.053 C 
BRANCH   9  10
ATOM     10  C   UNL     1      23.149  51.348  40.851  1.00  0.00     0.041 C 
ATOM     11  O   UNL     1      22.575  51.593  41.945  1.00  0.00    -0.550 OA
ATOM     12  O   UNL     1      23.421  52.387  39.970  1.00  0.00    -0.550 OA
ENDBRANCH   9  10
ENDBRANCH   8   9
ENDBRANCH   7   8
ENDBRANCH   6   7
ENDBRANCH   5   6
ENDBRANCH   4   5
ENDBRANCH   3   4
ENDBRANCH   1   3
BRANCH   2  13
ATOM     13  C   UNL     1      23.832  48.737  33.261  1.00  0.00     0.027 C 
BRANCH  13  14
ATOM     14  C   UNL     1      25.323  48.377  33.324  1.00  0.00     0.004 C 
BRANCH  14  15
ATOM     15  C   UNL     1      25.571  46.888  33.028  1.00  0.00     0.000 C 
BRANCH  15  16
ATOM     16  C   UNL     1      24.720  45.964  33.914  1.00  0.00     0.000 C 
BRANCH  16  17
ATOM     17  C   UNL     1      25.230  45.911  35.365  1.00  0.00    -0.000 C 
BRANCH  17  18
ATOM     18  C   UNL     1      24.093  46.028  36.393  1.00  0.00    -0.000 C 
BRANCH  18  19
ATOM     19  C   UNL     1      24.470  45.431  37.757  1.00  0.00    -0.003 C 
ATOM     20  C   UNL     1      24.383  46.481  38.862  1.00  0.00     0.004 C 
ENDBRANCH  18  19
ENDBRANCH  17  18
ENDBRANCH  16  17
ENDBRANCH  15  16
ENDBRANCH  14  15
ENDBRANCH  13  14
ENDBRANCH   2  13
TORSDOF 15
ENDMDL
MODEL 6
REMARK VINA RESULT:    -4.097      2.426      6.161
REMARK INTER + INTRA:          -9.803
REMARK INTER:                  -7.260
REMARK INTRA:                  -2.543
REMARK UNBOUND:                -2.113
REMARK SMILES CCCCCCCCC=CCCCCCCCC(=O)[O-]
REMARK SMILES IDX 10 1 9 2 11 3 12 4 13 5 14 6 15 7 16 8 17 9 18 10 19 11
REMARK SMILES IDX 20 12 8 13 7 14 6 15 5 16 4 17 3 18 2 19 1 20
REMARK H PARENT
REMARK Flexibility Score: inf
ROOT
ATOM      1  C   UNL     1      23.063  46.770  37.205  1.00  0.00    -0.031 C 
ATOM      2  C   UNL     1      24.310  46.862  36.716  1.00  0.00    -0.031 C 
ENDROOT
BRANCH   1   3
ATOM      3  C   UNL     1      22.455  47.872  38.029  1.00  0.00     0.027 C 
BRANCH   3   4
ATOM      4  C   UNL     1      23.485  48.966  38.338  1.00  0.00     0.004 C 
BRANCH   4   5
ATOM      5  C   UNL     1      24.252  48.649  39.630  1.00  0.00     0.000 C 
BRANCH   5   6
ATOM      6  C   UNL     1      23.337  48.140  40.758  1.00  0.00     0.000 C 
BRANCH   6   7
ATOM      7  C   UNL     1      22.728  49.240  41.652  1.00  0.00     0.000 C 
BRANCH   7   8
ATOM      8  C   UNL     1      21.228  49.515  41.422  1.00  0.00     0.006 C 
BRANCH   8   9
ATOM      9  C   UNL     1      20.875  51.000  41.249  1.00  0.00     0.053 C 
BRANCH   9  10
ATOM     10  C   UNL     1      21.448  51.566  39.986  1.00  0.00     0.041 C 
ATOM     11  O   UNL     1      20.905  51.323  38.876  1.00  0.00    -0.550 OA
ATOM     12  O   UNL     1      22.605  52.335  40.032  1.00  0.00    -0.550 OA
ENDBRANCH   9  10
ENDBRANCH   8   9
ENDBRANCH   7   8
ENDBRANCH   6   7
ENDBRANCH   5   6
ENDBRANCH   4   5
ENDBRANCH   3   4
ENDBRANCH   1   3
BRANCH   2  13
ATOM     13  C   UNL     1      24.917  45.757  35.893  1.00  0.00     0.027 C 
BRANCH  13  14
ATOM     14  C   UNL     1      25.409  46.255  34.526  1.00  0.00     0.004 C 
BRANCH  14  15
ATOM     15  C   UNL     1      24.617  45.631  33.365  1.00  0.00     0.000 C 
BRANCH  15  16
ATOM     16  C   UNL     1      23.180  46.168  33.279  1.00  0.00     0.000 C 
BRANCH  16  17
ATOM     17  C   UNL     1      23.134  47.697  33.109  1.00  0.00    -0.000 C 
BRANCH  17  18
ATOM     18  C   UNL     1      22.080  48.359  34.010  1.00  0.00    -0.000 C 
BRANCH  18  19
ATOM     19  C   UNL     1      22.620  49.603  34.732  1.00  0.00    -0.003 C 
ATOM     20  C   UNL     1      24.113  49.788  34.469  1.00  0.00     0.004 C 
ENDBRANCH  18  19
ENDBRANCH  17  18
ENDBRANCH  16  17
ENDBRANCH  15  16
ENDBRANCH  14  15
ENDBRANCH  13  14
ENDBRANCH   2  13
TORSDOF 15
ENDMDL
MODEL 7
REMARK VINA RESULT:    -4.080      1.842      2.253
REMARK INTER + INTRA:          -9.770
REMARK INTER:                  -7.946
REMARK INTRA:                  -1.825
REMARK UNBOUND:                -2.113
REMARK SMILES CCCCCCCCC=CCCCCCCCC(=O)[O-]
REMARK SMILES IDX 10 1 9 2 11 3 12 4 13 5 14 6 15 7 16 8 17 9 18 10 19 11
REMARK SMILES IDX 20 12 8 13 7 14 6 15 5 16 4 17 3 18 2 19 1 20
REMARK H PARENT
REMARK Flexibility Score: inf
ROOT
ATOM      1  C   UNL     1      24.993  45.603  35.529  1.00  0.00    -0.031 C 
ATOM      2  C   UNL     1      24.694  46.189  36.699  1.00  0.00    -0.031 C 
ENDROOT
BRANCH   1   3
ATOM      3  C   UNL     1      25.223  46.408  34.279  1.00  0.00     0.027 C 
BRANCH   3   4
ATOM      4  C   UNL     1      24.212  46.036  33.187  1.00  0.00     0.004 C 
BRANCH   4   5
ATOM      5  C   UNL     1      22.781  46.026  33.744  1.00  0.00     0.000 C 
BRANCH   5   6
ATOM      6  C   UNL     1      21.957  47.245  33.295  1.00  0.00     0.000 C 
BRANCH   6   7
ATOM      7  C   UNL     1      21.957  48.433  34.279  1.00  0.00     0.000 C 
BRANCH   7   8
ATOM      8  C   UNL     1      22.112  48.052  35.766  1.00  0.00     0.006 C 
BRANCH   8   9
ATOM      9  C   UNL     1      21.301  48.928  36.733  1.00  0.00     0.053 C 
BRANCH   9  10
ATOM     10  C   UNL     1      21.798  50.340  36.757  1.00  0.00     0.041 C 
ATOM     11  O   UNL     1      21.039  51.287  36.419  1.00  0.00    -0.550 OA
ATOM     12  O   UNL     1      23.112  50.609  37.119  1.00  0.00    -0.550 OA
ENDBRANCH   9  10
ENDBRANCH   8   9
ENDBRANCH   7   8
ENDBRANCH   6   7
ENDBRANCH   5   6
ENDBRANCH   4   5
ENDBRANCH   3   4
ENDBRANCH   1   3
BRANCH   2  13
ATOM     13  C   UNL     1      24.463  45.381  37.948  1.00  0.00     0.027 C 
BRANCH  13  14
ATOM     14  C   UNL     1      24.240  46.270  39.180  1.00  0.00     0.004 C 
BRANCH  14  15
ATOM     15  C   UNL     1      24.179  47.762  38.812  1.00  0.00     0.000 C 
BRANCH  15  16
ATOM     16  C   UNL     1      24.184  48.673  40.049  1.00  0.00     0.000 C 
BRANCH  16  17
ATOM     17  C   UNL     1      22.867  48.596  40.840  1.00  0.00    -0.000 C 
BRANCH  17  18
ATOM     18  C   UNL     1      22.641  49.827  41.732  1.00  0.00    -0.000 C 
BRANCH  18  19
ATOM     19  C   UNL     1      23.148  51.124  41.083  1.00  0.00    -0.003 C 
ATOM     20  C   UNL     1      22.041  51.812  40.289  1.00  0.00     0.004 C 
ENDBRANCH  18  19
ENDBRANCH  17  18
ENDBRANCH  16  17
ENDBRANCH  15  16
ENDBRANCH  14  15
ENDBRANCH  13  14
ENDBRANCH   2  13
TORSDOF 15
ENDMDL
MODEL 8
REMARK VINA RESULT:    -4.075      2.913      6.055
REMARK INTER + INTRA:          -9.762
REMARK INTER:                  -7.267
REMARK INTRA:                  -2.495
REMARK UNBOUND:                -2.113
REMARK SMILES CCCCCCCCC=CCCCCCCCC(=O)[O-]
REMARK SMILES IDX 10 1 9 2 11 3 12 4 13 5 14 6 15 7 16 8 17 9 18 10 19 11
REMARK SMILES IDX 20 12 8 13 7 14 6 15 5 16 4 17 3 18 2 19 1 20
REMARK H PARENT
REMARK Flexibility Score: inf
ROOT
ATOM      1  C   UNL     1      23.816  47.227  37.340  1.00  0.00    -0.031 C 
ATOM      2  C   UNL     1      24.259  45.966  37.468  1.00  0.00    -0.031 C 
ENDROOT
BRANCH   1   3
ATOM      3  C   UNL     1      23.124  47.939  38.470  1.00  0.00     0.027 C 
BRANCH   3   4
ATOM      4  C   UNL     1      21.655  48.220  38.132  1.00  0.00     0.004 C 
BRANCH   4   5
ATOM      5  C   UNL     1      21.447  49.699  37.776  1.00  0.00     0.000 C 
BRANCH   5   6
ATOM      6  C   UNL     1      22.711  50.549  37.994  1.00  0.00     0.000 C 
BRANCH   6   7
ATOM      7  C   UNL     1      22.548  51.721  38.984  1.00  0.00     0.000 C 
BRANCH   7   8
ATOM      8  C   UNL     1      21.652  51.428  40.204  1.00  0.00     0.006 C 
BRANCH   8   9
ATOM      9  C   UNL     1      22.416  51.253  41.525  1.00  0.00     0.053 C 
BRANCH   9  10
ATOM     10  C   UNL     1      23.053  49.901  41.626  1.00  0.00     0.041 C 
ATOM     11  O   UNL     1      22.399  48.922  42.073  1.00  0.00    -0.550 OA
ATOM     12  O   UNL     1      24.383  49.731  41.261  1.00  0.00    -0.550 OA
ENDBRANCH   9  10
ENDBRANCH   8   9
ENDBRANCH   7   8
ENDBRANCH   6   7
ENDBRANCH   5   6
ENDBRANCH   4   5
ENDBRANCH   3   4
ENDBRANCH   1   3
BRANCH   2  13
ATOM     13  C   UNL     1      24.949  45.255  36.334  1.00  0.00     0.027 C 
BRANCH  13  14
ATOM     14  C   UNL     1      25.248  46.194  35.157  1.00  0.00     0.004 C 
BRANCH  14  15
ATOM     15  C   UNL     1      24.467  45.801  33.892  1.00  0.00     0.000 C 
BRANCH  15  16
ATOM     16  C   UNL     1      23.781  47.004  33.226  1.00  0.00     0.000 C 
BRANCH  16  17
ATOM     17  C   UNL     1      22.502  47.433  33.966  1.00  0.00    -0.000 C 
BRANCH  17  18
ATOM     18  C   UNL     1      22.494  48.931  34.308  1.00  0.00    -0.000 C 
BRANCH  18  19
ATOM     19  C   UNL     1      23.903  49.482  34.573  1.00  0.00    -0.003 C 
ATOM     20  C   UNL     1      23.928  51.005  34.472  1.00  0.00     0.004 C 
ENDBRANCH  18  19
ENDBRANCH  17  18
ENDBRANCH  16  17
ENDBRANCH  15  16
ENDBRANCH  14  15
ENDBRANCH  13  14
ENDBRANCH   2  13
TORSDOF 15
ENDMDL
MODEL 9
REMARK VINA RESULT:    -3.983      1.372      3.161
REMARK INTER + INTRA:          -9.588
REMARK INTER:                  -7.205
REMARK INTRA:                  -2.383
REMARK UNBOUND:                -2.113
REMARK SMILES CCCCCCCCC=CCCCCCCCC(=O)[O-]
REMARK SMILES IDX 10 1 9 2 11 3 12 4 13 5 14 6 15 7 16 8 17 9 18 10 19 11
REMARK SMILES IDX 20 12 8 13 7 14 6 15 5 16 4 17 3 18 2 19 1 20
REMARK H PARENT
REMARK Flexibility Score: inf
ROOT
ATOM      1  C   UNL     1      23.159  47.576  38.624  1.00  0.00    -0.031 C 
ATOM      2  C   UNL     1      22.058  47.864  37.912  1.00  0.00    -0.031 C 
ENDROOT
BRANCH   1   3
ATOM      3  C   UNL     1      24.255  46.708  38.067  1.00  0.00     0.027 C 
BRANCH   3   4
ATOM      4  C   UNL     1      23.807  46.010  36.776  1.00  0.00     0.004 C 
BRANCH   4   5
ATOM      5  C   UNL     1      25.016  45.652  35.899  1.00  0.00     0.000 C 
BRANCH   5   6
ATOM      6  C   UNL     1      24.793  45.982  34.413  1.00  0.00     0.000 C 
BRANCH   6   7
ATOM      7  C   UNL     1      23.316  46.091  33.981  1.00  0.00     0.000 C 
BRANCH   7   8
ATOM      8  C   UNL     1      22.907  47.453  33.384  1.00  0.00     0.006 C 
BRANCH   8   9
ATOM      9  C   UNL     1      22.613  48.541  34.428  1.00  0.00     0.053 C 
BRANCH   9  10
ATOM     10  C   UNL     1      23.773  49.471  34.607  1.00  0.00     0.041 C 
ATOM     11  O   UNL     1      24.753  49.426  33.816  1.00  0.00    -0.550 OA
ATOM     12  O   UNL     1      23.789  50.365  35.670  1.00  0.00    -0.550 OA
ENDBRANCH   9  10
ENDBRANCH   8   9
ENDBRANCH   7   8
ENDBRANCH   6   7
ENDBRANCH   5   6
ENDBRANCH   4   5
ENDBRANCH   3   4
ENDBRANCH   1   3
BRANCH   2  13
ATOM     13  C   UNL     1      20.962  48.730  38.473  1.00  0.00     0.027 C 
BRANCH  13  14
ATOM     14  C   UNL     1      20.978  50.144  37.876  1.00  0.00     0.004 C 
BRANCH  14  15
ATOM     15  C   UNL     1      21.937  51.079  38.632  1.00  0.00     0.000 C 
BRANCH  15  16
ATOM     16  C   UNL     1      21.223  51.900  39.718  1.00  0.00     0.000 C 
BRANCH  16  17
ATOM     17  C   UNL     1      21.674  51.512  41.138  1.00  0.00    -0.000 C 
BRANCH  17  18
ATOM     18  C   UNL     1      22.895  50.579  41.134  1.00  0.00    -0.000 C 
BRANCH  18  19
ATOM     19  C   UNL     1      22.617  49.243  41.838  1.00  0.00    -0.003 C 
ATOM     20  C   UNL     1      21.153  49.132  42.254  1.00  0.00     0.004 C 
ENDBRANCH  18  19
ENDBRANCH  17  18
ENDBRANCH  16  17
ENDBRANCH  15  16
ENDBRANCH  14  15
ENDBRANCH  13  14
ENDBRANCH   2  13
TORSDOF 15
ENDMDL
