MODEL 1
REMARK VINA RESULT:    -2.790      0.000      0.000
REMARK INTER + INTRA:          -5.725
REMARK INTER:                  -4.258
REMARK INTRA:                  -1.467
REMARK UNBOUND:                -1.467
REMARK SMILES CCCCCCCCCC=CC(=O)[O-]
REMARK SMILES IDX 7 1 8 2 9 3 10 4 11 5 12 6 13 7 14 8 6 9 5 10 4 11 3 12 2 13
REMARK SMILES IDX 1 14
REMARK H PARENT
REMARK Flexibility Score: inf
ROOT
ATOM      1  C   UNL     1      47.012  38.523 133.133  1.00  0.00     0.000 C 
ENDROOT
BRANCH   1   2
ATOM      2  C   UNL     1      46.835  37.622 134.371  1.00  0.00     0.004 C 
BRANCH   2   3
ATOM      3  C   UNL     1      48.094  37.505 135.246  1.00  0.00     0.027 C 
BRANCH   3   4
ATOM      4  C   UNL     1      48.062  38.439 136.429  1.00  0.00    -0.025 C 
ATOM      5  C   UNL     1      48.715  38.229 137.582  1.00  0.00     0.020 C 
BRANCH   5   6
ATOM      6  C   UNL     1      49.564  37.063 137.903  1.00  0.00     0.064 C 
ATOM      7  O   UNL     1      49.120  36.067 138.532  1.00  0.00    -0.545 OA
ATOM      8  O   UNL     1      50.893  37.069 137.503  1.00  0.00    -0.545 OA
ENDBRANCH   5   6
ENDBRANCH   3   4
ENDBRANCH   2   3
ENDBRANCH   1   2
BRANCH   1   9
ATOM      9  C   UNL     1      45.972  39.651 133.065  1.00  0.00     0.000 C 
BRANCH   9  10
ATOM     10  C   UNL     1      45.195  39.762 134.384  1.00  0.00     0.000 C 
BRANCH  10  11
ATOM     11  C   UNL     1      45.533  41.071 135.113  1.00  0.00    -0.000 C 
BRANCH  11  12
ATOM     12  C   UNL     1      46.624  41.882 134.396  1.00  0.00    -0.000 C 
BRANCH  12  13
ATOM     13  C   UNL     1      47.918  41.987 135.215  1.00  0.00    -0.003 C 
ATOM     14  C   UNL     1      49.100  41.388 134.456  1.00  0.00     0.004 C 
ENDBRANCH  12  13
ENDBRANCH  11  12
ENDBRANCH  10  11
ENDBRANCH   9  10
ENDBRANCH   1   9
TORSDOF 9
ENDMDL
MODEL 2
REMARK VINA RESULT:    -2.730      2.681      5.633
REMARK INTER + INTRA:          -5.634
REMARK INTER:                  -4.625
REMARK INTRA:                  -1.009
REMARK UNBOUND:                -1.467
REMARK SMILES CCCCCCCCCC=CC(=O)[O-]
REMARK SMILES IDX 7 1 8 2 9 3 10 4 11 5 12 6 13 7 14 8 6 9 5 10 4 11 3 12 2 13
REMARK SMILES IDX 1 14
REMARK H PARENT
REMARK Flexibility Score: inf
ROOT
ATOM      1  C   UNL     1      48.537  38.120 137.494  1.00  0.00     0.000 C 
ENDROOT
BRANCH   1   2
ATOM      2  C   UNL     1      49.209  38.771 136.270  1.00  0.00     0.004 C 
BRANCH   2   3
ATOM      3  C   UNL     1      48.221  39.404 135.276  1.00  0.00     0.027 C 
BRANCH   3   4
ATOM      4  C   UNL     1      46.982  38.566 135.086  1.00  0.00    -0.025 C 
ATOM      5  C   UNL     1      46.925  37.450 134.343  1.00  0.00     0.020 C 
BRANCH   5   6
ATOM      6  C   UNL     1      48.041  36.851 133.582  1.00  0.00     0.064 C 
ATOM      7  O   UNL     1      48.303  37.195 132.399  1.00  0.00    -0.545 OA
ATOM      8  O   UNL     1      48.821  35.876 134.188  1.00  0.00    -0.545 OA
ENDBRANCH   5   6
ENDBRANCH   3   4
ENDBRANCH   2   3
ENDBRANCH   1   2
BRANCH   1   9
ATOM      9  C   UNL     1      49.503  37.245 138.307  1.00  0.00     0.000 C 
BRANCH   9  10
ATOM     10  C   UNL     1      49.891  35.983 137.526  1.00  0.00     0.000 C 
BRANCH  10  11
ATOM     11  C   UNL     1      51.370  36.025 137.114  1.00  0.00    -0.000 C 
BRANCH  11  12
ATOM     12  C   UNL     1      52.281  36.553 138.234  1.00  0.00    -0.000 C 
BRANCH  12  13
ATOM     13  C   UNL     1      53.324  37.558 137.725  1.00  0.00    -0.003 C 
ATOM     14  C   UNL     1      52.872  38.203 136.417  1.00  0.00     0.004 C 
ENDBRANCH  12  13
ENDBRANCH  11  12
ENDBRANCH  10  11
ENDBRANCH   9  10
ENDBRANCH   1   9
TORSDOF 9
ENDMDL
MODEL 3
REMARK VINA RESULT:    -2.676      2.484      5.394
REMARK INTER + INTRA:          -5.552
REMARK INTER:                  -4.532
REMARK INTRA:                  -1.019
REMARK UNBOUND:                -1.467
REMARK SMILES CCCCCCCCCC=CC(=O)[O-]
REMARK SMILES IDX 7 1 8 2 9 3 10 4 11 5 12 6 13 7 14 8 6 9 5 10 4 11 3 12 2 13
REMARK SMILES IDX 1 14
REMARK H PARENT
REMARK Flexibility Score: inf
ROOT
ATOM      1  C   UNL     1      48.446  37.626 135.702  1.00  0.00     0.000 C 
ENDROOT
BRANCH   1   2
ATOM      2  C   UNL     1      47.226  38.115 134.897  1.00  0.00     0.004 C 
BRANCH   2   3
ATOM      3  C   UNL     1      46.613  39.423 135.423  1.00  0.00     0.027 C 
BRANCH   3   4
ATOM      4  C   UNL     1      46.643  40.526 134.395  1.00  0.00    -0.025 C 
ATOM      5  C   UNL     1      47.634  41.421 134.268  1.00  0.00     0.020 C 
BRANCH   5   6
ATOM      6  C   UNL     1      48.852  41.497 135.101  1.00  0.00     0.064 C 
ATOM      7  O   UNL     1      48.948  42.291 136.073  1.00  0.00    -0.545 OA
ATOM      8  O   UNL     1      49.926  40.670 134.798  1.00  0.00    -0.545 OA
ENDBRANCH   5   6
ENDBRANCH   3   4
ENDBRANCH   2   3
ENDBRANCH   1   2
BRANCH   1   9
ATOM      9  C   UNL     1      48.547  38.285 137.086  1.00  0.00     0.000 C 
BRANCH   9  10
ATOM     10  C   UNL     1      49.210  37.341 138.096  1.00  0.00     0.000 C 
BRANCH  10  11
ATOM     11  C   UNL     1      49.701  36.057 137.409  1.00  0.00    -0.000 C 
BRANCH  11  12
ATOM     12  C   UNL     1      51.224  35.880 137.507  1.00  0.00    -0.000 C 
BRANCH  12  13
ATOM     13  C   UNL     1      51.900  36.995 138.317  1.00  0.00    -0.003 C 
ATOM     14  C   UNL     1      53.035  37.640 137.526  1.00  0.00     0.004 C 
ENDBRANCH  12  13
ENDBRANCH  11  12
ENDBRANCH  10  11
ENDBRANCH   9  10
ENDBRANCH   1   9
TORSDOF 9
ENDMDL
MODEL 4
REMARK VINA RESULT:    -2.645      2.372      4.031
REMARK INTER + INTRA:          -5.504
REMARK INTER:                  -4.468
REMARK INTRA:                  -1.037
REMARK UNBOUND:                -1.467
REMARK SMILES CCCCCCCCCC=CC(=O)[O-]
REMARK SMILES IDX 7 1 8 2 9 3 10 4 11 5 12 6 13 7 14 8 6 9 5 10 4 11 3 12 2 13
REMARK SMILES IDX 1 14
REMARK H PARENT
REMARK Flexibility Score: inf
ROOT
ATOM      1  C   UNL     1      49.126  39.172 136.130  1.00  0.00     0.000 C 
ENDROOT
BRANCH   1   2
ATOM      2  C   UNL     1      48.304  38.186 136.982  1.00  0.00     0.004 C 
BRANCH   2   3
ATOM      3  C   UNL     1      49.083  37.575 138.159  1.00  0.00     0.027 C 
BRANCH   3   4
ATOM      4  C   UNL     1      49.715  36.253 137.804  1.00  0.00    -0.025 C 
ATOM      5  C   UNL     1      51.029  36.066 137.607  1.00  0.00     0.020 C 
BRANCH   5   6
ATOM      6  C   UNL     1      52.079  37.102 137.690  1.00  0.00     0.064 C 
ATOM      7  O   UNL     1      52.742  37.298 138.743  1.00  0.00    -0.545 OA
ATOM      8  O   UNL     1      52.338  37.888 136.575  1.00  0.00    -0.545 OA
ENDBRANCH   5   6
ENDBRANCH   3   4
ENDBRANCH   2   3
ENDBRANCH   1   2
BRANCH   1   9
ATOM      9  C   UNL     1      49.112  38.819 134.635  1.00  0.00     0.000 C 
BRANCH   9  10
ATOM     10  C   UNL     1      48.745  37.345 134.422  1.00  0.00     0.000 C 
BRANCH  10  11
ATOM     11  C   UNL     1      47.951  37.159 133.120  1.00  0.00    -0.000 C 
BRANCH  11  12
ATOM     12  C   UNL     1      46.513  36.678 133.368  1.00  0.00    -0.000 C 
BRANCH  12  13
ATOM     13  C   UNL     1      45.594  37.797 133.879  1.00  0.00    -0.003 C 
ATOM     14  C   UNL     1      44.174  37.283 134.103  1.00  0.00     0.004 C 
ENDBRANCH  12  13
ENDBRANCH  11  12
ENDBRANCH  10  11
ENDBRANCH   9  10
ENDBRANCH   1   9
TORSDOF 9
ENDMDL
MODEL 5
REMARK VINA RESULT:    -2.632      1.708      2.399
REMARK INTER + INTRA:          -5.484
REMARK INTER:                  -3.854
REMARK INTRA:                  -1.630
REMARK UNBOUND:                -1.467
REMARK SMILES CCCCCCCCCC=CC(=O)[O-]
REMARK SMILES IDX 7 1 8 2 9 3 10 4 11 5 12 6 13 7 14 8 6 9 5 10 4 11 3 12 2 13
REMARK SMILES IDX 1 14
REMARK H PARENT
REMARK Flexibility Score: inf
ROOT
ATOM      1  C   UNL     1      48.855  36.878 132.847  1.00  0.00     0.000 C 
ENDROOT
BRANCH   1   2
ATOM      2  C   UNL     1      49.981  37.799 133.353  1.00  0.00     0.004 C 
BRANCH   2   3
ATOM      3  C   UNL     1      50.483  37.456 134.765  1.00  0.00     0.027 C 
BRANCH   3   4
ATOM      4  C   UNL     1      49.776  36.260 135.352  1.00  0.00    -0.025 C 
ATOM      5  C   UNL     1      49.514  36.097 136.658  1.00  0.00     0.020 C 
BRANCH   5   6
ATOM      6  C   UNL     1      49.871  37.034 137.743  1.00  0.00     0.064 C 
ATOM      7  O   UNL     1      49.064  37.902 138.168  1.00  0.00    -0.545 OA
ATOM      8  O   UNL     1      51.137  36.958 138.307  1.00  0.00    -0.545 OA
ENDBRANCH   5   6
ENDBRANCH   3   4
ENDBRANCH   2   3
ENDBRANCH   1   2
BRANCH   1   9
ATOM      9  C   UNL     1      47.508  37.604 132.714  1.00  0.00     0.000 C 
BRANCH   9  10
ATOM     10  C   UNL     1      46.552  37.199 133.843  1.00  0.00     0.000 C 
BRANCH  10  11
ATOM     11  C   UNL     1      46.061  38.432 134.617  1.00  0.00    -0.000 C 
BRANCH  11  12
ATOM     12  C   UNL     1      47.115  38.975 135.594  1.00  0.00    -0.000 C 
BRANCH  12  13
ATOM     13  C   UNL     1      47.690  40.328 135.152  1.00  0.00    -0.003 C 
ATOM     14  C   UNL     1      49.040  40.595 135.813  1.00  0.00     0.004 C 
ENDBRANCH  12  13
ENDBRANCH  11  12
ENDBRANCH  10  11
ENDBRANCH   9  10
ENDBRANCH   1   9
TORSDOF 9
ENDMDL
MODEL 6
REMARK VINA RESULT:    -2.625      2.325      3.899
REMARK INTER + INTRA:          -5.474
REMARK INTER:                  -4.722
REMARK INTRA:                  -0.752
REMARK UNBOUND:                -1.467
REMARK SMILES CCCCCCCCCC=CC(=O)[O-]
REMARK SMILES IDX 7 1 8 2 9 3 10 4 11 5 12 6 13 7 14 8 6 9 5 10 4 11 3 12 2 13
REMARK SMILES IDX 1 14
REMARK H PARENT
REMARK Flexibility Score: inf
ROOT
ATOM      1  C   UNL     1      48.290  37.398 135.256  1.00  0.00     0.000 C 
ENDROOT
BRANCH   1   2
ATOM      2  C   UNL     1      47.982  38.335 136.440  1.00  0.00     0.004 C 
BRANCH   2   3
ATOM      3  C   UNL     1      48.888  38.116 137.664  1.00  0.00     0.027 C 
BRANCH   3   4
ATOM      4  C   UNL     1      49.255  36.666 137.854  1.00  0.00    -0.025 C 
ATOM      5  C   UNL     1      50.510  36.190 137.832  1.00  0.00     0.020 C 
BRANCH   5   6
ATOM      6  C   UNL     1      51.739  36.981 137.611  1.00  0.00     0.064 C 
ATOM      7  O   UNL     1      52.088  37.365 136.464  1.00  0.00    -0.545 OA
ATOM      8  O   UNL     1      52.534  37.304 138.701  1.00  0.00    -0.545 OA
ENDBRANCH   5   6
ENDBRANCH   3   4
ENDBRANCH   2   3
ENDBRANCH   1   2
BRANCH   1   9
ATOM      9  C   UNL     1      47.166  37.373 134.210  1.00  0.00     0.000 C 
BRANCH   9  10
ATOM     10  C   UNL     1      46.047  38.355 134.583  1.00  0.00     0.000 C 
BRANCH  10  11
ATOM     11  C   UNL     1      44.668  37.772 134.242  1.00  0.00    -0.000 C 
BRANCH  11  12
ATOM     12  C   UNL     1      44.757  36.521 133.354  1.00  0.00    -0.000 C 
BRANCH  12  13
ATOM     13  C   UNL     1      44.205  36.757 131.942  1.00  0.00    -0.003 C 
ATOM     14  C   UNL     1      45.336  36.936 130.932  1.00  0.00     0.004 C 
ENDBRANCH  12  13
ENDBRANCH  11  12
ENDBRANCH  10  11
ENDBRANCH   9  10
ENDBRANCH   1   9
TORSDOF 9
ENDMDL
MODEL 7
REMARK VINA RESULT:    -2.607      3.396      5.820
REMARK INTER + INTRA:          -5.446
REMARK INTER:                  -4.657
REMARK INTRA:                  -0.788
REMARK UNBOUND:                -1.467
REMARK SMILES CCCCCCCCCC=CC(=O)[O-]
REMARK SMILES IDX 7 1 8 2 9 3 10 4 11 5 12 6 13 7 14 8 6 9 5 10 4 11 3 12 2 13
REMARK SMILES IDX 1 14
REMARK H PARENT
REMARK Flexibility Score: inf
ROOT
ATOM      1  C   UNL     1      48.442  39.297 135.321  1.00  0.00     0.000 C 
ENDROOT
BRANCH   1   2
ATOM      2  C   UNL     1      46.979  39.255 135.800  1.00  0.00     0.004 C 
BRANCH   2   3
ATOM      3  C   UNL     1      46.042  38.454 134.880  1.00  0.00     0.027 C 
BRANCH   3   4
ATOM      4  C   UNL     1      46.782  37.435 134.052  1.00  0.00    -0.025 C 
ATOM      5  C   UNL     1      46.209  36.630 133.144  1.00  0.00     0.020 C 
BRANCH   5   6
ATOM      6  C   UNL     1      44.772  36.589 132.800  1.00  0.00     0.064 C 
ATOM      7  O   UNL     1      43.953  35.875 133.437  1.00  0.00    -0.545 OA
ATOM      8  O   UNL     1      44.314  37.357 131.738  1.00  0.00    -0.545 OA
ENDBRANCH   5   6
ENDBRANCH   3   4
ENDBRANCH   2   3
ENDBRANCH   1   2
BRANCH   1   9
ATOM      9  C   UNL     1      49.379  38.449 136.194  1.00  0.00     0.000 C 
BRANCH   9  10
ATOM     10  C   UNL     1      48.731  38.136 137.550  1.00  0.00     0.000 C 
BRANCH  10  11
ATOM     11  C   UNL     1      49.463  36.985 138.256  1.00  0.00    -0.000 C 
BRANCH  11  12
ATOM     12  C   UNL     1      50.396  36.210 137.312  1.00  0.00    -0.000 C 
BRANCH  12  13
ATOM     13  C   UNL     1      51.818  36.066 137.871  1.00  0.00    -0.003 C 
ATOM     14  C   UNL     1      52.583  37.384 137.773  1.00  0.00     0.004 C 
ENDBRANCH  12  13
ENDBRANCH  11  12
ENDBRANCH  10  11
ENDBRANCH   9  10
ENDBRANCH   1   9
TORSDOF 9
ENDMDL
MODEL 8
REMARK VINA RESULT:    -2.583      3.054      5.372
REMARK INTER + INTRA:          -5.409
REMARK INTER:                  -3.975
REMARK INTRA:                  -1.433
REMARK UNBOUND:                -1.467
REMARK SMILES CCCCCCCCCC=CC(=O)[O-]
REMARK SMILES IDX 7 1 8 2 9 3 10 4 11 5 12 6 13 7 14 8 6 9 5 10 4 11 3 12 2 13
REMARK SMILES IDX 1 14
REMARK H PARENT
REMARK Flexibility Score: inf
ROOT
ATOM      1  C   UNL     1      49.528  36.544 137.839  1.00  0.00     0.000 C 
ENDROOT
BRANCH   1   2
ATOM      2  C   UNL     1      49.487  36.058 136.377  1.00  0.00     0.004 C 
BRANCH   2   3
ATOM      3  C   UNL     1      48.694  36.979 135.434  1.00  0.00     0.027 C 
BRANCH   3   4
ATOM      4  C   UNL     1      48.103  38.165 136.152  1.00  0.00    -0.025 C 
ATOM      5  C   UNL     1      47.032  38.854 135.730  1.00  0.00     0.020 C 
BRANCH   5   6
ATOM      6  C   UNL     1      46.253  38.588 134.503  1.00  0.00     0.064 C 
ATOM      7  O   UNL     1      45.156  37.969 134.529  1.00  0.00    -0.545 OA
ATOM      8  O   UNL     1      46.748  39.029 133.283  1.00  0.00    -0.545 OA
ENDBRANCH   5   6
ENDBRANCH   3   4
ENDBRANCH   2   3
ENDBRANCH   1   2
BRANCH   1   9
ATOM      9  C   UNL     1      50.936  36.969 138.284  1.00  0.00     0.000 C 
BRANCH   9  10
ATOM     10  C   UNL     1      51.974  36.649 137.201  1.00  0.00     0.000 C 
BRANCH  10  11
ATOM     11  C   UNL     1      52.658  37.930 136.700  1.00  0.00    -0.000 C 
BRANCH  11  12
ATOM     12  C   UNL     1      52.156  38.367 135.315  1.00  0.00    -0.000 C 
BRANCH  12  13
ATOM     13  C   UNL     1      51.396  39.699 135.354  1.00  0.00    -0.003 C 
ATOM     14  C   UNL     1      50.630  39.933 134.054  1.00  0.00     0.004 C 
ENDBRANCH  12  13
ENDBRANCH  11  12
ENDBRANCH  10  11
ENDBRANCH   9  10
ENDBRANCH   1   9
TORSDOF 9
ENDMDL
MODEL 9
REMARK VINA RESULT:    -2.575      3.463      5.661
REMARK INTER + INTRA:          -5.397
REMARK INTER:                  -3.716
REMARK INTRA:                  -1.681
REMARK UNBOUND:                -1.467
REMARK SMILES CCCCCCCCCC=CC(=O)[O-]
REMARK SMILES IDX 7 1 8 2 9 3 10 4 11 5 12 6 13 7 14 8 6 9 5 10 4 11 3 12 2 13
REMARK SMILES IDX 1 14
REMARK H PARENT
REMARK Flexibility Score: inf
ROOT
ATOM      1  C   UNL     1      49.364  36.802 138.076  1.00  0.00     0.000 C 
ENDROOT
BRANCH   1   2
ATOM      2  C   UNL     1      48.719  38.091 137.530  1.00  0.00     0.004 C 
BRANCH   2   3
ATOM      3  C   UNL     1      48.269  37.993 136.063  1.00  0.00     0.027 C 
BRANCH   3   4
ATOM      4  C   UNL     1      48.684  36.694 135.420  1.00  0.00    -0.025 C 
ATOM      5  C   UNL     1      48.633  36.447 134.102  1.00  0.00     0.020 C 
BRANCH   5   6
ATOM      6  C   UNL     1      48.164  37.381 133.058  1.00  0.00     0.064 C 
ATOM      7  O   UNL     1      48.960  38.102 132.401  1.00  0.00    -0.545 OA
ATOM      8  O   UNL     1      46.803  37.468 132.797  1.00  0.00    -0.545 OA
ENDBRANCH   5   6
ENDBRANCH   3   4
ENDBRANCH   2   3
ENDBRANCH   1   2
BRANCH   1   9
ATOM      9  C   UNL     1      50.816  37.011 138.530  1.00  0.00     0.000 C 
BRANCH   9  10
ATOM     10  C   UNL     1      51.802  36.464 137.489  1.00  0.00     0.000 C 
BRANCH  10  11
ATOM     11  C   UNL     1      52.370  37.598 136.621  1.00  0.00    -0.000 C 
BRANCH  11  12
ATOM     12  C   UNL     1      52.220  37.322 135.117  1.00  0.00    -0.000 C 
BRANCH  12  13
ATOM     13  C   UNL     1      51.898  38.589 134.313  1.00  0.00    -0.003 C 
ATOM     14  C   UNL     1      51.357  39.693 135.218  1.00  0.00     0.004 C 
ENDBRANCH  12  13
ENDBRANCH  11  12
ENDBRANCH  10  11
ENDBRANCH   9  10
ENDBRANCH   1   9
TORSDOF 9
ENDMDL
