MODEL 1
REMARK VINA RESULT:    -3.263      0.000      0.000
REMARK INTER + INTRA:          -3.862
REMARK INTER:                  -3.835
REMARK INTRA:                  -0.028
REMARK UNBOUND:                -0.028
REMARK SMILES CCCCC(=O)[O-]
REMARK SMILES IDX 4 1 5 2 6 3 7 4 3 5 2 6 1 7
REMARK H PARENT
REMARK Flexibility Score: inf
ROOT
ATOM      1  C   UNL     1       5.313  48.281  31.876  1.00  0.00     0.053 C 
ENDROOT
BRANCH   1   2
ATOM      2  C   UNL     1       6.070  48.244  33.166  1.00  0.00     0.041 C 
ATOM      3  O   UNL     1       7.223  47.740  33.210  1.00  0.00    -0.550 OA
ATOM      4  O   UNL     1       5.482  48.722  34.331  1.00  0.00    -0.550 OA
ENDBRANCH   1   2
BRANCH   1   5
ATOM      5  C   UNL     1       6.224  47.894  30.707  1.00  0.00     0.006 C 
BRANCH   5   6
ATOM      6  C   UNL     1       5.912  48.736  29.466  1.00  0.00    -0.003 C 
ATOM      7  C   UNL     1       5.518  47.852  28.286  1.00  0.00     0.004 C 
ENDBRANCH   5   6
ENDBRANCH   1   5
TORSDOF 3
ENDMDL
MODEL 2
REMARK VINA RESULT:    -3.248      0.101      1.227
REMARK INTER + INTRA:          -3.845
REMARK INTER:                  -3.823
REMARK INTRA:                  -0.023
REMARK UNBOUND:                -0.028
REMARK SMILES CCCCC(=O)[O-]
REMARK SMILES IDX 4 1 5 2 6 3 7 4 3 5 2 6 1 7
REMARK H PARENT
REMARK Flexibility Score: inf
ROOT
ATOM      1  C   UNL     1       5.339  48.225  31.882  1.00  0.00     0.053 C 
ENDROOT
BRANCH   1   2
ATOM      2  C   UNL     1       6.066  48.200  33.189  1.00  0.00     0.041 C 
ATOM      3  O   UNL     1       5.517  48.653  34.227  1.00  0.00    -0.550 OA
ATOM      4  O   UNL     1       7.368  47.720  33.250  1.00  0.00    -0.550 OA
ENDBRANCH   1   2
BRANCH   1   5
ATOM      5  C   UNL     1       6.306  47.961  30.724  1.00  0.00     0.006 C 
BRANCH   5   6
ATOM      6  C   UNL     1       5.876  48.721  29.465  1.00  0.00    -0.003 C 
ATOM      7  C   UNL     1       5.558  47.759  28.323  1.00  0.00     0.004 C 
ENDBRANCH   5   6
ENDBRANCH   1   5
TORSDOF 3
ENDMDL
MODEL 3
REMARK VINA RESULT:    -3.245      2.701      4.115
REMARK INTER + INTRA:          -3.842
REMARK INTER:                  -3.791
REMARK INTRA:                  -0.051
REMARK UNBOUND:                -0.028
REMARK SMILES CCCCC(=O)[O-]
REMARK SMILES IDX 4 1 5 2 6 3 7 4 3 5 2 6 1 7
REMARK H PARENT
REMARK Flexibility Score: inf
ROOT
ATOM      1  C   UNL     1       6.176  47.926  30.633  1.00  0.00     0.053 C 
ENDROOT
BRANCH   1   2
ATOM      2  C   UNL     1       5.902  48.636  29.345  1.00  0.00     0.041 C 
ATOM      3  O   UNL     1       5.963  49.892  29.288  1.00  0.00    -0.550 OA
ATOM      4  O   UNL     1       5.530  47.913  28.218  1.00  0.00    -0.550 OA
ENDBRANCH   1   2
BRANCH   1   5
ATOM      5  C   UNL     1       5.138  48.312  31.690  1.00  0.00     0.006 C 
BRANCH   5   6
ATOM      6  C   UNL     1       5.718  48.182  33.103  1.00  0.00    -0.003 C 
ATOM      7  C   UNL     1       7.237  48.043  33.063  1.00  0.00     0.004 C 
ENDBRANCH   5   6
ENDBRANCH   1   5
TORSDOF 3
ENDMDL
MODEL 4
REMARK VINA RESULT:    -3.165     16.803     17.802
REMARK INTER + INTRA:          -3.747
REMARK INTER:                  -3.709
REMARK INTRA:                  -0.038
REMARK UNBOUND:                -0.028
REMARK SMILES CCCCC(=O)[O-]
REMARK SMILES IDX 4 1 5 2 6 3 7 4 3 5 2 6 1 7
REMARK H PARENT
REMARK Flexibility Score: inf
ROOT
ATOM      1  C   UNL     1      12.724  35.890  21.493  1.00  0.00     0.053 C 
ENDROOT
BRANCH   1   2
ATOM      2  C   UNL     1      13.615  35.631  20.319  1.00  0.00     0.041 C 
ATOM      3  O   UNL     1      13.484  36.305  19.264  1.00  0.00    -0.550 OA
ATOM      4  O   UNL     1      14.557  34.611  20.373  1.00  0.00    -0.550 OA
ENDBRANCH   1   2
BRANCH   1   5
ATOM      5  C   UNL     1      11.305  36.229  21.027  1.00  0.00     0.006 C 
BRANCH   5   6
ATOM      6  C   UNL     1      10.325  36.228  22.204  1.00  0.00    -0.003 C 
ATOM      7  C   UNL     1      11.038  35.900  23.514  1.00  0.00     0.004 C 
ENDBRANCH   5   6
ENDBRANCH   1   5
TORSDOF 3
ENDMDL
MODEL 5
REMARK VINA RESULT:    -3.108      3.228      4.035
REMARK INTER + INTRA:          -3.681
REMARK INTER:                  -3.641
REMARK INTRA:                  -0.040
REMARK UNBOUND:                -0.028
REMARK SMILES CCCCC(=O)[O-]
REMARK SMILES IDX 4 1 5 2 6 3 7 4 3 5 2 6 1 7
REMARK H PARENT
REMARK Flexibility Score: inf
ROOT
ATOM      1  C   UNL     1       6.403  47.933  30.523  1.00  0.00     0.053 C 
ENDROOT
BRANCH   1   2
ATOM      2  C   UNL     1       5.797  48.666  29.367  1.00  0.00     0.041 C 
ATOM      3  O   UNL     1       5.501  48.048  28.311  1.00  0.00    -0.550 OA
ATOM      4  O   UNL     1       5.604  50.040  29.440  1.00  0.00    -0.550 OA
ENDBRANCH   1   2
BRANCH   1   5
ATOM      5  C   UNL     1       7.178  48.899  31.424  1.00  0.00     0.006 C 
BRANCH   5   6
ATOM      6  C   UNL     1       8.606  49.106  30.907  1.00  0.00    -0.003 C 
ATOM      7  C   UNL     1       9.635  48.787  31.988  1.00  0.00     0.004 C 
ENDBRANCH   5   6
ENDBRANCH   1   5
TORSDOF 3
ENDMDL
MODEL 6
REMARK VINA RESULT:    -3.046      2.416      2.927
REMARK INTER + INTRA:          -3.608
REMARK INTER:                  -3.499
REMARK INTRA:                  -0.109
REMARK UNBOUND:                -0.028
REMARK SMILES CCCCC(=O)[O-]
REMARK SMILES IDX 4 1 5 2 6 3 7 4 3 5 2 6 1 7
REMARK H PARENT
REMARK Flexibility Score: inf
ROOT
ATOM      1  C   UNL     1       7.399  49.218  31.915  1.00  0.00     0.053 C 
ENDROOT
BRANCH   1   2
ATOM      2  C   UNL     1       8.728  49.177  31.229  1.00  0.00     0.041 C 
ATOM      3  O   UNL     1       9.708  48.612  31.779  1.00  0.00    -0.550 OA
ATOM      4  O   UNL     1       8.895  49.807  30.001  1.00  0.00    -0.550 OA
ENDBRANCH   1   2
BRANCH   1   5
ATOM      5  C   UNL     1       6.485  48.109  31.384  1.00  0.00     0.006 C 
BRANCH   5   6
ATOM      6  C   UNL     1       5.451  48.673  30.404  1.00  0.00    -0.003 C 
ATOM      7  C   UNL     1       5.836  48.366  28.959  1.00  0.00     0.004 C 
ENDBRANCH   5   6
ENDBRANCH   1   5
TORSDOF 3
ENDMDL
MODEL 7
REMARK VINA RESULT:    -3.023     15.778     17.004
REMARK INTER + INTRA:          -3.581
REMARK INTER:                  -3.542
REMARK INTRA:                  -0.039
REMARK UNBOUND:                -0.028
REMARK SMILES CCCCC(=O)[O-]
REMARK SMILES IDX 4 1 5 2 6 3 7 4 3 5 2 6 1 7
REMARK H PARENT
REMARK Flexibility Score: inf
ROOT
ATOM      1  C   UNL     1      12.219  35.820  21.947  1.00  0.00     0.053 C 
ENDROOT
BRANCH   1   2
ATOM      2  C   UNL     1      10.990  36.069  22.763  1.00  0.00     0.041 C 
ATOM      3  O   UNL     1       9.969  36.577  22.231  1.00  0.00    -0.550 OA
ATOM      4  O   UNL     1      10.990  35.785  24.124  1.00  0.00    -0.550 OA
ENDBRANCH   1   2
BRANCH   1   5
ATOM      5  C   UNL     1      12.005  36.277  20.501  1.00  0.00     0.006 C 
BRANCH   5   6
ATOM      6  C   UNL     1      13.269  36.058  19.663  1.00  0.00    -0.003 C 
ATOM      7  C   UNL     1      14.178  35.010  20.300  1.00  0.00     0.004 C 
ENDBRANCH   5   6
ENDBRANCH   1   5
TORSDOF 3
ENDMDL
MODEL 8
REMARK VINA RESULT:    -3.015     16.363     17.214
REMARK INTER + INTRA:          -3.572
REMARK INTER:                  -3.474
REMARK INTRA:                  -0.098
REMARK UNBOUND:                -0.028
REMARK SMILES CCCCC(=O)[O-]
REMARK SMILES IDX 4 1 5 2 6 3 7 4 3 5 2 6 1 7
REMARK H PARENT
REMARK Flexibility Score: inf
ROOT
ATOM      1  C   UNL     1       9.917  36.305  20.721  1.00  0.00     0.053 C 
ENDROOT
BRANCH   1   2
ATOM      2  C   UNL     1       8.976  35.191  20.387  1.00  0.00     0.041 C 
ATOM      3  O   UNL     1       9.393  34.004  20.336  1.00  0.00    -0.550 OA
ATOM      4  O   UNL     1       7.650  35.469  20.083  1.00  0.00    -0.550 OA
ENDBRANCH   1   2
BRANCH   1   5
ATOM      5  C   UNL     1      10.150  36.376  22.233  1.00  0.00     0.006 C 
BRANCH   5   6
ATOM      6  C   UNL     1      11.587  35.979  22.586  1.00  0.00    -0.003 C 
ATOM      7  C   UNL     1      12.470  35.939  21.342  1.00  0.00     0.004 C 
ENDBRANCH   5   6
ENDBRANCH   1   5
TORSDOF 3
ENDMDL
MODEL 9
REMARK VINA RESULT:    -2.990     15.459     16.434
REMARK INTER + INTRA:          -3.542
REMARK INTER:                  -3.433
REMARK INTRA:                  -0.109
REMARK UNBOUND:                -0.028
REMARK SMILES CCCCC(=O)[O-]
REMARK SMILES IDX 4 1 5 2 6 3 7 4 3 5 2 6 1 7
REMARK H PARENT
REMARK Flexibility Score: inf
ROOT
ATOM      1  C   UNL     1      10.061  36.523  22.197  1.00  0.00     0.053 C 
ENDROOT
BRANCH   1   2
ATOM      2  C   UNL     1      10.998  35.717  23.040  1.00  0.00     0.041 C 
ATOM      3  O   UNL     1      11.602  34.729  22.548  1.00  0.00    -0.550 OA
ATOM      4  O   UNL     1      11.164  36.028  24.384  1.00  0.00    -0.550 OA
ENDBRANCH   1   2
BRANCH   1   5
ATOM      5  C   UNL     1       9.740  35.783  20.894  1.00  0.00     0.006 C 
BRANCH   5   6
ATOM      6  C   UNL     1      10.126  36.626  19.675  1.00  0.00    -0.003 C 
ATOM      7  C   UNL     1      11.634  36.603  19.445  1.00  0.00     0.004 C 
ENDBRANCH   5   6
ENDBRANCH   1   5
TORSDOF 3
ENDMDL
