MODEL 1
REMARK VINA RESULT:    -3.562      0.000      0.000
REMARK INTER + INTRA:          -3.562
REMARK INTER:                  -3.562
REMARK INTRA:                   0.000
REMARK UNBOUND:                 0.000
REMARK SMILES O=C1CCCCC1
REMARK SMILES IDX 5 1 4 2 3 3 2 4 1 5 7 6 6 7
REMARK H PARENT
REMARK Flexibility Score: inf
ROOT
ATOM      1  C   UNL     1      -1.398   8.171   5.109  1.00  0.00     0.001 C 
ATOM      2  C   UNL     1      -2.140   7.704   3.848  1.00  0.00     0.008 C 
ATOM      3  C   UNL     1      -1.169   7.148   2.799  1.00  0.00     0.075 C 
ATOM      4  C   UNL     1      -0.254   6.130   3.420  1.00  0.00     0.132 C 
ATOM      5  O   UNL     1      -0.004   5.087   2.835  1.00  0.00    -0.300 OA
ATOM      6  C   UNL     1       0.424   6.448   4.724  1.00  0.00     0.075 C 
ATOM      7  C   UNL     1      -0.587   7.022   5.726  1.00  0.00     0.008 C 
ENDROOT
TORSDOF 0
ENDMDL
MODEL 2
REMARK VINA RESULT:    -3.538      1.039      2.273
REMARK INTER + INTRA:          -3.538
REMARK INTER:                  -3.538
REMARK INTRA:                   0.000
REMARK UNBOUND:                 0.000
REMARK SMILES O=C1CCCCC1
REMARK SMILES IDX 5 1 4 2 3 3 2 4 1 5 7 6 6 7
REMARK H PARENT
REMARK Flexibility Score: inf
ROOT
ATOM      1  C   UNL     1      -0.008   8.807   4.655  1.00  0.00     0.001 C 
ATOM      2  C   UNL     1       0.932   7.685   5.119  1.00  0.00     0.008 C 
ATOM      3  C   UNL     1       0.294   6.304   4.929  1.00  0.00     0.075 C 
ATOM      4  C   UNL     1      -0.237   6.160   3.530  1.00  0.00     0.132 C 
ATOM      5  O   UNL     1      -0.060   5.124   2.907  1.00  0.00    -0.300 OA
ATOM      6  C   UNL     1      -1.067   7.266   2.941  1.00  0.00     0.075 C 
ATOM      7  C   UNL     1      -0.394   8.625   3.180  1.00  0.00     0.008 C 
ENDROOT
TORSDOF 0
ENDMDL
MODEL 3
REMARK VINA RESULT:    -3.441     13.668     14.862
REMARK INTER + INTRA:          -3.441
REMARK INTER:                  -3.441
REMARK INTRA:                   0.000
REMARK UNBOUND:                 0.000
REMARK SMILES O=C1CCCCC1
REMARK SMILES IDX 5 1 4 2 3 3 2 4 1 5 7 6 6 7
REMARK H PARENT
REMARK Flexibility Score: inf
ROOT
ATOM      1  C   UNL     1       8.859  -3.681   0.034  1.00  0.00     0.001 C 
ATOM      2  C   UNL     1       8.603  -4.994  -0.720  1.00  0.00     0.008 C 
ATOM      3  C   UNL     1       7.975  -6.053   0.194  1.00  0.00     0.075 C 
ATOM      4  C   UNL     1       6.785  -5.485   0.914  1.00  0.00     0.132 C 
ATOM      5  O   UNL     1       5.760  -6.138   1.023  1.00  0.00    -0.300 OA
ATOM      6  C   UNL     1       6.902  -4.141   1.581  1.00  0.00     0.075 C 
ATOM      7  C   UNL     1       7.556  -3.129   0.632  1.00  0.00     0.008 C 
ENDROOT
TORSDOF 0
ENDMDL
MODEL 4
REMARK VINA RESULT:    -3.350     12.902     13.990
REMARK INTER + INTRA:          -3.350
REMARK INTER:                  -3.350
REMARK INTRA:                   0.000
REMARK UNBOUND:                 0.000
REMARK SMILES O=C1CCCCC1
REMARK SMILES IDX 5 1 4 2 3 3 2 4 1 5 7 6 6 7
REMARK H PARENT
REMARK Flexibility Score: inf
ROOT
ATOM      1  C   UNL     1       8.675  -2.499   1.053  1.00  0.00     0.001 C 
ATOM      2  C   UNL     1       8.377  -3.346  -0.193  1.00  0.00     0.008 C 
ATOM      3  C   UNL     1       8.018  -4.789   0.183  1.00  0.00     0.075 C 
ATOM      4  C   UNL     1       6.950  -4.805   1.240  1.00  0.00     0.132 C 
ATOM      5  O   UNL     1       6.016  -5.588   1.162  1.00  0.00    -0.300 OA
ATOM      6  C   UNL     1       7.092  -3.913   2.442  1.00  0.00     0.075 C 
ATOM      7  C   UNL     1       7.474  -2.491   2.010  1.00  0.00     0.008 C 
ENDROOT
TORSDOF 0
ENDMDL
MODEL 5
REMARK VINA RESULT:    -3.283      1.176      2.218
REMARK INTER + INTRA:          -3.283
REMARK INTER:                  -3.283
REMARK INTRA:                   0.000
REMARK UNBOUND:                 0.000
REMARK SMILES O=C1CCCCC1
REMARK SMILES IDX 5 1 4 2 3 3 2 4 1 5 7 6 6 7
REMARK H PARENT
REMARK Flexibility Score: inf
ROOT
ATOM      1  C   UNL     1      -0.242   6.755   6.209  1.00  0.00     0.001 C 
ATOM      2  C   UNL     1       0.749   6.682   5.038  1.00  0.00     0.008 C 
ATOM      3  C   UNL     1       0.122   6.005   3.813  1.00  0.00     0.075 C 
ATOM      4  C   UNL     1      -1.207   6.631   3.492  1.00  0.00     0.132 C 
ATOM      5  O   UNL     1      -1.506   6.881   2.335  1.00  0.00    -0.300 OA
ATOM      6  C   UNL     1      -2.199   6.858   4.598  1.00  0.00     0.075 C 
ATOM      7  C   UNL     1      -1.514   7.515   5.804  1.00  0.00     0.008 C 
ENDROOT
TORSDOF 0
ENDMDL
MODEL 6
REMARK VINA RESULT:    -3.233      1.853      3.091
REMARK INTER + INTRA:          -3.233
REMARK INTER:                  -3.233
REMARK INTRA:                   0.000
REMARK UNBOUND:                 0.000
REMARK SMILES O=C1CCCCC1
REMARK SMILES IDX 5 1 4 2 3 3 2 4 1 5 7 6 6 7
REMARK H PARENT
REMARK Flexibility Score: inf
ROOT
ATOM      1  C   UNL     1       0.695   6.614   4.736  1.00  0.00     0.001 C 
ATOM      2  C   UNL     1      -0.017   6.529   6.093  1.00  0.00     0.008 C 
ATOM      3  C   UNL     1      -1.257   7.431   6.134  1.00  0.00     0.075 C 
ATOM      4  C   UNL     1      -2.128   7.178   4.935  1.00  0.00     0.132 C 
ATOM      5  O   UNL     1      -3.340   7.098   5.060  1.00  0.00    -0.300 OA
ATOM      6  C   UNL     1      -1.501   7.118   3.570  1.00  0.00     0.075 C 
ATOM      7  C   UNL     1      -0.254   6.223   3.593  1.00  0.00     0.008 C 
ENDROOT
TORSDOF 0
ENDMDL
MODEL 7
REMARK VINA RESULT:    -3.206      1.774      2.203
REMARK INTER + INTRA:          -3.206
REMARK INTER:                  -3.206
REMARK INTRA:                   0.000
REMARK UNBOUND:                 0.000
REMARK SMILES O=C1CCCCC1
REMARK SMILES IDX 5 1 4 2 3 3 2 4 1 5 7 6 6 7
REMARK H PARENT
REMARK Flexibility Score: inf
ROOT
ATOM      1  C   UNL     1      -0.219   8.743   3.088  1.00  0.00     0.001 C 
ATOM      2  C   UNL     1      -1.045   7.449   3.139  1.00  0.00     0.008 C 
ATOM      3  C   UNL     1      -0.234   6.288   3.727  1.00  0.00     0.075 C 
ATOM      4  C   UNL     1       0.398   6.697   5.028  1.00  0.00     0.132 C 
ATOM      5  O   UNL     1       0.387   5.938   5.984  1.00  0.00    -0.300 OA
ATOM      6  C   UNL     1       1.125   8.011   5.112  1.00  0.00     0.075 C 
ATOM      7  C   UNL     1       0.280   9.130   4.488  1.00  0.00     0.008 C 
ENDROOT
TORSDOF 0
ENDMDL
MODEL 8
REMARK VINA RESULT:    -3.192     11.704     12.157
REMARK INTER + INTRA:          -3.192
REMARK INTER:                  -3.192
REMARK INTRA:                   0.000
REMARK UNBOUND:                 0.000
REMARK SMILES O=C1CCCCC1
REMARK SMILES IDX 5 1 4 2 3 3 2 4 1 5 7 6 6 7
REMARK H PARENT
REMARK Flexibility Score: inf
ROOT
ATOM      1  C   UNL     1      -5.238  -2.284   6.342  1.00  0.00     0.001 C 
ATOM      2  C   UNL     1      -4.411  -3.349   5.607  1.00  0.00     0.008 C 
ATOM      3  C   UNL     1      -5.032  -4.744   5.758  1.00  0.00     0.075 C 
ATOM      4  C   UNL     1      -6.492  -4.708   5.404  1.00  0.00     0.132 C 
ATOM      5  O   UNL     1      -6.983  -5.593   4.721  1.00  0.00    -0.300 OA
ATOM      6  C   UNL     1      -7.362  -3.624   5.978  1.00  0.00     0.075 C 
ATOM      7  C   UNL     1      -6.683  -2.256   5.822  1.00  0.00     0.008 C 
ENDROOT
TORSDOF 0
ENDMDL
MODEL 9
REMARK VINA RESULT:    -3.120     11.445     11.940
REMARK INTER + INTRA:          -3.120
REMARK INTER:                  -3.120
REMARK INTRA:                   0.000
REMARK UNBOUND:                 0.000
REMARK SMILES O=C1CCCCC1
REMARK SMILES IDX 5 1 4 2 3 3 2 4 1 5 7 6 6 7
REMARK H PARENT
REMARK Flexibility Score: inf
ROOT
ATOM      1  C   UNL     1      -4.920  -4.842   5.847  1.00  0.00     0.001 C 
ATOM      2  C   UNL     1      -6.339  -4.956   5.272  1.00  0.00     0.008 C 
ATOM      3  C   UNL     1      -7.290  -3.940   5.918  1.00  0.00     0.075 C 
ATOM      4  C   UNL     1      -6.690  -2.562   5.878  1.00  0.00     0.132 C 
ATOM      5  O   UNL     1      -7.377  -1.599   5.576  1.00  0.00    -0.300 OA
ATOM      6  C   UNL     1      -5.261  -2.370   6.306  1.00  0.00     0.075 C 
ATOM      7  C   UNL     1      -4.360  -3.425   5.649  1.00  0.00     0.008 C 
ENDROOT
TORSDOF 0
ENDMDL
