MODEL 1
REMARK VINA RESULT:    -4.282      0.000      0.000
REMARK INTER + INTRA:          -4.629
REMARK INTER:                  -4.533
REMARK INTRA:                  -0.096
REMARK UNBOUND:                -0.096
REMARK SMILES C=C(C)[C@H]1CC=C(C)C(=O)C1
REMARK SMILES IDX 8 1 7 2 6 3 5 4 4 5 11 6 9 7 10 8 2 9 1 10 3 11
REMARK H PARENT
REMARK Flexibility Score: inf
ROOT
ATOM      1  C   UNL     1       9.251 -28.825  19.365  1.00  0.00     0.048 C 
ATOM      2  C   UNL     1       8.700 -29.386  18.083  1.00  0.00    -0.012 C 
ATOM      3  C   UNL     1       7.564 -30.103  18.100  1.00  0.00    -0.019 C 
ATOM      4  C   UNL     1       6.979 -30.701  16.848  1.00  0.00     0.036 C 
ATOM      5  C   UNL     1       7.268 -29.816  15.621  1.00  0.00     0.025 C 
ATOM      6  C   UNL     1       8.783 -29.561  15.493  1.00  0.00     0.089 C 
ATOM      7  C   UNL     1       9.343 -29.042  16.789  1.00  0.00     0.158 C 
ATOM      8  O   UNL     1      10.389 -28.338  16.768  1.00  0.00    -0.295 OA
ENDROOT
BRANCH   5   9
ATOM      9  C   UNL     1       6.691 -30.414  14.345  1.00  0.00    -0.077 C 
ATOM     10  C   UNL     1       5.894 -31.497  14.379  1.00  0.00     0.008 C 
ATOM     11  C   UNL     1       7.006 -29.793  13.009  1.00  0.00     0.039 C 
ENDBRANCH   5   9
TORSDOF 1
ENDMDL
MODEL 2
REMARK VINA RESULT:    -4.271      0.230      1.069
REMARK INTER + INTRA:          -4.617
REMARK INTER:                  -4.520
REMARK INTRA:                  -0.097
REMARK UNBOUND:                -0.096
REMARK SMILES C=C(C)[C@H]1CC=C(C)C(=O)C1
REMARK SMILES IDX 8 1 7 2 6 3 5 4 4 5 11 6 9 7 10 8 2 9 1 10 3 11
REMARK H PARENT
REMARK Flexibility Score: inf
ROOT
ATOM      1  C   UNL     1       9.250 -28.898  19.151  1.00  0.00     0.048 C 
ATOM      2  C   UNL     1       8.700 -29.445  17.862  1.00  0.00    -0.012 C 
ATOM      3  C   UNL     1       7.569 -30.171  17.871  1.00  0.00    -0.019 C 
ATOM      4  C   UNL     1       6.986 -30.756  16.612  1.00  0.00     0.036 C 
ATOM      5  C   UNL     1       7.266 -29.850  15.398  1.00  0.00     0.025 C 
ATOM      6  C   UNL     1       8.777 -29.581  15.270  1.00  0.00     0.089 C 
ATOM      7  C   UNL     1       9.336 -29.076  16.572  1.00  0.00     0.158 C 
ATOM      8  O   UNL     1      10.377 -28.364  16.558  1.00  0.00    -0.295 OA
ENDROOT
BRANCH   5   9
ATOM      9  C   UNL     1       6.689 -30.434  14.115  1.00  0.00    -0.077 C 
ATOM     10  C   UNL     1       6.892 -29.842  12.924  1.00  0.00     0.008 C 
ATOM     11  C   UNL     1       5.875 -31.701  14.159  1.00  0.00     0.039 C 
ENDBRANCH   5   9
TORSDOF 1
ENDMDL
MODEL 3
REMARK VINA RESULT:    -4.240      1.486      4.114
REMARK INTER + INTRA:          -4.584
REMARK INTER:                  -4.489
REMARK INTRA:                  -0.096
REMARK UNBOUND:                -0.096
REMARK SMILES C=C(C)[C@H]1CC=C(C)C(=O)C1
REMARK SMILES IDX 8 1 7 2 6 3 5 4 4 5 11 6 9 7 10 8 2 9 1 10 3 11
REMARK H PARENT
REMARK Flexibility Score: inf
ROOT
ATOM      1  C   UNL     1       8.856 -30.461  12.063  1.00  0.00     0.048 C 
ATOM      2  C   UNL     1       8.584 -30.044  13.482  1.00  0.00    -0.012 C 
ATOM      3  C   UNL     1       7.369 -30.251  14.020  1.00  0.00    -0.019 C 
ATOM      4  C   UNL     1       7.039 -29.837  15.429  1.00  0.00     0.036 C 
ATOM      5  C   UNL     1       8.273 -29.947  16.344  1.00  0.00     0.025 C 
ATOM      6  C   UNL     1       9.445 -29.136  15.758  1.00  0.00     0.089 C 
ATOM      7  C   UNL     1       9.689 -29.521  14.324  1.00  0.00     0.158 C 
ATOM      8  O   UNL     1      10.839 -29.361  13.833  1.00  0.00    -0.295 OA
ENDROOT
BRANCH   5   9
ATOM      9  C   UNL     1       7.956 -29.522  17.772  1.00  0.00    -0.077 C 
ATOM     10  C   UNL     1       6.701 -29.567  18.252  1.00  0.00     0.008 C 
ATOM     11  C   UNL     1       9.058 -29.040  18.679  1.00  0.00     0.039 C 
ENDBRANCH   5   9
TORSDOF 1
ENDMDL
MODEL 4
REMARK VINA RESULT:    -4.209      1.507      4.188
REMARK INTER + INTRA:          -4.551
REMARK INTER:                  -4.453
REMARK INTRA:                  -0.098
REMARK UNBOUND:                -0.096
REMARK SMILES C=C(C)[C@H]1CC=C(C)C(=O)C1
REMARK SMILES IDX 8 1 7 2 6 3 5 4 4 5 11 6 9 7 10 8 2 9 1 10 3 11
REMARK H PARENT
REMARK Flexibility Score: inf
ROOT
ATOM      1  C   UNL     1       8.872 -30.440  12.064  1.00  0.00     0.048 C 
ATOM      2  C   UNL     1       8.632 -30.020  13.488  1.00  0.00    -0.012 C 
ATOM      3  C   UNL     1       7.423 -30.207  14.046  1.00  0.00    -0.019 C 
ATOM      4  C   UNL     1       7.125 -29.789  15.462  1.00  0.00     0.036 C 
ATOM      5  C   UNL     1       8.373 -29.919  16.355  1.00  0.00     0.025 C 
ATOM      6  C   UNL     1       9.548 -29.128  15.748  1.00  0.00     0.089 C 
ATOM      7  C   UNL     1       9.761 -29.516  14.310  1.00  0.00     0.158 C 
ATOM      8  O   UNL     1      10.904 -29.374  13.799  1.00  0.00    -0.295 OA
ENDROOT
BRANCH   5   9
ATOM      9  C   UNL     1       8.089 -29.490  17.788  1.00  0.00    -0.077 C 
ATOM     10  C   UNL     1       9.076 -29.081  18.604  1.00  0.00     0.008 C 
ATOM     11  C   UNL     1       6.679 -29.515  18.319  1.00  0.00     0.039 C 
ENDBRANCH   5   9
TORSDOF 1
ENDMDL
MODEL 5
REMARK VINA RESULT:    -4.048      1.531      2.116
REMARK INTER + INTRA:          -4.381
REMARK INTER:                  -4.288
REMARK INTRA:                  -0.093
REMARK UNBOUND:                -0.096
REMARK SMILES C=C(C)[C@H]1CC=C(C)C(=O)C1
REMARK SMILES IDX 8 1 7 2 6 3 5 4 4 5 11 6 9 7 10 8 2 9 1 10 3 11
REMARK H PARENT
REMARK Flexibility Score: inf
ROOT
ATOM      1  C   UNL     1       9.230 -29.051  18.845  1.00  0.00     0.048 C 
ATOM      2  C   UNL     1       8.545 -29.281  17.526  1.00  0.00    -0.012 C 
ATOM      3  C   UNL     1       9.262 -29.270  16.389  1.00  0.00    -0.019 C 
ATOM      4  C   UNL     1       8.624 -29.477  15.041  1.00  0.00     0.036 C 
ATOM      5  C   UNL     1       7.417 -30.429  15.138  1.00  0.00     0.025 C 
ATOM      6  C   UNL     1       6.413 -29.912  16.186  1.00  0.00     0.089 C 
ATOM      7  C   UNL     1       7.105 -29.641  17.493  1.00  0.00     0.158 C 
ATOM      8  O   UNL     1       6.438 -29.687  18.562  1.00  0.00    -0.295 OA
ENDROOT
BRANCH   5   9
ATOM      9  C   UNL     1       6.755 -30.640  13.783  1.00  0.00    -0.077 C 
ATOM     10  C   UNL     1       5.944 -31.688  13.556  1.00  0.00     0.008 C 
ATOM     11  C   UNL     1       7.002 -29.665  12.661  1.00  0.00     0.039 C 
ENDBRANCH   5   9
TORSDOF 1
ENDMDL
MODEL 6
REMARK VINA RESULT:    -3.881      1.700      4.264
REMARK INTER + INTRA:          -4.205
REMARK INTER:                  -4.111
REMARK INTRA:                  -0.094
REMARK UNBOUND:                -0.096
REMARK SMILES C=C(C)[C@H]1CC=C(C)C(=O)C1
REMARK SMILES IDX 8 1 7 2 6 3 5 4 4 5 11 6 9 7 10 8 2 9 1 10 3 11
REMARK H PARENT
REMARK Flexibility Score: inf
ROOT
ATOM      1  C   UNL     1       5.877 -31.539  13.630  1.00  0.00     0.048 C 
ATOM      2  C   UNL     1       6.677 -30.718  14.604  1.00  0.00    -0.012 C 
ATOM      3  C   UNL     1       6.210 -30.511  15.847  1.00  0.00    -0.019 C 
ATOM      4  C   UNL     1       6.962 -29.683  16.854  1.00  0.00     0.036 C 
ATOM      5  C   UNL     1       8.484 -29.813  16.655  1.00  0.00     0.025 C 
ATOM      6  C   UNL     1       8.865 -29.456  15.206  1.00  0.00     0.089 C 
ATOM      7  C   UNL     1       8.034 -30.245  14.231  1.00  0.00     0.158 C 
ATOM      8  O   UNL     1       8.489 -30.470  13.077  1.00  0.00    -0.295 OA
ENDROOT
BRANCH   5   9
ATOM      9  C   UNL     1       9.258 -28.973  17.662  1.00  0.00    -0.077 C 
ATOM     10  C   UNL     1       8.994 -29.039  18.979  1.00  0.00     0.008 C 
ATOM     11  C   UNL     1      10.347 -28.044  17.192  1.00  0.00     0.039 C 
ENDBRANCH   5   9
TORSDOF 1
ENDMDL
MODEL 7
REMARK VINA RESULT:    -3.870      1.626      2.812
REMARK INTER + INTRA:          -4.193
REMARK INTER:                  -4.097
REMARK INTRA:                  -0.096
REMARK UNBOUND:                -0.096
REMARK SMILES C=C(C)[C@H]1CC=C(C)C(=O)C1
REMARK SMILES IDX 8 1 7 2 6 3 5 4 4 5 11 6 9 7 10 8 2 9 1 10 3 11
REMARK H PARENT
REMARK Flexibility Score: inf
ROOT
ATOM      1  C   UNL     1      10.378 -27.985  17.121  1.00  0.00     0.048 C 
ATOM      2  C   UNL     1       9.310 -29.016  16.884  1.00  0.00    -0.012 C 
ATOM      3  C   UNL     1       9.109 -29.499  15.646  1.00  0.00    -0.019 C 
ATOM      4  C   UNL     1       8.043 -30.520  15.350  1.00  0.00     0.036 C 
ATOM      5  C   UNL     1       7.829 -31.464  16.549  1.00  0.00     0.025 C 
ATOM      6  C   UNL     1       7.521 -30.650  17.821  1.00  0.00     0.089 C 
ATOM      7  C   UNL     1       8.566 -29.588  18.034  1.00  0.00     0.158 C 
ATOM      8  O   UNL     1       8.778 -29.163  19.202  1.00  0.00    -0.295 OA
ENDROOT
BRANCH   5   9
ATOM      9  C   UNL     1       6.745 -32.496  16.268  1.00  0.00    -0.077 C 
ATOM     10  C   UNL     1       5.875 -32.338  15.255  1.00  0.00     0.008 C 
ATOM     11  C   UNL     1       6.631 -33.726  17.130  1.00  0.00     0.039 C 
ENDBRANCH   5   9
TORSDOF 1
ENDMDL
MODEL 8
REMARK VINA RESULT:    -3.840      2.375      4.435
REMARK INTER + INTRA:          -4.161
REMARK INTER:                  -4.069
REMARK INTRA:                  -0.092
REMARK UNBOUND:                -0.096
REMARK SMILES C=C(C)[C@H]1CC=C(C)C(=O)C1
REMARK SMILES IDX 8 1 7 2 6 3 5 4 4 5 11 6 9 7 10 8 2 9 1 10 3 11
REMARK H PARENT
REMARK Flexibility Score: inf
ROOT
ATOM      1  C   UNL     1      10.013 -31.179  12.626  1.00  0.00     0.048 C 
ATOM      2  C   UNL     1       9.625 -30.808  14.031  1.00  0.00    -0.012 C 
ATOM      3  C   UNL     1       9.800 -29.547  14.463  1.00  0.00    -0.019 C 
ATOM      4  C   UNL     1       9.444 -29.127  15.864  1.00  0.00     0.036 C 
ATOM      5  C   UNL     1       8.236 -29.922  16.393  1.00  0.00     0.025 C 
ATOM      6  C   UNL     1       8.505 -31.435  16.288  1.00  0.00     0.089 C 
ATOM      7  C   UNL     1       8.936 -31.800  14.894  1.00  0.00     0.158 C 
ATOM      8  O   UNL     1       8.738 -32.974  14.478  1.00  0.00    -0.295 OA
ENDROOT
BRANCH   5   9
ATOM      9  C   UNL     1       7.871 -29.514  17.814  1.00  0.00    -0.077 C 
ATOM     10  C   UNL     1       6.599 -29.554  18.248  1.00  0.00     0.008 C 
ATOM     11  C   UNL     1       8.943 -29.056  18.768  1.00  0.00     0.039 C 
ENDBRANCH   5   9
TORSDOF 1
ENDMDL
MODEL 9
REMARK VINA RESULT:    -3.782      1.387      2.197
REMARK INTER + INTRA:          -4.099
REMARK INTER:                  -4.003
REMARK INTRA:                  -0.096
REMARK UNBOUND:                -0.096
REMARK SMILES C=C(C)[C@H]1CC=C(C)C(=O)C1
REMARK SMILES IDX 8 1 7 2 6 3 5 4 4 5 11 6 9 7 10 8 2 9 1 10 3 11
REMARK H PARENT
REMARK Flexibility Score: inf
ROOT
ATOM      1  C   UNL     1       6.643 -29.544  18.256  1.00  0.00     0.048 C 
ATOM      2  C   UNL     1       7.118 -29.852  16.863  1.00  0.00    -0.012 C 
ATOM      3  C   UNL     1       6.244 -30.286  15.938  1.00  0.00    -0.019 C 
ATOM      4  C   UNL     1       6.670 -30.624  14.535  1.00  0.00     0.036 C 
ATOM      5  C   UNL     1       7.838 -29.730  14.077  1.00  0.00     0.025 C 
ATOM      6  C   UNL     1       9.005 -29.822  15.080  1.00  0.00     0.089 C 
ATOM      7  C   UNL     1       8.522 -29.558  16.479  1.00  0.00     0.158 C 
ATOM      8  O   UNL     1       9.334 -29.116  17.336  1.00  0.00    -0.295 OA
ENDROOT
BRANCH   5   9
ATOM      9  C   UNL     1       8.286 -30.068  12.662  1.00  0.00    -0.077 C 
ATOM     10  C   UNL     1       7.562 -30.883  11.875  1.00  0.00     0.008 C 
ATOM     11  C   UNL     1       9.563 -29.486  12.114  1.00  0.00     0.039 C 
ENDBRANCH   5   9
TORSDOF 1
ENDMDL
