MODEL 1
REMARK VINA RESULT:    -2.172      0.000      0.000
REMARK INTER + INTRA:          -2.608
REMARK INTER:                  -2.362
REMARK INTRA:                  -0.246
REMARK UNBOUND:                -0.246
REMARK SMILES O=C([O-])c1ccccc1O
REMARK SMILES IDX 4 1 9 2 5 3 8 4 6 5 7 6 2 7 1 8 3 9 10 10
REMARK H PARENT 10 11
REMARK Flexibility Score: inf
ROOT
ATOM      1  C   UNL     1      19.304  41.615  11.212  1.00  0.00     0.039 A 
ATOM      2  C   UNL     1      20.069  41.214  12.338  1.00  0.00     0.124 A 
ATOM      3  C   UNL     1      19.255  42.981  10.876  1.00  0.00     0.014 A 
ATOM      4  C   UNL     1      20.705  42.183  13.125  1.00  0.00     0.047 A 
ATOM      5  C   UNL     1      19.913  43.932  11.659  1.00  0.00     0.001 A 
ATOM      6  C   UNL     1      20.628  43.535  12.787  1.00  0.00     0.004 A 
ENDROOT
BRANCH   1   7
ATOM      7  C   UNL     1      18.525  40.662  10.391  1.00  0.00     0.075 C 
ATOM      8  O   UNL     1      18.957  39.502  10.161  1.00  0.00    -0.545 OA
ATOM      9  O   UNL     1      17.265  41.019   9.922  1.00  0.00    -0.545 OA
ENDBRANCH   1   7
BRANCH   2  10
ATOM     10  O   UNL     1      20.250  39.874  12.689  1.00  0.00    -0.507 OA
ATOM     11  H   UNL     1      20.172  39.528  13.635  1.00  0.00     0.293 HD
ENDBRANCH   2  10
TORSDOF 2
ENDMDL
MODEL 2
REMARK VINA RESULT:    -0.893      2.073      3.400
REMARK INTER + INTRA:          -1.217
REMARK INTER:                  -1.008
REMARK INTRA:                  -0.209
REMARK UNBOUND:                -0.246
REMARK SMILES O=C([O-])c1ccccc1O
REMARK SMILES IDX 4 1 9 2 5 3 8 4 6 5 7 6 2 7 1 8 3 9 10 10
REMARK H PARENT 10 11
REMARK Flexibility Score: inf
ROOT
ATOM      1  C   UNL     1      19.545  42.272  11.538  1.00  0.00     0.039 A 
ATOM      2  C   UNL     1      19.808  40.934  11.934  1.00  0.00     0.124 A 
ATOM      3  C   UNL     1      18.635  42.503  10.490  1.00  0.00     0.014 A 
ATOM      4  C   UNL     1      19.210  39.875  11.238  1.00  0.00     0.047 A 
ATOM      5  C   UNL     1      18.032  41.436   9.820  1.00  0.00     0.001 A 
ATOM      6  C   UNL     1      18.326  40.124  10.188  1.00  0.00     0.004 A 
ENDROOT
BRANCH   1   7
ATOM      7  C   UNL     1      20.213  43.437  12.158  1.00  0.00     0.075 C 
ATOM      8  O   UNL     1      21.006  43.290  13.125  1.00  0.00    -0.545 OA
ATOM      9  O   UNL     1      20.023  44.709  11.629  1.00  0.00    -0.545 OA
ENDBRANCH   1   7
BRANCH   2  10
ATOM     10  O   UNL     1      20.622  40.616  13.023  1.00  0.00    -0.507 OA
ATOM     11  H   UNL     1      20.283  40.163  13.861  1.00  0.00     0.293 HD
ENDBRANCH   2  10
TORSDOF 2
ENDMDL
MODEL 3
REMARK VINA RESULT:     0.040      2.248      3.404
REMARK INTER + INTRA:          -0.202
REMARK INTER:                   0.028
REMARK INTRA:                  -0.230
REMARK UNBOUND:                -0.246
REMARK SMILES O=C([O-])c1ccccc1O
REMARK SMILES IDX 4 1 9 2 5 3 8 4 6 5 7 6 2 7 1 8 3 9 10 10
REMARK H PARENT 10 11
REMARK Flexibility Score: inf
ROOT
ATOM      1  C   UNL     1      19.589  42.650  11.409  1.00  0.00     0.039 A 
ATOM      2  C   UNL     1      20.188  41.523  12.031  1.00  0.00     0.124 A 
ATOM      3  C   UNL     1      18.656  42.440  10.377  1.00  0.00     0.014 A 
ATOM      4  C   UNL     1      19.889  40.235  11.566  1.00  0.00     0.047 A 
ATOM      5  C   UNL     1      18.354  41.148   9.940  1.00  0.00     0.001 A 
ATOM      6  C   UNL     1      18.976  40.048  10.528  1.00  0.00     0.004 A 
ENDROOT
BRANCH   1   7
ATOM      7  C   UNL     1      19.928  44.042  11.777  1.00  0.00     0.075 C 
ATOM      8  O   UNL     1      20.985  44.307  12.407  1.00  0.00    -0.545 OA
ATOM      9  O   UNL     1      19.109  45.088  11.364  1.00  0.00    -0.545 OA
ENDBRANCH   1   7
BRANCH   2  10
ATOM     10  O   UNL     1      21.050  41.634  13.124  1.00  0.00    -0.507 OA
ATOM     11  H   UNL     1      20.934  42.316  13.860  1.00  0.00     0.293 HD
ENDBRANCH   2  10
TORSDOF 2
ENDMDL
MODEL 4
REMARK VINA RESULT:     0.523      2.548      3.996
REMARK INTER + INTRA:           0.323
REMARK INTER:                   0.513
REMARK INTRA:                  -0.190
REMARK UNBOUND:                -0.246
REMARK SMILES O=C([O-])c1ccccc1O
REMARK SMILES IDX 4 1 9 2 5 3 8 4 6 5 7 6 2 7 1 8 3 9 10 10
REMARK H PARENT 10 11
REMARK Flexibility Score: inf
ROOT
ATOM      1  C   UNL     1      20.195  42.688  12.072  1.00  0.00     0.039 A 
ATOM      2  C   UNL     1      19.481  42.133  10.977  1.00  0.00     0.124 A 
ATOM      3  C   UNL     1      20.588  41.842  13.125  1.00  0.00     0.014 A 
ATOM      4  C   UNL     1      19.131  40.776  10.995  1.00  0.00     0.047 A 
ATOM      5  C   UNL     1      20.248  40.487  13.117  1.00  0.00     0.001 A 
ATOM      6  C   UNL     1      19.512  39.957  12.058  1.00  0.00     0.004 A 
ENDROOT
BRANCH   1   7
ATOM      7  C   UNL     1      20.515  44.129  12.172  1.00  0.00     0.075 C 
ATOM      8  O   UNL     1      20.074  44.826  13.123  1.00  0.00    -0.545 OA
ATOM      9  O   UNL     1      21.372  44.715  11.247  1.00  0.00    -0.545 OA
ENDBRANCH   1   7
BRANCH   2  10
ATOM     10  O   UNL     1      19.134  42.878   9.848  1.00  0.00    -0.507 OA
ATOM     11  H   UNL     1      19.330  43.864   9.747  1.00  0.00     0.293 HD
ENDBRANCH   2  10
TORSDOF 2
ENDMDL
MODEL 5
REMARK VINA RESULT:     0.547      1.112      2.572
REMARK INTER + INTRA:           0.350
REMARK INTER:                   0.585
REMARK INTRA:                  -0.236
REMARK UNBOUND:                -0.246
REMARK SMILES O=C([O-])c1ccccc1O
REMARK SMILES IDX 4 1 9 2 5 3 8 4 6 5 7 6 2 7 1 8 3 9 10 10
REMARK H PARENT 10 11
REMARK Flexibility Score: inf
ROOT
ATOM      1  C   UNL     1      19.956  42.045  12.124  1.00  0.00     0.039 A 
ATOM      2  C   UNL     1      19.258  42.874  11.207  1.00  0.00     0.124 A 
ATOM      3  C   UNL     1      20.781  42.647  13.092  1.00  0.00     0.014 A 
ATOM      4  C   UNL     1      19.451  44.261  11.242  1.00  0.00     0.047 A 
ATOM      5  C   UNL     1      20.947  44.034  13.125  1.00  0.00     0.001 A 
ATOM      6  C   UNL     1      20.290  44.838  12.196  1.00  0.00     0.004 A 
ENDROOT
BRANCH   1   7
ATOM      7  C   UNL     1      19.880  40.568  12.087  1.00  0.00     0.075 C 
ATOM      8  O   UNL     1      20.082  39.883  13.124  1.00  0.00    -0.545 OA
ATOM      9  O   UNL     1      19.512  39.921  10.913  1.00  0.00    -0.545 OA
ENDBRANCH   1   7
BRANCH   2  10
ATOM     10  O   UNL     1      18.346  42.370  10.277  1.00  0.00    -0.507 OA
ATOM     11  H   UNL     1      17.709  41.610  10.475  1.00  0.00     0.293 HD
ENDBRANCH   2  10
TORSDOF 2
ENDMDL
