MODEL 1
REMARK VINA RESULT:    -4.324      0.000      0.000
REMARK INTER + INTRA:          -6.568
REMARK INTER:                  -6.600
REMARK INTRA:                   0.032
REMARK UNBOUND:                 0.032
REMARK SMILES CC1=CCC[C@H](C)C(=O)C[C@@H](C(C)C)C(=O)C1
REMARK SMILES IDX 8 1 9 2 6 3 7 4 5 5 4 6 3 7 2 8 1 9 10 11 11 12 15 13 16 14
REMARK SMILES IDX 17 15 12 17 13 18 14 19
REMARK H PARENT
REMARK Flexibility Score: 70.00
ROOT
ATOM      1  C   UNL     1      -9.063  -6.421  13.985  1.00  0.00     0.136 C 
ATOM      2  O   UNL     1      -9.755  -5.415  13.924  1.00  0.00    -0.299 OA
ENDROOT
BRANCH   1   3
ATOM      3  C   UNL     1      -9.658  -7.737  14.466  1.00  0.00     0.053 C 
ATOM      4  C   UNL     1     -10.999  -7.562  15.200  1.00  0.00     0.016 C 
BRANCH   3   5
ATOM      5  C   UNL     1      -9.736  -8.813  13.353  1.00  0.00     0.015 C 
BRANCH   5   6
ATOM      6  C   UNL     1      -8.574  -9.826  13.236  1.00  0.00     0.028 C 
BRANCH   6   7
ATOM      7  C   UNL     1      -8.008 -10.081  11.859  1.00  0.00    -0.028 C 
ATOM      8  C   UNL     1      -6.894  -9.525  11.331  1.00  0.00    -0.070 CG0
ATOM      9  C   UNL     1      -6.371 -10.122  10.046  1.00  0.00     0.039 C 
ATOM     10  G   UNL     1      -6.127  -8.390  11.989  1.00  0.00     0.000 G0
ENDBRANCH   6   7
ENDBRANCH   5   6
ENDBRANCH   3   5
ENDBRANCH   1   3
BRANCH   1  11
ATOM     11  C   UNL     1      -7.581  -6.326  13.694  1.00  0.00     0.087 C 
BRANCH  11  12
ATOM     12  C   UNL     1      -7.227  -5.951  12.231  1.00  0.00     0.066 C 
BRANCH  12  13
ATOM     13  C   UNL     1      -6.566  -7.053  11.403  1.00  0.00     0.140 C 
ATOM     14  O   UNL     1      -6.386  -6.839  10.213  1.00  0.00    -0.299 OA
BRANCH  13  15
ATOM     15  C   UNL     1      -6.122  -8.394  11.953  1.00  0.00     0.106 CG0
ATOM     16  G   UNL     1      -6.900  -9.532  11.313  1.00  0.00     0.000 G0
ENDBRANCH  13  15
ENDBRANCH  12  13
BRANCH  12  17
ATOM     17  C   UNL     1      -6.405  -4.621  12.196  1.00  0.00    -0.006 C 
ATOM     18  C   UNL     1      -7.015  -3.510  13.070  1.00  0.00     0.008 C 
ATOM     19  C   UNL     1      -4.931  -4.838  12.574  1.00  0.00     0.008 C 
ENDBRANCH  12  17
ENDBRANCH  11  12
ENDBRANCH   1  11
TORSDOF 1
ENDMDL
MODEL 2
REMARK VINA RESULT:    -3.846     10.954     14.467
REMARK INTER + INTRA:          -5.837
REMARK INTER:                  -5.756
REMARK INTRA:                  -0.081
REMARK UNBOUND:                 0.032
REMARK SMILES CC1=CCC[C@H](C)C(=O)C[C@@H](C(C)C)C(=O)C1
REMARK SMILES IDX 8 1 9 2 6 3 7 4 5 5 4 6 3 7 2 8 1 9 10 11 11 12 15 13 16 14
REMARK SMILES IDX 17 15 12 17 13 18 14 19
REMARK H PARENT
REMARK Flexibility Score: 70.00
ROOT
ATOM      1  C   UNL     1       1.747   2.928  10.793  1.00  0.00     0.136 C 
ATOM      2  O   UNL     1       0.588   3.235  10.549  1.00  0.00    -0.299 OA
ENDROOT
BRANCH   1   3
ATOM      3  C   UNL     1       2.875   3.915  10.530  1.00  0.00     0.053 C 
ATOM      4  C   UNL     1       2.376   5.310  10.116  1.00  0.00     0.016 C 
BRANCH   3   5
ATOM      5  C   UNL     1       3.908   3.981  11.683  1.00  0.00     0.015 C 
BRANCH   5   6
ATOM      6  C   UNL     1       3.380   4.171  13.124  1.00  0.00     0.028 C 
BRANCH   6   7
ATOM      7  C   UNL     1       4.021   3.346  14.214  1.00  0.00    -0.028 C 
ATOM      8  C   UNL     1       3.464   2.298  14.863  1.00  0.00    -0.070 CG0
ATOM      9  C   UNL     1       4.378   1.459  15.725  1.00  0.00     0.039 C 
ATOM     10  G   UNL     1       2.005   1.899  14.720  1.00  0.00     0.000 G0
ENDBRANCH   6   7
ENDBRANCH   5   6
ENDBRANCH   3   5
ENDBRANCH   1   3
BRANCH   1  11
ATOM     11  C   UNL     1       2.066   1.521  11.247  1.00  0.00     0.087 C 
BRANCH  11  12
ATOM     12  C   UNL     1       1.136   0.969  12.360  1.00  0.00     0.066 C 
BRANCH  12  13
ATOM     13  C   UNL     1       1.779   0.784  13.734  1.00  0.00     0.140 C 
ATOM     14  O   UNL     1       2.145  -0.340  14.044  1.00  0.00    -0.299 OA
BRANCH  13  15
ATOM     15  C   UNL     1       1.990   1.896  14.743  1.00  0.00     0.106 CG0
ATOM     16  G   UNL     1       3.457   2.287  14.827  1.00  0.00     0.000 G0
ENDBRANCH  13  15
ENDBRANCH  12  13
BRANCH  12  17
ATOM     17  C   UNL     1       0.420  -0.332  11.870  1.00  0.00    -0.006 C 
ATOM     18  C   UNL     1      -1.010  -0.480  12.422  1.00  0.00     0.008 C 
ATOM     19  C   UNL     1       0.407  -0.449  10.338  1.00  0.00     0.008 C 
ENDBRANCH  12  17
ENDBRANCH  11  12
ENDBRANCH   1  11
TORSDOF 1
ENDMDL
MODEL 3
REMARK VINA RESULT:    -3.826      2.267      4.680
REMARK INTER + INTRA:          -5.808
REMARK INTER:                  -5.727
REMARK INTRA:                  -0.080
REMARK UNBOUND:                 0.032
REMARK SMILES CC1=CCC[C@H](C)C(=O)C[C@@H](C(C)C)C(=O)C1
REMARK SMILES IDX 8 1 9 2 6 3 7 4 5 5 4 6 3 7 2 8 1 9 10 11 11 12 15 13 16 14
REMARK SMILES IDX 17 15 12 17 13 18 14 19
REMARK H PARENT
REMARK Flexibility Score: 70.00
ROOT
ATOM      1  C   UNL     1      -8.323  -6.552  12.492  1.00  0.00     0.136 C 
ATOM      2  O   UNL     1      -8.900  -7.490  13.024  1.00  0.00    -0.299 OA
ENDROOT
BRANCH   1   3
ATOM      3  C   UNL     1      -8.542  -5.131  12.992  1.00  0.00     0.053 C 
ATOM      4  C   UNL     1      -9.749  -5.001  13.937  1.00  0.00     0.016 C 
BRANCH   3   5
ATOM      5  C   UNL     1      -7.262  -4.490  13.586  1.00  0.00     0.015 C 
BRANCH   5   6
ATOM      6  C   UNL     1      -6.515  -3.434  12.739  1.00  0.00     0.028 C 
BRANCH   6   7
ATOM      7  C   UNL     1      -5.011  -3.540  12.662  1.00  0.00    -0.028 C 
ATOM      8  C   UNL     1      -4.299  -4.238  11.749  1.00  0.00    -0.070 CG0
ATOM      9  C   UNL     1      -2.809  -3.989  11.701  1.00  0.00     0.039 C 
ATOM     10  G   UNL     1      -4.923  -5.196  10.748  1.00  0.00     0.000 G0
ENDBRANCH   6   7
ENDBRANCH   5   6
ENDBRANCH   3   5
ENDBRANCH   1   3
BRANCH   1  11
ATOM     11  C   UNL     1      -7.482  -6.796  11.259  1.00  0.00     0.087 C 
BRANCH  11  12
ATOM     12  C   UNL     1      -6.114  -7.478  11.528  1.00  0.00     0.066 C 
BRANCH  12  13
ATOM     13  C   UNL     1      -4.877  -6.630  11.229  1.00  0.00     0.140 C 
ATOM     14  O   UNL     1      -3.782  -7.140  11.410  1.00  0.00    -0.299 OA
BRANCH  13  15
ATOM     15  C   UNL     1      -4.915  -5.199  10.730  1.00  0.00     0.106 CG0
ATOM     16  G   UNL     1      -4.306  -4.248  11.747  1.00  0.00     0.000 G0
ENDBRANCH  13  15
ENDBRANCH  12  13
BRANCH  12  17
ATOM     17  C   UNL     1      -6.054  -8.869  10.817  1.00  0.00    -0.006 C 
ATOM     18  C   UNL     1      -6.505 -10.031  11.721  1.00  0.00     0.008 C 
ATOM     19  C   UNL     1      -6.849  -8.887   9.502  1.00  0.00     0.008 C 
ENDBRANCH  12  17
ENDBRANCH  11  12
ENDBRANCH   1  11
TORSDOF 1
ENDMDL
MODEL 4
REMARK VINA RESULT:    -3.743     10.664     11.869
REMARK INTER + INTRA:          -5.681
REMARK INTER:                  -6.104
REMARK INTRA:                   0.423
REMARK UNBOUND:                 0.032
REMARK SMILES CC1=CCC[C@H](C)C(=O)C[C@@H](C(C)C)C(=O)C1
REMARK SMILES IDX 8 1 9 2 6 3 7 4 5 5 4 6 3 7 2 8 1 9 10 11 11 12 15 13 16 14
REMARK SMILES IDX 17 15 12 17 13 18 14 19
REMARK H PARENT
REMARK Flexibility Score: 70.00
ROOT
ATOM      1  C   UNL     1      -5.845  -6.437   1.254  1.00  0.00     0.136 C 
ATOM      2  O   UNL     1      -6.134  -7.605   1.470  1.00  0.00    -0.299 OA
ENDROOT
BRANCH   1   3
ATOM      3  C   UNL     1      -6.938  -5.400   1.038  1.00  0.00     0.053 C 
ATOM      4  C   UNL     1      -8.163  -5.616   1.944  1.00  0.00     0.016 C 
BRANCH   3   5
ATOM      5  C   UNL     1      -6.416  -3.943   1.097  1.00  0.00     0.015 C 
BRANCH   5   6
ATOM      6  C   UNL     1      -6.153  -3.318   2.487  1.00  0.00     0.028 C 
BRANCH   6   7
ATOM      7  C   UNL     1      -5.241  -2.115   2.548  1.00  0.00    -0.028 C 
ATOM      8  C   UNL     1      -3.935  -2.113   2.895  1.00  0.00    -0.070 CG0
ATOM      9  C   UNL     1      -3.155  -0.845   2.632  1.00  0.00     0.039 C 
ATOM     10  G   UNL     1      -3.215  -3.321   3.472  1.00  0.00     0.000 G0
ENDBRANCH   6   7
ENDBRANCH   5   6
ENDBRANCH   3   5
ENDBRANCH   1   3
BRANCH   1  11
ATOM     11  C   UNL     1      -4.393  -6.047   1.083  1.00  0.00     0.087 C 
BRANCH  11  12
ATOM     12  C   UNL     1      -3.642  -5.735   2.405  1.00  0.00     0.066 C 
BRANCH  12  13
ATOM     13  C   UNL     1      -2.926  -4.385   2.461  1.00  0.00     0.140 C 
ATOM     14  O   UNL     1      -2.071  -4.160   1.618  1.00  0.00    -0.299 OA
BRANCH  13  15
ATOM     15  C   UNL     1      -3.200  -3.309   3.493  1.00  0.00     0.106 CG0
ATOM     16  G   UNL     1      -3.959  -2.143   2.880  1.00  0.00     0.000 G0
ENDBRANCH  13  15
ENDBRANCH  12  13
BRANCH  12  17
ATOM     17  C   UNL     1      -2.690  -6.917   2.779  1.00  0.00    -0.006 C 
ATOM     18  C   UNL     1      -1.726  -6.577   3.930  1.00  0.00     0.008 C 
ATOM     19  C   UNL     1      -3.461  -8.207   3.103  1.00  0.00     0.008 C 
ENDBRANCH  12  17
ENDBRANCH  11  12
ENDBRANCH   1  11
TORSDOF 1
ENDMDL
MODEL 5
REMARK VINA RESULT:    -3.713     11.048     14.309
REMARK INTER + INTRA:          -5.634
REMARK INTER:                  -5.655
REMARK INTRA:                   0.021
REMARK UNBOUND:                 0.032
REMARK SMILES CC1=CCC[C@H](C)C(=O)C[C@@H](C(C)C)C(=O)C1
REMARK SMILES IDX 8 1 9 2 6 3 7 4 5 5 4 6 3 7 2 8 1 9 10 11 11 12 15 13 16 14
REMARK SMILES IDX 17 15 12 17 13 18 14 19
REMARK H PARENT
REMARK Flexibility Score: 70.00
ROOT
ATOM      1  C   UNL     1       3.194   4.195  12.054  1.00  0.00     0.136 C 
ATOM      2  O   UNL     1       4.387   4.076  11.815  1.00  0.00    -0.299 OA
ENDROOT
BRANCH   1   3
ATOM      3  C   UNL     1       2.299   5.001  11.124  1.00  0.00     0.053 C 
ATOM      4  C   UNL     1       3.044   5.555   9.897  1.00  0.00     0.016 C 
BRANCH   3   5
ATOM      5  C   UNL     1       0.999   4.255  10.732  1.00  0.00     0.015 C 
BRANCH   5   6
ATOM      6  C   UNL     1       1.121   2.816  10.181  1.00  0.00     0.028 C 
BRANCH   6   7
ATOM      7  C   UNL     1       0.076   1.814  10.610  1.00  0.00    -0.028 C 
ATOM      8  C   UNL     1       0.240   0.811  11.502  1.00  0.00    -0.070 CG0
ATOM      9  C   UNL     1      -1.006   0.100  11.976  1.00  0.00     0.039 C 
ATOM     10  G   UNL     1       1.588   0.413  12.082  1.00  0.00     0.000 G0
ENDBRANCH   6   7
ENDBRANCH   5   6
ENDBRANCH   3   5
ENDBRANCH   1   3
BRANCH   1  11
ATOM     11  C   UNL     1       2.632   3.635  13.343  1.00  0.00     0.087 C 
BRANCH  11  12
ATOM     12  C   UNL     1       2.984   2.149  13.615  1.00  0.00     0.066 C 
BRANCH  12  13
ATOM     13  C   UNL     1       1.853   1.145  13.395  1.00  0.00     0.140 C 
ATOM     14  O   UNL     1       1.120   0.897  14.341  1.00  0.00    -0.299 OA
BRANCH  13  15
ATOM     15  C   UNL     1       1.579   0.430  12.085  1.00  0.00     0.106 CG0
ATOM     16  G   UNL     1       0.227   0.829  11.517  1.00  0.00     0.000 G0
ENDBRANCH  13  15
ENDBRANCH  12  13
BRANCH  12  17
ATOM     17  C   UNL     1       3.632   1.996  15.031  1.00  0.00    -0.006 C 
ATOM     18  C   UNL     1       4.736   0.925  15.079  1.00  0.00     0.008 C 
ATOM     19  C   UNL     1       4.170   3.331  15.572  1.00  0.00     0.008 C 
ENDBRANCH  12  17
ENDBRANCH  11  12
ENDBRANCH   1  11
TORSDOF 1
ENDMDL
MODEL 6
REMARK VINA RESULT:    -3.632      6.943      9.473
REMARK INTER + INTRA:          -5.511
REMARK INTER:                  -5.465
REMARK INTRA:                  -0.046
REMARK UNBOUND:                 0.032
REMARK SMILES CC1=CCC[C@H](C)C(=O)C[C@@H](C(C)C)C(=O)C1
REMARK SMILES IDX 8 1 9 2 6 3 7 4 5 5 4 6 3 7 2 8 1 9 10 11 11 12 15 13 16 14
REMARK SMILES IDX 17 15 12 17 13 18 14 19
REMARK H PARENT
REMARK Flexibility Score: 70.00
ROOT
ATOM      1  C   UNL     1       1.726  -7.637   8.648  1.00  0.00     0.136 C 
ATOM      2  O   UNL     1       2.793  -7.040   8.613  1.00  0.00    -0.299 OA
ENDROOT
BRANCH   1   3
ATOM      3  C   UNL     1       1.693  -9.140   8.880  1.00  0.00     0.053 C 
ATOM      4  C   UNL     1       2.988  -9.849   8.445  1.00  0.00     0.016 C 
BRANCH   3   5
ATOM      5  C   UNL     1       1.272  -9.525  10.321  1.00  0.00     0.015 C 
BRANCH   5   6
ATOM      6  C   UNL     1       1.073  -8.389  11.351  1.00  0.00     0.028 C 
BRANCH   6   7
ATOM      7  C   UNL     1      -0.344  -8.054  11.753  1.00  0.00    -0.028 C 
ATOM      8  C   UNL     1      -0.931  -6.837  11.695  1.00  0.00    -0.070 CG0
ATOM      9  C   UNL     1      -2.427  -6.785  11.896  1.00  0.00     0.039 C 
ATOM     10  G   UNL     1      -0.178  -5.554  11.384  1.00  0.00     0.000 G0
ENDBRANCH   6   7
ENDBRANCH   5   6
ENDBRANCH   3   5
ENDBRANCH   1   3
BRANCH   1  11
ATOM     11  C   UNL     1       0.445  -6.894   8.340  1.00  0.00     0.087 C 
BRANCH  11  12
ATOM     12  C   UNL     1       0.436  -5.404   8.772  1.00  0.00     0.066 C 
BRANCH  12  13
ATOM     13  C   UNL     1      -0.437  -5.066   9.982  1.00  0.00     0.140 C 
ATOM     14  O   UNL     1      -1.417  -4.360   9.796  1.00  0.00    -0.299 OA
BRANCH  13  15
ATOM     15  C   UNL     1      -0.168  -5.541  11.396  1.00  0.00     0.106 CG0
ATOM     16  G   UNL     1      -0.939  -6.816  11.700  1.00  0.00     0.000 G0
ENDBRANCH  13  15
ENDBRANCH  12  13
BRANCH  12  17
ATOM     17  C   UNL     1       0.116  -4.486   7.547  1.00  0.00    -0.006 C 
ATOM     18  C   UNL     1       1.026  -3.248   7.465  1.00  0.00     0.008 C 
ATOM     19  C   UNL     1       0.154  -5.256   6.217  1.00  0.00     0.008 C 
ENDBRANCH  12  17
ENDBRANCH  11  12
ENDBRANCH   1  11
TORSDOF 1
ENDMDL
MODEL 7
REMARK VINA RESULT:    -3.615      3.068      5.418
REMARK INTER + INTRA:          -5.485
REMARK INTER:                  -5.338
REMARK INTRA:                  -0.147
REMARK UNBOUND:                 0.032
REMARK SMILES CC1=CCC[C@H](C)C(=O)C[C@@H](C(C)C)C(=O)C1
REMARK SMILES IDX 8 1 9 2 6 3 7 4 5 5 4 6 3 7 2 8 1 9 10 11 11 12 15 13 16 14
REMARK SMILES IDX 17 15 12 17 13 18 14 19
REMARK H PARENT
REMARK Flexibility Score: 70.00
ROOT
ATOM      1  C   UNL     1      -5.226  -7.659  11.670  1.00  0.00     0.136 C 
ATOM      2  O   UNL     1      -4.667  -8.741  11.779  1.00  0.00    -0.299 OA
ENDROOT
BRANCH   1   3
ATOM      3  C   UNL     1      -6.702  -7.518  12.012  1.00  0.00     0.053 C 
ATOM      4  C   UNL     1      -7.421  -8.870  12.161  1.00  0.00     0.016 C 
BRANCH   3   5
ATOM      5  C   UNL     1      -6.961  -6.582  13.220  1.00  0.00     0.015 C 
BRANCH   5   6
ATOM      6  C   UNL     1      -7.561  -5.183  12.942  1.00  0.00     0.028 C 
BRANCH   6   7
ATOM      7  C   UNL     1      -6.939  -4.006  13.655  1.00  0.00    -0.028 C 
ATOM      8  C   UNL     1      -5.913  -3.245  13.209  1.00  0.00    -0.070 CG0
ATOM      9  C   UNL     1      -5.630  -1.964  13.958  1.00  0.00     0.039 C 
ATOM     10  G   UNL     1      -5.088  -3.583  11.978  1.00  0.00     0.000 G0
ENDBRANCH   6   7
ENDBRANCH   5   6
ENDBRANCH   3   5
ENDBRANCH   1   3
BRANCH   1  11
ATOM     11  C   UNL     1      -4.473  -6.486  11.082  1.00  0.00     0.087 C 
BRANCH  11  12
ATOM     12  C   UNL     1      -3.507  -5.773  12.064  1.00  0.00     0.066 C 
BRANCH  12  13
ATOM     13  C   UNL     1      -3.788  -4.291  12.317  1.00  0.00     0.140 C 
ATOM     14  O   UNL     1      -2.905  -3.626  12.837  1.00  0.00    -0.299 OA
BRANCH  13  15
ATOM     15  C   UNL     1      -5.088  -3.591  11.972  1.00  0.00     0.106 CG0
ATOM     16  G   UNL     1      -5.878  -3.256  13.226  1.00  0.00     0.000 G0
ENDBRANCH  13  15
ENDBRANCH  12  13
BRANCH  12  17
ATOM     17  C   UNL     1      -2.022  -6.021  11.640  1.00  0.00    -0.006 C 
ATOM     18  C   UNL     1      -1.511  -7.422  12.020  1.00  0.00     0.008 C 
ATOM     19  C   UNL     1      -1.795  -5.767  10.141  1.00  0.00     0.008 C 
ENDBRANCH  12  17
ENDBRANCH  11  12
ENDBRANCH   1  11
TORSDOF 1
ENDMDL
MODEL 8
REMARK VINA RESULT:    -3.531      6.234      8.000
REMARK INTER + INTRA:          -5.357
REMARK INTER:                  -5.338
REMARK INTRA:                  -0.020
REMARK UNBOUND:                 0.032
REMARK SMILES CC1=CCC[C@H](C)C(=O)C[C@@H](C(C)C)C(=O)C1
REMARK SMILES IDX 8 1 9 2 6 3 7 4 5 5 4 6 3 7 2 8 1 9 10 11 11 12 15 13 16 14
REMARK SMILES IDX 17 15 12 17 13 18 14 19
REMARK H PARENT
REMARK Flexibility Score: 70.00
ROOT
ATOM      1  C   UNL     1      -1.910  -7.742  12.156  1.00  0.00     0.136 C 
ATOM      2  O   UNL     1      -3.131  -7.712  12.115  1.00  0.00    -0.299 OA
ENDROOT
BRANCH   1   3
ATOM      3  C   UNL     1      -1.188  -8.965  12.704  1.00  0.00     0.053 C 
ATOM      4  C   UNL     1      -2.145 -10.037  13.255  1.00  0.00     0.016 C 
BRANCH   3   5
ATOM      5  C   UNL     1      -0.154  -9.557  11.713  1.00  0.00     0.015 C 
BRANCH   5   6
ATOM      6  C   UNL     1       1.277  -8.972  11.717  1.00  0.00     0.028 C 
BRANCH   6   7
ATOM      7  C   UNL     1       1.959  -8.793  10.382  1.00  0.00    -0.028 C 
ATOM      8  C   UNL     1       2.115  -7.632   9.707  1.00  0.00    -0.070 CG0
ATOM      9  C   UNL     1       3.055  -7.644   8.524  1.00  0.00     0.039 C 
ATOM     10  G   UNL     1       1.447  -6.328  10.111  1.00  0.00     0.000 G0
ENDBRANCH   6   7
ENDBRANCH   5   6
ENDBRANCH   3   5
ENDBRANCH   1   3
BRANCH   1  11
ATOM     11  C   UNL     1      -1.120  -6.511  11.771  1.00  0.00     0.087 C 
BRANCH  11  12
ATOM     12  C   UNL     1      -1.219  -6.115  10.274  1.00  0.00     0.066 C 
BRANCH  12  13
ATOM     13  C   UNL     1       0.092  -6.150   9.488  1.00  0.00     0.140 C 
ATOM     14  O   UNL     1       0.029  -6.044   8.273  1.00  0.00    -0.299 OA
BRANCH  13  15
ATOM     15  C   UNL     1       1.465  -6.314  10.111  1.00  0.00     0.106 CG0
ATOM     16  G   UNL     1       2.103  -7.629   9.693  1.00  0.00     0.000 G0
ENDBRANCH  13  15
ENDBRANCH  12  13
BRANCH  12  17
ATOM     17  C   UNL     1      -1.952  -4.743  10.124  1.00  0.00    -0.006 C 
ATOM     18  C   UNL     1      -3.486  -4.868  10.173  1.00  0.00     0.008 C 
ATOM     19  C   UNL     1      -1.476  -3.711  11.159  1.00  0.00     0.008 C 
ENDBRANCH  12  17
ENDBRANCH  11  12
ENDBRANCH   1  11
TORSDOF 1
ENDMDL
MODEL 9
REMARK VINA RESULT:    -3.416     11.495     13.142
REMARK INTER + INTRA:          -5.182
REMARK INTER:                  -4.978
REMARK INTRA:                  -0.204
REMARK UNBOUND:                 0.032
REMARK SMILES CC1=CCC[C@H](C)C(=O)C[C@@H](C(C)C)C(=O)C1
REMARK SMILES IDX 8 1 9 2 6 3 7 4 5 5 4 6 3 7 2 8 1 9 10 11 11 12 15 13 16 14
REMARK SMILES IDX 17 15 12 17 13 18 14 19
REMARK H PARENT
REMARK Flexibility Score: 70.00
ROOT
ATOM      1  C   UNL     1       2.587  -1.203  15.278  1.00  0.00     0.136 C 
ATOM      2  O   UNL     1       3.790  -1.171  15.061  1.00  0.00    -0.299 OA
ENDROOT
BRANCH   1   3
ATOM      3  C   UNL     1       1.910  -2.509  15.668  1.00  0.00     0.053 C 
ATOM      4  C   UNL     1       2.700  -3.755  15.230  1.00  0.00     0.016 C 
BRANCH   3   5
ATOM      5  C   UNL     1       1.511  -2.566  17.164  1.00  0.00     0.015 C 
BRANCH   5   6
ATOM      6  C   UNL     1       0.128  -2.008  17.571  1.00  0.00     0.028 C 
BRANCH   6   7
ATOM      7  C   UNL     1       0.090  -0.980  18.677  1.00  0.00    -0.028 C 
ATOM      8  C   UNL     1      -0.136   0.346  18.537  1.00  0.00    -0.070 CG0
ATOM      9  C   UNL     1      -0.392   1.138  19.798  1.00  0.00     0.039 C 
ATOM     10  G   UNL     1      -0.202   1.050  17.192  1.00  0.00     0.000 G0
ENDBRANCH   6   7
ENDBRANCH   5   6
ENDBRANCH   3   5
ENDBRANCH   1   3
BRANCH   1  11
ATOM     11  C   UNL     1       1.753   0.036  15.040  1.00  0.00     0.087 C 
BRANCH  11  12
ATOM     12  C   UNL     1       2.150   1.264  15.901  1.00  0.00     0.066 C 
BRANCH  12  13
ATOM     13  C   UNL     1       1.071   1.789  16.849  1.00  0.00     0.140 C 
ATOM     14  O   UNL     1       1.262   2.873  17.382  1.00  0.00    -0.299 OA
BRANCH  13  15
ATOM     15  C   UNL     1      -0.216   1.059  17.178  1.00  0.00     0.106 CG0
ATOM     16  G   UNL     1      -0.120   0.362  18.526  1.00  0.00     0.000 G0
ENDBRANCH  13  15
ENDBRANCH  12  13
BRANCH  12  17
ATOM     17  C   UNL     1       2.733   2.396  14.994  1.00  0.00    -0.006 C 
ATOM     18  C   UNL     1       4.227   2.666  15.248  1.00  0.00     0.008 C 
ATOM     19  C   UNL     1       2.494   2.127  13.500  1.00  0.00     0.008 C 
ENDBRANCH  12  17
ENDBRANCH  11  12
ENDBRANCH   1  11
TORSDOF 1
ENDMDL
