MODEL 1
REMARK VINA RESULT:    -4.686      0.000      0.000
REMARK INTER + INTRA:          -6.189
REMARK INTER:                  -5.782
REMARK INTRA:                  -0.408
REMARK UNBOUND:                -0.408
REMARK SMILES C=CC[C@@H](C)C(=O)CC
REMARK SMILES IDX 4 1 5 2 6 3 7 4 8 5 9 6 3 7 2 8 1 9
REMARK H PARENT
REMARK Flexibility Score: inf
ROOT
ATOM      1  C   UNL     1     -28.154  23.684  12.868  1.00  0.00     0.057 C 
ATOM      2  C   UNL     1     -28.151  25.160  12.446  1.00  0.00     0.016 C 
ENDROOT
BRANCH   1   3
ATOM      3  C   UNL     1     -28.514  22.811  11.686  1.00  0.00     0.135 C 
ATOM      4  O   UNL     1     -27.793  22.801  10.697  1.00  0.00    -0.299 OA
BRANCH   3   5
ATOM      5  C   UNL     1     -29.750  21.949  11.699  1.00  0.00     0.072 C 
ATOM      6  C   UNL     1     -29.589  20.788  12.673  1.00  0.00     0.012 C 
ENDBRANCH   3   5
ENDBRANCH   1   3
BRANCH   1   7
ATOM      7  C   UNL     1     -26.789  23.251  13.445  1.00  0.00     0.038 C 
BRANCH   7   8
ATOM      8  C   UNL     1     -26.830  23.074  14.940  1.00  0.00    -0.034 C 
ATOM      9  C   UNL     1     -27.889  22.544  15.558  1.00  0.00     0.004 C 
ENDBRANCH   7   8
ENDBRANCH   1   7
TORSDOF 4
ENDMDL
MODEL 2
REMARK VINA RESULT:    -4.640      2.096      3.360
REMARK INTER + INTRA:          -6.133
REMARK INTER:                  -5.904
REMARK INTRA:                  -0.228
REMARK UNBOUND:                -0.408
REMARK SMILES C=CC[C@@H](C)C(=O)CC
REMARK SMILES IDX 4 1 5 2 6 3 7 4 8 5 9 6 3 7 2 8 1 9
REMARK H PARENT
REMARK Flexibility Score: inf
ROOT
ATOM      1  C   UNL     1     -27.741  22.884  15.215  1.00  0.00     0.057 C 
ATOM      2  C   UNL     1     -26.246  23.220  15.130  1.00  0.00     0.016 C 
ENDROOT
BRANCH   1   3
ATOM      3  C   UNL     1     -28.461  23.426  13.999  1.00  0.00     0.135 C 
ATOM      4  O   UNL     1     -29.682  23.512  14.005  1.00  0.00    -0.299 OA
BRANCH   3   5
ATOM      5  C   UNL     1     -27.703  23.862  12.772  1.00  0.00     0.072 C 
ATOM      6  C   UNL     1     -28.093  25.280  12.371  1.00  0.00     0.012 C 
ENDBRANCH   3   5
ENDBRANCH   1   3
BRANCH   1   7
ATOM      7  C   UNL     1     -27.981  21.364  15.333  1.00  0.00     0.038 C 
BRANCH   7   8
ATOM      8  C   UNL     1     -28.765  21.002  16.568  1.00  0.00    -0.034 C 
ATOM      9  C   UNL     1     -30.050  20.644  16.506  1.00  0.00     0.004 C 
ENDBRANCH   7   8
ENDBRANCH   1   7
TORSDOF 4
ENDMDL
MODEL 3
REMARK VINA RESULT:    -4.639     15.429     17.155
REMARK INTER + INTRA:          -6.131
REMARK INTER:                  -5.709
REMARK INTRA:                  -0.422
REMARK UNBOUND:                -0.408
REMARK SMILES C=CC[C@@H](C)C(=O)CC
REMARK SMILES IDX 4 1 5 2 6 3 7 4 8 5 9 6 3 7 2 8 1 9
REMARK H PARENT
REMARK Flexibility Score: inf
ROOT
ATOM      1  C   UNL     1     -18.359  35.731  12.897  1.00  0.00     0.057 C 
ATOM      2  C   UNL     1     -18.409  34.319  12.297  1.00  0.00     0.016 C 
ENDROOT
BRANCH   1   3
ATOM      3  C   UNL     1     -17.787  36.700  11.885  1.00  0.00     0.135 C 
ATOM      4  O   UNL     1     -18.304  36.799  10.780  1.00  0.00    -0.299 OA
BRANCH   3   5
ATOM      5  C   UNL     1     -16.584  37.547  12.208  1.00  0.00     0.072 C 
ATOM      6  C   UNL     1     -17.009  38.881  12.813  1.00  0.00     0.012 C 
ENDBRANCH   3   5
ENDBRANCH   1   3
BRANCH   1   7
ATOM      7  C   UNL     1     -19.754  36.209  13.351  1.00  0.00     0.038 C 
BRANCH   7   8
ATOM      8  C   UNL     1     -19.835  36.404  14.843  1.00  0.00    -0.034 C 
ATOM      9  C   UNL     1     -18.808  36.890  15.546  1.00  0.00     0.004 C 
ENDBRANCH   7   8
ENDBRANCH   1   7
TORSDOF 4
ENDMDL
MODEL 4
REMARK VINA RESULT:    -4.589     15.616     17.106
REMARK INTER + INTRA:          -6.070
REMARK INTER:                  -5.906
REMARK INTRA:                  -0.164
REMARK UNBOUND:                -0.408
REMARK SMILES C=CC[C@@H](C)C(=O)CC
REMARK SMILES IDX 4 1 5 2 6 3 7 4 8 5 9 6 3 7 2 8 1 9
REMARK H PARENT
REMARK Flexibility Score: inf
ROOT
ATOM      1  C   UNL     1     -18.932  36.538  15.074  1.00  0.00     0.057 C 
ATOM      2  C   UNL     1     -20.443  36.376  14.852  1.00  0.00     0.016 C 
ENDROOT
BRANCH   1   3
ATOM      3  C   UNL     1     -18.175  35.992  13.882  1.00  0.00     0.135 C 
ATOM      4  O   UNL     1     -16.962  35.848  13.949  1.00  0.00    -0.299 OA
BRANCH   3   5
ATOM      5  C   UNL     1     -18.887  35.623  12.607  1.00  0.00     0.072 C 
ATOM      6  C   UNL     1     -18.471  34.232  12.140  1.00  0.00     0.012 C 
ENDBRANCH   3   5
ENDBRANCH   1   3
BRANCH   1   7
ATOM      7  C   UNL     1     -18.544  38.012  15.313  1.00  0.00     0.038 C 
BRANCH   7   8
ATOM      8  C   UNL     1     -18.131  38.272  16.738  1.00  0.00    -0.034 C 
ATOM      9  C   UNL     1     -17.544  39.415  17.104  1.00  0.00     0.004 C 
ENDBRANCH   7   8
ENDBRANCH   1   7
TORSDOF 4
ENDMDL
MODEL 5
REMARK VINA RESULT:    -4.548      1.707      3.017
REMARK INTER + INTRA:          -6.020
REMARK INTER:                  -5.557
REMARK INTRA:                  -0.463
REMARK UNBOUND:                -0.408
REMARK SMILES C=CC[C@@H](C)C(=O)CC
REMARK SMILES IDX 4 1 5 2 6 3 7 4 8 5 9 6 3 7 2 8 1 9
REMARK H PARENT
REMARK Flexibility Score: inf
ROOT
ATOM      1  C   UNL     1     -28.769  22.570  13.556  1.00  0.00     0.057 C 
ATOM      2  C   UNL     1     -29.348  21.156  13.408  1.00  0.00     0.016 C 
ENDROOT
BRANCH   1   3
ATOM      3  C   UNL     1     -29.757  23.588  13.027  1.00  0.00     0.135 C 
ATOM      4  O   UNL     1     -30.878  23.229  12.694  1.00  0.00    -0.299 OA
BRANCH   3   5
ATOM      5  C   UNL     1     -29.385  25.043  12.900  1.00  0.00     0.072 C 
ATOM      6  C   UNL     1     -28.122  25.206  12.062  1.00  0.00     0.012 C 
ENDBRANCH   3   5
ENDBRANCH   1   3
BRANCH   1   7
ATOM      7  C   UNL     1     -28.415  22.893  15.023  1.00  0.00     0.038 C 
BRANCH   7   8
ATOM      8  C   UNL     1     -26.932  22.844  15.278  1.00  0.00    -0.034 C 
ATOM      9  C   UNL     1     -26.043  22.920  14.283  1.00  0.00     0.004 C 
ENDBRANCH   7   8
ENDBRANCH   1   7
TORSDOF 4
ENDMDL
MODEL 6
REMARK VINA RESULT:    -4.517      1.821      3.695
REMARK INTER + INTRA:          -5.980
REMARK INTER:                  -5.500
REMARK INTRA:                  -0.481
REMARK UNBOUND:                -0.408
REMARK SMILES C=CC[C@@H](C)C(=O)CC
REMARK SMILES IDX 4 1 5 2 6 3 7 4 8 5 9 6 3 7 2 8 1 9
REMARK H PARENT
REMARK Flexibility Score: inf
ROOT
ATOM      1  C   UNL     1     -30.106  23.270  13.966  1.00  0.00     0.057 C 
ATOM      2  C   UNL     1     -31.034  22.524  12.998  1.00  0.00     0.016 C 
ENDROOT
BRANCH   1   3
ATOM      3  C   UNL     1     -28.879  22.431  14.253  1.00  0.00     0.135 C 
ATOM      4  O   UNL     1     -28.747  21.344  13.707  1.00  0.00    -0.299 OA
BRANCH   3   5
ATOM      5  C   UNL     1     -27.812  22.907  15.203  1.00  0.00     0.072 C 
ATOM      6  C   UNL     1     -26.462  22.995  14.500  1.00  0.00     0.012 C 
ENDBRANCH   3   5
ENDBRANCH   1   3
BRANCH   1   7
ATOM      7  C   UNL     1     -29.683  24.645  13.407  1.00  0.00     0.038 C 
BRANCH   7   8
ATOM      8  C   UNL     1     -29.096  24.546  12.023  1.00  0.00    -0.034 C 
ATOM      9  C   UNL     1     -27.981  25.197  11.683  1.00  0.00     0.004 C 
ENDBRANCH   7   8
ENDBRANCH   1   7
TORSDOF 4
ENDMDL
MODEL 7
REMARK VINA RESULT:    -4.486     15.592     17.089
REMARK INTER + INTRA:          -5.942
REMARK INTER:                  -5.478
REMARK INTRA:                  -0.465
REMARK UNBOUND:                -0.408
REMARK SMILES C=CC[C@@H](C)C(=O)CC
REMARK SMILES IDX 4 1 5 2 6 3 7 4 8 5 9 6 3 7 2 8 1 9
REMARK H PARENT
REMARK Flexibility Score: inf
ROOT
ATOM      1  C   UNL     1     -17.679  37.195  13.320  1.00  0.00     0.057 C 
ATOM      2  C   UNL     1     -17.043  38.550  12.980  1.00  0.00     0.016 C 
ENDROOT
BRANCH   1   3
ATOM      3  C   UNL     1     -16.919  36.082  12.630  1.00  0.00     0.135 C 
ATOM      4  O   UNL     1     -16.062  36.357  11.801  1.00  0.00    -0.299 OA
BRANCH   3   5
ATOM      5  C   UNL     1     -17.199  34.635  12.943  1.00  0.00     0.072 C 
ATOM      6  C   UNL     1     -18.421  34.143  12.176  1.00  0.00     0.012 C 
ENDBRANCH   3   5
ENDBRANCH   1   3
BRANCH   1   7
ATOM      7  C   UNL     1     -17.712  36.944  14.842  1.00  0.00     0.038 C 
BRANCH   7   8
ATOM      8  C   UNL     1     -19.116  36.785  15.366  1.00  0.00    -0.034 C 
ATOM      9  C   UNL     1     -20.142  36.505  14.557  1.00  0.00     0.004 C 
ENDBRANCH   7   8
ENDBRANCH   1   7
TORSDOF 4
ENDMDL
MODEL 8
REMARK VINA RESULT:    -4.478     15.639     17.247
REMARK INTER + INTRA:          -5.932
REMARK INTER:                  -5.483
REMARK INTRA:                  -0.449
REMARK UNBOUND:                -0.408
REMARK SMILES C=CC[C@@H](C)C(=O)CC
REMARK SMILES IDX 4 1 5 2 6 3 7 4 8 5 9 6 3 7 2 8 1 9
REMARK H PARENT
REMARK Flexibility Score: inf
ROOT
ATOM      1  C   UNL     1     -16.583  36.356  14.090  1.00  0.00     0.057 C 
ATOM      2  C   UNL     1     -15.611  37.118  13.179  1.00  0.00     0.016 C 
ENDROOT
BRANCH   1   3
ATOM      3  C   UNL     1     -17.808  37.204  14.360  1.00  0.00     0.135 C 
ATOM      4  O   UNL     1     -17.902  38.313  13.850  1.00  0.00    -0.299 OA
BRANCH   3   5
ATOM      5  C   UNL     1     -18.919  36.710  15.249  1.00  0.00     0.072 C 
ATOM      6  C   UNL     1     -20.225  36.598  14.470  1.00  0.00     0.012 C 
ENDBRANCH   3   5
ENDBRANCH   1   3
BRANCH   1   7
ATOM      7  C   UNL     1     -17.004  35.005  13.476  1.00  0.00     0.038 C 
BRANCH   7   8
ATOM      8  C   UNL     1     -17.616  35.163  12.109  1.00  0.00    -0.034 C 
ATOM      9  C   UNL     1     -18.535  34.311  11.646  1.00  0.00     0.004 C 
ENDBRANCH   7   8
ENDBRANCH   1   7
TORSDOF 4
ENDMDL
MODEL 9
REMARK VINA RESULT:    -4.431      1.506      2.576
REMARK INTER + INTRA:          -5.874
REMARK INTER:                  -5.573
REMARK INTRA:                  -0.301
REMARK UNBOUND:                -0.408
REMARK SMILES C=CC[C@@H](C)C(=O)CC
REMARK SMILES IDX 4 1 5 2 6 3 7 4 8 5 9 6 3 7 2 8 1 9
REMARK H PARENT
REMARK Flexibility Score: inf
ROOT
ATOM      1  C   UNL     1     -28.698  22.737  13.316  1.00  0.00     0.057 C 
ATOM      2  C   UNL     1     -29.698  23.587  14.113  1.00  0.00     0.016 C 
ENDROOT
BRANCH   1   3
ATOM      3  C   UNL     1     -29.435  21.903  12.290  1.00  0.00     0.135 C 
ATOM      4  O   UNL     1     -28.977  21.789  11.161  1.00  0.00    -0.299 OA
BRANCH   3   5
ATOM      5  C   UNL     1     -30.728  21.210  12.630  1.00  0.00     0.072 C 
ATOM      6  C   UNL     1     -30.465  19.931  13.418  1.00  0.00     0.012 C 
ENDBRANCH   3   5
ENDBRANCH   1   3
BRANCH   1   7
ATOM      7  C   UNL     1     -27.634  23.610  12.618  1.00  0.00     0.038 C 
BRANCH   7   8
ATOM      8  C   UNL     1     -28.123  25.012  12.359  1.00  0.00    -0.034 C 
ATOM      9  C   UNL     1     -28.550  25.397  11.154  1.00  0.00     0.004 C 
ENDBRANCH   7   8
ENDBRANCH   1   7
TORSDOF 4
ENDMDL
