MODEL 1
REMARK VINA RESULT:    -5.826      0.000      0.000
REMARK INTER + INTRA:          -6.337
REMARK INTER:                  -6.337
REMARK INTRA:                   0.000
REMARK UNBOUND:                 0.000
REMARK SMILES Cc1cc(O)c2c(c1)C(=O)c1cc(O)cc(O)c1C2=O
REMARK SMILES IDX 1 1 2 2 8 3 7 4 6 5 4 6 3 7 19 8 20 9 18 10 11 11 9 12 10 13
REMARK SMILES IDX 12 14 13 15 15 16 16 17 5 18 17 20 14 22
REMARK H PARENT 5 19 17 21 14 23
REMARK Flexibility Score: inf
ROOT
ATOM      1  C   UNL     1     -19.123  -7.768 -15.365  1.00  0.00     0.044 C 
ATOM      2  C   UNL     1     -18.194  -6.698 -15.856  1.00  0.00    -0.047 A 
ATOM      3  C   UNL     1     -18.517  -5.349 -15.679  1.00  0.00     0.016 A 
ATOM      4  C   UNL     1     -17.667  -4.339 -16.160  1.00  0.00     0.038 A 
ATOM      5  C   UNL     1     -16.472  -4.687 -16.830  1.00  0.00     0.076 A 
ATOM      6  C   UNL     1     -16.191  -6.054 -17.079  1.00  0.00     0.127 A 
ATOM      7  C   UNL     1     -17.043  -7.042 -16.573  1.00  0.00     0.050 A 
ATOM      8  C   UNL     1     -15.527  -3.598 -17.192  1.00  0.00     0.201 C 
ATOM      9  O   UNL     1     -14.290  -3.832 -17.241  1.00  0.00    -0.288 OA
ATOM     10  C   UNL     1     -16.021  -2.201 -17.309  1.00  0.00     0.076 A 
ATOM     11  C   UNL     1     -17.219  -1.858 -16.641  1.00  0.00     0.041 A 
ATOM     12  C   UNL     1     -18.021  -2.912 -15.976  1.00  0.00     0.194 C 
ATOM     13  O   UNL     1     -19.020  -2.595 -15.273  1.00  0.00    -0.289 OA
ATOM     14  C   UNL     1     -17.645  -0.519 -16.615  1.00  0.00     0.059 A 
ATOM     15  C   UNL     1     -16.902   0.475 -17.257  1.00  0.00     0.120 A 
ATOM     16  C   UNL     1     -15.742   0.134 -17.951  1.00  0.00     0.093 A 
ATOM     17  C   UNL     1     -15.308  -1.194 -18.011  1.00  0.00     0.131 A 
ENDROOT
BRANCH   6  18
ATOM     18  O   UNL     1     -15.106  -6.474 -17.852  1.00  0.00    -0.507 OA
ATOM     19  H   UNL     1     -15.141  -6.572 -18.858  1.00  0.00     0.293 HD
ENDBRANCH   6  18
BRANCH  17  20
ATOM     20  O   UNL     1     -14.189  -1.472 -18.800  1.00  0.00    -0.507 OA
ATOM     21  H   UNL     1     -14.106  -1.199 -19.769  1.00  0.00     0.293 HD
ENDBRANCH  17  20
BRANCH  15  22
ATOM     22  O   UNL     1     -17.315   1.805 -17.222  1.00  0.00    -0.508 OA
ATOM     23  H   UNL     1     -17.105   2.446 -17.977  1.00  0.00     0.293 HD
ENDBRANCH  15  22
TORSDOF 3
ENDMDL
MODEL 2
REMARK VINA RESULT:    -5.816      1.914      5.731
REMARK INTER + INTRA:          -6.326
REMARK INTER:                  -6.326
REMARK INTRA:                   0.000
REMARK UNBOUND:                 0.000
REMARK SMILES Cc1cc(O)c2c(c1)C(=O)c1cc(O)cc(O)c1C2=O
REMARK SMILES IDX 1 1 2 2 8 3 7 4 6 5 4 6 3 7 19 8 20 9 18 10 11 11 9 12 10 13
REMARK SMILES IDX 12 14 13 15 15 16 16 17 5 18 17 20 14 22
REMARK H PARENT 5 19 17 21 14 23
REMARK Flexibility Score: inf
ROOT
ATOM      1  C   UNL     1     -17.804   2.876 -14.862  1.00  0.00     0.044 C 
ATOM      2  C   UNL     1     -17.621   1.560 -15.558  1.00  0.00    -0.047 A 
ATOM      3  C   UNL     1     -18.099   0.382 -14.973  1.00  0.00     0.016 A 
ATOM      4  C   UNL     1     -17.908  -0.859 -15.602  1.00  0.00     0.038 A 
ATOM      5  C   UNL     1     -17.228  -0.923 -16.839  1.00  0.00     0.076 A 
ATOM      6  C   UNL     1     -16.673   0.263 -17.385  1.00  0.00     0.127 A 
ATOM      7  C   UNL     1     -16.894   1.489 -16.750  1.00  0.00     0.050 A 
ATOM      8  C   UNL     1     -17.176  -2.229 -17.545  1.00  0.00     0.201 C 
ATOM      9  O   UNL     1     -17.126  -2.259 -18.804  1.00  0.00    -0.288 OA
ATOM     10  C   UNL     1     -17.371  -3.490 -16.783  1.00  0.00     0.076 A 
ATOM     11  C   UNL     1     -18.050  -3.421 -15.544  1.00  0.00     0.041 A 
ATOM     12  C   UNL     1     -18.410  -2.103 -14.971  1.00  0.00     0.194 C 
ATOM     13  O   UNL     1     -19.124  -2.041 -13.933  1.00  0.00    -0.289 OA
ATOM     14  C   UNL     1     -18.374  -4.605 -14.860  1.00  0.00     0.059 A 
ATOM     15  C   UNL     1     -18.018  -5.850 -15.386  1.00  0.00     0.120 A 
ATOM     16  C   UNL     1     -17.314  -5.919 -16.587  1.00  0.00     0.093 A 
ATOM     17  C   UNL     1     -16.960  -4.755 -17.278  1.00  0.00     0.131 A 
ENDROOT
BRANCH   6  18
ATOM     18  O   UNL     1     -15.871   0.264 -18.528  1.00  0.00    -0.507 OA
ATOM     19  H   UNL     1     -14.968  -0.189 -18.578  1.00  0.00     0.293 HD
ENDBRANCH   6  18
BRANCH  17  20
ATOM     20  O   UNL     1     -16.177  -4.899 -18.425  1.00  0.00    -0.507 OA
ATOM     21  H   UNL     1     -16.502  -4.678 -19.356  1.00  0.00     0.293 HD
ENDBRANCH  17  20
BRANCH  15  22
ATOM     22  O   UNL     1     -18.351  -7.025 -14.717  1.00  0.00    -0.508 OA
ATOM     23  H   UNL     1     -17.645  -7.600 -14.272  1.00  0.00     0.293 HD
ENDBRANCH  15  22
TORSDOF 3
ENDMDL
MODEL 3
REMARK VINA RESULT:    -5.543      2.079      4.213
REMARK INTER + INTRA:          -6.029
REMARK INTER:                  -6.029
REMARK INTRA:                   0.000
REMARK UNBOUND:                 0.000
REMARK SMILES Cc1cc(O)c2c(c1)C(=O)c1cc(O)cc(O)c1C2=O
REMARK SMILES IDX 1 1 2 2 8 3 7 4 6 5 4 6 3 7 19 8 20 9 18 10 11 11 9 12 10 13
REMARK SMILES IDX 12 14 13 15 15 16 16 17 5 18 17 20 14 22
REMARK H PARENT 5 19 17 21 14 23
REMARK Flexibility Score: inf
ROOT
ATOM      1  C   UNL     1     -19.124  -7.942 -15.392  1.00  0.00     0.044 C 
ATOM      2  C   UNL     1     -18.376  -6.797 -16.006  1.00  0.00    -0.047 A 
ATOM      3  C   UNL     1     -17.078  -6.983 -16.493  1.00  0.00     0.016 A 
ATOM      4  C   UNL     1     -16.358  -5.911 -17.045  1.00  0.00     0.038 A 
ATOM      5  C   UNL     1     -16.948  -4.628 -17.111  1.00  0.00     0.076 A 
ATOM      6  C   UNL     1     -18.231  -4.427 -16.540  1.00  0.00     0.127 A 
ATOM      7  C   UNL     1     -18.936  -5.515 -16.015  1.00  0.00     0.050 A 
ATOM      8  C   UNL     1     -16.217  -3.555 -17.834  1.00  0.00     0.201 C 
ATOM      9  O   UNL     1     -16.861  -2.639 -18.412  1.00  0.00    -0.288 OA
ATOM     10  C   UNL     1     -14.749  -3.667 -18.032  1.00  0.00     0.076 A 
ATOM     11  C   UNL     1     -14.162  -4.951 -17.962  1.00  0.00     0.041 A 
ATOM     12  C   UNL     1     -14.980  -6.115 -17.551  1.00  0.00     0.194 C 
ATOM     13  O   UNL     1     -14.495  -7.279 -17.609  1.00  0.00    -0.289 OA
ATOM     14  C   UNL     1     -12.802  -5.115 -18.278  1.00  0.00     0.059 A 
ATOM     15  C   UNL     1     -12.021  -4.016 -18.647  1.00  0.00     0.120 A 
ATOM     16  C   UNL     1     -12.587  -2.743 -18.678  1.00  0.00     0.093 A 
ATOM     17  C   UNL     1     -13.933  -2.549 -18.347  1.00  0.00     0.131 A 
ENDROOT
BRANCH   6  18
ATOM     18  O   UNL     1     -18.824  -3.166 -16.441  1.00  0.00    -0.507 OA
ATOM     19  H   UNL     1     -19.277  -2.826 -15.603  1.00  0.00     0.293 HD
ENDBRANCH   6  18
BRANCH  17  20
ATOM     20  O   UNL     1     -14.405  -1.235 -18.313  1.00  0.00    -0.507 OA
ATOM     21  H   UNL     1     -15.283  -0.967 -17.890  1.00  0.00     0.293 HD
ENDBRANCH  17  20
BRANCH  15  22
ATOM     22  O   UNL     1     -10.677  -4.178 -18.974  1.00  0.00    -0.508 OA
ATOM     23  H   UNL     1     -10.376  -4.307 -19.933  1.00  0.00     0.293 HD
ENDBRANCH  15  22
TORSDOF 3
ENDMDL
MODEL 4
REMARK VINA RESULT:    -5.519      1.922      4.026
REMARK INTER + INTRA:          -6.003
REMARK INTER:                  -6.003
REMARK INTRA:                   0.000
REMARK UNBOUND:                 0.000
REMARK SMILES Cc1cc(O)c2c(c1)C(=O)c1cc(O)cc(O)c1C2=O
REMARK SMILES IDX 1 1 2 2 8 3 7 4 6 5 4 6 3 7 19 8 20 9 18 10 11 11 9 12 10 13
REMARK SMILES IDX 12 14 13 15 15 16 16 17 5 18 17 20 14 22
REMARK H PARENT 5 19 17 21 14 23
REMARK Flexibility Score: inf
ROOT
ATOM      1  C   UNL     1     -11.897  -5.358 -19.690  1.00  0.00     0.044 C 
ATOM      2  C   UNL     1     -13.113  -5.025 -18.878  1.00  0.00    -0.047 A 
ATOM      3  C   UNL     1     -13.587  -3.710 -18.826  1.00  0.00     0.016 A 
ATOM      4  C   UNL     1     -14.708  -3.382 -18.045  1.00  0.00     0.038 A 
ATOM      5  C   UNL     1     -15.367  -4.390 -17.305  1.00  0.00     0.076 A 
ATOM      6  C   UNL     1     -14.832  -5.703 -17.295  1.00  0.00     0.127 A 
ATOM      7  C   UNL     1     -13.727  -6.009 -18.096  1.00  0.00     0.050 A 
ATOM      8  C   UNL     1     -16.633  -4.036 -16.612  1.00  0.00     0.201 C 
ATOM      9  O   UNL     1     -17.522  -4.914 -16.445  1.00  0.00    -0.288 OA
ATOM     10  C   UNL     1     -16.926  -2.616 -16.287  1.00  0.00     0.076 A 
ATOM     11  C   UNL     1     -16.262  -1.612 -17.028  1.00  0.00     0.041 A 
ATOM     12  C   UNL     1     -15.198  -1.985 -17.989  1.00  0.00     0.194 C 
ATOM     13  O   UNL     1     -14.693  -1.108 -18.742  1.00  0.00    -0.289 OA
ATOM     14  C   UNL     1     -16.613  -0.263 -16.845  1.00  0.00     0.059 A 
ATOM     15  C   UNL     1     -17.601   0.095 -15.925  1.00  0.00     0.120 A 
ATOM     16  C   UNL     1     -18.230  -0.890 -15.164  1.00  0.00     0.093 A 
ATOM     17  C   UNL     1     -17.885  -2.237 -15.311  1.00  0.00     0.131 A 
ENDROOT
BRANCH   6  18
ATOM     18  O   UNL     1     -15.341  -6.720 -16.483  1.00  0.00    -0.507 OA
ATOM     19  H   UNL     1     -15.725  -6.559 -15.562  1.00  0.00     0.293 HD
ENDBRANCH   6  18
BRANCH  17  20
ATOM     20  O   UNL     1     -18.491  -3.156 -14.450  1.00  0.00    -0.507 OA
ATOM     21  H   UNL     1     -19.491  -3.283 -14.383  1.00  0.00     0.293 HD
ENDBRANCH  17  20
BRANCH  15  22
ATOM     22  O   UNL     1     -17.960   1.430 -15.752  1.00  0.00    -0.508 OA
ATOM     23  H   UNL     1     -17.449   2.040 -15.124  1.00  0.00     0.293 HD
ENDBRANCH  15  22
TORSDOF 3
ENDMDL
MODEL 5
REMARK VINA RESULT:    -5.444      2.911      5.828
REMARK INTER + INTRA:          -5.921
REMARK INTER:                  -5.921
REMARK INTRA:                   0.000
REMARK UNBOUND:                 0.000
REMARK SMILES Cc1cc(O)c2c(c1)C(=O)c1cc(O)cc(O)c1C2=O
REMARK SMILES IDX 1 1 2 2 8 3 7 4 6 5 4 6 3 7 19 8 20 9 18 10 11 11 9 12 10 13
REMARK SMILES IDX 12 14 13 15 15 16 16 17 5 18 17 20 14 22
REMARK H PARENT 5 19 17 21 14 23
REMARK Flexibility Score: inf
ROOT
ATOM      1  C   UNL     1     -17.408  -1.391 -15.406  1.00  0.00     0.044 C 
ATOM      2  C   UNL     1     -16.851  -2.639 -16.023  1.00  0.00    -0.047 A 
ATOM      3  C   UNL     1     -15.479  -2.751 -16.271  1.00  0.00     0.016 A 
ATOM      4  C   UNL     1     -14.951  -3.904 -16.875  1.00  0.00     0.038 A 
ATOM      5  C   UNL     1     -15.812  -4.964 -17.238  1.00  0.00     0.076 A 
ATOM      6  C   UNL     1     -17.211  -4.810 -17.061  1.00  0.00     0.127 A 
ATOM      7  C   UNL     1     -17.710  -3.662 -16.439  1.00  0.00     0.050 A 
ATOM      8  C   UNL     1     -15.202  -6.225 -17.736  1.00  0.00     0.201 C 
ATOM      9  O   UNL     1     -15.784  -7.324 -17.534  1.00  0.00    -0.288 OA
ATOM     10  C   UNL     1     -13.828  -6.208 -18.301  1.00  0.00     0.076 A 
ATOM     11  C   UNL     1     -12.971  -5.144 -17.938  1.00  0.00     0.041 A 
ATOM     12  C   UNL     1     -13.497  -4.011 -17.141  1.00  0.00     0.194 C 
ATOM     13  O   UNL     1     -12.709  -3.125 -16.708  1.00  0.00    -0.289 OA
ATOM     14  C   UNL     1     -11.625  -5.164 -18.341  1.00  0.00     0.059 A 
ATOM     15  C   UNL     1     -11.130  -6.219 -19.111  1.00  0.00     0.120 A 
ATOM     16  C   UNL     1     -11.982  -7.250 -19.504  1.00  0.00     0.093 A 
ATOM     17  C   UNL     1     -13.331  -7.243 -19.135  1.00  0.00     0.131 A 
ENDROOT
BRANCH   6  18
ATOM     18  O   UNL     1     -18.137  -5.750 -17.519  1.00  0.00    -0.507 OA
ATOM     19  H   UNL     1     -19.002  -5.961 -17.039  1.00  0.00     0.293 HD
ENDBRANCH   6  18
BRANCH  17  20
ATOM     20  O   UNL     1     -14.144  -8.261 -19.642  1.00  0.00    -0.507 OA
ATOM     21  H   UNL     1     -15.072  -8.104 -20.010  1.00  0.00     0.293 HD
ENDBRANCH  17  20
BRANCH  15  22
ATOM     22  O   UNL     1      -9.792  -6.249 -19.500  1.00  0.00    -0.508 OA
ATOM     23  H   UNL     1      -9.087  -6.714 -18.941  1.00  0.00     0.293 HD
ENDBRANCH  15  22
TORSDOF 3
ENDMDL
MODEL 6
REMARK VINA RESULT:    -5.286      1.368      5.510
REMARK INTER + INTRA:          -5.750
REMARK INTER:                  -5.750
REMARK INTRA:                   0.000
REMARK UNBOUND:                 0.000
REMARK SMILES Cc1cc(O)c2c(c1)C(=O)c1cc(O)cc(O)c1C2=O
REMARK SMILES IDX 1 1 2 2 8 3 7 4 6 5 4 6 3 7 19 8 20 9 18 10 11 11 9 12 10 13
REMARK SMILES IDX 12 14 13 15 15 16 16 17 5 18 17 20 14 22
REMARK H PARENT 5 19 17 21 14 23
REMARK Flexibility Score: inf
ROOT
ATOM      1  C   UNL     1     -16.498   1.904 -17.877  1.00  0.00     0.044 C 
ATOM      2  C   UNL     1     -16.249   0.425 -17.925  1.00  0.00    -0.047 A 
ATOM      3  C   UNL     1     -17.206  -0.466 -17.428  1.00  0.00     0.016 A 
ATOM      4  C   UNL     1     -16.971  -1.851 -17.442  1.00  0.00     0.038 A 
ATOM      5  C   UNL     1     -15.757  -2.352 -17.963  1.00  0.00     0.076 A 
ATOM      6  C   UNL     1     -14.757  -1.440 -18.387  1.00  0.00     0.127 A 
ATOM      7  C   UNL     1     -15.023  -0.067 -18.382  1.00  0.00     0.050 A 
ATOM      8  C   UNL     1     -15.605  -3.825 -18.098  1.00  0.00     0.201 C 
ATOM      9  O   UNL     1     -14.882  -4.298 -19.015  1.00  0.00    -0.288 OA
ATOM     10  C   UNL     1     -16.449  -4.732 -17.278  1.00  0.00     0.076 A 
ATOM     11  C   UNL     1     -17.661  -4.226 -16.756  1.00  0.00     0.041 A 
ATOM     12  C   UNL     1     -17.986  -2.788 -16.906  1.00  0.00     0.194 C 
ATOM     13  O   UNL     1     -19.120  -2.358 -16.555  1.00  0.00    -0.289 OA
ATOM     14  C   UNL     1     -18.549  -5.089 -16.092  1.00  0.00     0.059 A 
ATOM     15  C   UNL     1     -18.238  -6.441 -15.930  1.00  0.00     0.120 A 
ATOM     16  C   UNL     1     -17.025  -6.935 -16.408  1.00  0.00     0.093 A 
ATOM     17  C   UNL     1     -16.114  -6.093 -17.054  1.00  0.00     0.131 A 
ENDROOT
BRANCH   6  18
ATOM     18  O   UNL     1     -13.482  -1.848 -18.784  1.00  0.00    -0.507 OA
ATOM     19  H   UNL     1     -12.669  -1.247 -18.755  1.00  0.00     0.293 HD
ENDBRANCH   6  18
BRANCH  17  20
ATOM     20  O   UNL     1     -14.882  -6.638 -17.424  1.00  0.00    -0.507 OA
ATOM     21  H   UNL     1     -14.375  -7.308 -16.862  1.00  0.00     0.293 HD
ENDBRANCH  17  20
BRANCH  15  22
ATOM     22  O   UNL     1     -19.123  -7.302 -15.285  1.00  0.00    -0.508 OA
ATOM     23  H   UNL     1     -18.881  -7.755 -14.411  1.00  0.00     0.293 HD
ENDBRANCH  15  22
TORSDOF 3
ENDMDL
MODEL 7
REMARK VINA RESULT:    -5.269      2.180      5.918
REMARK INTER + INTRA:          -5.731
REMARK INTER:                  -5.731
REMARK INTRA:                   0.000
REMARK UNBOUND:                 0.000
REMARK SMILES Cc1cc(O)c2c(c1)C(=O)c1cc(O)cc(O)c1C2=O
REMARK SMILES IDX 1 1 2 2 8 3 7 4 6 5 4 6 3 7 19 8 20 9 18 10 11 11 9 12 10 13
REMARK SMILES IDX 12 14 13 15 15 16 16 17 5 18 17 20 14 22
REMARK H PARENT 5 19 17 21 14 23
REMARK Flexibility Score: inf
ROOT
ATOM      1  C   UNL     1     -11.279  -3.459 -19.925  1.00  0.00     0.044 C 
ATOM      2  C   UNL     1     -12.570  -3.362 -19.169  1.00  0.00    -0.047 A 
ATOM      3  C   UNL     1     -13.192  -4.518 -18.685  1.00  0.00     0.016 A 
ATOM      4  C   UNL     1     -14.416  -4.441 -18.001  1.00  0.00     0.038 A 
ATOM      5  C   UNL     1     -15.029  -3.184 -17.796  1.00  0.00     0.076 A 
ATOM      6  C   UNL     1     -14.437  -2.026 -18.361  1.00  0.00     0.127 A 
ATOM      7  C   UNL     1     -13.208  -2.126 -19.021  1.00  0.00     0.050 A 
ATOM      8  C   UNL     1     -16.243  -3.126 -16.942  1.00  0.00     0.201 C 
ATOM      9  O   UNL     1     -16.488  -2.087 -16.272  1.00  0.00    -0.288 OA
ATOM     10  C   UNL     1     -17.059  -4.351 -16.733  1.00  0.00     0.076 A 
ATOM     11  C   UNL     1     -16.443  -5.606 -16.942  1.00  0.00     0.041 A 
ATOM     12  C   UNL     1     -15.072  -5.672 -17.499  1.00  0.00     0.194 C 
ATOM     13  O   UNL     1     -14.472  -6.780 -17.569  1.00  0.00    -0.289 OA
ATOM     14  C   UNL     1     -17.138  -6.786 -16.624  1.00  0.00     0.059 A 
ATOM     15  C   UNL     1     -18.439  -6.729 -16.117  1.00  0.00     0.120 A 
ATOM     16  C   UNL     1     -19.063  -5.494 -15.948  1.00  0.00     0.093 A 
ATOM     17  C   UNL     1     -18.402  -4.306 -16.277  1.00  0.00     0.131 A 
ENDROOT
BRANCH   6  18
ATOM     18  O   UNL     1     -15.048  -0.771 -18.323  1.00  0.00    -0.507 OA
ATOM     19  H   UNL     1     -14.561   0.094 -18.520  1.00  0.00     0.293 HD
ENDBRANCH   6  18
BRANCH  17  20
ATOM     20  O   UNL     1     -19.124  -3.115 -16.167  1.00  0.00    -0.507 OA
ATOM     21  H   UNL     1     -20.034  -2.973 -16.580  1.00  0.00     0.293 HD
ENDBRANCH  17  20
BRANCH  15  22
ATOM     22  O   UNL     1     -19.124  -7.896 -15.789  1.00  0.00    -0.508 OA
ATOM     23  H   UNL     1     -18.870  -8.792 -16.189  1.00  0.00     0.293 HD
ENDBRANCH  15  22
TORSDOF 3
ENDMDL
MODEL 8
REMARK VINA RESULT:    -5.252      2.803      4.627
REMARK INTER + INTRA:          -5.712
REMARK INTER:                  -5.712
REMARK INTRA:                   0.000
REMARK UNBOUND:                 0.000
REMARK SMILES Cc1cc(O)c2c(c1)C(=O)c1cc(O)cc(O)c1C2=O
REMARK SMILES IDX 1 1 2 2 8 3 7 4 6 5 4 6 3 7 19 8 20 9 18 10 11 11 9 12 10 13
REMARK SMILES IDX 12 14 13 15 15 16 16 17 5 18 17 20 14 22
REMARK H PARENT 5 19 17 21 14 23
REMARK Flexibility Score: inf
ROOT
ATOM      1  C   UNL     1     -19.125  -2.934 -16.933  1.00  0.00     0.044 C 
ATOM      2  C   UNL     1     -17.692  -3.356 -17.067  1.00  0.00    -0.047 A 
ATOM      3  C   UNL     1     -16.751  -2.486 -17.626  1.00  0.00     0.016 A 
ATOM      4  C   UNL     1     -15.412  -2.882 -17.783  1.00  0.00     0.038 A 
ATOM      5  C   UNL     1     -15.008  -4.172 -17.371  1.00  0.00     0.076 A 
ATOM      6  C   UNL     1     -15.983  -5.079 -16.883  1.00  0.00     0.127 A 
ATOM      7  C   UNL     1     -17.305  -4.655 -16.718  1.00  0.00     0.050 A 
ATOM      8  C   UNL     1     -13.560  -4.501 -17.414  1.00  0.00     0.201 C 
ATOM      9  O   UNL     1     -13.079  -5.322 -16.587  1.00  0.00    -0.288 OA
ATOM     10  C   UNL     1     -12.652  -3.728 -18.301  1.00  0.00     0.076 A 
ATOM     11  C   UNL     1     -13.062  -2.439 -18.713  1.00  0.00     0.041 A 
ATOM     12  C   UNL     1     -14.423  -1.956 -18.384  1.00  0.00     0.194 C 
ATOM     13  O   UNL     1     -14.748  -0.763 -18.638  1.00  0.00    -0.289 OA
ATOM     14  C   UNL     1     -12.175  -1.624 -19.438  1.00  0.00     0.059 A 
ATOM     15  C   UNL     1     -10.898  -2.082 -19.768  1.00  0.00     0.120 A 
ATOM     16  C   UNL     1     -10.506  -3.368 -19.398  1.00  0.00     0.093 A 
ATOM     17  C   UNL     1     -11.376  -4.207 -18.695  1.00  0.00     0.131 A 
ENDROOT
BRANCH   6  18
ATOM     18  O   UNL     1     -15.692  -6.412 -16.586  1.00  0.00    -0.507 OA
ATOM     19  H   UNL     1     -16.106  -6.915 -15.812  1.00  0.00     0.293 HD
ENDBRANCH   6  18
BRANCH  17  20
ATOM     20  O   UNL     1     -10.947  -5.512 -18.439  1.00  0.00    -0.507 OA
ATOM     21  H   UNL     1     -11.407  -6.334 -18.806  1.00  0.00     0.293 HD
ENDBRANCH  17  20
BRANCH  15  22
ATOM     22  O   UNL     1     -10.012  -1.272 -20.474  1.00  0.00    -0.508 OA
ATOM     23  H   UNL     1      -9.516  -1.612 -21.290  1.00  0.00     0.293 HD
ENDBRANCH  15  22
TORSDOF 3
ENDMDL
MODEL 9
REMARK VINA RESULT:    -5.166      2.452      3.837
REMARK INTER + INTRA:          -5.620
REMARK INTER:                  -5.620
REMARK INTRA:                   0.000
REMARK UNBOUND:                 0.000
REMARK SMILES Cc1cc(O)c2c(c1)C(=O)c1cc(O)cc(O)c1C2=O
REMARK SMILES IDX 1 1 2 2 8 3 7 4 6 5 4 6 3 7 19 8 20 9 18 10 11 11 9 12 10 13
REMARK SMILES IDX 12 14 13 15 15 16 16 17 5 18 17 20 14 22
REMARK H PARENT 5 19 17 21 14 23
REMARK Flexibility Score: inf
ROOT
ATOM      1  C   UNL     1     -13.505  -9.054 -19.752  1.00  0.00     0.044 C 
ATOM      2  C   UNL     1     -13.675  -7.600 -19.423  1.00  0.00    -0.047 A 
ATOM      3  C   UNL     1     -14.684  -7.191 -18.545  1.00  0.00     0.016 A 
ATOM      4  C   UNL     1     -14.871  -5.830 -18.252  1.00  0.00     0.038 A 
ATOM      5  C   UNL     1     -14.031  -4.861 -18.848  1.00  0.00     0.076 A 
ATOM      6  C   UNL     1     -13.066  -5.275 -19.800  1.00  0.00     0.127 A 
ATOM      7  C   UNL     1     -12.886  -6.637 -20.060  1.00  0.00     0.050 A 
ATOM      8  C   UNL     1     -14.161  -3.450 -18.401  1.00  0.00     0.201 C 
ATOM      9  O   UNL     1     -13.155  -2.691 -18.424  1.00  0.00    -0.288 OA
ATOM     10  C   UNL     1     -15.419  -2.992 -17.756  1.00  0.00     0.076 A 
ATOM     11  C   UNL     1     -16.257  -3.964 -17.164  1.00  0.00     0.041 A 
ATOM     12  C   UNL     1     -15.948  -5.404 -17.328  1.00  0.00     0.194 C 
ATOM     13  O   UNL     1     -16.619  -6.268 -16.698  1.00  0.00    -0.289 OA
ATOM     14  C   UNL     1     -17.383  -3.559 -16.427  1.00  0.00     0.059 A 
ATOM     15  C   UNL     1     -17.690  -2.203 -16.287  1.00  0.00     0.120 A 
ATOM     16  C   UNL     1     -16.888  -1.244 -16.903  1.00  0.00     0.093 A 
ATOM     17  C   UNL     1     -15.774  -1.621 -17.659  1.00  0.00     0.131 A 
ENDROOT
BRANCH   6  18
ATOM     18  O   UNL     1     -12.293  -4.371 -20.534  1.00  0.00    -0.507 OA
ATOM     19  H   UNL     1     -11.302  -4.487 -20.696  1.00  0.00     0.293 HD
ENDBRANCH   6  18
BRANCH  17  20
ATOM     20  O   UNL     1     -15.071  -0.610 -18.321  1.00  0.00    -0.507 OA
ATOM     21  H   UNL     1     -14.064  -0.582 -18.390  1.00  0.00     0.293 HD
ENDBRANCH  17  20
BRANCH  15  22
ATOM     22  O   UNL     1     -18.798  -1.798 -15.545  1.00  0.00    -0.508 OA
ATOM     23  H   UNL     1     -19.087  -0.828 -15.511  1.00  0.00     0.293 HD
ENDBRANCH  15  22
TORSDOF 3
ENDMDL
