MODEL 1
REMARK VINA RESULT:    18.521      0.000      0.000
REMARK INTER + INTRA:          50.959
REMARK INTER:                  48.838
REMARK INTRA:                   2.121
REMARK UNBOUND:                 2.121
REMARK SMILES CCCCCCCCCCCCCCCCCCCCCCCCCCCCCC(=O)[O-]
REMARK SMILES IDX 16 1 17 2 18 3 19 4 20 5 21 6 22 7 23 8 24 9 25 10 26 11
REMARK SMILES IDX 27 12 28 13 29 14 30 15 31 16 32 17 15 18 14 19 13 20 12 21
REMARK SMILES IDX 11 22 10 23 9 24 8 25 7 26 6 27 5 28 4 29 3 30 2 31 1 32
REMARK H PARENT
REMARK Flexibility Score: inf
ROOT
ATOM      1  C   UNL     1      84.462  62.369 104.380  1.00  0.00     0.000 C 
ENDROOT
BRANCH   1   2
ATOM      2  C   UNL     1      84.695  62.944 105.788  1.00  0.00     0.000 C 
BRANCH   2   3
ATOM      3  C   UNL     1      86.151  62.796 106.259  1.00  0.00     0.000 C 
BRANCH   3   4
ATOM      4  C   UNL     1      86.346  63.238 107.720  1.00  0.00     0.000 C 
BRANCH   4   5
ATOM      5  C   UNL     1      87.702  62.797 108.293  1.00  0.00     0.000 C 
BRANCH   5   6
ATOM      6  C   UNL     1      87.726  62.810 109.832  1.00  0.00     0.000 C 
BRANCH   6   7
ATOM      7  C   UNL     1      87.772  64.235 110.405  1.00  0.00     0.000 C 
BRANCH   7   8
ATOM      8  C   UNL     1      86.411  64.689 110.967  1.00  0.00     0.000 C 
BRANCH   8   9
ATOM      9  C   UNL     1      86.165  66.192 110.768  1.00  0.00     0.000 C 
BRANCH   9  10
ATOM     10  C   UNL     1      86.908  66.753 109.541  1.00  0.00     0.000 C 
BRANCH  10  11
ATOM     11  C   UNL     1      86.538  66.009 108.240  1.00  0.00     0.000 C 
BRANCH  11  12
ATOM     12  C   UNL     1      85.038  66.076 107.892  1.00  0.00     0.000 C 
BRANCH  12  13
ATOM     13  C   UNL     1      84.725  66.288 106.398  1.00  0.00     0.006 C 
BRANCH  13  14
ATOM     14  C   UNL     1      83.631  67.331 106.122  1.00  0.00     0.053 C 
BRANCH  14  15
ATOM     15  C   UNL     1      82.943  67.088 104.812  1.00  0.00     0.041 C 
ATOM     16  O   UNL     1      83.376  67.626 103.758  1.00  0.00    -0.550 OA
ATOM     17  O   UNL     1      81.805  66.292 104.763  1.00  0.00    -0.550 OA
ENDBRANCH  14  15
ENDBRANCH  13  14
ENDBRANCH  12  13
ENDBRANCH  11  12
ENDBRANCH  10  11
ENDBRANCH   9  10
ENDBRANCH   8   9
ENDBRANCH   7   8
ENDBRANCH   6   7
ENDBRANCH   5   6
ENDBRANCH   4   5
ENDBRANCH   3   4
ENDBRANCH   2   3
ENDBRANCH   1   2
BRANCH   1  18
ATOM     18  C   UNL     1      83.616  63.316 103.501  1.00  0.00     0.000 C 
BRANCH  18  19
ATOM     19  C   UNL     1      82.858  62.602 102.369  1.00  0.00     0.000 C 
BRANCH  19  20
ATOM     20  C   UNL     1      81.815  63.505 101.685  1.00  0.00     0.000 C 
BRANCH  20  21
ATOM     21  C   UNL     1      80.475  63.562 102.447  1.00  0.00     0.000 C 
BRANCH  21  22
ATOM     22  C   UNL     1      79.362  64.340 101.717  1.00  0.00     0.000 C 
BRANCH  22  23
ATOM     23  C   UNL     1      78.039  64.488 102.493  1.00  0.00     0.000 C 
BRANCH  23  24
ATOM     24  C   UNL     1      76.767  64.088 101.716  1.00  0.00    -0.000 C 
BRANCH  24  25
ATOM     25  C   UNL     1      77.004  63.574 100.285  1.00  0.00    -0.000 C 
BRANCH  25  26
ATOM     26  C   UNL     1      75.700  63.263  99.533  1.00  0.00    -0.000 C 
BRANCH  26  27
ATOM     27  C   UNL     1      74.946  64.533  99.100  1.00  0.00    -0.000 C 
BRANCH  27  28
ATOM     28  C   UNL     1      74.160  64.371  97.780  1.00  0.00    -0.000 C 
BRANCH  28  29
ATOM     29  C   UNL     1      74.743  63.257  96.893  1.00  0.00    -0.000 C 
BRANCH  29  30
ATOM     30  C   UNL     1      75.674  62.309  97.666  1.00  0.00    -0.000 C 
BRANCH  30  31
ATOM     31  C   UNL     1      75.372  60.829  97.388  1.00  0.00    -0.003 C 
ATOM     32  C   UNL     1      76.305  60.270  96.317  1.00  0.00     0.004 C 
ENDBRANCH  30  31
ENDBRANCH  29  30
ENDBRANCH  28  29
ENDBRANCH  27  28
ENDBRANCH  26  27
ENDBRANCH  25  26
ENDBRANCH  24  25
ENDBRANCH  23  24
ENDBRANCH  22  23
ENDBRANCH  21  22
ENDBRANCH  20  21
ENDBRANCH  19  20
ENDBRANCH  18  19
ENDBRANCH   1  18
TORSDOF 28
ENDMDL
MODEL 2
REMARK VINA RESULT:    19.121      3.367      6.350
REMARK INTER + INTRA:          52.541
REMARK INTER:                  53.446
REMARK INTRA:                  -0.906
REMARK UNBOUND:                 2.121
REMARK SMILES CCCCCCCCCCCCCCCCCCCCCCCCCCCCCC(=O)[O-]
REMARK SMILES IDX 16 1 17 2 18 3 19 4 20 5 21 6 22 7 23 8 24 9 25 10 26 11
REMARK SMILES IDX 27 12 28 13 29 14 30 15 31 16 32 17 15 18 14 19 13 20 12 21
REMARK SMILES IDX 11 22 10 23 9 24 8 25 7 26 6 27 5 28 4 29 3 30 2 31 1 32
REMARK H PARENT
REMARK Flexibility Score: inf
ROOT
ATOM      1  C   UNL     1      78.538  64.722 102.837  1.00  0.00     0.000 C 
ENDROOT
BRANCH   1   2
ATOM      2  C   UNL     1      79.701  64.512 101.850  1.00  0.00     0.000 C 
BRANCH   2   3
ATOM      3  C   UNL     1      81.053  64.977 102.417  1.00  0.00     0.000 C 
BRANCH   3   4
ATOM      4  C   UNL     1      80.900  66.093 103.466  1.00  0.00     0.000 C 
BRANCH   4   5
ATOM      5  C   UNL     1      82.104  67.048 103.490  1.00  0.00     0.000 C 
BRANCH   5   6
ATOM      6  C   UNL     1      82.546  67.406 104.921  1.00  0.00     0.000 C 
BRANCH   6   7
ATOM      7  C   UNL     1      83.647  66.472 105.444  1.00  0.00     0.000 C 
BRANCH   7   8
ATOM      8  C   UNL     1      83.113  65.073 105.804  1.00  0.00     0.000 C 
BRANCH   8   9
ATOM      9  C   UNL     1      84.119  63.958 105.481  1.00  0.00     0.000 C 
BRANCH   9  10
ATOM     10  C   UNL     1      83.513  62.858 104.591  1.00  0.00     0.000 C 
BRANCH  10  11
ATOM     11  C   UNL     1      84.265  62.704 103.251  1.00  0.00     0.000 C 
BRANCH  11  12
ATOM     12  C   UNL     1      83.348  62.355 102.062  1.00  0.00     0.000 C 
BRANCH  12  13
ATOM     13  C   UNL     1      83.923  62.697 100.674  1.00  0.00     0.006 C 
BRANCH  13  14
ATOM     14  C   UNL     1      85.458  62.714 100.610  1.00  0.00     0.053 C 
BRANCH  14  15
ATOM     15  C   UNL     1      85.959  62.867  99.206  1.00  0.00     0.041 C 
ATOM     16  O   UNL     1      85.430  63.707  98.431  1.00  0.00    -0.550 OA
ATOM     17  O   UNL     1      86.989  62.057  98.745  1.00  0.00    -0.550 OA
ENDBRANCH  14  15
ENDBRANCH  13  14
ENDBRANCH  12  13
ENDBRANCH  11  12
ENDBRANCH  10  11
ENDBRANCH   9  10
ENDBRANCH   8   9
ENDBRANCH   7   8
ENDBRANCH   6   7
ENDBRANCH   5   6
ENDBRANCH   4   5
ENDBRANCH   3   4
ENDBRANCH   2   3
ENDBRANCH   1   2
BRANCH   1  18
ATOM     18  C   UNL     1      77.256  63.992 102.381  1.00  0.00     0.000 C 
BRANCH  18  19
ATOM     19  C   UNL     1      77.236  63.646 100.882  1.00  0.00     0.000 C 
BRANCH  19  20
ATOM     20  C   UNL     1      75.813  63.591 100.300  1.00  0.00     0.000 C 
BRANCH  20  21
ATOM     21  C   UNL     1      75.725  62.767  98.998  1.00  0.00     0.000 C 
BRANCH  21  22
ATOM     22  C   UNL     1      75.143  61.351  99.180  1.00  0.00     0.000 C 
BRANCH  22  23
ATOM     23  C   UNL     1      75.120  60.477  97.912  1.00  0.00     0.000 C 
BRANCH  23  24
ATOM     24  C   UNL     1      76.501  60.149  97.307  1.00  0.00    -0.000 C 
BRANCH  24  25
ATOM     25  C   UNL     1      76.697  60.579  95.842  1.00  0.00    -0.000 C 
BRANCH  25  26
ATOM     26  C   UNL     1      75.515  61.393  95.290  1.00  0.00    -0.000 C 
BRANCH  26  27
ATOM     27  C   UNL     1      75.924  62.806  94.841  1.00  0.00    -0.000 C 
BRANCH  27  28
ATOM     28  C   UNL     1      75.035  63.926  95.422  1.00  0.00    -0.000 C 
BRANCH  28  29
ATOM     29  C   UNL     1      75.553  64.429  96.782  1.00  0.00    -0.000 C 
BRANCH  29  30
ATOM     30  C   UNL     1      74.426  64.949  97.690  1.00  0.00    -0.000 C 
BRANCH  30  31
ATOM     31  C   UNL     1      73.221  63.999  97.738  1.00  0.00    -0.003 C 
ATOM     32  C   UNL     1      72.452  64.152  99.048  1.00  0.00     0.004 C 
ENDBRANCH  30  31
ENDBRANCH  29  30
ENDBRANCH  28  29
ENDBRANCH  27  28
ENDBRANCH  26  27
ENDBRANCH  25  26
ENDBRANCH  24  25
ENDBRANCH  23  24
ENDBRANCH  22  23
ENDBRANCH  21  22
ENDBRANCH  20  21
ENDBRANCH  19  20
ENDBRANCH  18  19
ENDBRANCH   1  18
TORSDOF 28
ENDMDL
MODEL 3
REMARK VINA RESULT:    19.432      3.032     10.096
REMARK INTER + INTRA:          53.359
REMARK INTER:                  55.095
REMARK INTRA:                  -1.736
REMARK UNBOUND:                 2.121
REMARK SMILES CCCCCCCCCCCCCCCCCCCCCCCCCCCCCC(=O)[O-]
REMARK SMILES IDX 16 1 17 2 18 3 19 4 20 5 21 6 22 7 23 8 24 9 25 10 26 11
REMARK SMILES IDX 27 12 28 13 29 14 30 15 31 16 32 17 15 18 14 19 13 20 12 21
REMARK SMILES IDX 11 22 10 23 9 24 8 25 7 26 6 27 5 28 4 29 3 30 2 31 1 32
REMARK H PARENT
REMARK Flexibility Score: inf
ROOT
ATOM      1  C   UNL     1      85.731  66.072 108.202  1.00  0.00     0.000 C 
ENDROOT
BRANCH   1   2
ATOM      2  C   UNL     1      84.349  66.233 107.545  1.00  0.00     0.000 C 
BRANCH   2   3
ATOM      3  C   UNL     1      84.437  66.646 106.066  1.00  0.00     0.000 C 
BRANCH   3   4
ATOM      4  C   UNL     1      83.253  66.118 105.236  1.00  0.00     0.000 C 
BRANCH   4   5
ATOM      5  C   UNL     1      82.513  67.237 104.487  1.00  0.00     0.000 C 
BRANCH   5   6
ATOM      6  C   UNL     1      81.512  66.694 103.451  1.00  0.00     0.000 C 
BRANCH   6   7
ATOM      7  C   UNL     1      81.681  65.186 103.208  1.00  0.00     0.000 C 
BRANCH   7   8
ATOM      8  C   UNL     1      80.669  64.636 102.186  1.00  0.00     0.000 C 
BRANCH   8   9
ATOM      9  C   UNL     1      79.383  65.474 102.123  1.00  0.00     0.000 C 
BRANCH   9  10
ATOM     10  C   UNL     1      78.150  64.698 102.623  1.00  0.00     0.000 C 
BRANCH  10  11
ATOM     11  C   UNL     1      77.786  63.516 101.700  1.00  0.00     0.000 C 
BRANCH  11  12
ATOM     12  C   UNL     1      76.369  63.612 101.101  1.00  0.00     0.000 C 
BRANCH  12  13
ATOM     13  C   UNL     1      76.316  63.693  99.563  1.00  0.00     0.006 C 
BRANCH  13  14
ATOM     14  C   UNL     1      74.987  63.228  98.948  1.00  0.00     0.053 C 
BRANCH  14  15
ATOM     15  C   UNL     1      74.747  63.841  97.601  1.00  0.00     0.041 C 
ATOM     16  O   UNL     1      74.708  63.117  96.572  1.00  0.00    -0.550 OA
ATOM     17  O   UNL     1      74.598  65.217  97.482  1.00  0.00    -0.550 OA
ENDBRANCH  14  15
ENDBRANCH  13  14
ENDBRANCH  12  13
ENDBRANCH  11  12
ENDBRANCH  10  11
ENDBRANCH   9  10
ENDBRANCH   8   9
ENDBRANCH   7   8
ENDBRANCH   6   7
ENDBRANCH   5   6
ENDBRANCH   4   5
ENDBRANCH   3   4
ENDBRANCH   2   3
ENDBRANCH   1   2
BRANCH   1  18
ATOM     18  C   UNL     1      85.666  66.246 109.735  1.00  0.00     0.000 C 
BRANCH  18  19
ATOM     19  C   UNL     1      87.021  66.581 110.381  1.00  0.00     0.000 C 
BRANCH  19  20
ATOM     20  C   UNL     1      88.118  65.557 110.038  1.00  0.00     0.000 C 
BRANCH  20  21
ATOM     21  C   UNL     1      87.882  64.179 110.690  1.00  0.00     0.000 C 
BRANCH  21  22
ATOM     22  C   UNL     1      87.903  62.996 109.702  1.00  0.00     0.000 C 
BRANCH  22  23
ATOM     23  C   UNL     1      87.583  63.352 108.237  1.00  0.00     0.000 C 
BRANCH  23  24
ATOM     24  C   UNL     1      86.143  63.041 107.779  1.00  0.00    -0.000 C 
BRANCH  24  25
ATOM     25  C   UNL     1      85.872  63.244 106.277  1.00  0.00    -0.000 C 
BRANCH  25  26
ATOM     26  C   UNL     1      84.476  62.765 105.846  1.00  0.00    -0.000 C 
BRANCH  26  27
ATOM     27  C   UNL     1      84.104  63.220 104.425  1.00  0.00    -0.000 C 
BRANCH  27  28
ATOM     28  C   UNL     1      84.235  62.110 103.360  1.00  0.00    -0.000 C 
BRANCH  28  29
ATOM     29  C   UNL     1      83.460  62.448 102.074  1.00  0.00    -0.000 C 
BRANCH  29  30
ATOM     30  C   UNL     1      84.261  62.134 100.800  1.00  0.00    -0.000 C 
BRANCH  30  31
ATOM     31  C   UNL     1      85.394  63.140 100.552  1.00  0.00    -0.003 C 
ATOM     32  C   UNL     1      85.733  63.230  99.066  1.00  0.00     0.004 C 
ENDBRANCH  30  31
ENDBRANCH  29  30
ENDBRANCH  28  29
ENDBRANCH  27  28
ENDBRANCH  26  27
ENDBRANCH  25  26
ENDBRANCH  24  25
ENDBRANCH  23  24
ENDBRANCH  22  23
ENDBRANCH  21  22
ENDBRANCH  20  21
ENDBRANCH  19  20
ENDBRANCH  18  19
ENDBRANCH   1  18
TORSDOF 28
ENDMDL
MODEL 4
REMARK VINA RESULT:    19.500      3.611     11.547
REMARK INTER + INTRA:          53.539
REMARK INTER:                  53.318
REMARK INTRA:                   0.220
REMARK UNBOUND:                 2.121
REMARK SMILES CCCCCCCCCCCCCCCCCCCCCCCCCCCCCC(=O)[O-]
REMARK SMILES IDX 16 1 17 2 18 3 19 4 20 5 21 6 22 7 23 8 24 9 25 10 26 11
REMARK SMILES IDX 27 12 28 13 29 14 30 15 31 16 32 17 15 18 14 19 13 20 12 21
REMARK SMILES IDX 11 22 10 23 9 24 8 25 7 26 6 27 5 28 4 29 3 30 2 31 1 32
REMARK H PARENT
REMARK Flexibility Score: inf
ROOT
ATOM      1  C   UNL     1      80.158  65.827 101.924  1.00  0.00     0.000 C 
ENDROOT
BRANCH   1   2
ATOM      2  C   UNL     1      79.482  64.542 101.414  1.00  0.00     0.000 C 
BRANCH   2   3
ATOM      3  C   UNL     1      78.672  63.823 102.506  1.00  0.00     0.000 C 
BRANCH   3   4
ATOM      4  C   UNL     1      77.185  63.675 102.135  1.00  0.00     0.000 C 
BRANCH   4   5
ATOM      5  C   UNL     1      76.934  63.848 100.630  1.00  0.00     0.000 C 
BRANCH   5   6
ATOM      6  C   UNL     1      75.830  62.912 100.103  1.00  0.00     0.000 C 
BRANCH   6   7
ATOM      7  C   UNL     1      76.102  62.437  98.667  1.00  0.00     0.000 C 
BRANCH   7   8
ATOM      8  C   UNL     1      75.067  61.406  98.181  1.00  0.00     0.000 C 
BRANCH   8   9
ATOM      9  C   UNL     1      75.673  60.374  97.217  1.00  0.00     0.000 C 
BRANCH   9  10
ATOM     10  C   UNL     1      75.970  60.971  95.829  1.00  0.00     0.000 C 
BRANCH  10  11
ATOM     11  C   UNL     1      76.093  62.510  95.864  1.00  0.00     0.000 C 
BRANCH  11  12
ATOM     12  C   UNL     1      74.834  63.243  95.360  1.00  0.00     0.000 C 
BRANCH  12  13
ATOM     13  C   UNL     1      74.679  64.692  95.862  1.00  0.00     0.006 C 
BRANCH  13  14
ATOM     14  C   UNL     1      74.946  64.873  97.365  1.00  0.00     0.053 C 
BRANCH  14  15
ATOM     15  C   UNL     1      73.737  64.556  98.191  1.00  0.00     0.041 C 
ATOM     16  O   UNL     1      72.732  64.010  97.663  1.00  0.00    -0.550 OA
ATOM     17  O   UNL     1      73.710  64.894  99.539  1.00  0.00    -0.550 OA
ENDBRANCH  14  15
ENDBRANCH  13  14
ENDBRANCH  12  13
ENDBRANCH  11  12
ENDBRANCH  10  11
ENDBRANCH   9  10
ENDBRANCH   8   9
ENDBRANCH   7   8
ENDBRANCH   6   7
ENDBRANCH   5   6
ENDBRANCH   4   5
ENDBRANCH   3   4
ENDBRANCH   2   3
ENDBRANCH   1   2
BRANCH   1  18
ATOM     18  C   UNL     1      80.547  65.724 103.415  1.00  0.00     0.000 C 
BRANCH  18  19
ATOM     19  C   UNL     1      82.059  65.836 103.672  1.00  0.00     0.000 C 
BRANCH  19  20
ATOM     20  C   UNL     1      82.507  67.274 103.988  1.00  0.00     0.000 C 
BRANCH  20  21
ATOM     21  C   UNL     1      83.612  67.340 105.064  1.00  0.00     0.000 C 
BRANCH  21  22
ATOM     22  C   UNL     1      83.436  66.332 106.218  1.00  0.00     0.000 C 
BRANCH  22  23
ATOM     23  C   UNL     1      84.404  65.134 106.204  1.00  0.00     0.000 C 
BRANCH  23  24
ATOM     24  C   UNL     1      83.741  63.748 106.055  1.00  0.00    -0.000 C 
BRANCH  24  25
ATOM     25  C   UNL     1      84.297  62.871 104.919  1.00  0.00    -0.000 C 
BRANCH  25  26
ATOM     26  C   UNL     1      83.697  63.211 103.546  1.00  0.00    -0.000 C 
BRANCH  26  27
ATOM     27  C   UNL     1      83.138  61.976 102.818  1.00  0.00    -0.000 C 
BRANCH  27  28
ATOM     28  C   UNL     1      83.556  61.884 101.335  1.00  0.00    -0.000 C 
BRANCH  28  29
ATOM     29  C   UNL     1      84.674  62.882 100.986  1.00  0.00    -0.000 C 
BRANCH  29  30
ATOM     30  C   UNL     1      85.240  62.669  99.573  1.00  0.00    -0.000 C 
BRANCH  30  31
ATOM     31  C   UNL     1      85.489  63.991  98.831  1.00  0.00    -0.003 C 
ATOM     32  C   UNL     1      86.003  63.738  97.416  1.00  0.00     0.004 C 
ENDBRANCH  30  31
ENDBRANCH  29  30
ENDBRANCH  28  29
ENDBRANCH  27  28
ENDBRANCH  26  27
ENDBRANCH  25  26
ENDBRANCH  24  25
ENDBRANCH  23  24
ENDBRANCH  22  23
ENDBRANCH  21  22
ENDBRANCH  20  21
ENDBRANCH  19  20
ENDBRANCH  18  19
ENDBRANCH   1  18
TORSDOF 28
ENDMDL
MODEL 5
REMARK VINA RESULT:    19.553      3.296     13.509
REMARK INTER + INTRA:          53.679
REMARK INTER:                  53.317
REMARK INTRA:                   0.361
REMARK UNBOUND:                 2.121
REMARK SMILES CCCCCCCCCCCCCCCCCCCCCCCCCCCCCC(=O)[O-]
REMARK SMILES IDX 16 1 17 2 18 3 19 4 20 5 21 6 22 7 23 8 24 9 25 10 26 11
REMARK SMILES IDX 27 12 28 13 29 14 30 15 31 16 32 17 15 18 14 19 13 20 12 21
REMARK SMILES IDX 11 22 10 23 9 24 8 25 7 26 6 27 5 28 4 29 3 30 2 31 1 32
REMARK H PARENT
REMARK Flexibility Score: inf
ROOT
ATOM      1  C   UNL     1      80.679  64.178 101.387  1.00  0.00     0.000 C 
ENDROOT
BRANCH   1   2
ATOM      2  C   UNL     1      79.575  65.182 101.766  1.00  0.00     0.000 C 
BRANCH   2   3
ATOM      3  C   UNL     1      78.541  64.589 102.738  1.00  0.00     0.000 C 
BRANCH   3   4
ATOM      4  C   UNL     1      77.170  64.367 102.076  1.00  0.00     0.000 C 
BRANCH   4   5
ATOM      5  C   UNL     1      77.187  63.219 101.056  1.00  0.00     0.000 C 
BRANCH   5   6
ATOM      6  C   UNL     1      76.790  63.678  99.641  1.00  0.00     0.000 C 
BRANCH   6   7
ATOM      7  C   UNL     1      75.275  63.586  99.400  1.00  0.00     0.000 C 
BRANCH   7   8
ATOM      8  C   UNL     1      74.804  62.141  99.152  1.00  0.00     0.000 C 
BRANCH   8   9
ATOM      9  C   UNL     1      75.777  61.350  98.264  1.00  0.00     0.000 C 
BRANCH   9  10
ATOM     10  C   UNL     1      75.048  60.435  97.263  1.00  0.00     0.000 C 
BRANCH  10  11
ATOM     11  C   UNL     1      75.771  60.360  95.901  1.00  0.00     0.000 C 
BRANCH  11  12
ATOM     12  C   UNL     1      76.805  61.483  95.686  1.00  0.00     0.000 C 
BRANCH  12  13
ATOM     13  C   UNL     1      76.235  62.788  95.096  1.00  0.00     0.006 C 
BRANCH  13  14
ATOM     14  C   UNL     1      75.771  63.809  96.147  1.00  0.00     0.053 C 
BRANCH  14  15
ATOM     15  C   UNL     1      74.284  63.994  96.130  1.00  0.00     0.041 C 
ATOM     16  O   UNL     1      73.669  64.100  95.035  1.00  0.00    -0.550 OA
ATOM     17  O   UNL     1      73.582  64.079  97.326  1.00  0.00    -0.550 OA
ENDBRANCH  14  15
ENDBRANCH  13  14
ENDBRANCH  12  13
ENDBRANCH  11  12
ENDBRANCH  10  11
ENDBRANCH   9  10
ENDBRANCH   8   9
ENDBRANCH   7   8
ENDBRANCH   6   7
ENDBRANCH   5   6
ENDBRANCH   4   5
ENDBRANCH   3   4
ENDBRANCH   2   3
ENDBRANCH   1   2
BRANCH   1  18
ATOM     18  C   UNL     1      81.564  63.808 102.597  1.00  0.00     0.000 C 
BRANCH  18  19
ATOM     19  C   UNL     1      82.829  63.016 102.224  1.00  0.00     0.000 C 
BRANCH  19  20
ATOM     20  C   UNL     1      83.950  63.151 103.270  1.00  0.00     0.000 C 
BRANCH  20  21
ATOM     21  C   UNL     1      84.081  61.910 104.178  1.00  0.00     0.000 C 
BRANCH  21  22
ATOM     22  C   UNL     1      84.955  62.128 105.429  1.00  0.00     0.000 C 
BRANCH  22  23
ATOM     23  C   UNL     1      84.908  63.545 106.031  1.00  0.00     0.000 C 
BRANCH  23  24
ATOM     24  C   UNL     1      85.320  63.649 107.514  1.00  0.00    -0.000 C 
BRANCH  24  25
ATOM     25  C   UNL     1      86.618  64.432 107.783  1.00  0.00    -0.000 C 
BRANCH  25  26
ATOM     26  C   UNL     1      87.715  63.574 108.435  1.00  0.00    -0.000 C 
BRANCH  26  27
ATOM     27  C   UNL     1      87.339  63.103 109.850  1.00  0.00    -0.000 C 
BRANCH  27  28
ATOM     28  C   UNL     1      86.800  64.228 110.759  1.00  0.00    -0.000 C 
BRANCH  28  29
ATOM     29  C   UNL     1      87.887  65.260 111.109  1.00  0.00    -0.000 C 
BRANCH  29  30
ATOM     30  C   UNL     1      87.955  66.417 110.099  1.00  0.00    -0.000 C 
BRANCH  30  31
ATOM     31  C   UNL     1      86.852  67.462 110.323  1.00  0.00    -0.003 C 
ATOM     32  C   UNL     1      85.680  66.866 111.099  1.00  0.00     0.004 C 
ENDBRANCH  30  31
ENDBRANCH  29  30
ENDBRANCH  28  29
ENDBRANCH  27  28
ENDBRANCH  26  27
ENDBRANCH  25  26
ENDBRANCH  24  25
ENDBRANCH  23  24
ENDBRANCH  22  23
ENDBRANCH  21  22
ENDBRANCH  20  21
ENDBRANCH  19  20
ENDBRANCH  18  19
ENDBRANCH   1  18
TORSDOF 28
ENDMDL
MODEL 6
REMARK VINA RESULT:    19.905      3.007     10.997
REMARK INTER + INTRA:          54.607
REMARK INTER:                  55.510
REMARK INTRA:                  -0.903
REMARK UNBOUND:                 2.121
REMARK SMILES CCCCCCCCCCCCCCCCCCCCCCCCCCCCCC(=O)[O-]
REMARK SMILES IDX 16 1 17 2 18 3 19 4 20 5 21 6 22 7 23 8 24 9 25 10 26 11
REMARK SMILES IDX 27 12 28 13 29 14 30 15 31 16 32 17 15 18 14 19 13 20 12 21
REMARK SMILES IDX 11 22 10 23 9 24 8 25 7 26 6 27 5 28 4 29 3 30 2 31 1 32
REMARK H PARENT
REMARK Flexibility Score: inf
ROOT
ATOM      1  C   UNL     1      84.133  67.499 105.565  1.00  0.00     0.000 C 
ENDROOT
BRANCH   1   2
ATOM      2  C   UNL     1      82.865  67.428 104.695  1.00  0.00     0.000 C 
BRANCH   2   3
ATOM      3  C   UNL     1      82.529  65.996 104.249  1.00  0.00     0.000 C 
BRANCH   3   4
ATOM      4  C   UNL     1      81.019  65.784 104.035  1.00  0.00     0.000 C 
BRANCH   4   5
ATOM      5  C   UNL     1      80.610  65.910 102.560  1.00  0.00     0.000 C 
BRANCH   5   6
ATOM      6  C   UNL     1      79.886  64.655 102.037  1.00  0.00     0.000 C 
BRANCH   6   7
ATOM      7  C   UNL     1      78.368  64.716 102.269  1.00  0.00     0.000 C 
BRANCH   7   8
ATOM      8  C   UNL     1      77.613  63.597 101.528  1.00  0.00     0.000 C 
BRANCH   8   9
ATOM      9  C   UNL     1      76.244  64.058 101.005  1.00  0.00     0.000 C 
BRANCH   9  10
ATOM     10  C   UNL     1      75.895  63.435  99.641  1.00  0.00     0.000 C 
BRANCH  10  11
ATOM     11  C   UNL     1      74.472  63.806  99.172  1.00  0.00     0.000 C 
BRANCH  11  12
ATOM     12  C   UNL     1      74.344  63.963  97.644  1.00  0.00     0.000 C 
BRANCH  12  13
ATOM     13  C   UNL     1      75.519  63.389  96.830  1.00  0.00     0.006 C 
BRANCH  13  14
ATOM     14  C   UNL     1      75.238  62.020  96.191  1.00  0.00     0.053 C 
BRANCH  14  15
ATOM     15  C   UNL     1      75.691  60.890  97.065  1.00  0.00     0.041 C 
ATOM     16  O   UNL     1      76.836  60.387  96.911  1.00  0.00    -0.550 OA
ATOM     17  O   UNL     1      74.835  60.373  98.029  1.00  0.00    -0.550 OA
ENDBRANCH  14  15
ENDBRANCH  13  14
ENDBRANCH  12  13
ENDBRANCH  11  12
ENDBRANCH  10  11
ENDBRANCH   9  10
ENDBRANCH   8   9
ENDBRANCH   7   8
ENDBRANCH   6   7
ENDBRANCH   5   6
ENDBRANCH   4   5
ENDBRANCH   3   4
ENDBRANCH   2   3
ENDBRANCH   1   2
BRANCH   1  18
ATOM     18  C   UNL     1      84.145  66.408 106.658  1.00  0.00     0.000 C 
BRANCH  18  19
ATOM     19  C   UNL     1      85.384  66.453 107.568  1.00  0.00     0.000 C 
BRANCH  19  20
ATOM     20  C   UNL     1      85.049  66.202 109.049  1.00  0.00     0.000 C 
BRANCH  20  21
ATOM     21  C   UNL     1      86.292  66.228 109.962  1.00  0.00     0.000 C 
BRANCH  21  22
ATOM     22  C   UNL     1      87.223  65.010 109.804  1.00  0.00     0.000 C 
BRANCH  22  23
ATOM     23  C   UNL     1      86.532  63.700 109.380  1.00  0.00     0.000 C 
BRANCH  23  24
ATOM     24  C   UNL     1      86.901  63.181 107.974  1.00  0.00    -0.000 C 
BRANCH  24  25
ATOM     25  C   UNL     1      86.235  63.926 106.802  1.00  0.00    -0.000 C 
BRANCH  25  26
ATOM     26  C   UNL     1      84.914  63.282 106.352  1.00  0.00    -0.000 C 
BRANCH  26  27
ATOM     27  C   UNL     1      85.120  62.156 105.324  1.00  0.00    -0.000 C 
BRANCH  27  28
ATOM     28  C   UNL     1      83.946  61.994 104.334  1.00  0.00    -0.000 C 
BRANCH  28  29
ATOM     29  C   UNL     1      83.870  63.158 103.330  1.00  0.00    -0.000 C 
BRANCH  29  30
ATOM     30  C   UNL     1      82.876  62.893 102.189  1.00  0.00    -0.000 C 
BRANCH  30  31
ATOM     31  C   UNL     1      83.007  61.477 101.608  1.00  0.00    -0.003 C 
ATOM     32  C   UNL     1      82.779  61.479 100.099  1.00  0.00     0.004 C 
ENDBRANCH  30  31
ENDBRANCH  29  30
ENDBRANCH  28  29
ENDBRANCH  27  28
ENDBRANCH  26  27
ENDBRANCH  25  26
ENDBRANCH  24  25
ENDBRANCH  23  24
ENDBRANCH  22  23
ENDBRANCH  21  22
ENDBRANCH  20  21
ENDBRANCH  19  20
ENDBRANCH  18  19
ENDBRANCH   1  18
TORSDOF 28
ENDMDL
MODEL 7
REMARK VINA RESULT:    19.982      3.773     11.068
REMARK INTER + INTRA:          54.809
REMARK INTER:                  55.586
REMARK INTRA:                  -0.777
REMARK UNBOUND:                 2.121
REMARK SMILES CCCCCCCCCCCCCCCCCCCCCCCCCCCCCC(=O)[O-]
REMARK SMILES IDX 16 1 17 2 18 3 19 4 20 5 21 6 22 7 23 8 24 9 25 10 26 11
REMARK SMILES IDX 27 12 28 13 29 14 30 15 31 16 32 17 15 18 14 19 13 20 12 21
REMARK SMILES IDX 11 22 10 23 9 24 8 25 7 26 6 27 5 28 4 29 3 30 2 31 1 32
REMARK H PARENT
REMARK Flexibility Score: inf
ROOT
ATOM      1  C   UNL     1      81.369  65.975 103.885  1.00  0.00     0.000 C 
ENDROOT
BRANCH   1   2
ATOM      2  C   UNL     1      80.315  65.836 102.772  1.00  0.00     0.000 C 
BRANCH   2   3
ATOM      3  C   UNL     1      80.450  64.521 101.986  1.00  0.00     0.000 C 
BRANCH   3   4
ATOM      4  C   UNL     1      79.191  64.195 101.162  1.00  0.00     0.000 C 
BRANCH   4   5
ATOM      5  C   UNL     1      77.995  63.805 102.044  1.00  0.00     0.000 C 
BRANCH   5   6
ATOM      6  C   UNL     1      76.645  64.197 101.416  1.00  0.00     0.000 C 
BRANCH   6   7
ATOM      7  C   UNL     1      76.336  63.394 100.143  1.00  0.00     0.000 C 
BRANCH   7   8
ATOM      8  C   UNL     1      74.862  63.514  99.713  1.00  0.00     0.000 C 
BRANCH   8   9
ATOM      9  C   UNL     1      74.561  64.849  99.015  1.00  0.00     0.000 C 
BRANCH   9  10
ATOM     10  C   UNL     1      75.021  64.861  97.545  1.00  0.00     0.000 C 
BRANCH  10  11
ATOM     11  C   UNL     1      74.424  63.692  96.733  1.00  0.00     0.000 C 
BRANCH  11  12
ATOM     12  C   UNL     1      75.385  62.498  96.568  1.00  0.00     0.000 C 
BRANCH  12  13
ATOM     13  C   UNL     1      75.091  61.295  97.485  1.00  0.00     0.006 C 
BRANCH  13  14
ATOM     14  C   UNL     1      75.567  59.943  96.930  1.00  0.00     0.053 C 
BRANCH  14  15
ATOM     15  C   UNL     1      77.015  59.976  96.543  1.00  0.00     0.041 C 
ATOM     16  O   UNL     1      77.351  59.884  95.332  1.00  0.00    -0.550 OA
ATOM     17  O   UNL     1      77.993  60.076  97.524  1.00  0.00    -0.550 OA
ENDBRANCH  14  15
ENDBRANCH  13  14
ENDBRANCH  12  13
ENDBRANCH  11  12
ENDBRANCH  10  11
ENDBRANCH   9  10
ENDBRANCH   8   9
ENDBRANCH   7   8
ENDBRANCH   6   7
ENDBRANCH   5   6
ENDBRANCH   4   5
ENDBRANCH   3   4
ENDBRANCH   2   3
ENDBRANCH   1   2
BRANCH   1  18
ATOM     18  C   UNL     1      81.979  67.393 103.928  1.00  0.00     0.000 C 
BRANCH  18  19
ATOM     19  C   UNL     1      83.367  67.453 104.588  1.00  0.00     0.000 C 
BRANCH  19  20
ATOM     20  C   UNL     1      83.536  66.427 105.722  1.00  0.00     0.000 C 
BRANCH  20  21
ATOM     21  C   UNL     1      83.231  64.980 105.278  1.00  0.00     0.000 C 
BRANCH  21  22
ATOM     22  C   UNL     1      84.129  63.912 105.932  1.00  0.00     0.000 C 
BRANCH  22  23
ATOM     23  C   UNL     1      84.197  62.562 105.194  1.00  0.00     0.000 C 
BRANCH  23  24
ATOM     24  C   UNL     1      83.947  62.625 103.672  1.00  0.00    -0.000 C 
BRANCH  24  25
ATOM     25  C   UNL     1      83.266  61.385 103.066  1.00  0.00    -0.000 C 
BRANCH  25  26
ATOM     26  C   UNL     1      82.360  61.719 101.870  1.00  0.00    -0.000 C 
BRANCH  26  27
ATOM     27  C   UNL     1      82.559  60.759 100.685  1.00  0.00    -0.000 C 
BRANCH  27  28
ATOM     28  C   UNL     1      83.705  61.171  99.736  1.00  0.00    -0.000 C 
BRANCH  28  29
ATOM     29  C   UNL     1      84.006  62.679  99.812  1.00  0.00    -0.000 C 
BRANCH  29  30
ATOM     30  C   UNL     1      85.112  63.113  98.836  1.00  0.00    -0.000 C 
BRANCH  30  31
ATOM     31  C   UNL     1      86.514  63.029  99.458  1.00  0.00    -0.003 C 
ATOM     32  C   UNL     1      86.436  62.693 100.945  1.00  0.00     0.004 C 
ENDBRANCH  30  31
ENDBRANCH  29  30
ENDBRANCH  28  29
ENDBRANCH  27  28
ENDBRANCH  26  27
ENDBRANCH  25  26
ENDBRANCH  24  25
ENDBRANCH  23  24
ENDBRANCH  22  23
ENDBRANCH  21  22
ENDBRANCH  20  21
ENDBRANCH  19  20
ENDBRANCH  18  19
ENDBRANCH   1  18
TORSDOF 28
ENDMDL
MODEL 8
REMARK VINA RESULT:    20.201      3.874     11.265
REMARK INTER + INTRA:          55.388
REMARK INTER:                  52.504
REMARK INTRA:                   2.884
REMARK UNBOUND:                 2.121
REMARK SMILES CCCCCCCCCCCCCCCCCCCCCCCCCCCCCC(=O)[O-]
REMARK SMILES IDX 16 1 17 2 18 3 19 4 20 5 21 6 22 7 23 8 24 9 25 10 26 11
REMARK SMILES IDX 27 12 28 13 29 14 30 15 31 16 32 17 15 18 14 19 13 20 12 21
REMARK SMILES IDX 11 22 10 23 9 24 8 25 7 26 6 27 5 28 4 29 3 30 2 31 1 32
REMARK H PARENT
REMARK Flexibility Score: inf
ROOT
ATOM      1  C   UNL     1      81.121  66.331 103.605  1.00  0.00     0.000 C 
ENDROOT
BRANCH   1   2
ATOM      2  C   UNL     1      81.056  65.138 102.635  1.00  0.00     0.000 C 
BRANCH   2   3
ATOM      3  C   UNL     1      79.716  65.054 101.884  1.00  0.00     0.000 C 
BRANCH   3   4
ATOM      4  C   UNL     1      78.758  64.020 102.501  1.00  0.00     0.000 C 
BRANCH   4   5
ATOM      5  C   UNL     1      77.294  64.265 102.107  1.00  0.00     0.000 C 
BRANCH   5   6
ATOM      6  C   UNL     1      76.865  63.437 100.882  1.00  0.00     0.000 C 
BRANCH   6   7
ATOM      7  C   UNL     1      75.393  63.669 100.506  1.00  0.00     0.000 C 
BRANCH   7   8
ATOM      8  C   UNL     1      75.176  63.730  98.982  1.00  0.00     0.000 C 
BRANCH   8   9
ATOM      9  C   UNL     1      75.841  62.557  98.246  1.00  0.00     0.000 C 
BRANCH   9  10
ATOM     10  C   UNL     1      74.875  61.379  98.023  1.00  0.00     0.000 C 
BRANCH  10  11
ATOM     11  C   UNL     1      75.609  60.087  97.605  1.00  0.00     0.000 C 
BRANCH  11  12
ATOM     12  C   UNL     1      76.697  60.311  96.536  1.00  0.00     0.000 C 
BRANCH  12  13
ATOM     13  C   UNL     1      76.282  61.224  95.366  1.00  0.00     0.006 C 
BRANCH  13  14
ATOM     14  C   UNL     1      75.091  62.145  95.672  1.00  0.00     0.053 C 
BRANCH  14  15
ATOM     15  C   UNL     1      75.397  63.579  95.359  1.00  0.00     0.041 C 
ATOM     16  O   UNL     1      75.756  63.913  94.198  1.00  0.00    -0.550 OA
ATOM     17  O   UNL     1      75.314  64.540  96.358  1.00  0.00    -0.550 OA
ENDBRANCH  14  15
ENDBRANCH  13  14
ENDBRANCH  12  13
ENDBRANCH  11  12
ENDBRANCH  10  11
ENDBRANCH   9  10
ENDBRANCH   8   9
ENDBRANCH   7   8
ENDBRANCH   6   7
ENDBRANCH   5   6
ENDBRANCH   4   5
ENDBRANCH   3   4
ENDBRANCH   2   3
ENDBRANCH   1   2
BRANCH   1  18
ATOM     18  C   UNL     1      82.447  67.112 103.472  1.00  0.00     0.000 C 
BRANCH  18  19
ATOM     19  C   UNL     1      82.978  67.667 104.805  1.00  0.00     0.000 C 
BRANCH  19  20
ATOM     20  C   UNL     1      83.727  66.612 105.637  1.00  0.00     0.000 C 
BRANCH  20  21
ATOM     21  C   UNL     1      83.091  65.209 105.546  1.00  0.00     0.000 C 
BRANCH  21  22
ATOM     22  C   UNL     1      84.048  64.053 105.899  1.00  0.00     0.000 C 
BRANCH  22  23
ATOM     23  C   UNL     1      83.838  62.752 105.100  1.00  0.00     0.000 C 
BRANCH  23  24
ATOM     24  C   UNL     1      84.327  62.787 103.636  1.00  0.00    -0.000 C 
BRANCH  24  25
ATOM     25  C   UNL     1      83.237  63.065 102.585  1.00  0.00    -0.000 C 
BRANCH  25  26
ATOM     26  C   UNL     1      82.643  61.783 101.981  1.00  0.00    -0.000 C 
BRANCH  26  27
ATOM     27  C   UNL     1      83.480  61.231 100.814  1.00  0.00    -0.000 C 
BRANCH  27  28
ATOM     28  C   UNL     1      84.177  62.325  99.976  1.00  0.00    -0.000 C 
BRANCH  28  29
ATOM     29  C   UNL     1      85.710  62.189 100.009  1.00  0.00    -0.000 C 
BRANCH  29  30
ATOM     30  C   UNL     1      86.396  62.921  98.845  1.00  0.00    -0.000 C 
BRANCH  30  31
ATOM     31  C   UNL     1      85.713  64.254  98.502  1.00  0.00    -0.003 C 
ATOM     32  C   UNL     1      86.058  65.328  99.530  1.00  0.00     0.004 C 
ENDBRANCH  30  31
ENDBRANCH  29  30
ENDBRANCH  28  29
ENDBRANCH  27  28
ENDBRANCH  26  27
ENDBRANCH  25  26
ENDBRANCH  24  25
ENDBRANCH  23  24
ENDBRANCH  22  23
ENDBRANCH  21  22
ENDBRANCH  20  21
ENDBRANCH  19  20
ENDBRANCH  18  19
ENDBRANCH   1  18
TORSDOF 28
ENDMDL
MODEL 9
REMARK VINA RESULT:    20.460      2.242      4.788
REMARK INTER + INTRA:          56.072
REMARK INTER:                  56.546
REMARK INTRA:                  -0.474
REMARK UNBOUND:                 2.121
REMARK SMILES CCCCCCCCCCCCCCCCCCCCCCCCCCCCCC(=O)[O-]
REMARK SMILES IDX 16 1 17 2 18 3 19 4 20 5 21 6 22 7 23 8 24 9 25 10 26 11
REMARK SMILES IDX 27 12 28 13 29 14 30 15 31 16 32 17 15 18 14 19 13 20 12 21
REMARK SMILES IDX 11 22 10 23 9 24 8 25 7 26 6 27 5 28 4 29 3 30 2 31 1 32
REMARK H PARENT
REMARK Flexibility Score: inf
ROOT
ATOM      1  C   UNL     1      84.294  67.387 105.060  1.00  0.00     0.000 C 
ENDROOT
BRANCH   1   2
ATOM      2  C   UNL     1      84.263  66.835 106.497  1.00  0.00     0.000 C 
BRANCH   2   3
ATOM      3  C   UNL     1      85.660  66.462 107.021  1.00  0.00     0.000 C 
BRANCH   3   4
ATOM      4  C   UNL     1      85.601  65.524 108.240  1.00  0.00     0.000 C 
BRANCH   4   5
ATOM      5  C   UNL     1      86.237  64.154 107.959  1.00  0.00     0.000 C 
BRANCH   5   6
ATOM      6  C   UNL     1      85.969  63.660 106.525  1.00  0.00     0.000 C 
BRANCH   6   7
ATOM      7  C   UNL     1      84.469  63.544 106.217  1.00  0.00     0.000 C 
BRANCH   7   8
ATOM      8  C   UNL     1      84.154  62.393 105.244  1.00  0.00     0.000 C 
BRANCH   8   9
ATOM      9  C   UNL     1      84.388  62.784 103.776  1.00  0.00     0.000 C 
BRANCH   9  10
ATOM     10  C   UNL     1      83.234  62.340 102.858  1.00  0.00     0.000 C 
BRANCH  10  11
ATOM     11  C   UNL     1      83.566  62.531 101.362  1.00  0.00     0.000 C 
BRANCH  11  12
ATOM     12  C   UNL     1      84.999  63.040 101.106  1.00  0.00     0.000 C 
BRANCH  12  13
ATOM     13  C   UNL     1      85.655  62.516  99.814  1.00  0.00     0.006 C 
BRANCH  13  14
ATOM     14  C   UNL     1      85.975  63.604  98.778  1.00  0.00     0.053 C 
BRANCH  14  15
ATOM     15  C   UNL     1      86.200  64.940  99.420  1.00  0.00     0.041 C 
ATOM     16  O   UNL     1      85.228  65.596  99.880  1.00  0.00    -0.550 OA
ATOM     17  O   UNL     1      87.482  65.473  99.482  1.00  0.00    -0.550 OA
ENDBRANCH  14  15
ENDBRANCH  13  14
ENDBRANCH  12  13
ENDBRANCH  11  12
ENDBRANCH  10  11
ENDBRANCH   9  10
ENDBRANCH   8   9
ENDBRANCH   7   8
ENDBRANCH   6   7
ENDBRANCH   5   6
ENDBRANCH   4   5
ENDBRANCH   3   4
ENDBRANCH   2   3
ENDBRANCH   1   2
BRANCH   1  18
ATOM     18  C   UNL     1      82.882  67.459 104.438  1.00  0.00     0.000 C 
BRANCH  18  19
ATOM     19  C   UNL     1      82.061  66.170 104.608  1.00  0.00     0.000 C 
BRANCH  19  20
ATOM     20  C   UNL     1      81.709  65.504 103.266  1.00  0.00     0.000 C 
BRANCH  20  21
ATOM     21  C   UNL     1      80.234  65.708 102.859  1.00  0.00     0.000 C 
BRANCH  21  22
ATOM     22  C   UNL     1      79.679  64.621 101.917  1.00  0.00     0.000 C 
BRANCH  22  23
ATOM     23  C   UNL     1      78.185  64.291 102.096  1.00  0.00     0.000 C 
BRANCH  23  24
ATOM     24  C   UNL     1      77.480  63.714 100.850  1.00  0.00    -0.000 C 
BRANCH  24  25
ATOM     25  C   UNL     1      75.944  63.804 100.862  1.00  0.00    -0.000 C 
BRANCH  25  26
ATOM     26  C   UNL     1      75.298  63.274  99.572  1.00  0.00    -0.000 C 
BRANCH  26  27
ATOM     27  C   UNL     1      74.992  64.390  98.558  1.00  0.00    -0.000 C 
BRANCH  27  28
ATOM     28  C   UNL     1      73.997  63.973  97.453  1.00  0.00    -0.000 C 
BRANCH  28  29
ATOM     29  C   UNL     1      74.699  63.736  96.103  1.00  0.00    -0.000 C 
BRANCH  29  30
ATOM     30  C   UNL     1      75.768  62.635  96.176  1.00  0.00    -0.000 C 
BRANCH  30  31
ATOM     31  C   UNL     1      75.454  61.577  97.244  1.00  0.00    -0.003 C 
ATOM     32  C   UNL     1      75.794  60.175  96.745  1.00  0.00     0.004 C 
ENDBRANCH  30  31
ENDBRANCH  29  30
ENDBRANCH  28  29
ENDBRANCH  27  28
ENDBRANCH  26  27
ENDBRANCH  25  26
ENDBRANCH  24  25
ENDBRANCH  23  24
ENDBRANCH  22  23
ENDBRANCH  21  22
ENDBRANCH  20  21
ENDBRANCH  19  20
ENDBRANCH  18  19
ENDBRANCH   1  18
TORSDOF 28
ENDMDL
