MODEL 1
REMARK VINA RESULT:    -5.896      0.000      0.000
REMARK INTER + INTRA:         -14.334
REMARK INTER:                 -12.789
REMARK INTRA:                  -1.546
REMARK UNBOUND:                -1.546
REMARK SMILES CCCCCCCCCCCCCCCCCCCCCC(=O)[O-]
REMARK SMILES IDX 12 1 11 2 10 3 9 4 8 5 7 6 6 7 5 8 4 9 3 10 2 11 1 12 13 13
REMARK SMILES IDX 14 14 15 15 16 16 17 17 18 18 19 19 20 20 21 21 22 22 23 23
REMARK SMILES IDX 24 24
REMARK H PARENT
REMARK Flexibility Score: inf
ROOT
ATOM      1  C   UNL     1     -17.227  -7.226  42.288  1.00  0.00     0.000 C 
ENDROOT
BRANCH   1   2
ATOM      2  C   UNL     1     -17.988  -6.611  41.099  1.00  0.00     0.000 C 
BRANCH   2   3
ATOM      3  C   UNL     1     -17.746  -7.289  39.734  1.00  0.00     0.000 C 
BRANCH   3   4
ATOM      4  C   UNL     1     -17.083  -6.397  38.669  1.00  0.00    -0.000 C 
BRANCH   4   5
ATOM      5  C   UNL     1     -16.107  -5.344  39.228  1.00  0.00    -0.000 C 
BRANCH   5   6
ATOM      6  C   UNL     1     -14.705  -5.395  38.580  1.00  0.00    -0.000 C 
BRANCH   6   7
ATOM      7  C   UNL     1     -14.727  -6.049  37.189  1.00  0.00    -0.000 C 
BRANCH   7   8
ATOM      8  C   UNL     1     -13.563  -7.029  36.970  1.00  0.00    -0.000 C 
BRANCH   8   9
ATOM      9  C   UNL     1     -12.752  -7.284  38.252  1.00  0.00    -0.000 C 
BRANCH   9  10
ATOM     10  C   UNL     1     -11.745  -8.435  38.093  1.00  0.00    -0.000 C 
BRANCH  10  11
ATOM     11  C   UNL     1     -11.057  -8.805  39.416  1.00  0.00    -0.003 C 
ATOM     12  C   UNL     1     -10.074  -9.955  39.220  1.00  0.00     0.004 C 
ENDBRANCH  10  11
ENDBRANCH   9  10
ENDBRANCH   8   9
ENDBRANCH   7   8
ENDBRANCH   6   7
ENDBRANCH   5   6
ENDBRANCH   4   5
ENDBRANCH   3   4
ENDBRANCH   2   3
ENDBRANCH   1   2
BRANCH   1  13
ATOM     13  C   UNL     1     -17.989  -7.104  43.617  1.00  0.00     0.000 C 
BRANCH  13  14
ATOM     14  C   UNL     1     -17.963  -8.403  44.441  1.00  0.00     0.000 C 
BRANCH  14  15
ATOM     15  C   UNL     1     -16.661  -9.217  44.271  1.00  0.00     0.000 C 
BRANCH  15  16
ATOM     16  C   UNL     1     -16.559 -10.361  45.295  1.00  0.00     0.000 C 
BRANCH  16  17
ATOM     17  C   UNL     1     -17.387 -10.099  46.563  1.00  0.00     0.000 C 
BRANCH  17  18
ATOM     18  C   UNL     1     -16.512  -9.949  47.822  1.00  0.00     0.000 C 
BRANCH  18  19
ATOM     19  C   UNL     1     -15.368 -10.973  47.878  1.00  0.00     0.000 C 
BRANCH  19  20
ATOM     20  C   UNL     1     -13.996 -10.319  48.116  1.00  0.00     0.006 C 
BRANCH  20  21
ATOM     21  C   UNL     1     -12.964 -10.827  47.105  1.00  0.00     0.053 C 
BRANCH  21  22
ATOM     22  C   UNL     1     -12.705  -9.797  46.049  1.00  0.00     0.041 C 
ATOM     23  O   UNL     1     -13.474  -8.806  45.926  1.00  0.00    -0.550 OA
ATOM     24  O   UNL     1     -11.602  -9.920  45.210  1.00  0.00    -0.550 OA
ENDBRANCH  21  22
ENDBRANCH  20  21
ENDBRANCH  19  20
ENDBRANCH  18  19
ENDBRANCH  17  18
ENDBRANCH  16  17
ENDBRANCH  15  16
ENDBRANCH  14  15
ENDBRANCH  13  14
ENDBRANCH   1  13
TORSDOF 20
ENDMDL
MODEL 2
REMARK VINA RESULT:    -5.853      2.466      7.424
REMARK INTER + INTRA:         -14.241
REMARK INTER:                 -11.769
REMARK INTRA:                  -2.472
REMARK UNBOUND:                -1.546
REMARK SMILES CCCCCCCCCCCCCCCCCCCCCC(=O)[O-]
REMARK SMILES IDX 12 1 11 2 10 3 9 4 8 5 7 6 6 7 5 8 4 9 3 10 2 11 1 12 13 13
REMARK SMILES IDX 14 14 15 15 16 16 17 17 18 18 19 19 20 20 21 21 22 22 23 23
REMARK SMILES IDX 24 24
REMARK H PARENT
REMARK Flexibility Score: inf
ROOT
ATOM      1  C   UNL     1     -17.308  -6.680  41.360  1.00  0.00     0.000 C 
ENDROOT
BRANCH   1   2
ATOM      2  C   UNL     1     -18.096  -7.341  42.505  1.00  0.00     0.000 C 
BRANCH   2   3
ATOM      3  C   UNL     1     -17.798  -8.837  42.739  1.00  0.00     0.000 C 
BRANCH   3   4
ATOM      4  C   UNL     1     -17.468  -9.218  44.194  1.00  0.00    -0.000 C 
BRANCH   4   5
ATOM      5  C   UNL     1     -16.498 -10.406  44.344  1.00  0.00    -0.000 C 
BRANCH   5   6
ATOM      6  C   UNL     1     -15.407 -10.182  45.415  1.00  0.00    -0.000 C 
BRANCH   6   7
ATOM      7  C   UNL     1     -15.520  -8.803  46.086  1.00  0.00    -0.000 C 
BRANCH   7   8
ATOM      8  C   UNL     1     -14.307  -7.901  45.810  1.00  0.00    -0.000 C 
BRANCH   8   9
ATOM      9  C   UNL     1     -14.057  -7.685  44.306  1.00  0.00    -0.000 C 
BRANCH   9  10
ATOM     10  C   UNL     1     -14.662  -6.369  43.792  1.00  0.00    -0.000 C 
BRANCH  10  11
ATOM     11  C   UNL     1     -14.006  -5.886  42.490  1.00  0.00    -0.003 C 
ATOM     12  C   UNL     1     -12.632  -6.520  42.299  1.00  0.00     0.004 C 
ENDBRANCH  10  11
ENDBRANCH   9  10
ENDBRANCH   8   9
ENDBRANCH   7   8
ENDBRANCH   6   7
ENDBRANCH   5   6
ENDBRANCH   4   5
ENDBRANCH   3   4
ENDBRANCH   2   3
ENDBRANCH   1   2
BRANCH   1  13
ATOM     13  C   UNL     1     -17.859  -7.034  39.969  1.00  0.00     0.000 C 
BRANCH  13  14
ATOM     14  C   UNL     1     -16.986  -6.489  38.826  1.00  0.00     0.000 C 
BRANCH  14  15
ATOM     15  C   UNL     1     -16.120  -5.277  39.232  1.00  0.00     0.000 C 
BRANCH  15  16
ATOM     16  C   UNL     1     -14.765  -5.266  38.503  1.00  0.00     0.000 C 
BRANCH  16  17
ATOM     17  C   UNL     1     -14.762  -6.140  37.239  1.00  0.00     0.000 C 
BRANCH  17  18
ATOM     18  C   UNL     1     -13.525  -7.052  37.151  1.00  0.00     0.000 C 
BRANCH  18  19
ATOM     19  C   UNL     1     -12.788  -7.187  38.493  1.00  0.00     0.000 C 
BRANCH  19  20
ATOM     20  C   UNL     1     -11.435  -7.906  38.358  1.00  0.00     0.006 C 
BRANCH  20  21
ATOM     21  C   UNL     1     -11.089  -8.669  39.640  1.00  0.00     0.053 C 
BRANCH  21  22
ATOM     22  C   UNL     1     -10.147  -9.796  39.348  1.00  0.00     0.041 C 
ATOM     23  O   UNL     1      -9.586  -9.880  38.223  1.00  0.00    -0.550 OA
ATOM     24  O   UNL     1      -9.872 -10.746  40.326  1.00  0.00    -0.550 OA
ENDBRANCH  21  22
ENDBRANCH  20  21
ENDBRANCH  19  20
ENDBRANCH  18  19
ENDBRANCH  17  18
ENDBRANCH  16  17
ENDBRANCH  15  16
ENDBRANCH  14  15
ENDBRANCH  13  14
ENDBRANCH   1  13
TORSDOF 20
ENDMDL
MODEL 3
REMARK VINA RESULT:    -5.818      1.926      8.114
REMARK INTER + INTRA:         -14.167
REMARK INTER:                 -12.369
REMARK INTRA:                  -1.798
REMARK UNBOUND:                -1.546
REMARK SMILES CCCCCCCCCCCCCCCCCCCCCC(=O)[O-]
REMARK SMILES IDX 12 1 11 2 10 3 9 4 8 5 7 6 6 7 5 8 4 9 3 10 2 11 1 12 13 13
REMARK SMILES IDX 14 14 15 15 16 16 17 17 18 18 19 19 20 20 21 21 22 22 23 23
REMARK SMILES IDX 24 24
REMARK H PARENT
REMARK Flexibility Score: inf
ROOT
ATOM      1  C   UNL     1     -15.757  -6.107  41.560  1.00  0.00     0.000 C 
ENDROOT
BRANCH   1   2
ATOM      2  C   UNL     1     -15.858  -6.456  43.056  1.00  0.00     0.000 C 
BRANCH   2   3
ATOM      3  C   UNL     1     -17.235  -6.970  43.526  1.00  0.00     0.000 C 
BRANCH   3   4
ATOM      4  C   UNL     1     -17.282  -7.480  44.978  1.00  0.00    -0.000 C 
BRANCH   4   5
ATOM      5  C   UNL     1     -17.651  -8.968  45.127  1.00  0.00    -0.000 C 
BRANCH   5   6
ATOM      6  C   UNL     1     -17.058  -9.866  44.018  1.00  0.00    -0.000 C 
BRANCH   6   7
ATOM      7  C   UNL     1     -16.169 -10.985  44.585  1.00  0.00    -0.000 C 
BRANCH   7   8
ATOM      8  C   UNL     1     -15.169 -10.480  45.637  1.00  0.00    -0.000 C 
BRANCH   8   9
ATOM      9  C   UNL     1     -15.203 -11.306  46.935  1.00  0.00    -0.000 C 
BRANCH   9  10
ATOM     10  C   UNL     1     -15.022 -10.437  48.191  1.00  0.00    -0.000 C 
BRANCH  10  11
ATOM     11  C   UNL     1     -16.257  -9.576  48.497  1.00  0.00    -0.003 C 
ATOM     12  C   UNL     1     -15.925  -8.090  48.413  1.00  0.00     0.004 C 
ENDBRANCH  10  11
ENDBRANCH   9  10
ENDBRANCH   8   9
ENDBRANCH   7   8
ENDBRANCH   6   7
ENDBRANCH   5   6
ENDBRANCH   4   5
ENDBRANCH   3   4
ENDBRANCH   2   3
ENDBRANCH   1   2
BRANCH   1  13
ATOM     13  C   UNL     1     -17.042  -6.427  40.780  1.00  0.00     0.000 C 
BRANCH  13  14
ATOM     14  C   UNL     1     -17.024  -5.871  39.346  1.00  0.00     0.000 C 
BRANCH  14  15
ATOM     15  C   UNL     1     -15.649  -5.314  38.916  1.00  0.00     0.000 C 
BRANCH  15  16
ATOM     16  C   UNL     1     -15.004  -6.163  37.807  1.00  0.00     0.000 C 
BRANCH  16  17
ATOM     17  C   UNL     1     -13.621  -6.705  38.203  1.00  0.00     0.000 C 
BRANCH  17  18
ATOM     18  C   UNL     1     -12.910  -7.421  37.040  1.00  0.00     0.000 C 
BRANCH  18  19
ATOM     19  C   UNL     1     -11.549  -8.010  37.446  1.00  0.00     0.000 C 
BRANCH  19  20
ATOM     20  C   UNL     1     -11.491  -8.400  38.933  1.00  0.00     0.006 C 
BRANCH  20  21
ATOM     21  C   UNL     1     -10.562  -9.598  39.149  1.00  0.00     0.053 C 
BRANCH  21  22
ATOM     22  C   UNL     1      -9.955  -9.559  40.518  1.00  0.00     0.041 C 
ATOM     23  O   UNL     1      -9.539  -8.470  40.996  1.00  0.00    -0.550 OA
ATOM     24  O   UNL     1      -9.867 -10.722  41.275  1.00  0.00    -0.550 OA
ENDBRANCH  21  22
ENDBRANCH  20  21
ENDBRANCH  19  20
ENDBRANCH  18  19
ENDBRANCH  17  18
ENDBRANCH  16  17
ENDBRANCH  15  16
ENDBRANCH  14  15
ENDBRANCH  13  14
ENDBRANCH   1  13
TORSDOF 20
ENDMDL
MODEL 4
REMARK VINA RESULT:    -5.778      1.582      2.148
REMARK INTER + INTRA:         -14.079
REMARK INTER:                 -12.642
REMARK INTRA:                  -1.438
REMARK UNBOUND:                -1.546
REMARK SMILES CCCCCCCCCCCCCCCCCCCCCC(=O)[O-]
REMARK SMILES IDX 12 1 11 2 10 3 9 4 8 5 7 6 6 7 5 8 4 9 3 10 2 11 1 12 13 13
REMARK SMILES IDX 14 14 15 15 16 16 17 17 18 18 19 19 20 20 21 21 22 22 23 23
REMARK SMILES IDX 24 24
REMARK H PARENT
REMARK Flexibility Score: inf
ROOT
ATOM      1  C   UNL     1     -17.585  -6.897  43.095  1.00  0.00     0.000 C 
ENDROOT
BRANCH   1   2
ATOM      2  C   UNL     1     -16.704  -6.490  41.900  1.00  0.00     0.000 C 
BRANCH   2   3
ATOM      3  C   UNL     1     -17.366  -6.617  40.513  1.00  0.00     0.000 C 
BRANCH   3   4
ATOM      4  C   UNL     1     -16.849  -5.632  39.448  1.00  0.00    -0.000 C 
BRANCH   4   5
ATOM      5  C   UNL     1     -16.380  -6.290  38.136  1.00  0.00    -0.000 C 
BRANCH   5   6
ATOM      6  C   UNL     1     -14.999  -5.792  37.654  1.00  0.00    -0.000 C 
BRANCH   6   7
ATOM      7  C   UNL     1     -13.846  -6.657  38.189  1.00  0.00    -0.000 C 
BRANCH   7   8
ATOM      8  C   UNL     1     -13.061  -7.365  37.073  1.00  0.00    -0.000 C 
BRANCH   8   9
ATOM      9  C   UNL     1     -11.802  -8.081  37.593  1.00  0.00    -0.000 C 
BRANCH   9  10
ATOM     10  C   UNL     1     -11.396  -7.611  38.999  1.00  0.00    -0.000 C 
BRANCH  10  11
ATOM     11  C   UNL     1     -10.989  -8.774  39.917  1.00  0.00    -0.003 C 
ATOM     12  C   UNL     1     -10.249  -9.855  39.137  1.00  0.00     0.004 C 
ENDBRANCH  10  11
ENDBRANCH   9  10
ENDBRANCH   8   9
ENDBRANCH   7   8
ENDBRANCH   6   7
ENDBRANCH   5   6
ENDBRANCH   4   5
ENDBRANCH   3   4
ENDBRANCH   2   3
ENDBRANCH   1   2
BRANCH   1  13
ATOM     13  C   UNL     1     -17.840  -8.411  43.166  1.00  0.00     0.000 C 
BRANCH  13  14
ATOM     14  C   UNL     1     -17.434  -9.021  44.518  1.00  0.00     0.000 C 
BRANCH  14  15
ATOM     15  C   UNL     1     -16.671 -10.359  44.390  1.00  0.00     0.000 C 
BRANCH  15  16
ATOM     16  C   UNL     1     -15.296 -10.306  45.077  1.00  0.00     0.000 C 
BRANCH  16  17
ATOM     17  C   UNL     1     -15.264 -11.084  46.403  1.00  0.00     0.000 C 
BRANCH  17  18
ATOM     18  C   UNL     1     -16.274 -10.544  47.432  1.00  0.00     0.000 C 
BRANCH  18  19
ATOM     19  C   UNL     1     -15.613 -10.141  48.760  1.00  0.00     0.000 C 
BRANCH  19  20
ATOM     20  C   UNL     1     -15.733  -8.635  49.049  1.00  0.00     0.006 C 
BRANCH  20  21
ATOM     21  C   UNL     1     -16.323  -7.891  47.847  1.00  0.00     0.053 C 
BRANCH  21  22
ATOM     22  C   UNL     1     -15.320  -6.940  47.268  1.00  0.00     0.041 C 
ATOM     23  O   UNL     1     -15.115  -6.913  46.026  1.00  0.00    -0.550 OA
ATOM     24  O   UNL     1     -14.625  -6.070  48.100  1.00  0.00    -0.550 OA
ENDBRANCH  21  22
ENDBRANCH  20  21
ENDBRANCH  19  20
ENDBRANCH  18  19
ENDBRANCH  17  18
ENDBRANCH  16  17
ENDBRANCH  15  16
ENDBRANCH  14  15
ENDBRANCH  13  14
ENDBRANCH   1  13
TORSDOF 20
ENDMDL
MODEL 5
REMARK VINA RESULT:    -5.726      1.486      2.575
REMARK INTER + INTRA:         -13.967
REMARK INTER:                 -12.314
REMARK INTRA:                  -1.653
REMARK UNBOUND:                -1.546
REMARK SMILES CCCCCCCCCCCCCCCCCCCCCC(=O)[O-]
REMARK SMILES IDX 12 1 11 2 10 3 9 4 8 5 7 6 6 7 5 8 4 9 3 10 2 11 1 12 13 13
REMARK SMILES IDX 14 14 15 15 16 16 17 17 18 18 19 19 20 20 21 21 22 22 23 23
REMARK SMILES IDX 24 24
REMARK H PARENT
REMARK Flexibility Score: inf
ROOT
ATOM      1  C   UNL     1     -15.342  -6.097  41.254  1.00  0.00     0.000 C 
ENDROOT
BRANCH   1   2
ATOM      2  C   UNL     1     -16.652  -6.121  40.446  1.00  0.00     0.000 C 
BRANCH   2   3
ATOM      3  C   UNL     1     -16.495  -5.945  38.921  1.00  0.00     0.000 C 
BRANCH   3   4
ATOM      4  C   UNL     1     -15.073  -5.594  38.446  1.00  0.00    -0.000 C 
BRANCH   4   5
ATOM      5  C   UNL     1     -14.779  -5.946  36.976  1.00  0.00    -0.000 C 
BRANCH   5   6
ATOM      6  C   UNL     1     -13.599  -6.928  36.798  1.00  0.00    -0.000 C 
BRANCH   6   7
ATOM      7  C   UNL     1     -12.923  -7.277  38.134  1.00  0.00    -0.000 C 
BRANCH   7   8
ATOM      8  C   UNL     1     -11.894  -8.412  38.005  1.00  0.00    -0.000 C 
BRANCH   8   9
ATOM      9  C   UNL     1     -10.668  -8.209  38.912  1.00  0.00    -0.000 C 
BRANCH   9  10
ATOM     10  C   UNL     1     -10.214  -9.513  39.588  1.00  0.00    -0.000 C 
BRANCH  10  11
ATOM     11  C   UNL     1     -10.104  -9.380  41.115  1.00  0.00    -0.003 C 
ATOM     12  C   UNL     1      -9.935 -10.744  41.775  1.00  0.00     0.004 C 
ENDBRANCH  10  11
ENDBRANCH   9  10
ENDBRANCH   8   9
ENDBRANCH   7   8
ENDBRANCH   6   7
ENDBRANCH   5   6
ENDBRANCH   4   5
ENDBRANCH   3   4
ENDBRANCH   2   3
ENDBRANCH   1   2
BRANCH   1  13
ATOM     13  C   UNL     1     -15.549  -6.416  42.743  1.00  0.00     0.000 C 
BRANCH  13  14
ATOM     14  C   UNL     1     -17.033  -6.474  43.140  1.00  0.00     0.000 C 
BRANCH  14  15
ATOM     15  C   UNL     1     -17.565  -7.909  43.345  1.00  0.00     0.000 C 
BRANCH  15  16
ATOM     16  C   UNL     1     -18.098  -8.129  44.771  1.00  0.00     0.000 C 
BRANCH  16  17
ATOM     17  C   UNL     1     -17.441  -9.328  45.474  1.00  0.00     0.000 C 
BRANCH  17  18
ATOM     18  C   UNL     1     -16.684 -10.246  44.497  1.00  0.00     0.000 C 
BRANCH  18  19
ATOM     19  C   UNL     1     -15.298 -10.658  45.019  1.00  0.00     0.000 C 
BRANCH  19  20
ATOM     20  C   UNL     1     -14.352  -9.459  45.201  1.00  0.00     0.006 C 
BRANCH  20  21
ATOM     21  C   UNL     1     -13.466  -9.642  46.437  1.00  0.00     0.053 C 
BRANCH  21  22
ATOM     22  C   UNL     1     -14.271  -9.494  47.692  1.00  0.00     0.041 C 
ATOM     23  O   UNL     1     -14.256 -10.401  48.566  1.00  0.00    -0.550 OA
ATOM     24  O   UNL     1     -15.022  -8.344  47.906  1.00  0.00    -0.550 OA
ENDBRANCH  21  22
ENDBRANCH  20  21
ENDBRANCH  19  20
ENDBRANCH  18  19
ENDBRANCH  17  18
ENDBRANCH  16  17
ENDBRANCH  15  16
ENDBRANCH  14  15
ENDBRANCH  13  14
ENDBRANCH   1  13
TORSDOF 20
ENDMDL
MODEL 6
REMARK VINA RESULT:    -5.724      2.621      7.867
REMARK INTER + INTRA:         -13.963
REMARK INTER:                 -12.219
REMARK INTRA:                  -1.743
REMARK UNBOUND:                -1.546
REMARK SMILES CCCCCCCCCCCCCCCCCCCCCC(=O)[O-]
REMARK SMILES IDX 12 1 11 2 10 3 9 4 8 5 7 6 6 7 5 8 4 9 3 10 2 11 1 12 13 13
REMARK SMILES IDX 14 14 15 15 16 16 17 17 18 18 19 19 20 20 21 21 22 22 23 23
REMARK SMILES IDX 24 24
REMARK H PARENT
REMARK Flexibility Score: inf
ROOT
ATOM      1  C   UNL     1     -17.758  -6.932  41.081  1.00  0.00     0.000 C 
ENDROOT
BRANCH   1   2
ATOM      2  C   UNL     1     -17.877  -6.965  42.615  1.00  0.00     0.000 C 
BRANCH   2   3
ATOM      3  C   UNL     1     -16.654  -6.427  43.387  1.00  0.00     0.000 C 
BRANCH   3   4
ATOM      4  C   UNL     1     -16.477  -6.993  44.808  1.00  0.00    -0.000 C 
BRANCH   4   5
ATOM      5  C   UNL     1     -17.716  -7.712  45.374  1.00  0.00    -0.000 C 
BRANCH   5   6
ATOM      6  C   UNL     1     -17.485  -9.213  45.659  1.00  0.00    -0.000 C 
BRANCH   6   7
ATOM      7  C   UNL     1     -16.898  -9.955  44.447  1.00  0.00    -0.000 C 
BRANCH   7   8
ATOM      8  C   UNL     1     -15.831 -10.990  44.838  1.00  0.00    -0.000 C 
BRANCH   8   9
ATOM      9  C   UNL     1     -15.401 -10.873  46.310  1.00  0.00    -0.000 C 
BRANCH   9  10
ATOM     10  C   UNL     1     -13.929 -10.455  46.462  1.00  0.00    -0.000 C 
BRANCH  10  11
ATOM     11  C   UNL     1     -13.489  -9.443  45.393  1.00  0.00    -0.003 C 
ATOM     12  C   UNL     1     -12.041  -9.679  44.976  1.00  0.00     0.004 C 
ENDBRANCH  10  11
ENDBRANCH   9  10
ENDBRANCH   8   9
ENDBRANCH   7   8
ENDBRANCH   6   7
ENDBRANCH   5   6
ENDBRANCH   4   5
ENDBRANCH   3   4
ENDBRANCH   2   3
ENDBRANCH   1   2
BRANCH   1  13
ATOM     13  C   UNL     1     -16.496  -6.203  40.591  1.00  0.00     0.000 C 
BRANCH  13  14
ATOM     14  C   UNL     1     -16.700  -5.499  39.239  1.00  0.00     0.000 C 
BRANCH  14  15
ATOM     15  C   UNL     1     -16.100  -6.270  38.043  1.00  0.00     0.000 C 
BRANCH  15  16
ATOM     16  C   UNL     1     -14.700  -5.754  37.668  1.00  0.00     0.000 C 
BRANCH  16  17
ATOM     17  C   UNL     1     -13.975  -6.673  36.672  1.00  0.00     0.000 C 
BRANCH  17  18
ATOM     18  C   UNL     1     -12.858  -7.501  37.334  1.00  0.00     0.000 C 
BRANCH  18  19
ATOM     19  C   UNL     1     -12.531  -7.027  38.759  1.00  0.00     0.000 C 
BRANCH  19  20
ATOM     20  C   UNL     1     -11.762  -8.081  39.573  1.00  0.00     0.006 C 
BRANCH  20  21
ATOM     21  C   UNL     1     -10.262  -7.775  39.587  1.00  0.00     0.053 C 
BRANCH  21  22
ATOM     22  C   UNL     1      -9.595  -8.337  38.368  1.00  0.00     0.041 C 
ATOM     23  O   UNL     1      -8.713  -7.671  37.764  1.00  0.00    -0.550 OA
ATOM     24  O   UNL     1      -9.935  -9.605  37.910  1.00  0.00    -0.550 OA
ENDBRANCH  21  22
ENDBRANCH  20  21
ENDBRANCH  19  20
ENDBRANCH  18  19
ENDBRANCH  17  18
ENDBRANCH  16  17
ENDBRANCH  15  16
ENDBRANCH  14  15
ENDBRANCH  13  14
ENDBRANCH   1  13
TORSDOF 20
ENDMDL
MODEL 7
REMARK VINA RESULT:    -5.724      1.676      3.760
REMARK INTER + INTRA:         -13.963
REMARK INTER:                 -12.182
REMARK INTRA:                  -1.780
REMARK UNBOUND:                -1.546
REMARK SMILES CCCCCCCCCCCCCCCCCCCCCC(=O)[O-]
REMARK SMILES IDX 12 1 11 2 10 3 9 4 8 5 7 6 6 7 5 8 4 9 3 10 2 11 1 12 13 13
REMARK SMILES IDX 14 14 15 15 16 16 17 17 18 18 19 19 20 20 21 21 22 22 23 23
REMARK SMILES IDX 24 24
REMARK H PARENT
REMARK Flexibility Score: inf
ROOT
ATOM      1  C   UNL     1     -16.987  -6.477  38.645  1.00  0.00     0.000 C 
ENDROOT
BRANCH   1   2
ATOM      2  C   UNL     1     -15.505  -6.063  38.599  1.00  0.00     0.000 C 
BRANCH   2   3
ATOM      3  C   UNL     1     -14.947  -5.751  37.194  1.00  0.00     0.000 C 
BRANCH   3   4
ATOM      4  C   UNL     1     -13.981  -6.805  36.625  1.00  0.00    -0.000 C 
BRANCH   4   5
ATOM      5  C   UNL     1     -12.891  -7.277  37.606  1.00  0.00    -0.000 C 
BRANCH   5   6
ATOM      6  C   UNL     1     -12.118  -8.523  37.119  1.00  0.00    -0.000 C 
BRANCH   6   7
ATOM      7  C   UNL     1     -11.071  -8.998  38.141  1.00  0.00    -0.000 C 
BRANCH   7   8
ATOM      8  C   UNL     1     -10.738  -7.930  39.196  1.00  0.00    -0.000 C 
BRANCH   8   9
ATOM      9  C   UNL     1     -11.073  -8.384  40.628  1.00  0.00    -0.000 C 
BRANCH   9  10
ATOM     10  C   UNL     1     -11.544  -7.224  41.518  1.00  0.00    -0.000 C 
BRANCH  10  11
ATOM     11  C   UNL     1     -12.854  -6.592  41.022  1.00  0.00    -0.003 C 
ATOM     12  C   UNL     1     -12.943  -5.124  41.424  1.00  0.00     0.004 C 
ENDBRANCH  10  11
ENDBRANCH   9  10
ENDBRANCH   8   9
ENDBRANCH   7   8
ENDBRANCH   6   7
ENDBRANCH   5   6
ENDBRANCH   4   5
ENDBRANCH   3   4
ENDBRANCH   2   3
ENDBRANCH   1   2
BRANCH   1  13
ATOM     13  C   UNL     1     -17.615  -6.309  40.038  1.00  0.00     0.000 C 
BRANCH  13  14
ATOM     14  C   UNL     1     -16.579  -6.391  41.173  1.00  0.00     0.000 C 
BRANCH  14  15
ATOM     15  C   UNL     1     -17.194  -6.719  42.551  1.00  0.00     0.000 C 
BRANCH  15  16
ATOM     16  C   UNL     1     -17.904  -8.084  42.556  1.00  0.00     0.000 C 
BRANCH  16  17
ATOM     17  C   UNL     1     -17.629  -8.892  43.834  1.00  0.00     0.000 C 
BRANCH  17  18
ATOM     18  C   UNL     1     -16.883 -10.209  43.555  1.00  0.00     0.000 C 
BRANCH  18  19
ATOM     19  C   UNL     1     -16.123 -10.735  44.783  1.00  0.00     0.000 C 
BRANCH  19  20
ATOM     20  C   UNL     1     -16.545 -10.036  46.086  1.00  0.00     0.006 C 
BRANCH  20  21
ATOM     21  C   UNL     1     -15.326  -9.715  46.956  1.00  0.00     0.053 C 
BRANCH  21  22
ATOM     22  C   UNL     1     -14.592 -10.968  47.323  1.00  0.00     0.041 C 
ATOM     23  O   UNL     1     -15.225 -11.978  47.730  1.00  0.00    -0.550 OA
ATOM     24  O   UNL     1     -13.208 -11.027  47.199  1.00  0.00    -0.550 OA
ENDBRANCH  21  22
ENDBRANCH  20  21
ENDBRANCH  19  20
ENDBRANCH  18  19
ENDBRANCH  17  18
ENDBRANCH  16  17
ENDBRANCH  15  16
ENDBRANCH  14  15
ENDBRANCH  13  14
ENDBRANCH   1  13
TORSDOF 20
ENDMDL
MODEL 8
REMARK VINA RESULT:    -5.715      2.277      3.942
REMARK INTER + INTRA:         -13.942
REMARK INTER:                 -11.034
REMARK INTRA:                  -2.908
REMARK UNBOUND:                -1.546
REMARK SMILES CCCCCCCCCCCCCCCCCCCCCC(=O)[O-]
REMARK SMILES IDX 12 1 11 2 10 3 9 4 8 5 7 6 6 7 5 8 4 9 3 10 2 11 1 12 13 13
REMARK SMILES IDX 14 14 15 15 16 16 17 17 18 18 19 19 20 20 21 21 22 22 23 23
REMARK SMILES IDX 24 24
REMARK H PARENT
REMARK Flexibility Score: inf
ROOT
ATOM      1  C   UNL     1     -17.396  -9.389  43.479  1.00  0.00     0.000 C 
ENDROOT
BRANCH   1   2
ATOM      2  C   UNL     1     -17.640  -7.875  43.350  1.00  0.00     0.000 C 
BRANCH   2   3
ATOM      3  C   UNL     1     -16.776  -6.983  44.265  1.00  0.00     0.000 C 
BRANCH   3   4
ATOM      4  C   UNL     1     -15.397  -6.602  43.695  1.00  0.00    -0.000 C 
BRANCH   4   5
ATOM      5  C   UNL     1     -15.420  -6.088  42.243  1.00  0.00    -0.000 C 
BRANCH   5   6
ATOM      6  C   UNL     1     -14.028  -6.063  41.573  1.00  0.00    -0.000 C 
BRANCH   6   7
ATOM      7  C   UNL     1     -13.765  -4.749  40.819  1.00  0.00    -0.000 C 
BRANCH   7   8
ATOM      8  C   UNL     1     -14.539  -4.654  39.495  1.00  0.00    -0.000 C 
BRANCH   8   9
ATOM      9  C   UNL     1     -14.552  -5.981  38.717  1.00  0.00    -0.000 C 
BRANCH   9  10
ATOM     10  C   UNL     1     -15.861  -6.196  37.940  1.00  0.00    -0.000 C 
BRANCH  10  11
ATOM     11  C   UNL     1     -17.108  -5.928  38.798  1.00  0.00    -0.003 C 
ATOM     12  C   UNL     1     -17.617  -7.214  39.442  1.00  0.00     0.004 C 
ENDBRANCH  10  11
ENDBRANCH   9  10
ENDBRANCH   8   9
ENDBRANCH   7   8
ENDBRANCH   6   7
ENDBRANCH   5   6
ENDBRANCH   4   5
ENDBRANCH   3   4
ENDBRANCH   2   3
ENDBRANCH   1   2
BRANCH   1  13
ATOM     13  C   UNL     1     -16.976  -9.812  44.896  1.00  0.00     0.000 C 
BRANCH  13  14
ATOM     14  C   UNL     1     -15.716 -10.694  44.906  1.00  0.00     0.000 C 
BRANCH  14  15
ATOM     15  C   UNL     1     -14.425  -9.925  45.265  1.00  0.00     0.000 C 
BRANCH  15  16
ATOM     16  C   UNL     1     -13.677 -10.572  46.443  1.00  0.00     0.000 C 
BRANCH  16  17
ATOM     17  C   UNL     1     -14.613 -11.336  47.394  1.00  0.00     0.000 C 
BRANCH  17  18
ATOM     18  C   UNL     1     -14.906 -10.556  48.689  1.00  0.00     0.000 C 
BRANCH  18  19
ATOM     19  C   UNL     1     -16.162  -9.675  48.582  1.00  0.00     0.000 C 
BRANCH  19  20
ATOM     20  C   UNL     1     -15.884  -8.202  48.925  1.00  0.00     0.006 C 
BRANCH  20  21
ATOM     21  C   UNL     1     -15.325  -7.452  47.712  1.00  0.00     0.053 C 
BRANCH  21  22
ATOM     22  C   UNL     1     -14.001  -6.831  48.036  1.00  0.00     0.041 C 
ATOM     23  O   UNL     1     -13.925  -5.600  48.296  1.00  0.00    -0.550 OA
ATOM     24  O   UNL     1     -12.853  -7.614  48.070  1.00  0.00    -0.550 OA
ENDBRANCH  21  22
ENDBRANCH  20  21
ENDBRANCH  19  20
ENDBRANCH  18  19
ENDBRANCH  17  18
ENDBRANCH  16  17
ENDBRANCH  15  16
ENDBRANCH  14  15
ENDBRANCH  13  14
ENDBRANCH   1  13
TORSDOF 20
ENDMDL
MODEL 9
REMARK VINA RESULT:    -5.663      3.222      5.992
REMARK INTER + INTRA:         -13.830
REMARK INTER:                 -10.699
REMARK INTRA:                  -3.131
REMARK UNBOUND:                -1.546
REMARK SMILES CCCCCCCCCCCCCCCCCCCCCC(=O)[O-]
REMARK SMILES IDX 12 1 11 2 10 3 9 4 8 5 7 6 6 7 5 8 4 9 3 10 2 11 1 12 13 13
REMARK SMILES IDX 14 14 15 15 16 16 17 17 18 18 19 19 20 20 21 21 22 22 23 23
REMARK SMILES IDX 24 24
REMARK H PARENT
REMARK Flexibility Score: inf
ROOT
ATOM      1  C   UNL     1     -14.314  -9.593  45.757  1.00  0.00     0.000 C 
ENDROOT
BRANCH   1   2
ATOM      2  C   UNL     1     -15.171 -10.606  44.977  1.00  0.00     0.000 C 
BRANCH   2   3
ATOM      3  C   UNL     1     -16.657 -10.226  44.804  1.00  0.00     0.000 C 
BRANCH   3   4
ATOM      4  C   UNL     1     -17.376  -9.794  46.095  1.00  0.00    -0.000 C 
BRANCH   4   5
ATOM      5  C   UNL     1     -17.541  -8.271  46.262  1.00  0.00    -0.000 C 
BRANCH   5   6
ATOM      6  C   UNL     1     -17.794  -7.527  44.932  1.00  0.00    -0.000 C 
BRANCH   6   7
ATOM      7  C   UNL     1     -16.627  -6.601  44.550  1.00  0.00    -0.000 C 
BRANCH   7   8
ATOM      8  C   UNL     1     -16.258  -6.688  43.060  1.00  0.00    -0.000 C 
BRANCH   8   9
ATOM      9  C   UNL     1     -17.396  -7.263  42.199  1.00  0.00    -0.000 C 
BRANCH   9  10
ATOM     10  C   UNL     1     -17.702  -6.391  40.970  1.00  0.00    -0.000 C 
BRANCH  10  11
ATOM     11  C   UNL     1     -17.674  -7.189  39.657  1.00  0.00    -0.003 C 
ATOM     12  C   UNL     1     -16.945  -6.418  38.562  1.00  0.00     0.004 C 
ENDBRANCH  10  11
ENDBRANCH   9  10
ENDBRANCH   8   9
ENDBRANCH   7   8
ENDBRANCH   6   7
ENDBRANCH   5   6
ENDBRANCH   4   5
ENDBRANCH   3   4
ENDBRANCH   2   3
ENDBRANCH   1   2
BRANCH   1  13
ATOM     13  C   UNL     1     -13.457 -10.248  46.852  1.00  0.00     0.000 C 
BRANCH  13  14
ATOM     14  C   UNL     1     -14.098 -11.521  47.430  1.00  0.00     0.000 C 
BRANCH  14  15
ATOM     15  C   UNL     1     -15.105 -11.245  48.568  1.00  0.00     0.000 C 
BRANCH  15  16
ATOM     16  C   UNL     1     -14.704 -10.021  49.409  1.00  0.00     0.000 C 
BRANCH  16  17
ATOM     17  C   UNL     1     -15.810  -8.956  49.473  1.00  0.00     0.000 C 
BRANCH  17  18
ATOM     18  C   UNL     1     -15.253  -7.532  49.661  1.00  0.00     0.000 C 
BRANCH  18  19
ATOM     19  C   UNL     1     -14.845  -6.874  48.333  1.00  0.00     0.000 C 
BRANCH  19  20
ATOM     20  C   UNL     1     -13.320  -6.759  48.171  1.00  0.00     0.006 C 
BRANCH  20  21
ATOM     21  C   UNL     1     -12.609  -6.988  49.508  1.00  0.00     0.053 C 
BRANCH  21  22
ATOM     22  C   UNL     1     -11.212  -6.447  49.465  1.00  0.00     0.041 C 
ATOM     23  O   UNL     1     -10.229  -7.214  49.645  1.00  0.00    -0.550 OA
ATOM     24  O   UNL     1     -10.995  -5.098  49.206  1.00  0.00    -0.550 OA
ENDBRANCH  21  22
ENDBRANCH  20  21
ENDBRANCH  19  20
ENDBRANCH  18  19
ENDBRANCH  17  18
ENDBRANCH  16  17
ENDBRANCH  15  16
ENDBRANCH  14  15
ENDBRANCH  13  14
ENDBRANCH   1  13
TORSDOF 20
ENDMDL
