MODEL 1
REMARK VINA RESULT:    -3.633      0.000      0.000
REMARK INTER + INTRA:          -6.794
REMARK INTER:                  -5.544
REMARK INTRA:                  -1.250
REMARK UNBOUND:                -1.250
REMARK SMILES CCCCCCCCCCC(=O)[O-]
REMARK SMILES IDX 7 1 8 2 9 3 10 4 11 5 12 6 13 7 6 8 5 9 4 10 3 11 2 12 1 13
REMARK H PARENT
REMARK Flexibility Score: inf
ROOT
ATOM      1  C   UNL     1      -3.990  -2.628   5.402  1.00  0.00     0.000 C 
ENDROOT
BRANCH   1   2
ATOM      2  C   UNL     1      -3.958  -2.615   6.943  1.00  0.00     0.000 C 
BRANCH   2   3
ATOM      3  C   UNL     1      -4.686  -1.428   7.600  1.00  0.00     0.006 C 
BRANCH   3   4
ATOM      4  C   UNL     1      -5.376  -0.514   6.579  1.00  0.00     0.053 C 
BRANCH   4   5
ATOM      5  C   UNL     1      -5.632   0.834   7.174  1.00  0.00     0.041 C 
ATOM      6  O   UNL     1      -6.805   1.184   7.469  1.00  0.00    -0.550 OA
ATOM      7  O   UNL     1      -4.570   1.685   7.449  1.00  0.00    -0.550 OA
ENDBRANCH   4   5
ENDBRANCH   3   4
ENDBRANCH   2   3
ENDBRANCH   1   2
BRANCH   1   8
ATOM      8  C   UNL     1      -4.864  -3.730   4.776  1.00  0.00     0.000 C 
BRANCH   8   9
ATOM      9  C   UNL     1      -5.493  -4.660   5.823  1.00  0.00    -0.000 C 
BRANCH   9  10
ATOM     10  C   UNL     1      -7.008  -4.444   5.908  1.00  0.00    -0.000 C 
BRANCH  10  11
ATOM     11  C   UNL     1      -7.447  -4.183   7.354  1.00  0.00    -0.000 C 
BRANCH  11  12
ATOM     12  C   UNL     1      -8.196  -2.850   7.470  1.00  0.00    -0.003 C 
ATOM     13  C   UNL     1      -8.410  -2.217   6.098  1.00  0.00     0.004 C 
ENDBRANCH  11  12
ENDBRANCH  10  11
ENDBRANCH   9  10
ENDBRANCH   8   9
ENDBRANCH   1   8
TORSDOF 9
ENDMDL
MODEL 2
REMARK VINA RESULT:    -3.594      1.134      3.335
REMARK INTER + INTRA:          -6.734
REMARK INTER:                  -5.700
REMARK INTRA:                  -1.034
REMARK UNBOUND:                -1.250
REMARK SMILES CCCCCCCCCCC(=O)[O-]
REMARK SMILES IDX 7 1 8 2 9 3 10 4 11 5 12 6 13 7 6 8 5 9 4 10 3 11 2 12 1 13
REMARK H PARENT
REMARK Flexibility Score: inf
ROOT
ATOM      1  C   UNL     1      -6.313  -3.284   7.583  1.00  0.00     0.000 C 
ENDROOT
BRANCH   1   2
ATOM      2  C   UNL     1      -7.407  -2.425   6.918  1.00  0.00     0.000 C 
BRANCH   2   3
ATOM      3  C   UNL     1      -6.895  -1.178   6.175  1.00  0.00     0.006 C 
BRANCH   3   4
ATOM      4  C   UNL     1      -5.598  -0.620   6.772  1.00  0.00     0.053 C 
BRANCH   4   5
ATOM      5  C   UNL     1      -5.766   0.822   7.131  1.00  0.00     0.041 C 
ATOM      6  O   UNL     1      -4.784   1.609   7.071  1.00  0.00    -0.550 OA
ATOM      7  O   UNL     1      -7.018   1.310   7.483  1.00  0.00    -0.550 OA
ENDBRANCH   4   5
ENDBRANCH   3   4
ENDBRANCH   2   3
ENDBRANCH   1   2
BRANCH   1   8
ATOM      8  C   UNL     1      -5.902  -4.542   6.796  1.00  0.00     0.000 C 
BRANCH   8   9
ATOM      9  C   UNL     1      -5.942  -4.334   5.275  1.00  0.00    -0.000 C 
BRANCH   9  10
ATOM     10  C   UNL     1      -4.578  -3.876   4.747  1.00  0.00    -0.000 C 
BRANCH  10  11
ATOM     11  C   UNL     1      -3.455  -4.254   5.721  1.00  0.00    -0.000 C 
BRANCH  11  12
ATOM     12  C   UNL     1      -2.574  -3.041   6.043  1.00  0.00    -0.003 C 
ATOM     13  C   UNL     1      -2.439  -2.843   7.550  1.00  0.00     0.004 C 
ENDBRANCH  11  12
ENDBRANCH  10  11
ENDBRANCH   9  10
ENDBRANCH   8   9
ENDBRANCH   1   8
TORSDOF 9
ENDMDL
MODEL 3
REMARK VINA RESULT:    -3.531      0.997      2.975
REMARK INTER + INTRA:          -6.638
REMARK INTER:                  -5.397
REMARK INTRA:                  -1.241
REMARK UNBOUND:                -1.250
REMARK SMILES CCCCCCCCCCC(=O)[O-]
REMARK SMILES IDX 7 1 8 2 9 3 10 4 11 5 12 6 13 7 6 8 5 9 4 10 3 11 2 12 1 13
REMARK H PARENT
REMARK Flexibility Score: inf
ROOT
ATOM      1  C   UNL     1      -7.447  -2.415   6.793  1.00  0.00     0.000 C 
ENDROOT
BRANCH   1   2
ATOM      2  C   UNL     1      -6.717  -2.030   5.491  1.00  0.00     0.000 C 
BRANCH   2   3
ATOM      3  C   UNL     1      -5.642  -0.939   5.645  1.00  0.00     0.006 C 
BRANCH   3   4
ATOM      4  C   UNL     1      -5.361  -0.583   7.110  1.00  0.00     0.053 C 
BRANCH   4   5
ATOM      5  C   UNL     1      -5.631   0.868   7.356  1.00  0.00     0.041 C 
ATOM      6  O   UNL     1      -6.804   1.262   7.590  1.00  0.00    -0.550 OA
ATOM      7  O   UNL     1      -4.582   1.777   7.376  1.00  0.00    -0.550 OA
ENDBRANCH   4   5
ENDBRANCH   3   4
ENDBRANCH   2   3
ENDBRANCH   1   2
BRANCH   1   8
ATOM      8  C   UNL     1      -7.410  -3.913   7.144  1.00  0.00     0.000 C 
BRANCH   8   9
ATOM      9  C   UNL     1      -6.868  -4.781   6.000  1.00  0.00    -0.000 C 
BRANCH   9  10
ATOM     10  C   UNL     1      -5.610  -5.540   6.436  1.00  0.00    -0.000 C 
BRANCH  10  11
ATOM     11  C   UNL     1      -4.353  -4.935   5.798  1.00  0.00    -0.000 C 
BRANCH  11  12
ATOM     12  C   UNL     1      -3.663  -3.960   6.759  1.00  0.00    -0.003 C 
ATOM     13  C   UNL     1      -2.692  -3.047   6.015  1.00  0.00     0.004 C 
ENDBRANCH  11  12
ENDBRANCH  10  11
ENDBRANCH   9  10
ENDBRANCH   8   9
ENDBRANCH   1   8
TORSDOF 9
ENDMDL
MODEL 4
REMARK VINA RESULT:    -3.524      1.212      1.808
REMARK INTER + INTRA:          -6.628
REMARK INTER:                  -5.820
REMARK INTRA:                  -0.808
REMARK UNBOUND:                -1.250
REMARK SMILES CCCCCCCCCCC(=O)[O-]
REMARK SMILES IDX 7 1 8 2 9 3 10 4 11 5 12 6 13 7 6 8 5 9 4 10 3 11 2 12 1 13
REMARK H PARENT
REMARK Flexibility Score: inf
ROOT
ATOM      1  C   UNL     1      -2.884  -3.042   5.853  1.00  0.00     0.000 C 
ENDROOT
BRANCH   1   2
ATOM      2  C   UNL     1      -4.308  -2.491   5.642  1.00  0.00     0.000 C 
BRANCH   2   3
ATOM      3  C   UNL     1      -4.777  -1.473   6.696  1.00  0.00     0.006 C 
BRANCH   3   4
ATOM      4  C   UNL     1      -5.740  -0.424   6.125  1.00  0.00     0.053 C 
BRANCH   4   5
ATOM      5  C   UNL     1      -5.814   0.764   7.030  1.00  0.00     0.041 C 
ATOM      6  O   UNL     1      -6.926   1.151   7.477  1.00  0.00    -0.550 OA
ATOM      7  O   UNL     1      -4.651   1.415   7.420  1.00  0.00    -0.550 OA
ENDBRANCH   4   5
ENDBRANCH   3   4
ENDBRANCH   2   3
ENDBRANCH   1   2
BRANCH   1   8
ATOM      8  C   UNL     1      -2.813  -4.498   6.348  1.00  0.00     0.000 C 
BRANCH   8   9
ATOM      9  C   UNL     1      -4.084  -4.939   7.088  1.00  0.00    -0.000 C 
BRANCH   9  10
ATOM     10  C   UNL     1      -4.820  -6.035   6.308  1.00  0.00    -0.000 C 
BRANCH  10  11
ATOM     11  C   UNL     1      -6.327  -5.993   6.588  1.00  0.00    -0.000 C 
BRANCH  11  12
ATOM     12  C   UNL     1      -7.068  -5.212   5.496  1.00  0.00    -0.003 C 
ATOM     13  C   UNL     1      -7.650  -3.913   6.046  1.00  0.00     0.004 C 
ENDBRANCH  11  12
ENDBRANCH  10  11
ENDBRANCH   9  10
ENDBRANCH   8   9
ENDBRANCH   1   8
TORSDOF 9
ENDMDL
MODEL 5
REMARK VINA RESULT:    -3.488      1.138      1.881
REMARK INTER + INTRA:          -6.573
REMARK INTER:                  -5.746
REMARK INTRA:                  -0.827
REMARK UNBOUND:                -1.250
REMARK SMILES CCCCCCCCCCC(=O)[O-]
REMARK SMILES IDX 7 1 8 2 9 3 10 4 11 5 12 6 13 7 6 8 5 9 4 10 3 11 2 12 1 13
REMARK H PARENT
REMARK Flexibility Score: inf
ROOT
ATOM      1  C   UNL     1      -3.764  -2.827   5.434  1.00  0.00     0.000 C 
ENDROOT
BRANCH   1   2
ATOM      2  C   UNL     1      -3.925  -2.274   6.864  1.00  0.00     0.000 C 
BRANCH   2   3
ATOM      3  C   UNL     1      -5.287  -1.621   7.161  1.00  0.00     0.006 C 
BRANCH   3   4
ATOM      4  C   UNL     1      -5.581  -0.418   6.256  1.00  0.00     0.053 C 
BRANCH   4   5
ATOM      5  C   UNL     1      -5.696   0.832   7.070  1.00  0.00     0.041 C 
ATOM      6  O   UNL     1      -4.674   1.527   7.311  1.00  0.00    -0.550 OA
ATOM      7  O   UNL     1      -6.939   1.257   7.519  1.00  0.00    -0.550 OA
ENDBRANCH   4   5
ENDBRANCH   3   4
ENDBRANCH   2   3
ENDBRANCH   1   2
BRANCH   1   8
ATOM      8  C   UNL     1      -4.818  -3.867   5.013  1.00  0.00     0.000 C 
BRANCH   8   9
ATOM      9  C   UNL     1      -4.831  -5.104   5.921  1.00  0.00    -0.000 C 
BRANCH   9  10
ATOM     10  C   UNL     1      -6.264  -5.591   6.164  1.00  0.00    -0.000 C 
BRANCH  10  11
ATOM     11  C   UNL     1      -7.282  -4.486   5.854  1.00  0.00    -0.000 C 
BRANCH  11  12
ATOM     12  C   UNL     1      -8.607  -5.080   5.365  1.00  0.00    -0.003 C 
ATOM     13  C   UNL     1      -8.419  -6.509   4.864  1.00  0.00     0.004 C 
ENDBRANCH  11  12
ENDBRANCH  10  11
ENDBRANCH   9  10
ENDBRANCH   8   9
ENDBRANCH   1   8
TORSDOF 9
ENDMDL
MODEL 6
REMARK VINA RESULT:    -3.421      3.111      4.352
REMARK INTER + INTRA:          -6.472
REMARK INTER:                  -5.428
REMARK INTRA:                  -1.044
REMARK UNBOUND:                -1.250
REMARK SMILES CCCCCCCCCCC(=O)[O-]
REMARK SMILES IDX 7 1 8 2 9 3 10 4 11 5 12 6 13 7 6 8 5 9 4 10 3 11 2 12 1 13
REMARK H PARENT
REMARK Flexibility Score: inf
ROOT
ATOM      1  C   UNL     1      -5.550  -0.685   5.878  1.00  0.00     0.000 C 
ENDROOT
BRANCH   1   2
ATOM      2  C   UNL     1      -4.687  -1.796   6.509  1.00  0.00     0.000 C 
BRANCH   2   3
ATOM      3  C   UNL     1      -3.962  -2.708   5.503  1.00  0.00     0.006 C 
BRANCH   3   4
ATOM      4  C   UNL     1      -2.607  -3.207   6.021  1.00  0.00     0.053 C 
BRANCH   4   5
ATOM      5  C   UNL     1      -2.666  -4.673   6.311  1.00  0.00     0.041 C 
ATOM      6  O   UNL     1      -2.390  -5.508   5.409  1.00  0.00    -0.550 OA
ATOM      7  O   UNL     1      -2.974  -5.117   7.590  1.00  0.00    -0.550 OA
ENDBRANCH   4   5
ENDBRANCH   3   4
ENDBRANCH   2   3
ENDBRANCH   1   2
BRANCH   1   8
ATOM      8  C   UNL     1      -7.001  -0.618   6.386  1.00  0.00     0.000 C 
BRANCH   8   9
ATOM      9  C   UNL     1      -7.833  -1.843   5.981  1.00  0.00    -0.000 C 
BRANCH   9  10
ATOM     10  C   UNL     1      -8.338  -2.596   7.217  1.00  0.00    -0.000 C 
BRANCH  10  11
ATOM     11  C   UNL     1      -8.123  -4.107   7.068  1.00  0.00    -0.000 C 
BRANCH  11  12
ATOM     12  C   UNL     1      -7.284  -4.424   5.825  1.00  0.00    -0.003 C 
ATOM     13  C   UNL     1      -6.312  -5.569   6.093  1.00  0.00     0.004 C 
ENDBRANCH  11  12
ENDBRANCH  10  11
ENDBRANCH   9  10
ENDBRANCH   8   9
ENDBRANCH   1   8
TORSDOF 9
ENDMDL
MODEL 7
REMARK VINA RESULT:    -3.228      3.112      4.644
REMARK INTER + INTRA:          -6.176
REMARK INTER:                  -5.062
REMARK INTRA:                  -1.115
REMARK UNBOUND:                -1.250
REMARK SMILES CCCCCCCCCCC(=O)[O-]
REMARK SMILES IDX 7 1 8 2 9 3 10 4 11 5 12 6 13 7 6 8 5 9 4 10 3 11 2 12 1 13
REMARK H PARENT
REMARK Flexibility Score: inf
ROOT
ATOM      1  C   UNL     1      -7.104  -4.253   5.563  1.00  0.00     0.000 C 
ENDROOT
BRANCH   1   2
ATOM      2  C   UNL     1      -5.635  -4.711   5.471  1.00  0.00     0.000 C 
BRANCH   2   3
ATOM      3  C   UNL     1      -4.667  -3.679   4.867  1.00  0.00     0.006 C 
BRANCH   3   4
ATOM      4  C   UNL     1      -3.418  -3.458   5.730  1.00  0.00     0.053 C 
BRANCH   4   5
ATOM      5  C   UNL     1      -2.885  -4.766   6.222  1.00  0.00     0.041 C 
ATOM      6  O   UNL     1      -2.370  -5.584   5.415  1.00  0.00    -0.550 OA
ATOM      7  O   UNL     1      -2.911  -5.061   7.579  1.00  0.00    -0.550 OA
ENDBRANCH   4   5
ENDBRANCH   3   4
ENDBRANCH   2   3
ENDBRANCH   1   2
BRANCH   1   8
ATOM      8  C   UNL     1      -7.506  -3.614   6.905  1.00  0.00     0.000 C 
BRANCH   8   9
ATOM      9  C   UNL     1      -8.427  -2.397   6.734  1.00  0.00    -0.000 C 
BRANCH   9  10
ATOM     10  C   UNL     1      -7.675  -1.095   7.032  1.00  0.00    -0.000 C 
BRANCH  10  11
ATOM     11  C   UNL     1      -6.442  -1.357   7.905  1.00  0.00    -0.000 C 
BRANCH  11  12
ATOM     12  C   UNL     1      -5.210  -0.633   7.350  1.00  0.00    -0.003 C 
ATOM     13  C   UNL     1      -5.412  -0.243   5.888  1.00  0.00     0.004 C 
ENDBRANCH  11  12
ENDBRANCH  10  11
ENDBRANCH   9  10
ENDBRANCH   8   9
ENDBRANCH   1   8
TORSDOF 9
ENDMDL
MODEL 8
REMARK VINA RESULT:    -3.121      1.483      3.447
REMARK INTER + INTRA:          -6.013
REMARK INTER:                  -4.800
REMARK INTRA:                  -1.213
REMARK UNBOUND:                -1.250
REMARK SMILES CCCCCCCCCCC(=O)[O-]
REMARK SMILES IDX 7 1 8 2 9 3 10 4 11 5 12 6 13 7 6 8 5 9 4 10 3 11 2 12 1 13
REMARK H PARENT
REMARK Flexibility Score: inf
ROOT
ATOM      1  C   UNL     1      -7.443  -5.009   5.653  1.00  0.00     0.000 C 
ENDROOT
BRANCH   1   2
ATOM      2  C   UNL     1      -8.340  -3.981   6.371  1.00  0.00     0.000 C 
BRANCH   2   3
ATOM      3  C   UNL     1      -7.611  -2.726   6.884  1.00  0.00     0.006 C 
BRANCH   3   4
ATOM      4  C   UNL     1      -7.425  -1.660   5.797  1.00  0.00     0.053 C 
BRANCH   4   5
ATOM      5  C   UNL     1      -6.723  -0.463   6.355  1.00  0.00     0.041 C 
ATOM      6  O   UNL     1      -5.540  -0.204   6.010  1.00  0.00    -0.550 OA
ATOM      7  O   UNL     1      -7.392   0.397   7.216  1.00  0.00    -0.550 OA
ENDBRANCH   4   5
ENDBRANCH   3   4
ENDBRANCH   2   3
ENDBRANCH   1   2
BRANCH   1   8
ATOM      8  C   UNL     1      -7.029  -6.222   6.506  1.00  0.00     0.000 C 
BRANCH   8   9
ATOM      9  C   UNL     1      -5.806  -5.940   7.391  1.00  0.00    -0.000 C 
BRANCH   9  10
ATOM     10  C   UNL     1      -4.625  -5.441   6.552  1.00  0.00    -0.000 C 
BRANCH  10  11
ATOM     11  C   UNL     1      -4.141  -4.071   7.041  1.00  0.00    -0.000 C 
BRANCH  11  12
ATOM     12  C   UNL     1      -3.634  -3.217   5.872  1.00  0.00    -0.003 C 
ATOM     13  C   UNL     1      -4.411  -3.515   4.594  1.00  0.00     0.004 C 
ENDBRANCH  11  12
ENDBRANCH  10  11
ENDBRANCH   9  10
ENDBRANCH   8   9
ENDBRANCH   1   8
TORSDOF 9
ENDMDL
MODEL 9
REMARK VINA RESULT:    -3.057      2.605      3.906
REMARK INTER + INTRA:          -5.915
REMARK INTER:                  -4.766
REMARK INTRA:                  -1.149
REMARK UNBOUND:                -1.250
REMARK SMILES CCCCCCCCCCC(=O)[O-]
REMARK SMILES IDX 7 1 8 2 9 3 10 4 11 5 12 6 13 7 6 8 5 9 4 10 3 11 2 12 1 13
REMARK H PARENT
REMARK Flexibility Score: inf
ROOT
ATOM      1  C   UNL     1      -5.672  -0.380   6.220  1.00  0.00     0.000 C 
ENDROOT
BRANCH   1   2
ATOM      2  C   UNL     1      -5.034  -0.894   7.525  1.00  0.00     0.000 C 
BRANCH   2   3
ATOM      3  C   UNL     1      -4.276  -2.227   7.399  1.00  0.00     0.006 C 
BRANCH   3   4
ATOM      4  C   UNL     1      -3.838  -2.530   5.960  1.00  0.00     0.053 C 
BRANCH   4   5
ATOM      5  C   UNL     1      -2.495  -3.187   5.950  1.00  0.00     0.041 C 
ATOM      6  O   UNL     1      -1.465  -2.529   6.254  1.00  0.00    -0.550 OA
ATOM      7  O   UNL     1      -2.385  -4.539   5.654  1.00  0.00    -0.550 OA
ENDBRANCH   4   5
ENDBRANCH   3   4
ENDBRANCH   2   3
ENDBRANCH   1   2
BRANCH   1   8
ATOM      8  C   UNL     1      -6.983  -1.078   5.814  1.00  0.00     0.000 C 
BRANCH   8   9
ATOM      9  C   UNL     1      -7.858  -1.451   7.019  1.00  0.00    -0.000 C 
BRANCH   9  10
ATOM     10  C   UNL     1      -7.993  -2.972   7.150  1.00  0.00    -0.000 C 
BRANCH  10  11
ATOM     11  C   UNL     1      -7.486  -3.681   5.887  1.00  0.00    -0.000 C 
BRANCH  11  12
ATOM     12  C   UNL     1      -6.739  -4.971   6.243  1.00  0.00    -0.003 C 
ATOM     13  C   UNL     1      -6.568  -5.111   7.753  1.00  0.00     0.004 C 
ENDBRANCH  11  12
ENDBRANCH  10  11
ENDBRANCH   9  10
ENDBRANCH   8   9
ENDBRANCH   1   8
TORSDOF 9
ENDMDL
