MODEL 1
REMARK VINA RESULT:    -3.172      0.000      0.000
REMARK INTER + INTRA:          -4.788
REMARK INTER:                  -4.470
REMARK INTRA:                  -0.319
REMARK UNBOUND:                -0.319
REMARK SMILES C=CCCCCCCC(=O)[O-]
REMARK SMILES IDX 6 1 7 2 8 3 9 4 10 5 11 6 5 7 4 8 3 9 2 10 1 11
REMARK H PARENT
REMARK Flexibility Score: inf
ROOT
ATOM      1  C   UNL     1      47.307  39.093 135.632  1.00  0.00     0.000 C 
ENDROOT
BRANCH   1   2
ATOM      2  C   UNL     1      48.143  37.919 136.168  1.00  0.00     0.006 C 
BRANCH   2   3
ATOM      3  C   UNL     1      48.707  38.201 137.568  1.00  0.00     0.053 C 
BRANCH   3   4
ATOM      4  C   UNL     1      49.551  37.069 138.068  1.00  0.00     0.041 C 
ATOM      5  O   UNL     1      49.011  36.063 138.599  1.00  0.00    -0.550 OA
ATOM      6  O   UNL     1      50.935  37.138 137.975  1.00  0.00    -0.550 OA
ENDBRANCH   3   4
ENDBRANCH   2   3
ENDBRANCH   1   2
BRANCH   1   7
ATOM      7  C   UNL     1      46.092  38.629 134.813  1.00  0.00     0.000 C 
BRANCH   7   8
ATOM      8  C   UNL     1      46.369  37.344 134.018  1.00  0.00     0.004 C 
BRANCH   8   9
ATOM      9  C   UNL     1      45.086  36.820 133.360  1.00  0.00     0.027 C 
BRANCH   9  10
ATOM     10  C   UNL     1      43.879  37.112 134.208  1.00  0.00    -0.035 C 
ATOM     11  C   UNL     1      42.894  36.222 134.361  1.00  0.00     0.004 C 
ENDBRANCH   9  10
ENDBRANCH   8   9
ENDBRANCH   7   8
ENDBRANCH   1   7
TORSDOF 7
ENDMDL
MODEL 2
REMARK VINA RESULT:    -3.163      2.764      5.075
REMARK INTER + INTRA:          -4.776
REMARK INTER:                  -4.119
REMARK INTRA:                  -0.657
REMARK UNBOUND:                -0.319
REMARK SMILES C=CCCCCCCC(=O)[O-]
REMARK SMILES IDX 6 1 7 2 8 3 9 4 10 5 11 6 5 7 4 8 3 9 2 10 1 11
REMARK H PARENT
REMARK Flexibility Score: inf
ROOT
ATOM      1  C   UNL     1      47.074  38.648 135.438  1.00  0.00     0.000 C 
ENDROOT
BRANCH   1   2
ATOM      2  C   UNL     1      47.080  37.464 134.456  1.00  0.00     0.006 C 
BRANCH   2   3
ATOM      3  C   UNL     1      47.829  37.793 133.157  1.00  0.00     0.053 C 
BRANCH   3   4
ATOM      4  C   UNL     1      48.836  36.740 132.811  1.00  0.00     0.041 C 
ATOM      5  O   UNL     1      49.164  36.547 131.610  1.00  0.00    -0.550 OA
ATOM      6  O   UNL     1      49.391  35.951 133.811  1.00  0.00    -0.550 OA
ENDBRANCH   3   4
ENDBRANCH   2   3
ENDBRANCH   1   2
BRANCH   1   7
ATOM      7  C   UNL     1      48.454  39.309 135.578  1.00  0.00     0.000 C 
BRANCH   7   8
ATOM      8  C   UNL     1      49.438  38.458 136.394  1.00  0.00     0.004 C 
BRANCH   8   9
ATOM      9  C   UNL     1      48.867  38.138 137.781  1.00  0.00     0.027 C 
BRANCH   9  10
ATOM     10  C   UNL     1      49.199  36.732 138.197  1.00  0.00    -0.035 C 
ATOM     11  C   UNL     1      49.812  35.879 137.370  1.00  0.00     0.004 C 
ENDBRANCH   9  10
ENDBRANCH   8   9
ENDBRANCH   7   8
ENDBRANCH   1   7
TORSDOF 7
ENDMDL
MODEL 3
REMARK VINA RESULT:    -3.133      2.739      3.938
REMARK INTER + INTRA:          -4.733
REMARK INTER:                  -4.059
REMARK INTRA:                  -0.674
REMARK UNBOUND:                -0.319
REMARK SMILES C=CCCCCCCC(=O)[O-]
REMARK SMILES IDX 6 1 7 2 8 3 9 4 10 5 11 6 5 7 4 8 3 9 2 10 1 11
REMARK H PARENT
REMARK Flexibility Score: inf
ROOT
ATOM      1  C   UNL     1      49.335  36.503 137.961  1.00  0.00     0.000 C 
ENDROOT
BRANCH   1   2
ATOM      2  C   UNL     1      50.573  36.228 137.091  1.00  0.00     0.006 C 
BRANCH   2   3
ATOM      3  C   UNL     1      51.875  36.285 137.902  1.00  0.00     0.053 C 
BRANCH   3   4
ATOM      4  C   UNL     1      52.682  37.504 137.576  1.00  0.00     0.041 C 
ATOM      5  O   UNL     1      52.449  38.155 136.523  1.00  0.00    -0.550 OA
ATOM      6  O   UNL     1      53.711  37.904 138.419  1.00  0.00    -0.550 OA
ENDBRANCH   3   4
ENDBRANCH   2   3
ENDBRANCH   1   2
BRANCH   1   7
ATOM      7  C   UNL     1      48.979  37.997 138.029  1.00  0.00     0.000 C 
BRANCH   7   8
ATOM      8  C   UNL     1      48.904  38.652 136.641  1.00  0.00     0.004 C 
BRANCH   8   9
ATOM      9  C   UNL     1      47.521  38.443 136.011  1.00  0.00     0.027 C 
BRANCH   9  10
ATOM     10  C   UNL     1      47.634  37.873 134.624  1.00  0.00    -0.035 C 
ATOM     11  C   UNL     1      48.086  36.634 134.407  1.00  0.00     0.004 C 
ENDBRANCH   9  10
ENDBRANCH   8   9
ENDBRANCH   7   8
ENDBRANCH   1   7
TORSDOF 7
ENDMDL
MODEL 4
REMARK VINA RESULT:    -3.109      3.690      5.423
REMARK INTER + INTRA:          -4.699
REMARK INTER:                  -3.936
REMARK INTRA:                  -0.764
REMARK UNBOUND:                -0.319
REMARK SMILES C=CCCCCCCC(=O)[O-]
REMARK SMILES IDX 6 1 7 2 8 3 9 4 10 5 11 6 5 7 4 8 3 9 2 10 1 11
REMARK H PARENT
REMARK Flexibility Score: inf
ROOT
ATOM      1  C   UNL     1      49.218  39.058 135.996  1.00  0.00     0.000 C 
ENDROOT
BRANCH   1   2
ATOM      2  C   UNL     1      48.913  38.730 134.525  1.00  0.00     0.006 C 
BRANCH   2   3
ATOM      3  C   UNL     1      50.117  38.099 133.811  1.00  0.00     0.053 C 
BRANCH   3   4
ATOM      4  C   UNL     1      50.083  36.603 133.874  1.00  0.00     0.041 C 
ATOM      5  O   UNL     1      51.113  35.959 134.208  1.00  0.00    -0.550 OA
ATOM      6  O   UNL     1      48.922  35.918 133.537  1.00  0.00    -0.550 OA
ENDBRANCH   3   4
ENDBRANCH   2   3
ENDBRANCH   1   2
BRANCH   1   7
ATOM      7  C   UNL     1      48.353  38.248 136.975  1.00  0.00     0.000 C 
BRANCH   7   8
ATOM      8  C   UNL     1      49.182  37.566 138.074  1.00  0.00     0.004 C 
BRANCH   8   9
ATOM      9  C   UNL     1      49.627  36.166 137.634  1.00  0.00     0.027 C 
BRANCH   9  10
ATOM     10  C   UNL     1      51.126  36.040 137.647  1.00  0.00    -0.035 C 
ATOM     11  C   UNL     1      51.921  37.113 137.705  1.00  0.00     0.004 C 
ENDBRANCH   9  10
ENDBRANCH   8   9
ENDBRANCH   7   8
ENDBRANCH   1   7
TORSDOF 7
ENDMDL
MODEL 5
REMARK VINA RESULT:    -3.043      3.208      4.587
REMARK INTER + INTRA:          -4.607
REMARK INTER:                  -4.098
REMARK INTRA:                  -0.509
REMARK UNBOUND:                -0.319
REMARK SMILES C=CCCCCCCC(=O)[O-]
REMARK SMILES IDX 6 1 7 2 8 3 9 4 10 5 11 6 5 7 4 8 3 9 2 10 1 11
REMARK H PARENT
REMARK Flexibility Score: inf
ROOT
ATOM      1  C   UNL     1      48.781  38.162 137.763  1.00  0.00     0.000 C 
ENDROOT
BRANCH   1   2
ATOM      2  C   UNL     1      49.386  36.918 138.435  1.00  0.00     0.006 C 
BRANCH   2   3
ATOM      3  C   UNL     1      50.519  36.302 137.602  1.00  0.00     0.053 C 
BRANCH   3   4
ATOM      4  C   UNL     1      51.767  37.127 137.661  1.00  0.00     0.041 C 
ATOM      5  O   UNL     1      52.452  37.165 138.717  1.00  0.00    -0.550 OA
ATOM      6  O   UNL     1      52.159  37.878 136.560  1.00  0.00    -0.550 OA
ENDBRANCH   3   4
ENDBRANCH   2   3
ENDBRANCH   1   2
BRANCH   1   7
ATOM      7  C   UNL     1      48.349  37.900 136.311  1.00  0.00     0.000 C 
BRANCH   7   8
ATOM      8  C   UNL     1      48.252  39.188 135.480  1.00  0.00     0.004 C 
BRANCH   8   9
ATOM      9  C   UNL     1      49.427  40.126 135.785  1.00  0.00     0.027 C 
BRANCH   9  10
ATOM     10  C   UNL     1      49.046  41.565 135.572  1.00  0.00    -0.035 C 
ATOM     11  C   UNL     1      49.379  42.518 136.448  1.00  0.00     0.004 C 
ENDBRANCH   9  10
ENDBRANCH   8   9
ENDBRANCH   7   8
ENDBRANCH   1   7
TORSDOF 7
ENDMDL
MODEL 6
REMARK VINA RESULT:    -3.026      2.463      3.206
REMARK INTER + INTRA:          -4.583
REMARK INTER:                  -4.224
REMARK INTRA:                  -0.359
REMARK UNBOUND:                -0.319
REMARK SMILES C=CCCCCCCC(=O)[O-]
REMARK SMILES IDX 6 1 7 2 8 3 9 4 10 5 11 6 5 7 4 8 3 9 2 10 1 11
REMARK H PARENT
REMARK Flexibility Score: inf
ROOT
ATOM      1  C   UNL     1      48.829  38.167 137.116  1.00  0.00     0.000 C 
ENDROOT
BRANCH   1   2
ATOM      2  C   UNL     1      49.389  37.278 138.240  1.00  0.00     0.006 C 
BRANCH   2   3
ATOM      3  C   UNL     1      50.384  36.235 137.713  1.00  0.00     0.053 C 
BRANCH   3   4
ATOM      4  C   UNL     1      51.763  36.802 137.570  1.00  0.00     0.041 C 
ATOM      5  O   UNL     1      52.290  36.908 136.431  1.00  0.00    -0.550 OA
ATOM      6  O   UNL     1      52.479  37.186 138.697  1.00  0.00    -0.550 OA
ENDBRANCH   3   4
ENDBRANCH   2   3
ENDBRANCH   1   2
BRANCH   1   7
ATOM      7  C   UNL     1      48.609  37.395 135.805  1.00  0.00     0.000 C 
BRANCH   7   8
ATOM      8  C   UNL     1      47.558  38.054 134.899  1.00  0.00     0.004 C 
BRANCH   8   9
ATOM      9  C   UNL     1      46.770  39.125 135.664  1.00  0.00     0.027 C 
BRANCH   9  10
ATOM     10  C   UNL     1      45.899  39.927 134.737  1.00  0.00    -0.035 C 
ATOM     11  C   UNL     1      45.682  41.232 134.928  1.00  0.00     0.004 C 
ENDBRANCH   9  10
ENDBRANCH   8   9
ENDBRANCH   7   8
ENDBRANCH   1   7
TORSDOF 7
ENDMDL
MODEL 7
REMARK VINA RESULT:    -2.918      1.399      2.270
REMARK INTER + INTRA:          -4.431
REMARK INTER:                  -3.810
REMARK INTRA:                  -0.621
REMARK UNBOUND:                -0.319
REMARK SMILES C=CCCCCCCC(=O)[O-]
REMARK SMILES IDX 6 1 7 2 8 3 9 4 10 5 11 6 5 7 4 8 3 9 2 10 1 11
REMARK H PARENT
REMARK Flexibility Score: inf
ROOT
ATOM      1  C   UNL     1      48.192  39.348 135.646  1.00  0.00     0.000 C 
ENDROOT
BRANCH   1   2
ATOM      2  C   UNL     1      48.326  38.373 136.828  1.00  0.00     0.006 C 
BRANCH   2   3
ATOM      3  C   UNL     1      49.556  37.464 136.693  1.00  0.00     0.053 C 
BRANCH   3   4
ATOM      4  C   UNL     1      49.932  36.837 138.000  1.00  0.00     0.041 C 
ATOM      5  O   UNL     1      51.085  37.010 138.477  1.00  0.00    -0.550 OA
ATOM      6  O   UNL     1      49.020  36.037 138.677  1.00  0.00    -0.550 OA
ENDBRANCH   3   4
ENDBRANCH   2   3
ENDBRANCH   1   2
BRANCH   1   7
ATOM      7  C   UNL     1      46.728  39.622 135.268  1.00  0.00     0.000 C 
BRANCH   7   8
ATOM      8  C   UNL     1      46.336  38.994 133.922  1.00  0.00     0.004 C 
BRANCH   8   9
ATOM      9  C   UNL     1      45.985  37.511 134.091  1.00  0.00     0.027 C 
BRANCH   9  10
ATOM     10  C   UNL     1      46.828  36.645 133.195  1.00  0.00    -0.035 C 
ATOM     11  C   UNL     1      47.963  36.085 133.624  1.00  0.00     0.004 C 
ENDBRANCH   9  10
ENDBRANCH   8   9
ENDBRANCH   7   8
ENDBRANCH   1   7
TORSDOF 7
ENDMDL
MODEL 8
REMARK VINA RESULT:    -2.888     14.512     15.422
REMARK INTER + INTRA:          -4.388
REMARK INTER:                  -3.746
REMARK INTRA:                  -0.643
REMARK UNBOUND:                -0.319
REMARK SMILES C=CCCCCCCC(=O)[O-]
REMARK SMILES IDX 6 1 7 2 8 3 9 4 10 5 11 6 5 7 4 8 3 9 2 10 1 11
REMARK H PARENT
REMARK Flexibility Score: inf
ROOT
ATOM      1  C   UNL     1      57.378  38.661 123.239  1.00  0.00     0.000 C 
ENDROOT
BRANCH   1   2
ATOM      2  C   UNL     1      57.678  39.733 124.300  1.00  0.00     0.006 C 
BRANCH   2   3
ATOM      3  C   UNL     1      58.446  39.162 125.500  1.00  0.00     0.053 C 
BRANCH   3   4
ATOM      4  C   UNL     1      59.875  39.612 125.514  1.00  0.00     0.041 C 
ATOM      5  O   UNL     1      60.602  39.445 124.499  1.00  0.00    -0.550 OA
ATOM      6  O   UNL     1      60.412  40.190 126.657  1.00  0.00    -0.550 OA
ENDBRANCH   3   4
ENDBRANCH   2   3
ENDBRANCH   1   2
BRANCH   1   7
ATOM      7  C   UNL     1      55.876  38.368 123.102  1.00  0.00     0.000 C 
BRANCH   7   8
ATOM      8  C   UNL     1      55.485  36.997 123.675  1.00  0.00     0.004 C 
BRANCH   8   9
ATOM      9  C   UNL     1      54.657  37.156 124.957  1.00  0.00     0.027 C 
BRANCH   9  10
ATOM     10  C   UNL     1      55.415  36.665 126.159  1.00  0.00    -0.035 C 
ATOM     11  C   UNL     1      56.663  36.197 126.062  1.00  0.00     0.004 C 
ENDBRANCH   9  10
ENDBRANCH   8   9
ENDBRANCH   7   8
ENDBRANCH   1   7
TORSDOF 7
ENDMDL
