MODEL 1
REMARK VINA RESULT:    -6.460      0.000      0.000
REMARK INTER + INTRA:          -7.051
REMARK INTER:                  -7.026
REMARK INTRA:                  -0.025
REMARK UNBOUND:                -0.025
REMARK SMILES CC1(C)[C@@H]2CC=C(CO)[C@H]1C2
REMARK SMILES IDX 8 1 7 2 1 3 2 4 4 5 3 6 10 7 5 8 11 9 6 10 9 11
REMARK H PARENT 9 12
REMARK Flexibility Score: inf
ROOT
ATOM      1  C   UNL     1      22.827   5.065  20.074  1.00  0.00     0.187 C 
ENDROOT
BRANCH   1   2
ATOM      2  C   UNL     1      22.285   5.942  18.979  1.00  0.00    -0.045 C 
ATOM      3  C   UNL     1      19.233   8.368  18.911  1.00  0.00     0.012 C 
ATOM      4  C   UNL     1      20.222   7.275  18.431  1.00  0.00    -0.026 C 
ATOM      5  C   UNL     1      21.138   7.777  17.281  1.00  0.00    -0.000 C 
ATOM      6  C   UNL     1      19.427   5.954  18.228  1.00  0.00     0.012 C 
ATOM      7  C   UNL     1      21.513   7.233  19.288  1.00  0.00     0.023 C 
ATOM      8  C   UNL     1      21.861   6.568  16.592  1.00  0.00     0.031 C 
ATOM      9  C   UNL     1      22.121   8.296  18.350  1.00  0.00     0.013 C 
ATOM     10  C   UNL     1      22.472   5.639  17.660  1.00  0.00    -0.025 C 
ENDBRANCH   1   2
BRANCH   1  11
ATOM     11  O   UNL     1      22.805   3.721  19.675  1.00  0.00    -0.392 OA
ATOM     12  H   UNL     1      23.339   3.219  20.345  1.00  0.00     0.211 HD
ENDBRANCH   1  11
TORSDOF 2
ENDMDL
MODEL 2
REMARK VINA RESULT:    -6.433      2.158      3.188
REMARK INTER + INTRA:          -7.022
REMARK INTER:                  -6.958
REMARK INTRA:                  -0.064
REMARK UNBOUND:                -0.025
REMARK SMILES CC1(C)[C@@H]2CC=C(CO)[C@H]1C2
REMARK SMILES IDX 8 1 7 2 1 3 2 4 4 5 3 6 10 7 5 8 11 9 6 10 9 11
REMARK H PARENT 9 12
REMARK Flexibility Score: inf
ROOT
ATOM      1  C   UNL     1      22.807   7.392  17.334  1.00  0.00     0.187 C 
ENDROOT
BRANCH   1   2
ATOM      2  C   UNL     1      21.635   7.544  18.263  1.00  0.00    -0.045 C 
ATOM      3  C   UNL     1      17.940   6.338  17.947  1.00  0.00     0.012 C 
ATOM      4  C   UNL     1      19.132   7.280  18.254  1.00  0.00    -0.026 C 
ATOM      5  C   UNL     1      19.342   7.483  19.780  1.00  0.00    -0.000 C 
ATOM      6  C   UNL     1      19.007   8.536  17.346  1.00  0.00     0.012 C 
ATOM      7  C   UNL     1      20.486   6.525  18.284  1.00  0.00     0.023 C 
ATOM      8  C   UNL     1      20.302   8.694  20.044  1.00  0.00     0.031 C 
ATOM      9  C   UNL     1      20.242   6.230  19.778  1.00  0.00     0.013 C 
ATOM     10  C   UNL     1      21.549   8.585  19.143  1.00  0.00    -0.025 C 
ENDBRANCH   1   2
BRANCH   1  11
ATOM     11  O   UNL     1      22.375   7.408  16.000  1.00  0.00    -0.392 OA
ATOM     12  H   UNL     1      23.170   7.196  15.443  1.00  0.00     0.211 HD
ENDBRANCH   1  11
TORSDOF 2
ENDMDL
MODEL 3
REMARK VINA RESULT:    -6.423     13.245     14.953
REMARK INTER + INTRA:          -7.011
REMARK INTER:                  -6.968
REMARK INTRA:                  -0.043
REMARK UNBOUND:                -0.025
REMARK SMILES CC1(C)[C@@H]2CC=C(CO)[C@H]1C2
REMARK SMILES IDX 8 1 7 2 1 3 2 4 4 5 3 6 10 7 5 8 11 9 6 10 9 11
REMARK H PARENT 9 12
REMARK Flexibility Score: inf
ROOT
ATOM      1  C   UNL     1      21.397   2.117   6.443  1.00  0.00     0.187 C 
ENDROOT
BRANCH   1   2
ATOM      2  C   UNL     1      21.448   0.622   6.289  1.00  0.00    -0.045 C 
ATOM      3  C   UNL     1      23.352  -1.629   3.737  1.00  0.00     0.012 C 
ATOM      4  C   UNL     1      22.190  -1.112   4.622  1.00  0.00    -0.026 C 
ATOM      5  C   UNL     1      21.909  -2.050   5.828  1.00  0.00    -0.000 C 
ATOM      6  C   UNL     1      21.007  -0.719   3.693  1.00  0.00     0.012 C 
ATOM      7  C   UNL     1      22.668  -0.084   5.680  1.00  0.00     0.023 C 
ATOM      8  C   UNL     1      20.528  -1.699   6.484  1.00  0.00     0.031 C 
ATOM      9  C   UNL     1      22.964  -1.261   6.631  1.00  0.00     0.013 C 
ATOM     10  C   UNL     1      20.419  -0.176   6.702  1.00  0.00    -0.025 C 
ENDBRANCH   1   2
BRANCH   1  11
ATOM     11  O   UNL     1      22.695   2.642   6.515  1.00  0.00    -0.392 OA
ATOM     12  H   UNL     1      22.733   3.187   7.345  1.00  0.00     0.211 HD
ENDBRANCH   1  11
TORSDOF 2
ENDMDL
MODEL 4
REMARK VINA RESULT:    -6.346      2.155      3.171
REMARK INTER + INTRA:          -6.928
REMARK INTER:                  -6.882
REMARK INTRA:                  -0.046
REMARK UNBOUND:                -0.025
REMARK SMILES CC1(C)[C@@H]2CC=C(CO)[C@H]1C2
REMARK SMILES IDX 8 1 7 2 1 3 2 4 4 5 3 6 10 7 5 8 11 9 6 10 9 11
REMARK H PARENT 9 12
REMARK Flexibility Score: inf
ROOT
ATOM      1  C   UNL     1      22.360   6.551  16.975  1.00  0.00     0.187 C 
ENDROOT
BRANCH   1   2
ATOM      2  C   UNL     1      21.036   6.677  17.676  1.00  0.00    -0.045 C 
ATOM      3  C   UNL     1      18.608   9.706  18.041  1.00  0.00     0.012 C 
ATOM      4  C   UNL     1      19.435   8.459  18.446  1.00  0.00    -0.026 C 
ATOM      5  C   UNL     1      18.538   7.215  18.693  1.00  0.00    -0.000 C 
ATOM      6  C   UNL     1      20.443   8.882  19.552  1.00  0.00     0.012 C 
ATOM      7  C   UNL     1      19.974   7.685  17.216  1.00  0.00     0.023 C 
ATOM      8  C   UNL     1      19.349   6.095  19.432  1.00  0.00     0.031 C 
ATOM      9  C   UNL     1      18.653   6.889  17.189  1.00  0.00     0.013 C 
ATOM     10  C   UNL     1      20.712   5.887  18.743  1.00  0.00    -0.025 C 
ENDBRANCH   1   2
BRANCH   1  11
ATOM     11  O   UNL     1      22.402   7.399  15.860  1.00  0.00    -0.392 OA
ATOM     12  H   UNL     1      21.508   7.345  15.430  1.00  0.00     0.211 HD
ENDBRANCH   1  11
TORSDOF 2
ENDMDL
MODEL 5
REMARK VINA RESULT:    -6.289     13.991     15.744
REMARK INTER + INTRA:          -6.866
REMARK INTER:                  -6.843
REMARK INTRA:                  -0.023
REMARK UNBOUND:                -0.025
REMARK SMILES CC1(C)[C@@H]2CC=C(CO)[C@H]1C2
REMARK SMILES IDX 8 1 7 2 1 3 2 4 4 5 3 6 10 7 5 8 11 9 6 10 9 11
REMARK H PARENT 9 12
REMARK Flexibility Score: inf
ROOT
ATOM      1  C   UNL     1      19.017   2.487   3.004  1.00  0.00     0.187 C 
ENDROOT
BRANCH   1   2
ATOM      2  C   UNL     1      20.030   1.875   3.931  1.00  0.00    -0.045 C 
ATOM      3  C   UNL     1      22.978  -0.584   3.246  1.00  0.00     0.012 C 
ATOM      4  C   UNL     1      21.746   0.033   3.955  1.00  0.00    -0.026 C 
ATOM      5  C   UNL     1      22.124   0.724   5.295  1.00  0.00    -0.000 C 
ATOM      6  C   UNL     1      20.605  -1.024   3.958  1.00  0.00     0.012 C 
ATOM      7  C   UNL     1      21.425   1.461   3.442  1.00  0.00     0.023 C 
ATOM      8  C   UNL     1      20.837   1.016   6.141  1.00  0.00     0.031 C 
ATOM      9  C   UNL     1      22.401   2.016   4.498  1.00  0.00     0.013 C 
ATOM     10  C   UNL     1      19.761   1.677   5.256  1.00  0.00    -0.025 C 
ENDBRANCH   1   2
BRANCH   1  11
ATOM     11  O   UNL     1      17.851   2.816   3.708  1.00  0.00    -0.392 OA
ATOM     12  H   UNL     1      17.633   3.756   3.470  1.00  0.00     0.211 HD
ENDBRANCH   1  11
TORSDOF 2
ENDMDL
MODEL 6
REMARK VINA RESULT:    -6.281      1.518      3.052
REMARK INTER + INTRA:          -6.857
REMARK INTER:                  -6.795
REMARK INTRA:                  -0.062
REMARK UNBOUND:                -0.025
REMARK SMILES CC1(C)[C@@H]2CC=C(CO)[C@H]1C2
REMARK SMILES IDX 8 1 7 2 1 3 2 4 4 5 3 6 10 7 5 8 11 9 6 10 9 11
REMARK H PARENT 9 12
REMARK Flexibility Score: inf
ROOT
ATOM      1  C   UNL     1      20.445   6.046  21.240  1.00  0.00     0.187 C 
ENDROOT
BRANCH   1   2
ATOM      2  C   UNL     1      20.163   6.774  19.955  1.00  0.00    -0.045 C 
ATOM      3  C   UNL     1      21.947   6.646  16.490  1.00  0.00     0.012 C 
ATOM      4  C   UNL     1      21.256   7.251  17.738  1.00  0.00    -0.026 C 
ATOM      5  C   UNL     1      19.833   7.787  17.419  1.00  0.00    -0.000 C 
ATOM      6  C   UNL     1      22.267   8.197  18.445  1.00  0.00     0.012 C 
ATOM      7  C   UNL     1      20.534   6.175  18.591  1.00  0.00     0.023 C 
ATOM      8  C   UNL     1      19.315   8.694  18.589  1.00  0.00     0.031 C 
ATOM      9  C   UNL     1      19.283   6.375  17.712  1.00  0.00     0.013 C 
ATOM     10  C   UNL     1      19.545   7.993  19.943  1.00  0.00    -0.025 C 
ENDBRANCH   1   2
BRANCH   1  11
ATOM     11  O   UNL     1      21.734   5.496  21.213  1.00  0.00    -0.392 OA
ATOM     12  H   UNL     1      22.328   6.187  20.817  1.00  0.00     0.211 HD
ENDBRANCH   1  11
TORSDOF 2
ENDMDL
MODEL 7
REMARK VINA RESULT:    -6.194     13.855     15.080
REMARK INTER + INTRA:          -6.762
REMARK INTER:                  -6.719
REMARK INTRA:                  -0.043
REMARK UNBOUND:                -0.025
REMARK SMILES CC1(C)[C@@H]2CC=C(CO)[C@H]1C2
REMARK SMILES IDX 8 1 7 2 1 3 2 4 4 5 3 6 10 7 5 8 11 9 6 10 9 11
REMARK H PARENT 9 12
REMARK Flexibility Score: inf
ROOT
ATOM      1  C   UNL     1      22.376   2.544   5.065  1.00  0.00     0.187 C 
ENDROOT
BRANCH   1   2
ATOM      2  C   UNL     1      21.623   1.243   5.055  1.00  0.00    -0.045 C 
ATOM      3  C   UNL     1      22.639  -2.318   6.276  1.00  0.00     0.012 C 
ATOM      4  C   UNL     1      22.041  -1.220   5.360  1.00  0.00    -0.026 C 
ATOM      5  C   UNL     1      20.487  -1.245   5.353  1.00  0.00    -0.000 C 
ATOM      6  C   UNL     1      22.793  -1.257   4.000  1.00  0.00     0.012 C 
ATOM      7  C   UNL     1      21.902   0.142   6.088  1.00  0.00     0.023 C 
ATOM      8  C   UNL     1      19.933  -0.379   4.168  1.00  0.00     0.031 C 
ATOM      9  C   UNL     1      20.511  -0.308   6.579  1.00  0.00     0.013 C 
ATOM     10  C   UNL     1      20.642   0.990   4.138  1.00  0.00    -0.025 C 
ENDBRANCH   1   2
BRANCH   1  11
ATOM     11  O   UNL     1      22.748   2.880   6.374  1.00  0.00    -0.392 OA
ATOM     12  H   UNL     1      22.728   3.871   6.429  1.00  0.00     0.211 HD
ENDBRANCH   1  11
TORSDOF 2
ENDMDL
MODEL 8
REMARK VINA RESULT:    -6.183      2.148      3.356
REMARK INTER + INTRA:          -6.751
REMARK INTER:                  -6.728
REMARK INTRA:                  -0.023
REMARK UNBOUND:                -0.025
REMARK SMILES CC1(C)[C@@H]2CC=C(CO)[C@H]1C2
REMARK SMILES IDX 8 1 7 2 1 3 2 4 4 5 3 6 10 7 5 8 11 9 6 10 9 11
REMARK H PARENT 9 12
REMARK Flexibility Score: inf
ROOT
ATOM      1  C   UNL     1      18.545   6.285  18.113  1.00  0.00     0.187 C 
ENDROOT
BRANCH   1   2
ATOM      2  C   UNL     1      20.041   6.405  18.022  1.00  0.00    -0.045 C 
ATOM      3  C   UNL     1      22.760   6.753  20.795  1.00  0.00     0.012 C 
ATOM      4  C   UNL     1      22.009   7.018  19.465  1.00  0.00    -0.026 C 
ATOM      5  C   UNL     1      22.783   6.468  18.235  1.00  0.00    -0.000 C 
ATOM      6  C   UNL     1      21.550   8.504  19.453  1.00  0.00     0.012 C 
ATOM      7  C   UNL     1      20.959   5.921  19.153  1.00  0.00     0.023 C 
ATOM      8  C   UNL     1      22.188   7.056  16.908  1.00  0.00     0.031 C 
ATOM      9  C   UNL     1      22.070   5.116  18.448  1.00  0.00     0.013 C 
ATOM     10  C   UNL     1      20.651   6.935  16.919  1.00  0.00    -0.025 C 
ENDBRANCH   1   2
BRANCH   1  11
ATOM     11  O   UNL     1      18.018   5.843  16.892  1.00  0.00    -0.392 OA
ATOM     12  H   UNL     1      18.109   6.599  16.254  1.00  0.00     0.211 HD
ENDBRANCH   1  11
TORSDOF 2
ENDMDL
MODEL 9
REMARK VINA RESULT:    -6.169      2.485      3.943
REMARK INTER + INTRA:          -6.735
REMARK INTER:                  -6.698
REMARK INTRA:                  -0.038
REMARK UNBOUND:                -0.025
REMARK SMILES CC1(C)[C@@H]2CC=C(CO)[C@H]1C2
REMARK SMILES IDX 8 1 7 2 1 3 2 4 4 5 3 6 10 7 5 8 11 9 6 10 9 11
REMARK H PARENT 9 12
REMARK Flexibility Score: inf
ROOT
ATOM      1  C   UNL     1      17.756   7.529  17.932  1.00  0.00     0.187 C 
ENDROOT
BRANCH   1   2
ATOM      2  C   UNL     1      19.218   7.668  18.256  1.00  0.00    -0.045 C 
ATOM      3  C   UNL     1      22.002   4.981  18.739  1.00  0.00     0.012 C 
ATOM      4  C   UNL     1      21.160   6.254  19.007  1.00  0.00    -0.026 C 
ATOM      5  C   UNL     1      21.936   7.555  18.663  1.00  0.00    -0.000 C 
ATOM      6  C   UNL     1      20.514   6.123  20.416  1.00  0.00     0.012 C 
ATOM      7  C   UNL     1      20.245   6.618  17.809  1.00  0.00     0.023 C 
ATOM      8  C   UNL     1      21.206   8.803  19.269  1.00  0.00     0.031 C 
ATOM      9  C   UNL     1      21.414   7.430  17.216  1.00  0.00     0.013 C 
ATOM     10  C   UNL     1      19.700   8.744  18.946  1.00  0.00    -0.025 C 
ENDBRANCH   1   2
BRANCH   1  11
ATOM     11  O   UNL     1      17.541   7.731  16.561  1.00  0.00    -0.392 OA
ATOM     12  H   UNL     1      16.576   7.940  16.454  1.00  0.00     0.211 HD
ENDBRANCH   1  11
TORSDOF 2
ENDMDL
