MODEL 1
REMARK VINA RESULT:    -4.574      0.000      0.000
REMARK INTER + INTRA:          -5.298
REMARK INTER:                  -5.109
REMARK INTRA:                  -0.189
REMARK UNBOUND:                -0.189
REMARK SMILES O=C([O-])C=Cc1ccccc1
REMARK SMILES IDX 4 1 5 2 2 3 1 4 3 5 6 6 7 7 11 8 8 9 10 10 9 11
REMARK H PARENT
REMARK Flexibility Score: inf
ROOT
ATOM      1  C   UNL     1       9.950   3.258  20.477  1.00  0.00     0.025 C 
ATOM      2  C   UNL     1       9.027   3.710  19.613  1.00  0.00     0.010 C 
ENDROOT
BRANCH   1   3
ATOM      3  C   UNL     1       9.881   1.988  21.228  1.00  0.00     0.064 C 
ATOM      4  O   UNL     1      10.179   0.889  20.692  1.00  0.00    -0.545 OA
ATOM      5  O   UNL     1       9.412   2.001  22.534  1.00  0.00    -0.545 OA
ENDBRANCH   1   3
BRANCH   2   6
ATOM      6  C   UNL     1       7.865   2.941  19.121  1.00  0.00    -0.026 A 
ATOM      7  C   UNL     1       6.725   2.824  19.931  1.00  0.00     0.008 A 
ATOM      8  C   UNL     1       7.839   2.412  17.818  1.00  0.00     0.008 A 
ATOM      9  C   UNL     1       5.595   2.143  19.466  1.00  0.00     0.001 A 
ATOM     10  C   UNL     1       6.708   1.733  17.356  1.00  0.00     0.001 A 
ATOM     11  C   UNL     1       5.589   1.594  18.182  1.00  0.00     0.000 A 
ENDBRANCH   2   6
TORSDOF 2
ENDMDL
MODEL 2
REMARK VINA RESULT:    -4.574     14.174     15.407
REMARK INTER + INTRA:          -5.298
REMARK INTER:                  -5.067
REMARK INTRA:                  -0.231
REMARK UNBOUND:                -0.189
REMARK SMILES O=C([O-])C=Cc1ccccc1
REMARK SMILES IDX 4 1 5 2 2 3 1 4 3 5 6 6 7 7 11 8 8 9 10 10 9 11
REMARK H PARENT
REMARK Flexibility Score: inf
ROOT
ATOM      1  C   UNL     1      13.777   7.325   7.411  1.00  0.00     0.025 C 
ATOM      2  C   UNL     1      13.244   8.216   8.264  1.00  0.00     0.010 C 
ENDROOT
BRANCH   1   3
ATOM      3  C   UNL     1      15.041   7.493   6.667  1.00  0.00     0.064 C 
ATOM      4  O   UNL     1      16.152   7.200   7.181  1.00  0.00    -0.545 OA
ATOM      5  O   UNL     1      15.008   8.050   5.395  1.00  0.00    -0.545 OA
ENDBRANCH   1   3
BRANCH   2   6
ATOM      6  C   UNL     1      13.912   9.442   8.750  1.00  0.00    -0.026 A 
ATOM      7  C   UNL     1      13.866  10.605   7.967  1.00  0.00     0.008 A 
ATOM      8  C   UNL     1      14.502   9.494  10.025  1.00  0.00     0.008 A 
ATOM      9  C   UNL     1      14.447  11.790   8.429  1.00  0.00     0.001 A 
ATOM     10  C   UNL     1      15.082  10.681  10.485  1.00  0.00     0.001 A 
ATOM     11  C   UNL     1      15.059  11.826   9.685  1.00  0.00     0.000 A 
ENDBRANCH   2   6
TORSDOF 2
ENDMDL
MODEL 3
REMARK VINA RESULT:    -4.328      6.325      6.998
REMARK INTER + INTRA:          -5.023
REMARK INTER:                  -4.754
REMARK INTRA:                  -0.269
REMARK UNBOUND:                -0.189
REMARK SMILES O=C([O-])C=Cc1ccccc1
REMARK SMILES IDX 4 1 5 2 2 3 1 4 3 5 6 6 7 7 11 8 8 9 10 10 9 11
REMARK H PARENT
REMARK Flexibility Score: inf
ROOT
ATOM      1  C   UNL     1       8.084   9.059  20.245  1.00  0.00     0.025 C 
ATOM      2  C   UNL     1       7.848   9.967  19.283  1.00  0.00     0.010 C 
ENDROOT
BRANCH   1   3
ATOM      3  C   UNL     1       7.979   7.595  20.093  1.00  0.00     0.064 C 
ATOM      4  O   UNL     1       8.991   6.882  19.859  1.00  0.00    -0.545 OA
ATOM      5  O   UNL     1       6.726   6.998  20.142  1.00  0.00    -0.545 OA
ENDBRANCH   1   3
BRANCH   2   6
ATOM      6  C   UNL     1       7.616   9.662  17.857  1.00  0.00    -0.026 A 
ATOM      7  C   UNL     1       6.305   9.455  17.402  1.00  0.00     0.008 A 
ATOM      8  C   UNL     1       8.671   9.678  16.927  1.00  0.00     0.008 A 
ATOM      9  C   UNL     1       6.057   9.215  16.047  1.00  0.00     0.001 A 
ATOM     10  C   UNL     1       8.420   9.438  15.572  1.00  0.00     0.001 A 
ATOM     11  C   UNL     1       7.114   9.201  15.134  1.00  0.00     0.000 A 
ENDBRANCH   2   6
TORSDOF 2
ENDMDL
MODEL 4
REMARK VINA RESULT:    -4.131     14.002     15.258
REMARK INTER + INTRA:          -4.803
REMARK INTER:                  -4.553
REMARK INTRA:                  -0.251
REMARK UNBOUND:                -0.189
REMARK SMILES O=C([O-])C=Cc1ccccc1
REMARK SMILES IDX 4 1 5 2 2 3 1 4 3 5 6 6 7 7 11 8 8 9 10 10 9 11
REMARK H PARENT
REMARK Flexibility Score: inf
ROOT
ATOM      1  C   UNL     1      12.508   9.165   6.370  1.00  0.00     0.025 C 
ATOM      2  C   UNL     1      13.749   9.464   6.792  1.00  0.00     0.010 C 
ENDROOT
BRANCH   1   3
ATOM      3  C   UNL     1      11.283   9.214   7.192  1.00  0.00     0.064 C 
ATOM      4  O   UNL     1      10.656  10.290   7.376  1.00  0.00    -0.545 OA
ATOM      5  O   UNL     1      10.852   8.059   7.832  1.00  0.00    -0.545 OA
ENDBRANCH   1   3
BRANCH   2   6
ATOM      6  C   UNL     1      14.087  10.067   8.097  1.00  0.00    -0.026 A 
ATOM      7  C   UNL     1      14.315   9.232   9.202  1.00  0.00     0.008 A 
ATOM      8  C   UNL     1      14.287  11.453   8.231  1.00  0.00     0.008 A 
ATOM      9  C   UNL     1      14.686   9.778  10.435  1.00  0.00     0.001 A 
ATOM     10  C   UNL     1      14.659  11.995   9.465  1.00  0.00     0.001 A 
ATOM     11  C   UNL     1      14.853  11.158  10.567  1.00  0.00     0.000 A 
ENDBRANCH   2   6
TORSDOF 2
ENDMDL
MODEL 5
REMARK VINA RESULT:    -4.126      2.478      3.164
REMARK INTER + INTRA:          -4.798
REMARK INTER:                  -4.558
REMARK INTRA:                  -0.240
REMARK UNBOUND:                -0.189
REMARK SMILES O=C([O-])C=Cc1ccccc1
REMARK SMILES IDX 4 1 5 2 2 3 1 4 3 5 6 6 7 7 11 8 8 9 10 10 9 11
REMARK H PARENT
REMARK Flexibility Score: inf
ROOT
ATOM      1  C   UNL     1       8.182   4.266  21.380  1.00  0.00     0.025 C 
ATOM      2  C   UNL     1       8.006   3.015  20.926  1.00  0.00     0.010 C 
ENDROOT
BRANCH   1   3
ATOM      3  C   UNL     1       7.926   5.505  20.619  1.00  0.00     0.064 C 
ATOM      4  O   UNL     1       6.761   5.960  20.475  1.00  0.00    -0.545 OA
ATOM      5  O   UNL     1       8.986   6.144  19.991  1.00  0.00    -0.545 OA
ENDBRANCH   1   3
BRANCH   2   6
ATOM      6  C   UNL     1       7.356   2.651  19.650  1.00  0.00    -0.026 A 
ATOM      7  C   UNL     1       8.133   2.552  18.486  1.00  0.00     0.008 A 
ATOM      8  C   UNL     1       5.994   2.301  19.599  1.00  0.00     0.008 A 
ATOM      9  C   UNL     1       7.547   2.160  17.277  1.00  0.00     0.001 A 
ATOM     10  C   UNL     1       5.412   1.909  18.389  1.00  0.00     0.001 A 
ATOM     11  C   UNL     1       6.188   1.844  17.229  1.00  0.00     0.000 A 
ENDBRANCH   2   6
TORSDOF 2
ENDMDL
MODEL 6
REMARK VINA RESULT:    -4.071      2.363      4.374
REMARK INTER + INTRA:          -4.737
REMARK INTER:                  -4.483
REMARK INTRA:                  -0.254
REMARK UNBOUND:                -0.189
REMARK SMILES O=C([O-])C=Cc1ccccc1
REMARK SMILES IDX 4 1 5 2 2 3 1 4 3 5 6 6 7 7 11 8 8 9 10 10 9 11
REMARK H PARENT
REMARK Flexibility Score: inf
ROOT
ATOM      1  C   UNL     1       5.980   2.818  18.671  1.00  0.00     0.025 C 
ATOM      2  C   UNL     1       6.568   3.579  19.610  1.00  0.00     0.010 C 
ENDROOT
BRANCH   1   3
ATOM      3  C   UNL     1       6.638   1.753  17.889  1.00  0.00     0.064 C 
ATOM      4  O   UNL     1       7.451   2.020  16.965  1.00  0.00    -0.545 OA
ATOM      5  O   UNL     1       6.300   0.428  18.134  1.00  0.00    -0.545 OA
ENDBRANCH   1   3
BRANCH   2   6
ATOM      6  C   UNL     1       7.924   3.369  20.157  1.00  0.00    -0.026 A 
ATOM      7  C   UNL     1       9.002   4.084  19.613  1.00  0.00     0.008 A 
ATOM      8  C   UNL     1       8.140   2.547  21.277  1.00  0.00     0.008 A 
ATOM      9  C   UNL     1      10.287   3.940  20.148  1.00  0.00     0.001 A 
ATOM     10  C   UNL     1       9.425   2.405  21.809  1.00  0.00     0.001 A 
ATOM     11  C   UNL     1      10.498   3.097  21.242  1.00  0.00     0.000 A 
ENDBRANCH   2   6
TORSDOF 2
ENDMDL
MODEL 7
REMARK VINA RESULT:    -3.955      2.256      4.376
REMARK INTER + INTRA:          -4.607
REMARK INTER:                  -4.353
REMARK INTRA:                  -0.254
REMARK UNBOUND:                -0.189
REMARK SMILES O=C([O-])C=Cc1ccccc1
REMARK SMILES IDX 4 1 5 2 2 3 1 4 3 5 6 6 7 7 11 8 8 9 10 10 9 11
REMARK H PARENT
REMARK Flexibility Score: inf
ROOT
ATOM      1  C   UNL     1       6.635   2.709  18.859  1.00  0.00     0.025 C 
ATOM      2  C   UNL     1       7.950   2.509  18.666  1.00  0.00     0.010 C 
ENDROOT
BRANCH   1   3
ATOM      3  C   UNL     1       6.008   3.164  20.115  1.00  0.00     0.064 C 
ATOM      4  O   UNL     1       5.413   2.363  20.883  1.00  0.00    -0.545 OA
ATOM      5  O   UNL     1       6.014   4.518  20.421  1.00  0.00    -0.545 OA
ENDBRANCH   1   3
BRANCH   2   6
ATOM      6  C   UNL     1       9.020   2.878  19.615  1.00  0.00    -0.026 A 
ATOM      7  C   UNL     1       9.488   4.201  19.643  1.00  0.00     0.008 A 
ATOM      8  C   UNL     1       9.507   1.957  20.560  1.00  0.00     0.008 A 
ATOM      9  C   UNL     1      10.465   4.585  20.567  1.00  0.00     0.001 A 
ATOM     10  C   UNL     1      10.483   2.344  21.483  1.00  0.00     0.001 A 
ATOM     11  C   UNL     1      10.966   3.656  21.482  1.00  0.00     0.000 A 
ENDBRANCH   2   6
TORSDOF 2
ENDMDL
MODEL 8
REMARK VINA RESULT:    -3.947      6.973      7.795
REMARK INTER + INTRA:          -4.597
REMARK INTER:                  -4.332
REMARK INTRA:                  -0.266
REMARK UNBOUND:                -0.189
REMARK SMILES O=C([O-])C=Cc1ccccc1
REMARK SMILES IDX 4 1 5 2 2 3 1 4 3 5 6 6 7 7 11 8 8 9 10 10 9 11
REMARK H PARENT
REMARK Flexibility Score: inf
ROOT
ATOM      1  C   UNL     1       7.874   9.056  21.296  1.00  0.00     0.025 C 
ATOM      2  C   UNL     1       7.881   8.288  20.193  1.00  0.00     0.010 C 
ENDROOT
BRANCH   1   3
ATOM      3  C   UNL     1       8.081  10.517  21.330  1.00  0.00     0.064 C 
ATOM      4  O   UNL     1       9.217  11.017  21.544  1.00  0.00    -0.545 OA
ATOM      5  O   UNL     1       6.985  11.358  21.190  1.00  0.00    -0.545 OA
ENDBRANCH   1   3
BRANCH   2   6
ATOM      6  C   UNL     1       7.918   8.786  18.803  1.00  0.00    -0.026 A 
ATOM      7  C   UNL     1       6.730   9.220  18.196  1.00  0.00     0.008 A 
ATOM      8  C   UNL     1       9.135   8.929  18.112  1.00  0.00     0.008 A 
ATOM      9  C   UNL     1       6.750   9.742  16.899  1.00  0.00     0.001 A 
ATOM     10  C   UNL     1       9.151   9.452  16.815  1.00  0.00     0.001 A 
ATOM     11  C   UNL     1       7.959   9.853  16.207  1.00  0.00     0.000 A 
ENDBRANCH   2   6
TORSDOF 2
ENDMDL
MODEL 9
REMARK VINA RESULT:    -3.872      7.487      8.587
REMARK INTER + INTRA:          -4.514
REMARK INTER:                  -4.420
REMARK INTRA:                  -0.094
REMARK UNBOUND:                -0.189
REMARK SMILES O=C([O-])C=Cc1ccccc1
REMARK SMILES IDX 4 1 5 2 2 3 1 4 3 5 6 6 7 7 11 8 8 9 10 10 9 11
REMARK H PARENT
REMARK Flexibility Score: inf
ROOT
ATOM      1  C   UNL     1       7.531   9.790  15.327  1.00  0.00     0.025 C 
ATOM      2  C   UNL     1       8.471   9.691  16.282  1.00  0.00     0.010 C 
ENDROOT
BRANCH   1   3
ATOM      3  C   UNL     1       6.087   9.545  15.510  1.00  0.00     0.064 C 
ATOM      4  O   UNL     1       5.617   8.377  15.546  1.00  0.00    -0.545 OA
ATOM      5  O   UNL     1       5.220  10.627  15.575  1.00  0.00    -0.545 OA
ENDBRANCH   1   3
BRANCH   2   6
ATOM      6  C   UNL     1       8.210   9.495  17.723  1.00  0.00    -0.026 A 
ATOM      7  C   UNL     1       8.830   8.431  18.395  1.00  0.00     0.008 A 
ATOM      8  C   UNL     1       7.437  10.414  18.455  1.00  0.00     0.008 A 
ATOM      9  C   UNL     1       8.638   8.256  19.769  1.00  0.00     0.001 A 
ATOM     10  C   UNL     1       7.247  10.236  19.829  1.00  0.00     0.001 A 
ATOM     11  C   UNL     1       7.843   9.155  20.484  1.00  0.00     0.000 A 
ENDBRANCH   2   6
TORSDOF 2
ENDMDL
