MODEL 1
REMARK VINA RESULT:     2.747      0.000      0.000
REMARK INTER + INTRA:           3.935
REMARK INTER:                   4.353
REMARK INTRA:                  -0.419
REMARK UNBOUND:                -0.419
REMARK SMILES CCCCCCCCCCCC(=O)[O-]
REMARK SMILES IDX 7 1 8 2 9 3 10 4 11 5 12 6 13 7 14 8 6 9 5 10 4 11 3 12 2 13
REMARK SMILES IDX 1 14
REMARK H PARENT
REMARK Flexibility Score: inf
ROOT
ATOM      1  C   UNL     1      11.381  13.845  -1.470  1.00  0.00     0.000 C 
ENDROOT
BRANCH   1   2
ATOM      2  C   UNL     1      10.637  13.612  -0.145  1.00  0.00     0.000 C 
BRANCH   2   3
ATOM      3  C   UNL     1      11.570  13.656   1.075  1.00  0.00     0.000 C 
BRANCH   3   4
ATOM      4  C   UNL     1      11.093  14.703   2.093  1.00  0.00     0.006 C 
BRANCH   4   5
ATOM      5  C   UNL     1       9.679  15.213   1.783  1.00  0.00     0.053 C 
BRANCH   5   6
ATOM      6  C   UNL     1       9.626  16.709   1.736  1.00  0.00     0.041 C 
ATOM      7  O   UNL     1      10.635  17.368   1.372  1.00  0.00    -0.550 OA
ATOM      8  O   UNL     1       8.472  17.376   2.124  1.00  0.00    -0.550 OA
ENDBRANCH   5   6
ENDBRANCH   4   5
ENDBRANCH   3   4
ENDBRANCH   2   3
ENDBRANCH   1   2
BRANCH   1   9
ATOM      9  C   UNL     1      10.460  14.391  -2.576  1.00  0.00     0.000 C 
BRANCH   9  10
ATOM     10  C   UNL     1      11.137  14.400  -3.957  1.00  0.00    -0.000 C 
BRANCH  10  11
ATOM     11  C   UNL     1      10.770  15.645  -4.785  1.00  0.00    -0.000 C 
BRANCH  11  12
ATOM     12  C   UNL     1      11.848  16.002  -5.822  1.00  0.00    -0.000 C 
BRANCH  12  13
ATOM     13  C   UNL     1      12.441  17.402  -5.602  1.00  0.00    -0.003 C 
ATOM     14  C   UNL     1      13.671  17.620  -6.479  1.00  0.00     0.004 C 
ENDBRANCH  12  13
ENDBRANCH  11  12
ENDBRANCH  10  11
ENDBRANCH   9  10
ENDBRANCH   1   9
TORSDOF 10
ENDMDL
MODEL 2
REMARK VINA RESULT:     3.787      3.361      6.804
REMARK INTER + INTRA:           5.583
REMARK INTER:                   6.157
REMARK INTRA:                  -0.574
REMARK UNBOUND:                -0.419
REMARK SMILES CCCCCCCCCCCC(=O)[O-]
REMARK SMILES IDX 7 1 8 2 9 3 10 4 11 5 12 6 13 7 14 8 6 9 5 10 4 11 3 12 2 13
REMARK SMILES IDX 1 14
REMARK H PARENT
REMARK Flexibility Score: inf
ROOT
ATOM      1  C   UNL     1      11.228  14.007  -1.758  1.00  0.00     0.000 C 
ENDROOT
BRANCH   1   2
ATOM      2  C   UNL     1      10.435  14.621  -2.923  1.00  0.00     0.000 C 
BRANCH   2   3
ATOM      3  C   UNL     1      11.096  14.373  -4.287  1.00  0.00     0.000 C 
BRANCH   3   4
ATOM      4  C   UNL     1      11.076  15.646  -5.147  1.00  0.00     0.006 C 
BRANCH   4   5
ATOM      5  C   UNL     1      12.278  16.557  -4.865  1.00  0.00     0.053 C 
BRANCH   5   6
ATOM      6  C   UNL     1      12.794  17.199  -6.116  1.00  0.00     0.041 C 
ATOM      7  O   UNL     1      13.231  16.489  -7.059  1.00  0.00    -0.550 OA
ATOM      8  O   UNL     1      12.820  18.583  -6.226  1.00  0.00    -0.550 OA
ENDBRANCH   5   6
ENDBRANCH   4   5
ENDBRANCH   3   4
ENDBRANCH   2   3
ENDBRANCH   1   2
BRANCH   1   9
ATOM      9  C   UNL     1      10.364  13.790  -0.504  1.00  0.00     0.000 C 
BRANCH   9  10
ATOM     10  C   UNL     1      11.206  13.508   0.752  1.00  0.00    -0.000 C 
BRANCH  10  11
ATOM     11  C   UNL     1      10.936  14.517   1.883  1.00  0.00    -0.000 C 
BRANCH  11  12
ATOM     12  C   UNL     1       9.633  15.304   1.672  1.00  0.00    -0.000 C 
BRANCH  12  13
ATOM     13  C   UNL     1       9.876  16.805   1.452  1.00  0.00    -0.003 C 
ATOM     14  C   UNL     1      11.350  17.154   1.638  1.00  0.00     0.004 C 
ENDBRANCH  12  13
ENDBRANCH  11  12
ENDBRANCH  10  11
ENDBRANCH   9  10
ENDBRANCH   1   9
TORSDOF 10
ENDMDL
MODEL 3
REMARK VINA RESULT:     4.437     13.241     14.606
REMARK INTER + INTRA:           6.613
REMARK INTER:                   7.444
REMARK INTRA:                  -0.831
REMARK UNBOUND:                -0.419
REMARK SMILES CCCCCCCCCCCC(=O)[O-]
REMARK SMILES IDX 7 1 8 2 9 3 10 4 11 5 12 6 13 7 14 8 6 9 5 10 4 11 3 12 2 13
REMARK SMILES IDX 1 14
REMARK H PARENT
REMARK Flexibility Score: inf
ROOT
ATOM      1  C   UNL     1      18.027  17.748 -11.393  1.00  0.00     0.000 C 
ENDROOT
BRANCH   1   2
ATOM      2  C   UNL     1      17.546  17.188 -12.740  1.00  0.00     0.000 C 
BRANCH   2   3
ATOM      3  C   UNL     1      16.515  16.059 -12.580  1.00  0.00     0.000 C 
BRANCH   3   4
ATOM      4  C   UNL     1      16.778  14.929 -13.588  1.00  0.00     0.006 C 
BRANCH   4   5
ATOM      5  C   UNL     1      18.230  14.920 -14.085  1.00  0.00     0.053 C 
BRANCH   5   6
ATOM      6  C   UNL     1      19.104  14.055 -13.229  1.00  0.00     0.041 C 
ATOM      7  O   UNL     1      18.757  12.876 -12.957  1.00  0.00    -0.550 OA
ATOM      8  O   UNL     1      20.286  14.564 -12.707  1.00  0.00    -0.550 OA
ENDBRANCH   5   6
ENDBRANCH   4   5
ENDBRANCH   3   4
ENDBRANCH   2   3
ENDBRANCH   1   2
BRANCH   1   9
ATOM      9  C   UNL     1      17.810  19.267 -11.273  1.00  0.00     0.000 C 
BRANCH   9  10
ATOM     10  C   UNL     1      17.337  19.902 -12.591  1.00  0.00    -0.000 C 
BRANCH  10  11
ATOM     11  C   UNL     1      18.443  20.721 -13.282  1.00  0.00    -0.000 C 
BRANCH  11  12
ATOM     12  C   UNL     1      19.255  21.571 -12.291  1.00  0.00    -0.000 C 
BRANCH  12  13
ATOM     13  C   UNL     1      20.744  21.194 -12.268  1.00  0.00    -0.003 C 
ATOM     14  C   UNL     1      20.987  19.875 -12.998  1.00  0.00     0.004 C 
ENDBRANCH  12  13
ENDBRANCH  11  12
ENDBRANCH  10  11
ENDBRANCH   9  10
ENDBRANCH   1   9
TORSDOF 10
ENDMDL
MODEL 4
REMARK VINA RESULT:     4.584     13.209     14.557
REMARK INTER + INTRA:           6.845
REMARK INTER:                   7.687
REMARK INTRA:                  -0.842
REMARK UNBOUND:                -0.419
REMARK SMILES CCCCCCCCCCCC(=O)[O-]
REMARK SMILES IDX 7 1 8 2 9 3 10 4 11 5 12 6 13 7 14 8 6 9 5 10 4 11 3 12 2 13
REMARK SMILES IDX 1 14
REMARK H PARENT
REMARK Flexibility Score: inf
ROOT
ATOM      1  C   UNL     1      18.640  17.582 -12.165  1.00  0.00     0.000 C 
ENDROOT
BRANCH   1   2
ATOM      2  C   UNL     1      17.681  18.249 -11.166  1.00  0.00     0.000 C 
BRANCH   2   3
ATOM      3  C   UNL     1      17.775  19.782 -11.187  1.00  0.00     0.000 C 
BRANCH   3   4
ATOM      4  C   UNL     1      18.126  20.292 -12.593  1.00  0.00     0.006 C 
BRANCH   4   5
ATOM      5  C   UNL     1      19.121  21.460 -12.556  1.00  0.00     0.053 C 
BRANCH   5   6
ATOM      6  C   UNL     1      20.531  20.983 -12.394  1.00  0.00     0.041 C 
ATOM      7  O   UNL     1      20.935  19.971 -13.025  1.00  0.00    -0.550 OA
ATOM      8  O   UNL     1      21.390  21.637 -11.520  1.00  0.00    -0.550 OA
ENDBRANCH   5   6
ENDBRANCH   4   5
ENDBRANCH   3   4
ENDBRANCH   2   3
ENDBRANCH   1   2
BRANCH   1   9
ATOM      9  C   UNL     1      17.898  16.818 -13.277  1.00  0.00     0.000 C 
BRANCH   9  10
ATOM     10  C   UNL     1      16.648  16.087 -12.758  1.00  0.00    -0.000 C 
BRANCH  10  11
ATOM     11  C   UNL     1      16.567  14.633 -13.256  1.00  0.00    -0.000 C 
BRANCH  11  12
ATOM     12  C   UNL     1      17.825  14.201 -14.027  1.00  0.00    -0.000 C 
BRANCH  12  13
ATOM     13  C   UNL     1      18.727  13.263 -13.210  1.00  0.00    -0.003 C 
ATOM     14  C   UNL     1      20.043  13.946 -12.848  1.00  0.00     0.004 C 
ENDBRANCH  12  13
ENDBRANCH  11  12
ENDBRANCH  10  11
ENDBRANCH   9  10
ENDBRANCH   1   9
TORSDOF 10
ENDMDL
MODEL 5
REMARK VINA RESULT:     4.781     13.163     14.345
REMARK INTER + INTRA:           7.157
REMARK INTER:                   7.758
REMARK INTRA:                  -0.601
REMARK UNBOUND:                -0.419
REMARK SMILES CCCCCCCCCCCC(=O)[O-]
REMARK SMILES IDX 7 1 8 2 9 3 10 4 11 5 12 6 13 7 14 8 6 9 5 10 4 11 3 12 2 13
REMARK SMILES IDX 1 14
REMARK H PARENT
REMARK Flexibility Score: inf
ROOT
ATOM      1  C   UNL     1      17.922  16.979 -13.284  1.00  0.00     0.000 C 
ENDROOT
BRANCH   1   2
ATOM      2  C   UNL     1      18.770  17.633 -12.182  1.00  0.00     0.000 C 
BRANCH   2   3
ATOM      3  C   UNL     1      17.917  18.254 -11.066  1.00  0.00     0.000 C 
BRANCH   3   4
ATOM      4  C   UNL     1      17.611  19.730 -11.365  1.00  0.00     0.006 C 
BRANCH   4   5
ATOM      5  C   UNL     1      18.200  20.185 -12.707  1.00  0.00     0.053 C 
BRANCH   5   6
ATOM      6  C   UNL     1      19.378  21.090 -12.518  1.00  0.00     0.041 C 
ATOM      7  O   UNL     1      19.211  22.333 -12.406  1.00  0.00    -0.550 OA
ATOM      8  O   UNL     1      20.663  20.564 -12.498  1.00  0.00    -0.550 OA
ENDBRANCH   5   6
ENDBRANCH   4   5
ENDBRANCH   3   4
ENDBRANCH   2   3
ENDBRANCH   1   2
BRANCH   1   9
ATOM      9  C   UNL     1      16.644  16.320 -12.734  1.00  0.00     0.000 C 
BRANCH   9  10
ATOM     10  C   UNL     1      16.477  14.867 -13.209  1.00  0.00    -0.000 C 
BRANCH  10  11
ATOM     11  C   UNL     1      17.735  14.328 -13.913  1.00  0.00    -0.000 C 
BRANCH  11  12
ATOM     12  C   UNL     1      18.338  13.110 -13.193  1.00  0.00    -0.000 C 
BRANCH  12  13
ATOM     13  C   UNL     1      19.871  13.166 -13.117  1.00  0.00    -0.003 C 
ATOM     14  C   UNL     1      20.342  14.489 -12.519  1.00  0.00     0.004 C 
ENDBRANCH  12  13
ENDBRANCH  11  12
ENDBRANCH  10  11
ENDBRANCH   9  10
ENDBRANCH   1   9
TORSDOF 10
ENDMDL
MODEL 6
REMARK VINA RESULT:     5.498     13.146     14.808
REMARK INTER + INTRA:           8.293
REMARK INTER:                   9.085
REMARK INTRA:                  -0.791
REMARK UNBOUND:                -0.419
REMARK SMILES CCCCCCCCCCCC(=O)[O-]
REMARK SMILES IDX 7 1 8 2 9 3 10 4 11 5 12 6 13 7 14 8 6 9 5 10 4 11 3 12 2 13
REMARK SMILES IDX 1 14
REMARK H PARENT
REMARK Flexibility Score: inf
ROOT
ATOM      1  C   UNL     1      17.710  19.504 -11.442  1.00  0.00     0.000 C 
ENDROOT
BRANCH   1   2
ATOM      2  C   UNL     1      17.961  17.989 -11.394  1.00  0.00     0.000 C 
BRANCH   2   3
ATOM      3  C   UNL     1      18.249  17.390 -12.779  1.00  0.00     0.000 C 
BRANCH   3   4
ATOM      4  C   UNL     1      17.415  16.121 -13.013  1.00  0.00     0.006 C 
BRANCH   4   5
ATOM      5  C   UNL     1      18.141  15.104 -13.902  1.00  0.00     0.053 C 
BRANCH   5   6
ATOM      6  C   UNL     1      18.292  13.778 -13.221  1.00  0.00     0.041 C 
ATOM      7  O   UNL     1      19.418  13.218 -13.166  1.00  0.00    -0.550 OA
ATOM      8  O   UNL     1      17.181  13.147 -12.676  1.00  0.00    -0.550 OA
ENDBRANCH   5   6
ENDBRANCH   4   5
ENDBRANCH   3   4
ENDBRANCH   2   3
ENDBRANCH   1   2
BRANCH   1   9
ATOM      9  C   UNL     1      18.271  20.156 -12.718  1.00  0.00     0.000 C 
BRANCH   9  10
ATOM     10  C   UNL     1      19.134  21.393 -12.420  1.00  0.00    -0.000 C 
BRANCH  10  11
ATOM     11  C   UNL     1      20.639  21.071 -12.394  1.00  0.00    -0.000 C 
BRANCH  11  12
ATOM     12  C   UNL     1      20.930  19.587 -12.672  1.00  0.00    -0.000 C 
BRANCH  12  13
ATOM     13  C   UNL     1      21.991  19.004 -11.726  1.00  0.00    -0.003 C 
ATOM     14  C   UNL     1      21.910  17.480 -11.685  1.00  0.00     0.004 C 
ENDBRANCH  12  13
ENDBRANCH  11  12
ENDBRANCH  10  11
ENDBRANCH   9  10
ENDBRANCH   1   9
TORSDOF 10
ENDMDL
