MODEL 1
REMARK VINA RESULT:    -3.039      0.000      0.000
REMARK INTER + INTRA:          -3.553
REMARK INTER:                  -3.484
REMARK INTRA:                  -0.069
REMARK UNBOUND:                -0.069
REMARK SMILES COc1cc(C=O)ccc1O
REMARK SMILES IDX 3 1 10 2 9 3 8 4 5 5 4 6 2 7 1 8 11 9 6 11 7 12
REMARK H PARENT 11 10
REMARK Flexibility Score: inf
ROOT
ATOM      1  C   UNL     1     102.461 103.985 108.742  1.00  0.00     0.161 A 
ATOM      2  C   UNL     1     102.317 105.344 108.407  1.00  0.00     0.157 A 
ATOM      3  C   UNL     1     103.431 106.188 108.409  1.00  0.00     0.051 A 
ATOM      4  C   UNL     1     104.693 105.693 108.743  1.00  0.00     0.015 A 
ATOM      5  C   UNL     1     104.858 104.343 109.079  1.00  0.00     0.018 A 
ATOM      6  C   UNL     1     103.738 103.491 109.077  1.00  0.00     0.062 A 
ENDROOT
BRANCH   1   7
ATOM      7  O   UNL     1     101.325 103.160 108.730  1.00  0.00    -0.493 OA
ATOM      8  C   UNL     1     101.206 101.958 107.978  1.00  0.00     0.278 C 
ENDBRANCH   1   7
BRANCH   2   9
ATOM      9  O   UNL     1     101.071 105.874 108.069  1.00  0.00    -0.504 OA
ATOM     10  H   UNL     1     100.234 105.306 108.032  1.00  0.00     0.293 HD
ENDBRANCH   2   9
BRANCH   5  11
ATOM     11  C   UNL     1     106.200 103.840 109.427  1.00  0.00     0.260 C 
ATOM     12  O   UNL     1     107.142 104.632 109.698  1.00  0.00    -0.298 OA
ENDBRANCH   5  11
TORSDOF 3
ENDMDL
MODEL 2
REMARK VINA RESULT:    -3.035     10.062     11.997
REMARK INTER + INTRA:          -3.547
REMARK INTER:                  -3.492
REMARK INTRA:                  -0.055
REMARK UNBOUND:                -0.069
REMARK SMILES COc1cc(C=O)ccc1O
REMARK SMILES IDX 3 1 10 2 9 3 8 4 5 5 4 6 2 7 1 8 11 9 6 11 7 12
REMARK H PARENT 11 10
REMARK Flexibility Score: inf
ROOT
ATOM      1  C   UNL     1     111.356 112.624 106.654  1.00  0.00     0.161 A 
ATOM      2  C   UNL     1     112.219 113.393 105.853  1.00  0.00     0.157 A 
ATOM      3  C   UNL     1     112.019 113.459 104.472  1.00  0.00     0.051 A 
ATOM      4  C   UNL     1     110.964 112.766 103.875  1.00  0.00     0.015 A 
ATOM      5  C   UNL     1     110.093 111.996 104.656  1.00  0.00     0.018 A 
ATOM      6  C   UNL     1     110.291 111.927 106.047  1.00  0.00     0.062 A 
ENDROOT
BRANCH   1   7
ATOM      7  O   UNL     1     111.581 112.576 108.040  1.00  0.00    -0.493 OA
ATOM      8  C   UNL     1     110.555 112.548 109.025  1.00  0.00     0.278 C 
ENDBRANCH   1   7
BRANCH   2   9
ATOM      9  O   UNL     1     113.285 114.098 106.413  1.00  0.00    -0.504 OA
ATOM     10  H   UNL     1     113.599 113.938 107.362  1.00  0.00     0.293 HD
ENDBRANCH   2   9
BRANCH   5  11
ATOM     11  C   UNL     1     108.983 111.272 104.007  1.00  0.00     0.260 C 
ATOM     12  O   UNL     1     108.958 110.012 103.975  1.00  0.00    -0.298 OA
ENDBRANCH   5  11
TORSDOF 3
ENDMDL
MODEL 3
REMARK VINA RESULT:    -3.029     15.589     18.005
REMARK INTER + INTRA:          -3.541
REMARK INTER:                  -3.477
REMARK INTRA:                  -0.064
REMARK UNBOUND:                -0.069
REMARK SMILES COc1cc(C=O)ccc1O
REMARK SMILES IDX 3 1 10 2 9 3 8 4 5 5 4 6 2 7 1 8 11 9 6 11 7 12
REMARK H PARENT 11 10
REMARK Flexibility Score: inf
ROOT
ATOM      1  C   UNL     1     117.731 116.144 108.689  1.00  0.00     0.161 A 
ATOM      2  C   UNL     1     117.818 114.774 108.378  1.00  0.00     0.157 A 
ATOM      3  C   UNL     1     116.676 113.971 108.426  1.00  0.00     0.051 A 
ATOM      4  C   UNL     1     115.441 114.517 108.781  1.00  0.00     0.015 A 
ATOM      5  C   UNL     1     115.333 115.878 109.094  1.00  0.00     0.018 A 
ATOM      6  C   UNL     1     116.481 116.690 109.046  1.00  0.00     0.062 A 
ENDROOT
BRANCH   1   7
ATOM      7  O   UNL     1     118.895 116.927 108.632  1.00  0.00    -0.493 OA
ATOM      8  C   UNL     1     118.981 118.204 108.010  1.00  0.00     0.278 C 
ENDBRANCH   1   7
BRANCH   2   9
ATOM      9  O   UNL     1     119.035 114.193 108.021  1.00  0.00    -0.504 OA
ATOM     10  H   UNL     1     119.094 113.267 107.616  1.00  0.00     0.293 HD
ENDBRANCH   2   9
BRANCH   5  11
ATOM     11  C   UNL     1     114.019 116.436 109.465  1.00  0.00     0.260 C 
ATOM     12  O   UNL     1     113.053 115.684 109.762  1.00  0.00    -0.298 OA
ENDBRANCH   5  11
TORSDOF 3
ENDMDL
MODEL 4
REMARK VINA RESULT:    -3.009     11.019     12.774
REMARK INTER + INTRA:          -3.518
REMARK INTER:                  -3.459
REMARK INTRA:                  -0.059
REMARK UNBOUND:                -0.069
REMARK SMILES COc1cc(C=O)ccc1O
REMARK SMILES IDX 3 1 10 2 9 3 8 4 5 5 4 6 2 7 1 8 11 9 6 11 7 12
REMARK H PARENT 11 10
REMARK Flexibility Score: inf
ROOT
ATOM      1  C   UNL     1     116.147 102.307 108.712  1.00  0.00     0.161 A 
ATOM      2  C   UNL     1     114.780 102.276 108.384  1.00  0.00     0.157 A 
ATOM      3  C   UNL     1     114.028 103.454 108.403  1.00  0.00     0.051 A 
ATOM      4  C   UNL     1     114.624 104.669 108.746  1.00  0.00     0.015 A 
ATOM      5  C   UNL     1     115.985 104.721 109.076  1.00  0.00     0.018 A 
ATOM      6  C   UNL     1     116.744 103.537 109.057  1.00  0.00     0.062 A 
ENDROOT
BRANCH   1   7
ATOM      7  O   UNL     1     116.878 101.108 108.684  1.00  0.00    -0.493 OA
ATOM      8  C   UNL     1     118.277 101.020 108.438  1.00  0.00     0.278 C 
ENDBRANCH   1   7
BRANCH   2   9
ATOM      9  O   UNL     1     114.149 101.081 108.037  1.00  0.00    -0.504 OA
ATOM     10  H   UNL     1     114.226 100.245 108.603  1.00  0.00     0.293 HD
ENDBRANCH   2   9
BRANCH   5  11
ATOM     11  C   UNL     1     116.596 106.014 109.435  1.00  0.00     0.260 C 
ATOM     12  O   UNL     1     115.885 107.004 109.756  1.00  0.00    -0.298 OA
ENDBRANCH   5  11
TORSDOF 3
ENDMDL
MODEL 5
REMARK VINA RESULT:    -2.999     11.031     12.751
REMARK INTER + INTRA:          -3.506
REMARK INTER:                  -3.444
REMARK INTRA:                  -0.062
REMARK UNBOUND:                -0.069
REMARK SMILES COc1cc(C=O)ccc1O
REMARK SMILES IDX 3 1 10 2 9 3 8 4 5 5 4 6 2 7 1 8 11 9 6 11 7 12
REMARK H PARENT 11 10
REMARK Flexibility Score: inf
ROOT
ATOM      1  C   UNL     1     104.010 117.743 108.703  1.00  0.00     0.161 A 
ATOM      2  C   UNL     1     105.381 117.815 108.393  1.00  0.00     0.157 A 
ATOM      3  C   UNL     1     106.166 116.660 108.420  1.00  0.00     0.051 A 
ATOM      4  C   UNL     1     105.602 115.427 108.753  1.00  0.00     0.015 A 
ATOM      5  C   UNL     1     104.239 115.334 109.065  1.00  0.00     0.018 A 
ATOM      6  C   UNL     1     103.445 116.495 109.038  1.00  0.00     0.062 A 
ENDROOT
BRANCH   1   7
ATOM      7  O   UNL     1     103.245 118.919 108.667  1.00  0.00    -0.493 OA
ATOM      8  C   UNL     1     101.918 119.006 108.160  1.00  0.00     0.278 C 
ENDBRANCH   1   7
BRANCH   2   9
ATOM      9  O   UNL     1     105.980 119.029 108.057  1.00  0.00    -0.504 OA
ATOM     10  H   UNL     1     106.888 119.301 108.414  1.00  0.00     0.293 HD
ENDBRANCH   2   9
BRANCH   5  11
ATOM     11  C   UNL     1     103.662 114.023 109.413  1.00  0.00     0.260 C 
ATOM     12  O   UNL     1     104.398 113.048 109.723  1.00  0.00    -0.298 OA
ENDBRANCH   5  11
TORSDOF 3
ENDMDL
MODEL 6
REMARK VINA RESULT:    -2.985      5.981      7.677
REMARK INTER + INTRA:          -3.490
REMARK INTER:                  -3.426
REMARK INTRA:                  -0.064
REMARK UNBOUND:                -0.069
REMARK SMILES COc1cc(C=O)ccc1O
REMARK SMILES IDX 3 1 10 2 9 3 8 4 5 5 4 6 2 7 1 8 11 9 6 11 7 12
REMARK H PARENT 11 10
REMARK Flexibility Score: inf
ROOT
ATOM      1  C   UNL     1     108.514 107.591 106.745  1.00  0.00     0.161 A 
ATOM      2  C   UNL     1     107.773 106.707 105.940  1.00  0.00     0.157 A 
ATOM      3  C   UNL     1     108.022 106.634 104.567  1.00  0.00     0.051 A 
ATOM      4  C   UNL     1     109.005 107.434 103.982  1.00  0.00     0.015 A 
ATOM      5  C   UNL     1     109.755 108.320 104.767  1.00  0.00     0.018 A 
ATOM      6  C   UNL     1     109.507 108.396 106.150  1.00  0.00     0.062 A 
ENDROOT
BRANCH   1   7
ATOM      7  O   UNL     1     108.243 107.643 108.122  1.00  0.00    -0.493 OA
ATOM      8  C   UNL     1     109.201 107.394 109.145  1.00  0.00     0.278 C 
ENDBRANCH   1   7
BRANCH   2   9
ATOM      9  O   UNL     1     106.781 105.894 106.489  1.00  0.00    -0.504 OA
ATOM     10  H   UNL     1     105.933 105.662 105.987  1.00  0.00     0.293 HD
ENDBRANCH   2   9
BRANCH   5  11
ATOM     11  C   UNL     1     110.790 109.156 104.130  1.00  0.00     0.260 C 
ATOM     12  O   UNL     1     110.738 110.414 104.186  1.00  0.00    -0.298 OA
ENDBRANCH   5  11
TORSDOF 3
ENDMDL
MODEL 7
REMARK VINA RESULT:    -2.979      8.750     10.131
REMARK INTER + INTRA:          -3.483
REMARK INTER:                  -3.413
REMARK INTRA:                  -0.070
REMARK UNBOUND:                -0.069
REMARK SMILES COc1cc(C=O)ccc1O
REMARK SMILES IDX 3 1 10 2 9 3 8 4 5 5 4 6 2 7 1 8 11 9 6 11 7 12
REMARK H PARENT 11 10
REMARK Flexibility Score: inf
ROOT
ATOM      1  C   UNL     1     108.029 111.738 106.189  1.00  0.00     0.161 A 
ATOM      2  C   UNL     1     107.298 112.209 105.083  1.00  0.00     0.157 A 
ATOM      3  C   UNL     1     107.966 112.645 103.936  1.00  0.00     0.051 A 
ATOM      4  C   UNL     1     109.360 112.618 103.875  1.00  0.00     0.015 A 
ATOM      5  C   UNL     1     110.106 112.152 104.965  1.00  0.00     0.018 A 
ATOM      6  C   UNL     1     109.437 111.711 106.121  1.00  0.00     0.062 A 
ENDROOT
BRANCH   1   7
ATOM      7  O   UNL     1     107.331 111.305 107.328  1.00  0.00    -0.493 OA
ATOM      8  C   UNL     1     107.005 112.132 108.439  1.00  0.00     0.278 C 
ENDBRANCH   1   7
BRANCH   2   9
ATOM      9  O   UNL     1     105.903 112.253 105.108  1.00  0.00    -0.504 OA
ATOM     10  H   UNL     1     105.391 112.793 105.794  1.00  0.00     0.293 HD
ENDBRANCH   2   9
BRANCH   5  11
ATOM     11  C   UNL     1     111.579 112.129 104.880  1.00  0.00     0.260 C 
ATOM     12  O   UNL     1     112.207 113.001 104.221  1.00  0.00    -0.298 OA
ENDBRANCH   5  11
TORSDOF 3
ENDMDL
MODEL 8
REMARK VINA RESULT:    -2.976      8.679     10.906
REMARK INTER + INTRA:          -3.480
REMARK INTER:                  -3.422
REMARK INTRA:                  -0.058
REMARK UNBOUND:                -0.069
REMARK SMILES COc1cc(C=O)ccc1O
REMARK SMILES IDX 3 1 10 2 9 3 8 4 5 5 4 6 2 7 1 8 11 9 6 11 7 12
REMARK H PARENT 11 10
REMARK Flexibility Score: inf
ROOT
ATOM      1  C   UNL     1     112.318 108.380 106.546  1.00  0.00     0.161 A 
ATOM      2  C   UNL     1     113.376 107.752 105.864  1.00  0.00     0.157 A 
ATOM      3  C   UNL     1     113.683 108.125 104.553  1.00  0.00     0.051 A 
ATOM      4  C   UNL     1     112.947 109.122 103.910  1.00  0.00     0.015 A 
ATOM      5  C   UNL     1     111.890 109.760 104.572  1.00  0.00     0.018 A 
ATOM      6  C   UNL     1     111.579 109.387 105.892  1.00  0.00     0.062 A 
ENDROOT
BRANCH   1   7
ATOM      7  O   UNL     1     112.032 107.986 107.863  1.00  0.00    -0.493 OA
ATOM      8  C   UNL     1     110.723 107.752 108.372  1.00  0.00     0.278 C 
ENDBRANCH   1   7
BRANCH   2   9
ATOM      9  O   UNL     1     114.133 106.751 106.474  1.00  0.00    -0.504 OA
ATOM     10  H   UNL     1     114.823 106.954 107.187  1.00  0.00     0.293 HD
ENDBRANCH   2   9
BRANCH   5  11
ATOM     11  C   UNL     1     111.125 110.811 103.875  1.00  0.00     0.260 C 
ATOM     12  O   UNL     1     109.944 111.090 104.214  1.00  0.00    -0.298 OA
ENDBRANCH   5  11
TORSDOF 3
ENDMDL
MODEL 9
REMARK VINA RESULT:    -2.903      6.008      7.798
REMARK INTER + INTRA:          -3.396
REMARK INTER:                  -3.335
REMARK INTRA:                  -0.061
REMARK UNBOUND:                -0.069
REMARK SMILES COc1cc(C=O)ccc1O
REMARK SMILES IDX 3 1 10 2 9 3 8 4 5 5 4 6 2 7 1 8 11 9 6 11 7 12
REMARK H PARENT 11 10
REMARK Flexibility Score: inf
ROOT
ATOM      1  C   UNL     1     108.259 108.085 106.195  1.00  0.00     0.161 A 
ATOM      2  C   UNL     1     107.797 107.355 105.085  1.00  0.00     0.157 A 
ATOM      3  C   UNL     1     107.372 108.025 103.935  1.00  0.00     0.051 A 
ATOM      4  C   UNL     1     107.402 109.419 103.875  1.00  0.00     0.015 A 
ATOM      5  C   UNL     1     107.860 110.164 104.970  1.00  0.00     0.018 A 
ATOM      6  C   UNL     1     108.289 109.492 106.129  1.00  0.00     0.062 A 
ENDROOT
BRANCH   1   7
ATOM      7  O   UNL     1     108.681 107.385 107.337  1.00  0.00    -0.493 OA
ATOM      8  C   UNL     1     107.836 107.032 108.427  1.00  0.00     0.278 C 
ENDBRANCH   1   7
BRANCH   2   9
ATOM      9  O   UNL     1     107.750 105.960 105.108  1.00  0.00    -0.504 OA
ATOM     10  H   UNL     1     107.784 105.404 104.262  1.00  0.00     0.293 HD
ENDBRANCH   2   9
BRANCH   5  11
ATOM     11  C   UNL     1     107.886 111.636 104.887  1.00  0.00     0.260 C 
ATOM     12  O   UNL     1     107.109 112.342 105.585  1.00  0.00    -0.298 OA
ENDBRANCH   5  11
TORSDOF 3
ENDMDL
