MODEL 1
REMARK VINA RESULT:    -5.023      0.000      0.000
REMARK INTER + INTRA:         -10.090
REMARK INTER:                  -8.547
REMARK INTRA:                  -1.542
REMARK UNBOUND:                -1.542
REMARK SMILES CCCCCCCCCCCCCC(=O)[O-]
REMARK SMILES IDX 8 1 9 2 10 3 11 4 12 5 13 6 14 7 15 8 16 9 7 10 6 11 5 12
REMARK SMILES IDX 4 13 3 14 2 15 1 16
REMARK H PARENT
REMARK Flexibility Score: inf
ROOT
ATOM      1  C   UNL     1     102.588 -83.266  23.015  1.00  0.00     0.000 C 
ENDROOT
BRANCH   1   2
ATOM      2  C   UNL     1     104.122 -83.257  22.970  1.00  0.00     0.000 C 
BRANCH   2   3
ATOM      3  C   UNL     1     104.706 -81.857  22.715  1.00  0.00     0.000 C 
BRANCH   3   4
ATOM      4  C   UNL     1     106.249 -81.816  22.750  1.00  0.00     0.000 C 
BRANCH   4   5
ATOM      5  C   UNL     1     106.837 -82.905  23.665  1.00  0.00     0.006 C 
BRANCH   5   6
ATOM      6  C   UNL     1     107.784 -82.324  24.723  1.00  0.00     0.053 C 
BRANCH   6   7
ATOM      7  C   UNL     1     107.101 -82.146  26.044  1.00  0.00     0.041 C 
ATOM      8  O   UNL     1     106.422 -81.111  26.273  1.00  0.00    -0.550 OA
ATOM      9  O   UNL     1     107.187 -83.140  27.011  1.00  0.00    -0.550 OA
ENDBRANCH   6   7
ENDBRANCH   5   6
ENDBRANCH   4   5
ENDBRANCH   3   4
ENDBRANCH   2   3
ENDBRANCH   1   2
BRANCH   1  10
ATOM     10  C   UNL     1     102.004 -82.211  22.068  1.00  0.00     0.000 C 
BRANCH  10  11
ATOM     11  C   UNL     1     101.143 -82.864  20.981  1.00  0.00    -0.000 C 
BRANCH  11  12
ATOM     12  C   UNL     1     101.984 -83.800  20.101  1.00  0.00    -0.000 C 
BRANCH  12  13
ATOM     13  C   UNL     1     103.097 -83.063  19.335  1.00  0.00    -0.000 C 
BRANCH  13  14
ATOM     14  C   UNL     1     104.480 -83.744  19.379  1.00  0.00    -0.000 C 
BRANCH  14  15
ATOM     15  C   UNL     1     105.669 -82.826  19.041  1.00  0.00    -0.003 C 
ATOM     16  C   UNL     1     105.234 -81.436  18.578  1.00  0.00     0.004 C 
ENDBRANCH  14  15
ENDBRANCH  13  14
ENDBRANCH  12  13
ENDBRANCH  11  12
ENDBRANCH  10  11
ENDBRANCH   1  10
TORSDOF 12
ENDMDL
MODEL 2
REMARK VINA RESULT:    -4.986      8.969     11.893
REMARK INTER + INTRA:         -10.026
REMARK INTER:                  -8.632
REMARK INTRA:                  -1.395
REMARK UNBOUND:                -1.542
REMARK SMILES CCCCCCCCCCCCCC(=O)[O-]
REMARK SMILES IDX 8 1 9 2 10 3 11 4 12 5 13 6 14 7 15 8 16 9 7 10 6 11 5 12
REMARK SMILES IDX 4 13 3 14 2 15 1 16
REMARK H PARENT
REMARK Flexibility Score: inf
ROOT
ATOM      1  C   UNL     1     118.495 -82.418  22.039  1.00  0.00     0.000 C 
ENDROOT
BRANCH   1   2
ATOM      2  C   UNL     1     117.613 -83.299  21.143  1.00  0.00     0.000 C 
BRANCH   2   3
ATOM      3  C   UNL     1     116.128 -83.265  21.544  1.00  0.00     0.000 C 
BRANCH   3   4
ATOM      4  C   UNL     1     115.177 -82.967  20.366  1.00  0.00     0.000 C 
BRANCH   4   5
ATOM      5  C   UNL     1     113.847 -83.731  20.486  1.00  0.00     0.006 C 
BRANCH   5   6
ATOM      6  C   UNL     1     113.136 -83.452  21.816  1.00  0.00     0.053 C 
BRANCH   6   7
ATOM      7  C   UNL     1     111.956 -82.547  21.637  1.00  0.00     0.041 C 
ATOM      8  O   UNL     1     111.200 -82.289  22.609  1.00  0.00    -0.550 OA
ATOM      9  O   UNL     1     111.711 -81.962  20.400  1.00  0.00    -0.550 OA
ENDBRANCH   6   7
ENDBRANCH   5   6
ENDBRANCH   4   5
ENDBRANCH   3   4
ENDBRANCH   2   3
ENDBRANCH   1   2
BRANCH   1  10
ATOM     10  C   UNL     1     119.152 -81.294  21.230  1.00  0.00     0.000 C 
BRANCH  10  11
ATOM     11  C   UNL     1     118.156 -80.164  20.948  1.00  0.00    -0.000 C 
BRANCH  11  12
ATOM     12  C   UNL     1     117.608 -79.574  22.255  1.00  0.00    -0.000 C 
BRANCH  12  13
ATOM     13  C   UNL     1     116.071 -79.625  22.338  1.00  0.00    -0.000 C 
BRANCH  13  14
ATOM     14  C   UNL     1     115.334 -78.707  21.342  1.00  0.00    -0.000 C 
BRANCH  14  15
ATOM     15  C   UNL     1     114.522 -79.443  20.260  1.00  0.00    -0.003 C 
ATOM     16  C   UNL     1     113.140 -78.832  20.034  1.00  0.00     0.004 C 
ENDBRANCH  14  15
ENDBRANCH  13  14
ENDBRANCH  12  13
ENDBRANCH  11  12
ENDBRANCH  10  11
ENDBRANCH   1  10
TORSDOF 12
ENDMDL
MODEL 3
REMARK VINA RESULT:    -4.917      2.469      3.328
REMARK INTER + INTRA:          -9.909
REMARK INTER:                  -8.583
REMARK INTRA:                  -1.326
REMARK UNBOUND:                -1.542
REMARK SMILES CCCCCCCCCCCCCC(=O)[O-]
REMARK SMILES IDX 8 1 9 2 10 3 11 4 12 5 13 6 14 7 15 8 16 9 7 10 6 11 5 12
REMARK SMILES IDX 4 13 3 14 2 15 1 16
REMARK H PARENT
REMARK Flexibility Score: inf
ROOT
ATOM      1  C   UNL     1     106.034 -81.482  23.042  1.00  0.00     0.000 C 
ENDROOT
BRANCH   1   2
ATOM      2  C   UNL     1     106.270 -81.771  24.531  1.00  0.00     0.000 C 
BRANCH   2   3
ATOM      3  C   UNL     1     107.675 -82.329  24.817  1.00  0.00     0.000 C 
BRANCH   3   4
ATOM      4  C   UNL     1     108.302 -83.069  23.616  1.00  0.00     0.000 C 
BRANCH   4   5
ATOM      5  C   UNL     1     109.749 -82.618  23.348  1.00  0.00     0.006 C 
BRANCH   5   6
ATOM      6  C   UNL     1     110.086 -81.299  24.056  1.00  0.00     0.053 C 
BRANCH   6   7
ATOM      7  C   UNL     1     110.150 -80.152  23.095  1.00  0.00     0.041 C 
ATOM      8  O   UNL     1     109.098 -79.708  22.566  1.00  0.00    -0.550 OA
ATOM      9  O   UNL     1     111.371 -79.553  22.808  1.00  0.00    -0.550 OA
ENDBRANCH   6   7
ENDBRANCH   5   6
ENDBRANCH   4   5
ENDBRANCH   3   4
ENDBRANCH   2   3
ENDBRANCH   1   2
BRANCH   1  10
ATOM     10  C   UNL     1     104.610 -81.868  22.625  1.00  0.00     0.000 C 
BRANCH  10  11
ATOM     11  C   UNL     1     104.580 -83.268  22.001  1.00  0.00    -0.000 C 
BRANCH  11  12
ATOM     12  C   UNL     1     103.323 -83.461  21.142  1.00  0.00    -0.000 C 
BRANCH  12  13
ATOM     13  C   UNL     1     103.588 -83.259  19.639  1.00  0.00    -0.000 C 
BRANCH  13  14
ATOM     14  C   UNL     1     105.011 -83.626  19.171  1.00  0.00    -0.000 C 
BRANCH  14  15
ATOM     15  C   UNL     1     105.808 -82.469  18.543  1.00  0.00    -0.003 C 
ATOM     16  C   UNL     1     105.255 -81.094  18.915  1.00  0.00     0.004 C 
ENDBRANCH  14  15
ENDBRANCH  13  14
ENDBRANCH  12  13
ENDBRANCH  11  12
ENDBRANCH  10  11
ENDBRANCH   1  10
TORSDOF 12
ENDMDL
MODEL 4
REMARK VINA RESULT:    -4.900      9.216     12.265
REMARK INTER + INTRA:          -9.880
REMARK INTER:                  -8.685
REMARK INTRA:                  -1.195
REMARK UNBOUND:                -1.542
REMARK SMILES CCCCCCCCCCCCCC(=O)[O-]
REMARK SMILES IDX 8 1 9 2 10 3 11 4 12 5 13 6 14 7 15 8 16 9 7 10 6 11 5 12
REMARK SMILES IDX 4 13 3 14 2 15 1 16
REMARK H PARENT
REMARK Flexibility Score: inf
ROOT
ATOM      1  C   UNL     1     117.813 -83.260  21.185  1.00  0.00     0.000 C 
ENDROOT
BRANCH   1   2
ATOM      2  C   UNL     1     116.337 -83.487  21.539  1.00  0.00     0.000 C 
BRANCH   2   3
ATOM      3  C   UNL     1     115.388 -83.196  20.363  1.00  0.00     0.000 C 
BRANCH   3   4
ATOM      4  C   UNL     1     114.053 -83.966  20.442  1.00  0.00     0.000 C 
BRANCH   4   5
ATOM      5  C   UNL     1     112.964 -83.164  21.177  1.00  0.00     0.006 C 
BRANCH   5   6
ATOM      6  C   UNL     1     113.207 -81.651  21.102  1.00  0.00     0.053 C 
BRANCH   6   7
ATOM      7  C   UNL     1     111.987 -80.872  21.486  1.00  0.00     0.041 C 
ATOM      8  O   UNL     1     110.840 -81.316  21.217  1.00  0.00    -0.550 OA
ATOM      9  O   UNL     1     112.117 -79.669  22.169  1.00  0.00    -0.550 OA
ENDBRANCH   6   7
ENDBRANCH   5   6
ENDBRANCH   4   5
ENDBRANCH   3   4
ENDBRANCH   2   3
ENDBRANCH   1   2
BRANCH   1  10
ATOM     10  C   UNL     1     118.640 -82.960  22.441  1.00  0.00     0.000 C 
BRANCH  10  11
ATOM     11  C   UNL     1     119.062 -81.487  22.483  1.00  0.00    -0.000 C 
BRANCH  11  12
ATOM     12  C   UNL     1     118.975 -80.850  21.088  1.00  0.00    -0.000 C 
BRANCH  12  13
ATOM     13  C   UNL     1     118.135 -79.560  21.070  1.00  0.00    -0.000 C 
BRANCH  13  14
ATOM     14  C   UNL     1     116.608 -79.775  21.072  1.00  0.00    -0.000 C 
BRANCH  14  15
ATOM     15  C   UNL     1     115.777 -78.541  21.469  1.00  0.00    -0.003 C 
ATOM     16  C   UNL     1     116.449 -77.694  22.547  1.00  0.00     0.004 C 
ENDBRANCH  14  15
ENDBRANCH  13  14
ENDBRANCH  12  13
ENDBRANCH  11  12
ENDBRANCH  10  11
ENDBRANCH   1  10
TORSDOF 12
ENDMDL
MODEL 5
REMARK VINA RESULT:    -4.880      2.941      3.939
REMARK INTER + INTRA:          -9.845
REMARK INTER:                  -8.483
REMARK INTRA:                  -1.362
REMARK UNBOUND:                -1.542
REMARK SMILES CCCCCCCCCCCCCC(=O)[O-]
REMARK SMILES IDX 8 1 9 2 10 3 11 4 12 5 13 6 14 7 15 8 16 9 7 10 6 11 5 12
REMARK SMILES IDX 4 13 3 14 2 15 1 16
REMARK H PARENT
REMARK Flexibility Score: inf
ROOT
ATOM      1  C   UNL     1     106.199 -84.010  23.023  1.00  0.00     0.000 C 
ENDROOT
BRANCH   1   2
ATOM      2  C   UNL     1     106.228 -83.802  24.543  1.00  0.00     0.000 C 
BRANCH   2   3
ATOM      3  C   UNL     1     107.208 -82.698  24.979  1.00  0.00     0.000 C 
BRANCH   3   4
ATOM      4  C   UNL     1     108.015 -82.094  23.810  1.00  0.00     0.000 C 
BRANCH   4   5
ATOM      5  C   UNL     1     109.512 -81.962  24.145  1.00  0.00     0.006 C 
BRANCH   5   6
ATOM      6  C   UNL     1     110.405 -82.607  23.078  1.00  0.00     0.053 C 
BRANCH   6   7
ATOM      7  C   UNL     1     111.087 -81.579  22.228  1.00  0.00     0.041 C 
ATOM      8  O   UNL     1     111.916 -81.931  21.349  1.00  0.00    -0.550 OA
ATOM      9  O   UNL     1     110.782 -80.233  22.388  1.00  0.00    -0.550 OA
ENDBRANCH   6   7
ENDBRANCH   5   6
ENDBRANCH   4   5
ENDBRANCH   3   4
ENDBRANCH   2   3
ENDBRANCH   1   2
BRANCH   1  10
ATOM     10  C   UNL     1     104.785 -83.809  22.467  1.00  0.00     0.000 C 
BRANCH  10  11
ATOM     11  C   UNL     1     104.252 -82.413  22.809  1.00  0.00    -0.000 C 
BRANCH  11  12
ATOM     12  C   UNL     1     104.185 -81.526  21.557  1.00  0.00    -0.000 C 
BRANCH  12  13
ATOM     13  C   UNL     1     105.511 -80.801  21.265  1.00  0.00    -0.000 C 
BRANCH  13  14
ATOM     14  C   UNL     1     106.358 -81.420  20.134  1.00  0.00    -0.000 C 
BRANCH  14  15
ATOM     15  C   UNL     1     105.571 -81.804  18.868  1.00  0.00    -0.003 C 
ATOM     16  C   UNL     1     106.201 -82.970  18.107  1.00  0.00     0.004 C 
ENDBRANCH  14  15
ENDBRANCH  13  14
ENDBRANCH  12  13
ENDBRANCH  11  12
ENDBRANCH  10  11
ENDBRANCH   1  10
TORSDOF 12
ENDMDL
MODEL 6
REMARK VINA RESULT:    -4.872     10.921     12.674
REMARK INTER + INTRA:          -9.832
REMARK INTER:                  -8.449
REMARK INTRA:                  -1.383
REMARK UNBOUND:                -1.542
REMARK SMILES CCCCCCCCCCCCCC(=O)[O-]
REMARK SMILES IDX 8 1 9 2 10 3 11 4 12 5 13 6 14 7 15 8 16 9 7 10 6 11 5 12
REMARK SMILES IDX 4 13 3 14 2 15 1 16
REMARK H PARENT
REMARK Flexibility Score: inf
ROOT
ATOM      1  C   UNL     1     114.759 -81.151  21.352  1.00  0.00     0.000 C 
ENDROOT
BRANCH   1   2
ATOM      2  C   UNL     1     114.631 -82.537  20.705  1.00  0.00     0.000 C 
BRANCH   2   3
ATOM      3  C   UNL     1     115.918 -83.372  20.818  1.00  0.00     0.000 C 
BRANCH   3   4
ATOM      4  C   UNL     1     116.757 -83.045  22.072  1.00  0.00     0.000 C 
BRANCH   4   5
ATOM      5  C   UNL     1     118.259 -82.936  21.752  1.00  0.00     0.006 C 
BRANCH   5   6
ATOM      6  C   UNL     1     118.949 -81.842  22.577  1.00  0.00     0.053 C 
BRANCH   6   7
ATOM      7  C   UNL     1     119.825 -82.420  23.646  1.00  0.00     0.041 C 
ATOM      8  O   UNL     1     120.999 -81.995  23.803  1.00  0.00    -0.550 OA
ATOM      9  O   UNL     1     119.332 -83.409  24.488  1.00  0.00    -0.550 OA
ENDBRANCH   6   7
ENDBRANCH   5   6
ENDBRANCH   4   5
ENDBRANCH   3   4
ENDBRANCH   2   3
ENDBRANCH   1   2
BRANCH   1  10
ATOM     10  C   UNL     1     115.323 -80.129  20.358  1.00  0.00     0.000 C 
BRANCH  10  11
ATOM     11  C   UNL     1     116.671 -79.581  20.839  1.00  0.00    -0.000 C 
BRANCH  11  12
ATOM     12  C   UNL     1     116.559 -79.017  22.263  1.00  0.00    -0.000 C 
BRANCH  12  13
ATOM     13  C   UNL     1     116.081 -77.554  22.292  1.00  0.00    -0.000 C 
BRANCH  13  14
ATOM     14  C   UNL     1     114.673 -77.339  22.885  1.00  0.00    -0.000 C 
BRANCH  14  15
ATOM     15  C   UNL     1     113.566 -77.071  21.849  1.00  0.00    -0.003 C 
ATOM     16  C   UNL     1     113.020 -75.646  21.917  1.00  0.00     0.004 C 
ENDBRANCH  14  15
ENDBRANCH  13  14
ENDBRANCH  12  13
ENDBRANCH  11  12
ENDBRANCH  10  11
ENDBRANCH   1  10
TORSDOF 12
ENDMDL
MODEL 7
REMARK VINA RESULT:    -4.867      2.310      5.320
REMARK INTER + INTRA:          -9.824
REMARK INTER:                  -8.301
REMARK INTRA:                  -1.523
REMARK UNBOUND:                -1.542
REMARK SMILES CCCCCCCCCCCCCC(=O)[O-]
REMARK SMILES IDX 8 1 9 2 10 3 11 4 12 5 13 6 14 7 15 8 16 9 7 10 6 11 5 12
REMARK SMILES IDX 4 13 3 14 2 15 1 16
REMARK H PARENT
REMARK Flexibility Score: inf
ROOT
ATOM      1  C   UNL     1     103.053 -82.126  21.936  1.00  0.00     0.000 C 
ENDROOT
BRANCH   1   2
ATOM      2  C   UNL     1     103.009 -83.381  21.054  1.00  0.00     0.000 C 
BRANCH   2   3
ATOM      3  C   UNL     1     103.383 -83.096  19.589  1.00  0.00     0.000 C 
BRANCH   3   4
ATOM      4  C   UNL     1     104.834 -83.486  19.235  1.00  0.00     0.000 C 
BRANCH   4   5
ATOM      5  C   UNL     1     105.706 -82.256  18.926  1.00  0.00     0.006 C 
BRANCH   5   6
ATOM      6  C   UNL     1     106.543 -81.820  20.136  1.00  0.00     0.053 C 
BRANCH   6   7
ATOM      7  C   UNL     1     106.196 -80.432  20.580  1.00  0.00     0.041 C 
ATOM      8  O   UNL     1     105.367 -79.745  19.928  1.00  0.00    -0.550 OA
ATOM      9  O   UNL     1     106.765 -79.910  21.736  1.00  0.00    -0.550 OA
ENDBRANCH   6   7
ENDBRANCH   5   6
ENDBRANCH   4   5
ENDBRANCH   3   4
ENDBRANCH   2   3
ENDBRANCH   1   2
BRANCH   1  10
ATOM     10  C   UNL     1     104.142 -82.246  23.010  1.00  0.00     0.000 C 
BRANCH  10  11
ATOM     11  C   UNL     1     104.682 -83.678  23.088  1.00  0.00    -0.000 C 
BRANCH  11  12
ATOM     12  C   UNL     1     106.026 -83.720  23.830  1.00  0.00    -0.000 C 
BRANCH  12  13
ATOM     13  C   UNL     1     106.482 -82.334  24.322  1.00  0.00    -0.000 C 
BRANCH  13  14
ATOM     14  C   UNL     1     106.833 -82.258  25.822  1.00  0.00    -0.000 C 
BRANCH  14  15
ATOM     15  C   UNL     1     108.288 -81.862  26.130  1.00  0.00    -0.003 C 
ATOM     16  C   UNL     1     109.163 -81.794  24.880  1.00  0.00     0.004 C 
ENDBRANCH  14  15
ENDBRANCH  13  14
ENDBRANCH  12  13
ENDBRANCH  11  12
ENDBRANCH  10  11
ENDBRANCH   1  10
TORSDOF 12
ENDMDL
MODEL 8
REMARK VINA RESULT:    -4.857      9.559     11.656
REMARK INTER + INTRA:          -9.807
REMARK INTER:                  -8.504
REMARK INTRA:                  -1.304
REMARK UNBOUND:                -1.542
REMARK SMILES CCCCCCCCCCCCCC(=O)[O-]
REMARK SMILES IDX 8 1 9 2 10 3 11 4 12 5 13 6 14 7 15 8 16 9 7 10 6 11 5 12
REMARK SMILES IDX 4 13 3 14 2 15 1 16
REMARK H PARENT
REMARK Flexibility Score: inf
ROOT
ATOM      1  C   UNL     1     115.159 -83.364  20.337  1.00  0.00     0.000 C 
ENDROOT
BRANCH   1   2
ATOM      2  C   UNL     1     115.615 -82.806  21.692  1.00  0.00     0.000 C 
BRANCH   2   3
ATOM      3  C   UNL     1     117.099 -83.087  21.987  1.00  0.00     0.000 C 
BRANCH   3   4
ATOM      4  C   UNL     1     118.023 -81.885  21.700  1.00  0.00     0.000 C 
BRANCH   4   5
ATOM      5  C   UNL     1     119.355 -81.982  22.466  1.00  0.00     0.006 C 
BRANCH   5   6
ATOM      6  C   UNL     1     119.375 -83.160  23.448  1.00  0.00     0.053 C 
BRANCH   6   7
ATOM      7  C   UNL     1     119.686 -82.715  24.844  1.00  0.00     0.041 C 
ATOM      8  O   UNL     1     119.352 -83.427  25.827  1.00  0.00    -0.550 OA
ATOM      9  O   UNL     1     120.375 -81.527  25.057  1.00  0.00    -0.550 OA
ENDBRANCH   6   7
ENDBRANCH   5   6
ENDBRANCH   4   5
ENDBRANCH   3   4
ENDBRANCH   2   3
ENDBRANCH   1   2
BRANCH   1  10
ATOM     10  C   UNL     1     113.655 -83.667  20.345  1.00  0.00     0.000 C 
BRANCH  10  11
ATOM     11  C   UNL     1     112.922 -82.785  21.362  1.00  0.00    -0.000 C 
BRANCH  11  12
ATOM     12  C   UNL     1     111.796 -81.987  20.687  1.00  0.00    -0.000 C 
BRANCH  12  13
ATOM     13  C   UNL     1     111.928 -80.468  20.901  1.00  0.00    -0.000 C 
BRANCH  13  14
ATOM     14  C   UNL     1     113.271 -80.008  21.503  1.00  0.00    -0.000 C 
BRANCH  14  15
ATOM     15  C   UNL     1     114.301 -79.495  20.480  1.00  0.00    -0.003 C 
ATOM     16  C   UNL     1     115.631 -79.103  21.120  1.00  0.00     0.004 C 
ENDBRANCH  14  15
ENDBRANCH  13  14
ENDBRANCH  12  13
ENDBRANCH  11  12
ENDBRANCH  10  11
ENDBRANCH   1  10
TORSDOF 12
ENDMDL
MODEL 9
REMARK VINA RESULT:    -4.820      1.858      3.476
REMARK INTER + INTRA:          -9.743
REMARK INTER:                  -7.984
REMARK INTRA:                  -1.760
REMARK UNBOUND:                -1.542
REMARK SMILES CCCCCCCCCCCCCC(=O)[O-]
REMARK SMILES IDX 8 1 9 2 10 3 11 4 12 5 13 6 14 7 15 8 16 9 7 10 6 11 5 12
REMARK SMILES IDX 4 13 3 14 2 15 1 16
REMARK H PARENT
REMARK Flexibility Score: inf
ROOT
ATOM      1  C   UNL     1     105.404 -80.493  20.224  1.00  0.00     0.000 C 
ENDROOT
BRANCH   1   2
ATOM      2  C   UNL     1     106.416 -81.179  21.153  1.00  0.00     0.000 C 
BRANCH   2   3
ATOM      3  C   UNL     1     105.858 -81.429  22.566  1.00  0.00     0.000 C 
BRANCH   3   4
ATOM      4  C   UNL     1     105.918 -82.909  22.999  1.00  0.00     0.000 C 
BRANCH   4   5
ATOM      5  C   UNL     1     107.358 -83.372  23.286  1.00  0.00     0.006 C 
BRANCH   5   6
ATOM      6  C   UNL     1     107.991 -82.606  24.455  1.00  0.00     0.053 C 
BRANCH   6   7
ATOM      7  C   UNL     1     109.300 -81.987  24.070  1.00  0.00     0.041 C 
ATOM      8  O   UNL     1     110.069 -81.527  24.954  1.00  0.00    -0.550 OA
ATOM      9  O   UNL     1     109.683 -81.947  22.735  1.00  0.00    -0.550 OA
ENDBRANCH   6   7
ENDBRANCH   5   6
ENDBRANCH   4   5
ENDBRANCH   3   4
ENDBRANCH   2   3
ENDBRANCH   1   2
BRANCH   1  10
ATOM     10  C   UNL     1     105.199 -81.305  18.939  1.00  0.00     0.000 C 
BRANCH  10  11
ATOM     11  C   UNL     1     105.949 -82.640  19.007  1.00  0.00    -0.000 C 
BRANCH  11  12
ATOM     12  C   UNL     1     104.969 -83.822  18.990  1.00  0.00    -0.000 C 
BRANCH  12  13
ATOM     13  C   UNL     1     103.558 -83.438  19.470  1.00  0.00    -0.000 C 
BRANCH  13  14
ATOM     14  C   UNL     1     103.191 -83.936  20.883  1.00  0.00    -0.000 C 
BRANCH  14  15
ATOM     15  C   UNL     1     101.936 -83.288  21.495  1.00  0.00    -0.003 C 
ATOM     16  C   UNL     1     102.169 -81.846  21.943  1.00  0.00     0.004 C 
ENDBRANCH  14  15
ENDBRANCH  13  14
ENDBRANCH  12  13
ENDBRANCH  11  12
ENDBRANCH  10  11
ENDBRANCH   1  10
TORSDOF 12
ENDMDL
