MODEL 1
REMARK VINA RESULT:    -4.290      0.000      0.000
REMARK INTER + INTRA:          -5.574
REMARK INTER:                  -6.296
REMARK INTRA:                   0.722
REMARK UNBOUND:                 0.722
REMARK SMILES C=C1CC=CC(C)(C)CC=C(C)CCC1
REMARK SMILES IDX 2 1 1 2 15 3 14 4 13 5 11 6 12 7 10 8 3 10 4 11 5 12 6 13
REMARK SMILES IDX 7 14 8 15 9 16
REMARK H PARENT
REMARK Flexibility Score: 60.00
ROOT
ATOM      1  C   UNL     1       7.755   8.505  13.851  1.00  0.00    -0.074 C 
ATOM      2  C   UNL     1       8.582   7.831  14.668  1.00  0.00     0.008 C 
ENDROOT
BRANCH   1   3
ATOM      3  C   UNL     1       7.936   8.383  12.345  1.00  0.00     0.031 C 
BRANCH   3   4
ATOM      4  C   UNL     1       8.105   6.925  11.866  1.00  0.00     0.009 C 
BRANCH   4   5
ATOM      5  C   UNL     1       7.175   5.922  12.569  1.00  0.00     0.030 C 
BRANCH   5   6
ATOM      6  C   UNL     1       5.706   6.244  12.373  1.00  0.00    -0.077 C 
ATOM      7  C   UNL     1       5.203   6.415  10.961  1.00  0.00     0.039 C 
ATOM      8  C   UNL     1       4.817   6.395  13.384  1.00  0.00    -0.027 CG0
ATOM      9  G   UNL     1       5.111   6.261  14.865  1.00  0.00     0.000 G0
ENDBRANCH   5   6
ENDBRANCH   4   5
ENDBRANCH   3   4
ENDBRANCH   1   3
BRANCH   1  10
ATOM     10  C   UNL     1       6.657   9.356  14.466  1.00  0.00     0.057 C 
BRANCH  10  11
ATOM     11  C   UNL     1       6.441   9.058  15.926  1.00  0.00    -0.026 C 
ATOM     12  C   UNL     1       5.547   8.212  16.487  1.00  0.00    -0.024 C 
BRANCH  12  13
ATOM     13  C   UNL     1       4.483   7.323  15.822  1.00  0.00    -0.014 C 
ATOM     14  C   UNL     1       3.374   8.180  15.164  1.00  0.00     0.016 C 
ATOM     15  C   UNL     1       3.794   6.532  16.964  1.00  0.00     0.016 C 
BRANCH  13  16
ATOM     16  C   UNL     1       5.123   6.256  14.867  1.00  0.00     0.038 CG0
ATOM     17  G   UNL     1       4.822   6.417  13.390  1.00  0.00     0.000 G0
ENDBRANCH  13  16
ENDBRANCH  12  13
ENDBRANCH  10  11
ENDBRANCH   1  10
TORSDOF 0
ENDMDL
MODEL 2
REMARK VINA RESULT:    -4.000      1.023      4.058
REMARK INTER + INTRA:          -5.149
REMARK INTER:                  -5.720
REMARK INTRA:                   0.571
REMARK UNBOUND:                 0.722
REMARK SMILES C=C1CC=CC(C)(C)CC=C(C)CCC1
REMARK SMILES IDX 2 1 1 2 15 3 14 4 13 5 11 6 12 7 10 8 3 10 4 11 5 12 6 13
REMARK SMILES IDX 7 14 8 15 9 16
REMARK H PARENT
REMARK Flexibility Score: 60.00
ROOT
ATOM      1  C   UNL     1       6.380   8.455  16.495  1.00  0.00    -0.074 C 
ATOM      2  C   UNL     1       6.007   9.738  16.350  1.00  0.00     0.008 C 
ENDROOT
BRANCH   1   3
ATOM      3  C   UNL     1       5.755   7.621  17.604  1.00  0.00     0.031 C 
BRANCH   3   4
ATOM      4  C   UNL     1       4.237   7.405  17.425  1.00  0.00     0.009 C 
BRANCH   4   5
ATOM      5  C   UNL     1       3.865   6.541  16.210  1.00  0.00     0.030 C 
BRANCH   5   6
ATOM      6  C   UNL     1       3.609   7.363  14.960  1.00  0.00    -0.077 C 
ATOM      7  C   UNL     1       2.546   8.430  15.022  1.00  0.00     0.039 C 
ATOM      8  C   UNL     1       4.269   7.194  13.788  1.00  0.00    -0.027 CG0
ATOM      9  G   UNL     1       5.370   6.189  13.516  1.00  0.00     0.000 G0
ENDBRANCH   5   6
ENDBRANCH   4   5
ENDBRANCH   3   4
ENDBRANCH   1   3
BRANCH   1  10
ATOM     10  C   UNL     1       7.406   7.881  15.533  1.00  0.00     0.057 C 
BRANCH  10  11
ATOM     11  C   UNL     1       7.396   8.572  14.195  1.00  0.00    -0.026 C 
ATOM     12  C   UNL     1       7.044   8.067  12.992  1.00  0.00    -0.024 C 
BRANCH  12  13
ATOM     13  C   UNL     1       6.569   6.652  12.620  1.00  0.00    -0.014 C 
ATOM     14  C   UNL     1       7.757   5.660  12.574  1.00  0.00     0.016 C 
ATOM     15  C   UNL     1       6.024   6.736  11.170  1.00  0.00     0.016 C 
BRANCH  13  16
ATOM     16  C   UNL     1       5.371   6.180  13.516  1.00  0.00     0.038 CG0
ATOM     17  G   UNL     1       4.283   7.204  13.769  1.00  0.00     0.000 G0
ENDBRANCH  13  16
ENDBRANCH  12  13
ENDBRANCH  10  11
ENDBRANCH   1  10
TORSDOF 0
ENDMDL
MODEL 3
REMARK VINA RESULT:    -3.969     13.444     15.083
REMARK INTER + INTRA:          -5.104
REMARK INTER:                  -5.585
REMARK INTRA:                   0.481
REMARK UNBOUND:                 0.722
REMARK SMILES C=C1CC=CC(C)(C)CC=C(C)CCC1
REMARK SMILES IDX 2 1 1 2 15 3 14 4 13 5 11 6 12 7 10 8 3 10 4 11 5 12 6 13
REMARK SMILES IDX 7 14 8 15 9 16
REMARK H PARENT
REMARK Flexibility Score: 60.00
ROOT
ATOM      1  C   UNL     1       9.785   8.783  29.491  1.00  0.00    -0.074 C 
ATOM      2  C   UNL     1      10.109   9.677  30.441  1.00  0.00     0.008 C 
ENDROOT
BRANCH   1   3
ATOM      3  C   UNL     1       9.914   9.174  28.027  1.00  0.00     0.031 C 
BRANCH   3   4
ATOM      4  C   UNL     1      11.205   8.647  27.365  1.00  0.00     0.009 C 
BRANCH   4   5
ATOM      5  C   UNL     1      10.968   7.548  26.316  1.00  0.00     0.030 C 
BRANCH   5   6
ATOM      6  C   UNL     1      12.069   6.504  26.299  1.00  0.00    -0.077 C 
ATOM      7  C   UNL     1      13.017   6.496  25.126  1.00  0.00     0.039 C 
ATOM      8  C   UNL     1      12.250   5.572  27.266  1.00  0.00    -0.027 CG0
ATOM      9  G   UNL     1      11.419   5.410  28.523  1.00  0.00     0.000 G0
ENDBRANCH   5   6
ENDBRANCH   4   5
ENDBRANCH   3   4
ENDBRANCH   1   3
BRANCH   1  10
ATOM     10  C   UNL     1       9.312   7.404  29.921  1.00  0.00     0.057 C 
BRANCH  10  11
ATOM     11  C   UNL     1       8.563   6.683  28.832  1.00  0.00    -0.026 C 
ATOM     12  C   UNL     1       8.882   5.519  28.222  1.00  0.00    -0.024 C 
BRANCH  12  13
ATOM     13  C   UNL     1      10.094   4.597  28.435  1.00  0.00    -0.014 C 
ATOM     14  C   UNL     1      10.126   3.466  27.377  1.00  0.00     0.016 C 
ATOM     15  C   UNL     1       9.882   3.898  29.803  1.00  0.00     0.016 C 
BRANCH  13  16
ATOM     16  C   UNL     1      11.433   5.405  28.553  1.00  0.00     0.038 CG0
ATOM     17  G   UNL     1      12.238   5.552  27.277  1.00  0.00     0.000 G0
ENDBRANCH  13  16
ENDBRANCH  12  13
ENDBRANCH  10  11
ENDBRANCH   1  10
TORSDOF 0
ENDMDL
MODEL 4
REMARK VINA RESULT:    -3.886     11.838     13.932
REMARK INTER + INTRA:          -4.982
REMARK INTER:                  -5.239
REMARK INTRA:                   0.256
REMARK UNBOUND:                 0.722
REMARK SMILES C=C1CC=CC(C)(C)CC=C(C)CCC1
REMARK SMILES IDX 2 1 1 2 15 3 14 4 13 5 11 6 12 7 10 8 3 10 4 11 5 12 6 13
REMARK SMILES IDX 7 14 8 15 9 16
REMARK H PARENT
REMARK Flexibility Score: 60.00
ROOT
ATOM      1  C   UNL     1      12.547   7.291  26.024  1.00  0.00    -0.074 C 
ATOM      2  C   UNL     1      11.676   6.470  26.636  1.00  0.00     0.008 C 
ENDROOT
BRANCH   1   3
ATOM      3  C   UNL     1      12.104   8.698  25.649  1.00  0.00     0.031 C 
BRANCH   3   4
ATOM      4  C   UNL     1      11.515   8.794  24.226  1.00  0.00     0.009 C 
BRANCH   4   5
ATOM      5  C   UNL     1      12.394   9.573  23.234  1.00  0.00     0.030 C 
BRANCH   5   6
ATOM      6  C   UNL     1      13.394   8.689  22.513  1.00  0.00    -0.077 C 
ATOM      7  C   UNL     1      12.895   7.853  21.361  1.00  0.00     0.039 C 
ATOM      8  C   UNL     1      14.705   8.595  22.842  1.00  0.00    -0.027 CG0
ATOM      9  G   UNL     1      15.407   9.346  23.955  1.00  0.00     0.000 G0
ENDBRANCH   5   6
ENDBRANCH   4   5
ENDBRANCH   3   4
ENDBRANCH   1   3
BRANCH   1  10
ATOM     10  C   UNL     1      13.951   6.784  25.741  1.00  0.00     0.057 C 
BRANCH  10  11
ATOM     11  C   UNL     1      14.995   7.471  26.581  1.00  0.00    -0.026 C 
ATOM     12  C   UNL     1      16.052   8.208  26.169  1.00  0.00    -0.024 C 
BRANCH  12  13
ATOM     13  C   UNL     1      16.515   8.553  24.744  1.00  0.00    -0.014 C 
ATOM     14  C   UNL     1      17.033   7.293  24.007  1.00  0.00     0.016 C 
ATOM     15  C   UNL     1      17.737   9.495  24.893  1.00  0.00     0.016 C 
BRANCH  13  16
ATOM     16  C   UNL     1      15.428   9.359  23.952  1.00  0.00     0.038 CG0
ATOM     17  G   UNL     1      14.705   8.605  22.854  1.00  0.00     0.000 G0
ENDBRANCH  13  16
ENDBRANCH  12  13
ENDBRANCH  10  11
ENDBRANCH   1  10
TORSDOF 0
ENDMDL
MODEL 5
REMARK VINA RESULT:    -3.884     11.233     13.339
REMARK INTER + INTRA:          -4.979
REMARK INTER:                  -5.394
REMARK INTRA:                   0.414
REMARK UNBOUND:                 0.722
REMARK SMILES C=C1CC=CC(C)(C)CC=C(C)CCC1
REMARK SMILES IDX 2 1 1 2 15 3 14 4 13 5 11 6 12 7 10 8 3 10 4 11 5 12 6 13
REMARK SMILES IDX 7 14 8 15 9 16
REMARK H PARENT
REMARK Flexibility Score: 60.00
ROOT
ATOM      1  C   UNL     1      12.620   8.160  21.603  1.00  0.00    -0.074 C 
ATOM      2  C   UNL     1      12.107   8.968  20.659  1.00  0.00     0.008 C 
ENDROOT
BRANCH   1   3
ATOM      3  C   UNL     1      11.701   7.184  22.324  1.00  0.00     0.031 C 
BRANCH   3   4
ATOM      4  C   UNL     1      11.133   7.743  23.646  1.00  0.00     0.009 C 
BRANCH   4   5
ATOM      5  C   UNL     1      11.276   6.790  24.843  1.00  0.00     0.030 C 
BRANCH   5   6
ATOM      6  C   UNL     1      11.973   7.432  26.028  1.00  0.00    -0.077 C 
ATOM      7  C   UNL     1      11.114   7.978  27.141  1.00  0.00     0.039 C 
ATOM      8  C   UNL     1      13.317   7.554  26.147  1.00  0.00    -0.027 CG0
ATOM      9  G   UNL     1      14.354   7.072  25.152  1.00  0.00     0.000 G0
ENDBRANCH   5   6
ENDBRANCH   4   5
ENDBRANCH   3   4
ENDBRANCH   1   3
BRANCH   1  10
ATOM     10  C   UNL     1      14.106   8.244  21.905  1.00  0.00     0.057 C 
BRANCH  10  11
ATOM     11  C   UNL     1      14.444   9.373  22.842  1.00  0.00    -0.026 C 
ATOM     12  C   UNL     1      15.043   9.308  24.053  1.00  0.00    -0.024 C 
BRANCH  12  13
ATOM     13  C   UNL     1      15.539   8.084  24.841  1.00  0.00    -0.014 C 
ATOM     14  C   UNL     1      16.363   8.516  26.079  1.00  0.00     0.016 C 
ATOM     15  C   UNL     1      16.525   7.331  23.911  1.00  0.00     0.016 C 
BRANCH  13  16
ATOM     16  C   UNL     1      14.376   7.081  25.160  1.00  0.00     0.038 CG0
ATOM     17  G   UNL     1      13.332   7.562  26.147  1.00  0.00     0.000 G0
ENDBRANCH  13  16
ENDBRANCH  12  13
ENDBRANCH  10  11
ENDBRANCH   1  10
TORSDOF 0
ENDMDL
MODEL 6
REMARK VINA RESULT:    -3.880      1.807      5.148
REMARK INTER + INTRA:          -4.974
REMARK INTER:                  -5.332
REMARK INTRA:                   0.359
REMARK UNBOUND:                 0.722
REMARK SMILES C=C1CC=CC(C)(C)CC=C(C)CCC1
REMARK SMILES IDX 2 1 1 2 15 3 14 4 13 5 11 6 12 7 10 8 3 10 4 11 5 12 6 13
REMARK SMILES IDX 7 14 8 15 9 16
REMARK H PARENT
REMARK Flexibility Score: 60.00
ROOT
ATOM      1  C   UNL     1       2.553   8.502  16.263  1.00  0.00    -0.074 C 
ATOM      2  C   UNL     1       1.382   9.144  16.113  1.00  0.00     0.008 C 
ENDROOT
BRANCH   1   3
ATOM      3  C   UNL     1       3.346   8.693  17.548  1.00  0.00     0.031 C 
BRANCH   3   4
ATOM      4  C   UNL     1       4.071  10.053  17.622  1.00  0.00     0.009 C 
BRANCH   4   5
ATOM      5  C   UNL     1       5.374  10.115  16.809  1.00  0.00     0.030 C 
BRANCH   5   6
ATOM      6  C   UNL     1       6.361   9.030  17.196  1.00  0.00    -0.077 C 
ATOM      7  C   UNL     1       6.807   8.961  18.635  1.00  0.00     0.039 C 
ATOM      8  C   UNL     1       6.875   8.123  16.329  1.00  0.00    -0.027 CG0
ATOM      9  G   UNL     1       6.558   8.015  14.851  1.00  0.00     0.000 G0
ENDBRANCH   5   6
ENDBRANCH   4   5
ENDBRANCH   3   4
ENDBRANCH   1   3
BRANCH   1  10
ATOM     10  C   UNL     1       3.036   7.595  15.143  1.00  0.00     0.057 C 
BRANCH  10  11
ATOM     11  C   UNL     1       3.786   6.393  15.653  1.00  0.00    -0.026 C 
ATOM     12  C   UNL     1       5.035   5.985  15.334  1.00  0.00    -0.024 C 
BRANCH  12  13
ATOM     13  C   UNL     1       6.052   6.601  14.359  1.00  0.00    -0.014 C 
ATOM     14  C   UNL     1       5.509   6.586  12.908  1.00  0.00     0.016 C 
ATOM     15  C   UNL     1       7.290   5.668  14.364  1.00  0.00     0.016 C 
BRANCH  13  16
ATOM     16  C   UNL     1       6.554   8.006  14.843  1.00  0.00     0.038 CG0
ATOM     17  G   UNL     1       6.882   8.125  16.318  1.00  0.00     0.000 G0
ENDBRANCH  13  16
ENDBRANCH  12  13
ENDBRANCH  10  11
ENDBRANCH   1  10
TORSDOF 0
ENDMDL
MODEL 7
REMARK VINA RESULT:    -3.849     12.672     14.925
REMARK INTER + INTRA:          -4.928
REMARK INTER:                  -5.341
REMARK INTRA:                   0.413
REMARK UNBOUND:                 0.722
REMARK SMILES C=C1CC=CC(C)(C)CC=C(C)CCC1
REMARK SMILES IDX 2 1 1 2 15 3 14 4 13 5 11 6 12 7 10 8 3 10 4 11 5 12 6 13
REMARK SMILES IDX 7 14 8 15 9 16
REMARK H PARENT
REMARK Flexibility Score: 60.00
ROOT
ATOM      1  C   UNL     1      10.654   4.441  27.832  1.00  0.00    -0.074 C 
ATOM      2  C   UNL     1       9.658   3.615  27.467  1.00  0.00     0.008 C 
ENDROOT
BRANCH   1   3
ATOM      3  C   UNL     1      10.666   5.011  29.242  1.00  0.00     0.031 C 
BRANCH   3   4
ATOM      4  C   UNL     1       9.407   5.838  29.578  1.00  0.00     0.009 C 
BRANCH   4   5
ATOM      5  C   UNL     1       9.033   6.875  28.507  1.00  0.00     0.030 C 
BRANCH   5   6
ATOM      6  C   UNL     1       9.805   8.173  28.648  1.00  0.00    -0.077 C 
ATOM      7  C   UNL     1       9.808   8.850  29.996  1.00  0.00     0.039 C 
ATOM      8  C   UNL     1      10.487   8.767  27.639  1.00  0.00    -0.027 CG0
ATOM      9  G   UNL     1      10.616   8.255  26.219  1.00  0.00     0.000 G0
ENDBRANCH   5   6
ENDBRANCH   4   5
ENDBRANCH   3   4
ENDBRANCH   1   3
BRANCH   1  10
ATOM     10  C   UNL     1      11.741   4.763  26.820  1.00  0.00     0.057 C 
BRANCH  10  11
ATOM     11  C   UNL     1      12.689   5.826  27.307  1.00  0.00    -0.026 C 
ATOM     12  C   UNL     1      12.816   7.100  26.873  1.00  0.00    -0.024 C 
BRANCH  12  13
ATOM     13  C   UNL     1      12.058   7.840  25.759  1.00  0.00    -0.014 C 
ATOM     14  C   UNL     1      12.093   7.038  24.435  1.00  0.00     0.016 C 
ATOM     15  C   UNL     1      12.841   9.151  25.487  1.00  0.00     0.016 C 
BRANCH  13  16
ATOM     16  C   UNL     1      10.619   8.270  26.212  1.00  0.00     0.038 CG0
ATOM     17  G   UNL     1      10.489   8.760  27.641  1.00  0.00     0.000 G0
ENDBRANCH  13  16
ENDBRANCH  12  13
ENDBRANCH  10  11
ENDBRANCH   1  10
TORSDOF 0
ENDMDL
MODEL 8
REMARK VINA RESULT:    -3.776     10.749     12.358
REMARK INTER + INTRA:          -4.820
REMARK INTER:                  -5.126
REMARK INTRA:                   0.306
REMARK UNBOUND:                 0.722
REMARK SMILES C=C1CC=CC(C)(C)CC=C(C)CCC1
REMARK SMILES IDX 2 1 1 2 15 3 14 4 13 5 11 6 12 7 10 8 3 10 4 11 5 12 6 13
REMARK SMILES IDX 7 14 8 15 9 16
REMARK H PARENT
REMARK Flexibility Score: 60.00
ROOT
ATOM      1  C   UNL     1      14.837   8.429  24.107  1.00  0.00    -0.074 C 
ATOM      2  C   UNL     1      15.816   7.535  23.887  1.00  0.00     0.008 C 
ENDROOT
BRANCH   1   3
ATOM      3  C   UNL     1      14.374   9.320  22.964  1.00  0.00     0.031 C 
BRANCH   3   4
ATOM      4  C   UNL     1      13.732   8.535  21.800  1.00  0.00     0.009 C 
BRANCH   4   5
ATOM      5  C   UNL     1      12.431   7.807  22.175  1.00  0.00     0.030 C 
BRANCH   5   6
ATOM      6  C   UNL     1      11.435   8.707  22.880  1.00  0.00    -0.077 C 
ATOM      7  C   UNL     1      11.183  10.075  22.297  1.00  0.00     0.039 C 
ATOM      8  C   UNL     1      10.762   8.364  24.005  1.00  0.00    -0.027 CG0
ATOM      9  G   UNL     1      10.863   7.046  24.745  1.00  0.00     0.000 G0
ENDBRANCH   5   6
ENDBRANCH   4   5
ENDBRANCH   3   4
ENDBRANCH   1   3
BRANCH   1  10
ATOM     10  C   UNL     1      14.219   8.507  25.493  1.00  0.00     0.057 C 
BRANCH  10  11
ATOM     11  C   UNL     1      13.976   7.149  26.096  1.00  0.00    -0.026 C 
ATOM     12  C   UNL     1      12.795   6.564  26.398  1.00  0.00    -0.024 C 
BRANCH  12  13
ATOM     13  C   UNL     1      11.362   7.100  26.239  1.00  0.00    -0.014 C 
ATOM     14  C   UNL     1      11.211   8.488  26.908  1.00  0.00     0.016 C 
ATOM     15  C   UNL     1      10.441   6.138  27.032  1.00  0.00     0.016 C 
BRANCH  13  16
ATOM     16  C   UNL     1      10.878   7.048  24.748  1.00  0.00     0.038 CG0
ATOM     17  G   UNL     1      10.773   8.380  24.034  1.00  0.00     0.000 G0
ENDBRANCH  13  16
ENDBRANCH  12  13
ENDBRANCH  10  11
ENDBRANCH   1  10
TORSDOF 0
ENDMDL
MODEL 9
REMARK VINA RESULT:    -3.706      3.490      5.773
REMARK INTER + INTRA:          -4.717
REMARK INTER:                  -4.896
REMARK INTRA:                   0.178
REMARK UNBOUND:                 0.722
REMARK SMILES C=C1CC=CC(C)(C)CC=C(C)CCC1
REMARK SMILES IDX 2 1 1 2 15 3 14 4 13 5 11 6 12 7 10 8 3 10 4 11 5 12 6 13
REMARK SMILES IDX 7 14 8 15 9 16
REMARK H PARENT
REMARK Flexibility Score: 60.00
ROOT
ATOM      1  C   UNL     1       2.337   8.917  18.923  1.00  0.00    -0.074 C 
ATOM      2  C   UNL     1       1.083   8.444  18.809  1.00  0.00     0.008 C 
ENDROOT
BRANCH   1   3
ATOM      3  C   UNL     1       2.869   9.873  17.867  1.00  0.00     0.031 C 
BRANCH   3   4
ATOM      4  C   UNL     1       2.915   9.257  16.452  1.00  0.00     0.009 C 
BRANCH   4   5
ATOM      5  C   UNL     1       4.328   8.875  15.980  1.00  0.00     0.030 C 
BRANCH   5   6
ATOM      6  C   UNL     1       4.791   7.539  16.529  1.00  0.00    -0.077 C 
ATOM      7  C   UNL     1       4.185   6.287  15.946  1.00  0.00     0.039 C 
ATOM      8  C   UNL     1       5.709   7.398  17.516  1.00  0.00    -0.027 CG0
ATOM      9  G   UNL     1       6.439   8.518  18.229  1.00  0.00     0.000 G0
ENDBRANCH   5   6
ENDBRANCH   4   5
ENDBRANCH   3   4
ENDBRANCH   1   3
BRANCH   1  10
ATOM     10  C   UNL     1       3.172   8.485  20.117  1.00  0.00     0.057 C 
BRANCH  10  11
ATOM     11  C   UNL     1       4.167   9.534  20.537  1.00  0.00    -0.026 C 
ATOM     12  C   UNL     1       5.513   9.518  20.399  1.00  0.00    -0.024 C 
BRANCH  12  13
ATOM     13  C   UNL     1       6.427   8.438  19.796  1.00  0.00    -0.014 C 
ATOM     14  C   UNL     1       6.096   7.042  20.379  1.00  0.00     0.016 C 
ATOM     15  C   UNL     1       7.867   8.768  20.265  1.00  0.00     0.016 C 
BRANCH  13  16
ATOM     16  C   UNL     1       6.447   8.494  18.229  1.00  0.00     0.038 CG0
ATOM     17  G   UNL     1       5.708   7.381  17.513  1.00  0.00     0.000 G0
ENDBRANCH  13  16
ENDBRANCH  12  13
ENDBRANCH  10  11
ENDBRANCH   1  10
TORSDOF 0
ENDMDL
