MODEL 1
REMARK VINA RESULT:    -7.773      0.000      0.000
REMARK INTER + INTRA:          -9.426
REMARK INTER:                  -9.136
REMARK INTRA:                  -0.289
REMARK UNBOUND:                -0.289
REMARK SMILES O=c1c(O)c(-c2ccc(O)cc2)oc2cc(O)cc(O)c12
REMARK SMILES IDX 5 1 3 2 2 3 1 4 21 5 19 6 18 7 16 8 15 9 14 10 13 11 6 12
REMARK SMILES IDX 7 13 8 14 9 15 12 16 11 17 10 18 4 20 20 22 17 24
REMARK H PARENT 10 19 4 21 20 23 17 25
REMARK Flexibility Score: inf
ROOT
ATOM      1  C   UNL     1     -45.168 -11.297  11.716  1.00  0.00     0.180 A 
ATOM      2  C   UNL     1     -45.184 -10.234  12.635  1.00  0.00     0.208 A 
ATOM      3  C   UNL     1     -44.102  -9.339  12.660  1.00  0.00     0.238 A 
ATOM      4  O   UNL     1     -44.149  -8.358  13.448  1.00  0.00    -0.285 OA
ATOM      5  C   UNL     1     -43.012  -9.526  11.779  1.00  0.00     0.111 A 
ATOM      6  C   UNL     1     -41.846  -8.704  11.745  1.00  0.00     0.134 A 
ATOM      7  C   UNL     1     -40.888  -8.905  10.743  1.00  0.00     0.093 A 
ATOM      8  C   UNL     1     -41.023  -9.939   9.813  1.00  0.00     0.123 A 
ATOM      9  C   UNL     1     -42.128 -10.783   9.875  1.00  0.00     0.094 A 
ATOM     10  C   UNL     1     -43.119 -10.586  10.841  1.00  0.00     0.146 A 
ATOM     11  O   UNL     1     -44.161 -11.408  10.857  1.00  0.00    -0.452 OA
ENDROOT
BRANCH   1  12
ATOM     12  C   UNL     1     -46.259 -12.296  11.647  1.00  0.00     0.021 A 
ATOM     13  C   UNL     1     -46.207 -13.434  12.469  1.00  0.00     0.016 A 
ATOM     14  C   UNL     1     -47.237 -14.379  12.436  1.00  0.00     0.047 A 
ATOM     15  C   UNL     1     -48.339 -14.190  11.593  1.00  0.00     0.115 A 
ATOM     16  C   UNL     1     -47.378 -12.103  10.817  1.00  0.00     0.016 A 
ATOM     17  C   UNL     1     -48.407 -13.050  10.786  1.00  0.00     0.047 A 
BRANCH  15  18
ATOM     18  O   UNL     1     -49.371 -15.125  11.551  1.00  0.00    -0.508 OA
ATOM     19  H   UNL     1     -49.829 -15.369  10.681  1.00  0.00     0.293 HD
ENDBRANCH  15  18
ENDBRANCH   1  12
BRANCH   2  20
ATOM     20  O   UNL     1     -46.281 -10.054  13.482  1.00  0.00    -0.502 OA
ATOM     21  H   UNL     1     -46.369 -10.534  14.369  1.00  0.00     0.293 HD
ENDBRANCH   2  20
BRANCH   6  22
ATOM     22  O   UNL     1     -41.569  -7.703  12.682  1.00  0.00    -0.507 OA
ATOM     23  H   UNL     1     -42.101  -7.542  13.524  1.00  0.00     0.293 HD
ENDBRANCH   6  22
BRANCH   8  24
ATOM     24  O   UNL     1     -40.058 -10.140   8.830  1.00  0.00    -0.508 OA
ATOM     25  H   UNL     1     -39.768 -11.072   8.553  1.00  0.00     0.293 HD
ENDBRANCH   8  24
TORSDOF 5
ENDMDL
MODEL 2
REMARK VINA RESULT:    -7.593      1.807      6.682
REMARK INTER + INTRA:          -9.214
REMARK INTER:                  -9.005
REMARK INTRA:                  -0.209
REMARK UNBOUND:                -0.289
REMARK SMILES O=c1c(O)c(-c2ccc(O)cc2)oc2cc(O)cc(O)c12
REMARK SMILES IDX 5 1 3 2 2 3 1 4 21 5 19 6 18 7 16 8 15 9 14 10 13 11 6 12
REMARK SMILES IDX 7 13 8 14 9 15 12 16 11 17 10 18 4 20 20 22 17 24
REMARK H PARENT 10 19 4 21 20 23 17 25
REMARK Flexibility Score: inf
ROOT
ATOM      1  C   UNL     1     -44.860 -11.357  12.483  1.00  0.00     0.180 A 
ATOM      2  C   UNL     1     -44.991 -11.479  13.877  1.00  0.00     0.208 A 
ATOM      3  C   UNL     1     -46.119 -12.134  14.399  1.00  0.00     0.238 A 
ATOM      4  O   UNL     1     -46.204 -12.289  15.646  1.00  0.00    -0.285 OA
ATOM      5  C   UNL     1     -47.107 -12.643  13.523  1.00  0.00     0.111 A 
ATOM      6  C   UNL     1     -48.309 -13.289  13.943  1.00  0.00     0.134 A 
ATOM      7  C   UNL     1     -49.152 -13.868  12.986  1.00  0.00     0.093 A 
ATOM      8  C   UNL     1     -48.869 -13.768  11.622  1.00  0.00     0.123 A 
ATOM      9  C   UNL     1     -47.730 -13.089  11.199  1.00  0.00     0.094 A 
ATOM     10  C   UNL     1     -46.851 -12.531  12.131  1.00  0.00     0.146 A 
ATOM     11  O   UNL     1     -45.770 -11.901  11.686  1.00  0.00    -0.452 OA
ENDROOT
BRANCH   1  12
ATOM     12  C   UNL     1     -43.713 -10.657  11.859  1.00  0.00     0.021 A 
ATOM     13  C   UNL     1     -42.783 -11.392  11.104  1.00  0.00     0.016 A 
ATOM     14  C   UNL     1     -41.706 -10.749  10.487  1.00  0.00     0.047 A 
ATOM     15  C   UNL     1     -41.552  -9.362  10.606  1.00  0.00     0.115 A 
ATOM     16  C   UNL     1     -43.563  -9.262  11.957  1.00  0.00     0.016 A 
ATOM     17  C   UNL     1     -42.484  -8.621  11.339  1.00  0.00     0.047 A 
BRANCH  15  18
ATOM     18  O   UNL     1     -40.482  -8.710   9.996  1.00  0.00    -0.508 OA
ATOM     19  H   UNL     1     -40.495  -7.710   9.833  1.00  0.00     0.293 HD
ENDBRANCH  15  18
ENDBRANCH   1  12
BRANCH   2  20
ATOM     20  O   UNL     1     -43.994 -10.990  14.724  1.00  0.00    -0.502 OA
ATOM     21  H   UNL     1     -44.101 -10.959  15.730  1.00  0.00     0.293 HD
ENDBRANCH   2  20
BRANCH   6  22
ATOM     22  O   UNL     1     -48.731 -13.362  15.274  1.00  0.00    -0.507 OA
ATOM     23  H   UNL     1     -48.272 -12.906  16.048  1.00  0.00     0.293 HD
ENDBRANCH   6  22
BRANCH   8  24
ATOM     24  O   UNL     1     -49.722 -14.334  10.677  1.00  0.00    -0.508 OA
ATOM     25  H   UNL     1     -49.416 -15.084  10.067  1.00  0.00     0.293 HD
ENDBRANCH   8  24
TORSDOF 5
ENDMDL
MODEL 3
REMARK VINA RESULT:    -7.577      1.750      6.667
REMARK INTER + INTRA:          -9.195
REMARK INTER:                  -9.016
REMARK INTRA:                  -0.178
REMARK UNBOUND:                -0.289
REMARK SMILES O=c1c(O)c(-c2ccc(O)cc2)oc2cc(O)cc(O)c12
REMARK SMILES IDX 5 1 3 2 2 3 1 4 21 5 19 6 18 7 16 8 15 9 14 10 13 11 6 12
REMARK SMILES IDX 7 13 8 14 9 15 12 16 11 17 10 18 4 20 20 22 17 24
REMARK H PARENT 10 19 4 21 20 23 17 25
REMARK Flexibility Score: inf
ROOT
ATOM      1  C   UNL     1     -44.694 -11.400  12.294  1.00  0.00     0.180 A 
ATOM      2  C   UNL     1     -44.819 -11.414  13.694  1.00  0.00     0.208 A 
ATOM      3  C   UNL     1     -45.970 -11.978  14.268  1.00  0.00     0.238 A 
ATOM      4  O   UNL     1     -46.051 -12.036  15.524  1.00  0.00    -0.285 OA
ATOM      5  C   UNL     1     -46.987 -12.505  13.438  1.00  0.00     0.111 A 
ATOM      6  C   UNL     1     -48.212 -13.064  13.911  1.00  0.00     0.134 A 
ATOM      7  C   UNL     1     -49.088 -13.674  13.004  1.00  0.00     0.093 A 
ATOM      8  C   UNL     1     -48.813 -13.688  11.634  1.00  0.00     0.123 A 
ATOM      9  C   UNL     1     -47.649 -13.093  11.157  1.00  0.00     0.094 A 
ATOM     10  C   UNL     1     -46.738 -12.508  12.040  1.00  0.00     0.146 A 
ATOM     11  O   UNL     1     -45.635 -11.961  11.544  1.00  0.00    -0.452 OA
ENDROOT
BRANCH   1  12
ATOM     12  C   UNL     1     -43.523 -10.801  11.614  1.00  0.00     0.021 A 
ATOM     13  C   UNL     1     -43.334  -9.409  11.661  1.00  0.00     0.016 A 
ATOM     14  C   UNL     1     -42.223  -8.825  11.044  1.00  0.00     0.047 A 
ATOM     15  C   UNL     1     -41.280  -9.624  10.387  1.00  0.00     0.115 A 
ATOM     16  C   UNL     1     -42.561 -11.599  10.969  1.00  0.00     0.016 A 
ATOM     17  C   UNL     1     -41.451 -11.012  10.354  1.00  0.00     0.047 A 
BRANCH  15  18
ATOM     18  O   UNL     1     -40.170  -9.053   9.769  1.00  0.00    -0.508 OA
ATOM     19  H   UNL     1     -39.772  -9.448   8.926  1.00  0.00     0.293 HD
ENDBRANCH  15  18
ENDBRANCH   1  12
BRANCH   2  20
ATOM     20  O   UNL     1     -43.793 -10.908  14.497  1.00  0.00    -0.502 OA
ATOM     21  H   UNL     1     -42.960 -10.482  14.111  1.00  0.00     0.293 HD
ENDBRANCH   2  20
BRANCH   6  22
ATOM     22  O   UNL     1     -48.625 -13.021  15.246  1.00  0.00    -0.507 OA
ATOM     23  H   UNL     1     -48.211 -13.557  15.993  1.00  0.00     0.293 HD
ENDBRANCH   6  22
BRANCH   8  24
ATOM     24  O   UNL     1     -49.698 -14.283  10.739  1.00  0.00    -0.508 OA
ATOM     25  H   UNL     1     -50.679 -14.406  10.964  1.00  0.00     0.293 HD
ENDBRANCH   8  24
TORSDOF 5
ENDMDL
MODEL 4
REMARK VINA RESULT:    -7.311      3.247      7.624
REMARK INTER + INTRA:          -8.882
REMARK INTER:                  -8.599
REMARK INTRA:                  -0.283
REMARK UNBOUND:                -0.289
REMARK SMILES O=c1c(O)c(-c2ccc(O)cc2)oc2cc(O)cc(O)c12
REMARK SMILES IDX 5 1 3 2 2 3 1 4 21 5 19 6 18 7 16 8 15 9 14 10 13 11 6 12
REMARK SMILES IDX 7 13 8 14 9 15 12 16 11 17 10 18 4 20 20 22 17 24
REMARK H PARENT 10 19 4 21 20 23 17 25
REMARK Flexibility Score: inf
ROOT
ATOM      1  C   UNL     1     -46.898 -12.276  13.831  1.00  0.00     0.180 A 
ATOM      2  C   UNL     1     -46.991 -12.187  15.230  1.00  0.00     0.208 A 
ATOM      3  C   UNL     1     -48.226 -12.447  15.848  1.00  0.00     0.238 A 
ATOM      4  O   UNL     1     -48.289 -12.420  17.105  1.00  0.00    -0.285 OA
ATOM      5  C   UNL     1     -49.354 -12.774  15.059  1.00  0.00     0.111 A 
ATOM      6  C   UNL     1     -50.662 -13.018  15.576  1.00  0.00     0.134 A 
ATOM      7  C   UNL     1     -51.673 -13.461  14.715  1.00  0.00     0.093 A 
ATOM      8  C   UNL     1     -51.440 -13.608  13.345  1.00  0.00     0.123 A 
ATOM      9  C   UNL     1     -50.183 -13.317  12.822  1.00  0.00     0.094 A 
ATOM     10  C   UNL     1     -49.144 -12.906  13.662  1.00  0.00     0.146 A 
ATOM     11  O   UNL     1     -47.958 -12.649  13.123  1.00  0.00    -0.452 OA
ENDROOT
BRANCH   1  12
ATOM     12  C   UNL     1     -45.638 -11.992  13.105  1.00  0.00     0.021 A 
ATOM     13  C   UNL     1     -45.308 -10.664  12.787  1.00  0.00     0.016 A 
ATOM     14  C   UNL     1     -44.113 -10.371  12.123  1.00  0.00     0.047 A 
ATOM     15  C   UNL     1     -43.227 -11.400  11.781  1.00  0.00     0.115 A 
ATOM     16  C   UNL     1     -44.734 -13.018  12.777  1.00  0.00     0.016 A 
ATOM     17  C   UNL     1     -43.540 -12.722  12.113  1.00  0.00     0.047 A 
BRANCH  15  18
ATOM     18  O   UNL     1     -42.034 -11.120  11.119  1.00  0.00    -0.508 OA
ATOM     19  H   UNL     1     -41.875 -10.226  10.670  1.00  0.00     0.293 HD
ENDBRANCH  15  18
ENDBRANCH   1  12
BRANCH   2  20
ATOM     20  O   UNL     1     -45.860 -11.885  15.993  1.00  0.00    -0.502 OA
ATOM     21  H   UNL     1     -44.924 -11.894  15.605  1.00  0.00     0.293 HD
ENDBRANCH   2  20
BRANCH   6  22
ATOM     22  O   UNL     1     -51.024 -12.812  16.911  1.00  0.00    -0.507 OA
ATOM     23  H   UNL     1     -51.553 -13.465  17.469  1.00  0.00     0.293 HD
ENDBRANCH   6  22
BRANCH   8  24
ATOM     24  O   UNL     1     -52.456 -14.035  12.494  1.00  0.00    -0.508 OA
ATOM     25  H   UNL     1     -53.376 -13.610  12.510  1.00  0.00     0.293 HD
ENDBRANCH   8  24
TORSDOF 5
ENDMDL
MODEL 5
REMARK VINA RESULT:    -7.175      3.026      8.099
REMARK INTER + INTRA:          -8.722
REMARK INTER:                  -8.433
REMARK INTRA:                  -0.289
REMARK UNBOUND:                -0.289
REMARK SMILES O=c1c(O)c(-c2ccc(O)cc2)oc2cc(O)cc(O)c12
REMARK SMILES IDX 5 1 3 2 2 3 1 4 21 5 19 6 18 7 16 8 15 9 14 10 13 11 6 12
REMARK SMILES IDX 7 13 8 14 9 15 12 16 11 17 10 18 4 20 20 22 17 24
REMARK H PARENT 10 19 4 21 20 23 17 25
REMARK Flexibility Score: inf
ROOT
ATOM      1  C   UNL     1     -47.767 -12.656  12.600  1.00  0.00     0.180 A 
ATOM      2  C   UNL     1     -48.772 -12.481  11.634  1.00  0.00     0.208 A 
ATOM      3  C   UNL     1     -50.083 -12.884  11.936  1.00  0.00     0.238 A 
ATOM      4  O   UNL     1     -50.990 -12.675  11.087  1.00  0.00    -0.285 OA
ATOM      5  C   UNL     1     -50.369 -13.472  13.191  1.00  0.00     0.111 A 
ATOM      6  C   UNL     1     -51.653 -13.953  13.588  1.00  0.00     0.134 A 
ATOM      7  C   UNL     1     -51.848 -14.397  14.901  1.00  0.00     0.093 A 
ATOM      8  C   UNL     1     -50.790 -14.436  15.813  1.00  0.00     0.123 A 
ATOM      9  C   UNL     1     -49.521 -14.024  15.418  1.00  0.00     0.094 A 
ATOM     10  C   UNL     1     -49.302 -13.543  14.125  1.00  0.00     0.146 A 
ATOM     11  O   UNL     1     -48.079 -13.150  13.792  1.00  0.00    -0.452 OA
ENDROOT
BRANCH   1  12
ATOM     12  C   UNL     1     -46.357 -12.279  12.347  1.00  0.00     0.021 A 
ATOM     13  C   UNL     1     -45.493 -13.204  11.738  1.00  0.00     0.016 A 
ATOM     14  C   UNL     1     -44.164 -12.862  11.469  1.00  0.00     0.047 A 
ATOM     15  C   UNL     1     -43.687 -11.586  11.792  1.00  0.00     0.115 A 
ATOM     16  C   UNL     1     -45.876 -10.992  12.650  1.00  0.00     0.016 A 
ATOM     17  C   UNL     1     -44.546 -10.652  12.380  1.00  0.00     0.047 A 
BRANCH  15  18
ATOM     18  O   UNL     1     -42.365 -11.233  11.529  1.00  0.00    -0.508 OA
ATOM     19  H   UNL     1     -41.627 -11.927  11.508  1.00  0.00     0.293 HD
ENDBRANCH  15  18
ENDBRANCH   1  12
BRANCH   2  20
ATOM     20  O   UNL     1     -48.474 -11.878  10.409  1.00  0.00    -0.502 OA
ATOM     21  H   UNL     1     -48.927 -12.148   9.545  1.00  0.00     0.293 HD
ENDBRANCH   2  20
BRANCH   6  22
ATOM     22  O   UNL     1     -52.752 -14.043  12.728  1.00  0.00    -0.507 OA
ATOM     23  H   UNL     1     -52.696 -14.264  11.745  1.00  0.00     0.293 HD
ENDBRANCH   6  22
BRANCH   8  24
ATOM     24  O   UNL     1     -50.991 -14.893  17.114  1.00  0.00    -0.508 OA
ATOM     25  H   UNL     1     -50.975 -15.882  17.337  1.00  0.00     0.293 HD
ENDBRANCH   8  24
TORSDOF 5
ENDMDL
MODEL 6
REMARK VINA RESULT:    -7.101      3.653      5.317
REMARK INTER + INTRA:          -8.635
REMARK INTER:                  -8.424
REMARK INTRA:                  -0.211
REMARK UNBOUND:                -0.289
REMARK SMILES O=c1c(O)c(-c2ccc(O)cc2)oc2cc(O)cc(O)c12
REMARK SMILES IDX 5 1 3 2 2 3 1 4 21 5 19 6 18 7 16 8 15 9 14 10 13 11 6 12
REMARK SMILES IDX 7 13 8 14 9 15 12 16 11 17 10 18 4 20 20 22 17 24
REMARK H PARENT 10 19 4 21 20 23 17 25
REMARK Flexibility Score: inf
ROOT
ATOM      1  C   UNL     1     -48.572 -12.902  14.601  1.00  0.00     0.180 A 
ATOM      2  C   UNL     1     -47.684 -12.017  15.235  1.00  0.00     0.208 A 
ATOM      3  C   UNL     1     -46.545 -11.580  14.538  1.00  0.00     0.238 A 
ATOM      4  O   UNL     1     -45.782 -10.745  15.092  1.00  0.00    -0.285 OA
ATOM      5  C   UNL     1     -46.300 -12.047  13.225  1.00  0.00     0.111 A 
ATOM      6  C   UNL     1     -45.158 -11.701  12.441  1.00  0.00     0.134 A 
ATOM      7  C   UNL     1     -45.085 -12.118  11.107  1.00  0.00     0.093 A 
ATOM      8  C   UNL     1     -46.081 -12.921  10.547  1.00  0.00     0.123 A 
ATOM      9  C   UNL     1     -47.170 -13.312  11.321  1.00  0.00     0.094 A 
ATOM     10  C   UNL     1     -47.289 -12.883  12.645  1.00  0.00     0.146 A 
ATOM     11  O   UNL     1     -48.349 -13.270  13.345  1.00  0.00    -0.452 OA
ENDROOT
BRANCH   1  12
ATOM     12  C   UNL     1     -49.780 -13.426  15.279  1.00  0.00     0.021 A 
ATOM     13  C   UNL     1     -51.051 -13.040  14.823  1.00  0.00     0.016 A 
ATOM     14  C   UNL     1     -52.205 -13.541  15.434  1.00  0.00     0.047 A 
ATOM     15  C   UNL     1     -52.102 -14.445  16.498  1.00  0.00     0.115 A 
ATOM     16  C   UNL     1     -49.685 -14.350  16.335  1.00  0.00     0.016 A 
ATOM     17  C   UNL     1     -50.840 -14.849  16.945  1.00  0.00     0.047 A 
BRANCH  15  18
ATOM     18  O   UNL     1     -53.245 -14.950  17.115  1.00  0.00    -0.508 OA
ATOM     19  H   UNL     1     -53.859 -15.600  16.639  1.00  0.00     0.293 HD
ENDBRANCH  15  18
ENDBRANCH   1  12
BRANCH   2  20
ATOM     20  O   UNL     1     -47.956 -11.551  16.524  1.00  0.00    -0.502 OA
ATOM     21  H   UNL     1     -47.491 -10.743  16.919  1.00  0.00     0.293 HD
ENDBRANCH   2  20
BRANCH   6  22
ATOM     22  O   UNL     1     -44.064 -10.981  12.932  1.00  0.00    -0.507 OA
ATOM     23  H   UNL     1     -43.901 -10.000  12.765  1.00  0.00     0.293 HD
ENDBRANCH   6  22
BRANCH   8  24
ATOM     24  O   UNL     1     -45.992 -13.344   9.222  1.00  0.00    -0.508 OA
ATOM     25  H   UNL     1     -46.607 -14.059   8.851  1.00  0.00     0.293 HD
ENDBRANCH   8  24
TORSDOF 5
ENDMDL
MODEL 7
REMARK VINA RESULT:    -7.049      2.084      7.218
REMARK INTER + INTRA:          -8.574
REMARK INTER:                  -8.555
REMARK INTRA:                  -0.019
REMARK UNBOUND:                -0.289
REMARK SMILES O=c1c(O)c(-c2ccc(O)cc2)oc2cc(O)cc(O)c12
REMARK SMILES IDX 5 1 3 2 2 3 1 4 21 5 19 6 18 7 16 8 15 9 14 10 13 11 6 12
REMARK SMILES IDX 7 13 8 14 9 15 12 16 11 17 10 18 4 20 20 22 17 24
REMARK H PARENT 10 19 4 21 20 23 17 25
REMARK Flexibility Score: inf
ROOT
ATOM      1  C   UNL     1     -45.482 -11.693  11.928  1.00  0.00     0.180 A 
ATOM      2  C   UNL     1     -46.193 -12.428  10.965  1.00  0.00     0.208 A 
ATOM      3  C   UNL     1     -47.358 -13.110  11.353  1.00  0.00     0.238 A 
ATOM      4  O   UNL     1     -48.021 -13.721  10.474  1.00  0.00    -0.285 OA
ATOM      5  C   UNL     1     -47.786 -13.062  12.701  1.00  0.00     0.111 A 
ATOM      6  C   UNL     1     -48.929 -13.748  13.213  1.00  0.00     0.134 A 
ATOM      7  C   UNL     1     -49.333 -13.523  14.535  1.00  0.00     0.093 A 
ATOM      8  C   UNL     1     -48.599 -12.689  15.382  1.00  0.00     0.123 A 
ATOM      9  C   UNL     1     -47.449 -12.063  14.908  1.00  0.00     0.094 A 
ATOM     10  C   UNL     1     -47.041 -12.238  13.583  1.00  0.00     0.146 A 
ATOM     11  O   UNL     1     -45.945 -11.613  13.170  1.00  0.00    -0.452 OA
ENDROOT
BRANCH   1  12
ATOM     12  C   UNL     1     -44.231 -10.969  11.601  1.00  0.00     0.021 A 
ATOM     13  C   UNL     1     -44.087  -9.627  11.991  1.00  0.00     0.016 A 
ATOM     14  C   UNL     1     -42.907  -8.931  11.713  1.00  0.00     0.047 A 
ATOM     15  C   UNL     1     -41.850  -9.572  11.054  1.00  0.00     0.115 A 
ATOM     16  C   UNL     1     -43.158 -11.612  10.958  1.00  0.00     0.016 A 
ATOM     17  C   UNL     1     -41.979 -10.914  10.680  1.00  0.00     0.047 A 
BRANCH  15  18
ATOM     18  O   UNL     1     -40.670  -8.889  10.771  1.00  0.00    -0.508 OA
ATOM     19  H   UNL     1     -39.837  -9.017  11.333  1.00  0.00     0.293 HD
ENDBRANCH  15  18
ENDBRANCH   1  12
BRANCH   2  20
ATOM     20  O   UNL     1     -45.765 -12.444   9.634  1.00  0.00    -0.502 OA
ATOM     21  H   UNL     1     -45.061 -11.808   9.282  1.00  0.00     0.293 HD
ENDBRANCH   2  20
BRANCH   6  22
ATOM     22  O   UNL     1     -49.678 -14.673  12.480  1.00  0.00    -0.507 OA
ATOM     23  H   UNL     1     -50.364 -15.299  12.875  1.00  0.00     0.293 HD
ENDBRANCH   6  22
BRANCH   8  24
ATOM     24  O   UNL     1     -49.000 -12.484  16.700  1.00  0.00    -0.508 OA
ATOM     25  H   UNL     1     -48.731 -11.652  17.213  1.00  0.00     0.293 HD
ENDBRANCH   8  24
TORSDOF 5
ENDMDL
MODEL 8
REMARK VINA RESULT:    -6.887      3.327      5.600
REMARK INTER + INTRA:          -8.384
REMARK INTER:                  -8.277
REMARK INTRA:                  -0.106
REMARK UNBOUND:                -0.289
REMARK SMILES O=c1c(O)c(-c2ccc(O)cc2)oc2cc(O)cc(O)c12
REMARK SMILES IDX 5 1 3 2 2 3 1 4 21 5 19 6 18 7 16 8 15 9 14 10 13 11 6 12
REMARK SMILES IDX 7 13 8 14 9 15 12 16 11 17 10 18 4 20 20 22 17 24
REMARK H PARENT 10 19 4 21 20 23 17 25
REMARK Flexibility Score: inf
ROOT
ATOM      1  C   UNL     1     -48.751 -13.418  13.898  1.00  0.00     0.180 A 
ATOM      2  C   UNL     1     -48.536 -13.926  12.605  1.00  0.00     0.208 A 
ATOM      3  C   UNL     1     -47.412 -13.492  11.882  1.00  0.00     0.238 A 
ATOM      4  O   UNL     1     -47.195 -13.992  10.747  1.00  0.00    -0.285 OA
ATOM      5  C   UNL     1     -46.530 -12.545  12.453  1.00  0.00     0.111 A 
ATOM      6  C   UNL     1     -45.383 -12.006  11.795  1.00  0.00     0.134 A 
ATOM      7  C   UNL     1     -44.509 -11.173  12.504  1.00  0.00     0.093 A 
ATOM      8  C   UNL     1     -44.774 -10.809  13.826  1.00  0.00     0.123 A 
ATOM      9  C   UNL     1     -45.920 -11.282  14.458  1.00  0.00     0.094 A 
ATOM     10  C   UNL     1     -46.794 -12.143  13.788  1.00  0.00     0.146 A 
ATOM     11  O   UNL     1     -47.870 -12.580  14.431  1.00  0.00    -0.452 OA
ENDROOT
BRANCH   1  12
ATOM     12  C   UNL     1     -49.926 -13.808  14.711  1.00  0.00     0.021 A 
ATOM     13  C   UNL     1     -49.730 -14.369  15.984  1.00  0.00     0.016 A 
ATOM     14  C   UNL     1     -50.825 -14.723  16.778  1.00  0.00     0.047 A 
ATOM     15  C   UNL     1     -52.129 -14.507  16.316  1.00  0.00     0.115 A 
ATOM     16  C   UNL     1     -51.239 -13.575  14.263  1.00  0.00     0.016 A 
ATOM     17  C   UNL     1     -52.332 -13.931  15.059  1.00  0.00     0.047 A 
BRANCH  15  18
ATOM     18  O   UNL     1     -53.227 -14.857  17.099  1.00  0.00    -0.508 OA
ATOM     19  H   UNL     1     -54.063 -14.285  17.123  1.00  0.00     0.293 HD
ENDBRANCH  15  18
ENDBRANCH   1  12
BRANCH   2  20
ATOM     20  O   UNL     1     -49.407 -14.878  12.069  1.00  0.00    -0.502 OA
ATOM     21  H   UNL     1     -49.240 -15.873  12.146  1.00  0.00     0.293 HD
ENDBRANCH   2  20
BRANCH   6  22
ATOM     22  O   UNL     1     -45.077 -12.232  10.449  1.00  0.00    -0.507 OA
ATOM     23  H   UNL     1     -45.727 -12.117   9.686  1.00  0.00     0.293 HD
ENDBRANCH   6  22
BRANCH   8  24
ATOM     24  O   UNL     1     -43.905  -9.967  14.519  1.00  0.00    -0.508 OA
ATOM     25  H   UNL     1     -44.232  -9.116  14.961  1.00  0.00     0.293 HD
ENDBRANCH   8  24
TORSDOF 5
ENDMDL
MODEL 9
REMARK VINA RESULT:    -6.681      2.037      7.212
REMARK INTER + INTRA:          -8.141
REMARK INTER:                  -8.430
REMARK INTRA:                   0.289
REMARK UNBOUND:                -0.289
REMARK SMILES O=c1c(O)c(-c2ccc(O)cc2)oc2cc(O)cc(O)c12
REMARK SMILES IDX 5 1 3 2 2 3 1 4 21 5 19 6 18 7 16 8 15 9 14 10 13 11 6 12
REMARK SMILES IDX 7 13 8 14 9 15 12 16 11 17 10 18 4 20 20 22 17 24
REMARK H PARENT 10 19 4 21 20 23 17 25
REMARK Flexibility Score: inf
ROOT
ATOM      1  C   UNL     1     -44.688 -10.263  12.787  1.00  0.00     0.180 A 
ATOM      2  C   UNL     1     -44.584 -11.185  11.731  1.00  0.00     0.208 A 
ATOM      3  C   UNL     1     -45.461 -12.282  11.696  1.00  0.00     0.238 A 
ATOM      4  O   UNL     1     -45.398 -13.074  10.719  1.00  0.00    -0.285 OA
ATOM      5  C   UNL     1     -46.417 -12.452  12.725  1.00  0.00     0.111 A 
ATOM      6  C   UNL     1     -47.328 -13.548  12.811  1.00  0.00     0.134 A 
ATOM      7  C   UNL     1     -48.318 -13.546  13.802  1.00  0.00     0.093 A 
ATOM      8  C   UNL     1     -48.389 -12.520  14.748  1.00  0.00     0.123 A 
ATOM      9  C   UNL     1     -47.468 -11.477  14.708  1.00  0.00     0.094 A 
ATOM     10  C   UNL     1     -46.490 -11.433  13.710  1.00  0.00     0.146 A 
ATOM     11  O   UNL     1     -45.638 -10.415  13.701  1.00  0.00    -0.452 OA
ENDROOT
BRANCH   1  12
ATOM     12  C   UNL     1     -43.783  -9.097  12.906  1.00  0.00     0.021 A 
ATOM     13  C   UNL     1     -43.390  -8.654  14.180  1.00  0.00     0.016 A 
ATOM     14  C   UNL     1     -42.519  -7.569  14.315  1.00  0.00     0.047 A 
ATOM     15  C   UNL     1     -42.018  -6.922  13.178  1.00  0.00     0.115 A 
ATOM     16  C   UNL     1     -43.260  -8.455  11.768  1.00  0.00     0.016 A 
ATOM     17  C   UNL     1     -42.389  -7.370  11.906  1.00  0.00     0.047 A 
BRANCH  15  18
ATOM     18  O   UNL     1     -41.150  -5.839  13.300  1.00  0.00    -0.508 OA
ATOM     19  H   UNL     1     -41.490  -4.885  13.290  1.00  0.00     0.293 HD
ENDBRANCH  15  18
ENDBRANCH   1  12
BRANCH   2  20
ATOM     20  O   UNL     1     -43.647 -10.986  10.713  1.00  0.00    -0.502 OA
ATOM     21  H   UNL     1     -43.733 -10.241  10.033  1.00  0.00     0.293 HD
ENDBRANCH   2  20
BRANCH   6  22
ATOM     22  O   UNL     1     -47.285 -14.667  11.974  1.00  0.00    -0.507 OA
ATOM     23  H   UNL     1     -46.852 -15.546  12.213  1.00  0.00     0.293 HD
ENDBRANCH   6  22
BRANCH   8  24
ATOM     24  O   UNL     1     -49.368 -12.534  15.739  1.00  0.00    -0.508 OA
ATOM     25  H   UNL     1     -50.180 -11.929  15.692  1.00  0.00     0.293 HD
ENDBRANCH   8  24
TORSDOF 5
ENDMDL
