MODEL 1
REMARK VINA RESULT:     5.020      0.000      0.000
REMARK INTER + INTRA:           5.295
REMARK INTER:                   5.313
REMARK INTRA:                  -0.018
REMARK UNBOUND:                -0.018
REMARK SMILES O=C([O-])c1cccnc1
REMARK SMILES IDX 4 1 5 2 9 3 6 4 8 5 7 6 2 7 1 8 3 9
REMARK H PARENT
REMARK Flexibility Score: inf
ROOT
ATOM      1  C   UNL     1      10.003  69.817   3.631  1.00  0.00     0.016 A 
ATOM      2  C   UNL     1      11.223  69.794   4.329  1.00  0.00     0.013 A 
ATOM      3  C   UNL     1       8.899  70.442   4.235  1.00  0.00     0.120 A 
ATOM      4  C   UNL     1      11.320  70.383   5.591  1.00  0.00     0.021 A 
ATOM      5  N   UNL     1       9.021  71.008   5.466  1.00  0.00    -0.264 NA
ATOM      6  C   UNL     1      10.195  70.992   6.149  1.00  0.00     0.111 A 
ENDROOT
BRANCH   1   7
ATOM      7  C   UNL     1       9.880  69.199   2.293  1.00  0.00     0.073 C 
ATOM      8  O   UNL     1      10.171  67.985   2.119  1.00  0.00    -0.545 OA
ATOM      9  O   UNL     1       9.441  69.949   1.208  1.00  0.00    -0.545 OA
ENDBRANCH   1   7
TORSDOF 1
ENDMDL
MODEL 2
REMARK VINA RESULT:     5.360      0.963      1.609
REMARK INTER + INTRA:           5.655
REMARK INTER:                   5.673
REMARK INTRA:                  -0.018
REMARK UNBOUND:                -0.018
REMARK SMILES O=C([O-])c1cccnc1
REMARK SMILES IDX 4 1 5 2 9 3 6 4 8 5 7 6 2 7 1 8 3 9
REMARK H PARENT
REMARK Flexibility Score: inf
ROOT
ATOM      1  C   UNL     1      10.070  69.786   3.571  1.00  0.00     0.016 A 
ATOM      2  C   UNL     1       9.042  70.482   4.232  1.00  0.00     0.013 A 
ATOM      3  C   UNL     1      11.318  69.675   4.206  1.00  0.00     0.120 A 
ATOM      4  C   UNL     1       9.272  71.042   5.490  1.00  0.00     0.021 A 
ATOM      5  N   UNL     1      11.515  70.231   5.433  1.00  0.00    -0.264 NA
ATOM      6  C   UNL     1      10.529  70.904   6.081  1.00  0.00     0.111 A 
ENDROOT
BRANCH   1   7
ATOM      7  C   UNL     1       9.847  69.186   2.238  1.00  0.00     0.073 C 
ATOM      8  O   UNL     1      10.047  67.957   2.048  1.00  0.00    -0.545 OA
ATOM      9  O   UNL     1       9.412  69.971   1.176  1.00  0.00    -0.545 OA
ENDBRANCH   1   7
TORSDOF 1
ENDMDL
MODEL 3
REMARK VINA RESULT:     6.798      3.026      4.069
REMARK INTER + INTRA:           7.177
REMARK INTER:                   7.195
REMARK INTRA:                  -0.018
REMARK UNBOUND:                -0.018
REMARK SMILES O=C([O-])c1cccnc1
REMARK SMILES IDX 4 1 5 2 9 3 6 4 8 5 7 6 2 7 1 8 3 9
REMARK H PARENT
REMARK Flexibility Score: inf
ROOT
ATOM      1  C   UNL     1       9.868  70.585   4.944  1.00  0.00     0.016 A 
ATOM      2  C   UNL     1       8.970  70.353   3.886  1.00  0.00     0.013 A 
ATOM      3  C   UNL     1      11.130  69.972   4.895  1.00  0.00     0.120 A 
ATOM      4  C   UNL     1       9.341  69.532   2.821  1.00  0.00     0.021 A 
ATOM      5  N   UNL     1      11.466  69.176   3.844  1.00  0.00    -0.264 NA
ATOM      6  C   UNL     1      10.607  68.945   2.817  1.00  0.00     0.111 A 
ENDROOT
BRANCH   1   7
ATOM      7  C   UNL     1       9.494  71.452   6.082  1.00  0.00     0.073 C 
ATOM      8  O   UNL     1       9.180  72.658   5.893  1.00  0.00    -0.545 OA
ATOM      9  O   UNL     1       9.483  70.948   7.377  1.00  0.00    -0.545 OA
ENDBRANCH   1   7
TORSDOF 1
ENDMDL
