MODEL 1
REMARK VINA RESULT:    -3.766      0.000      0.000
REMARK INTER + INTRA:          -3.766
REMARK INTER:                  -3.766
REMARK INTRA:                   0.000
REMARK UNBOUND:                 0.000
REMARK SMILES CC1=CC[C@@H]2C[C@H]1C2(C)C
REMARK SMILES IDX 1 1 2 2 3 3 4 4 5 5 6 6 7 7 8 8 9 9 10 10
REMARK H PARENT
REMARK Flexibility Score: inf
ROOT
ATOM      1  C   UNL     1      53.648   8.341 -48.850  1.00  0.00     0.039 C 
ATOM      2  C   UNL     1      54.180   7.471 -47.751  1.00  0.00    -0.074 C 
ATOM      3  C   UNL     1      55.274   6.676 -47.940  1.00  0.00    -0.027 C 
ATOM      4  C   UNL     1      55.787   5.828 -46.759  1.00  0.00     0.031 C 
ATOM      5  C   UNL     1      54.862   6.033 -45.509  1.00  0.00    -0.000 C 
ATOM      6  C   UNL     1      53.417   5.913 -46.034  1.00  0.00     0.013 C 
ATOM      7  C   UNL     1      53.515   7.414 -46.368  1.00  0.00     0.021 C 
ATOM      8  C   UNL     1      54.602   7.546 -45.270  1.00  0.00    -0.026 C 
ATOM      9  C   UNL     1      55.769   8.547 -45.501  1.00  0.00     0.012 C 
ATOM     10  C   UNL     1      53.995   7.821 -43.872  1.00  0.00     0.012 C 
ENDROOT
TORSDOF 0
ENDMDL
MODEL 2
REMARK VINA RESULT:    -3.727      1.085      3.218
REMARK INTER + INTRA:          -3.727
REMARK INTER:                  -3.727
REMARK INTRA:                   0.000
REMARK UNBOUND:                 0.000
REMARK SMILES CC1=CC[C@@H]2C[C@H]1C2(C)C
REMARK SMILES IDX 1 1 2 2 3 3 4 4 5 5 6 6 7 7 8 8 9 9 10 10
REMARK H PARENT
REMARK Flexibility Score: inf
ROOT
ATOM      1  C   UNL     1      55.716   8.716 -43.721  1.00  0.00     0.039 C 
ATOM      2  C   UNL     1      55.344   7.647 -44.703  1.00  0.00    -0.074 C 
ATOM      3  C   UNL     1      55.122   6.360 -44.303  1.00  0.00    -0.027 C 
ATOM      4  C   UNL     1      54.714   5.315 -45.360  1.00  0.00     0.031 C 
ATOM      5  C   UNL     1      54.674   5.976 -46.782  1.00  0.00    -0.000 C 
ATOM      6  C   UNL     1      55.977   6.792 -46.900  1.00  0.00     0.013 C 
ATOM      7  C   UNL     1      55.212   7.936 -46.205  1.00  0.00     0.021 C 
ATOM      8  C   UNL     1      53.891   7.318 -46.733  1.00  0.00    -0.026 C 
ATOM      9  C   UNL     1      52.624   7.407 -45.838  1.00  0.00     0.012 C 
ATOM     10  C   UNL     1      53.525   7.833 -48.147  1.00  0.00     0.012 C 
ENDROOT
TORSDOF 0
ENDMDL
MODEL 3
REMARK VINA RESULT:    -3.703      1.633      3.016
REMARK INTER + INTRA:          -3.703
REMARK INTER:                  -3.703
REMARK INTRA:                   0.000
REMARK UNBOUND:                 0.000
REMARK SMILES CC1=CC[C@@H]2C[C@H]1C2(C)C
REMARK SMILES IDX 1 1 2 2 3 3 4 4 5 5 6 6 7 7 8 8 9 9 10 10
REMARK H PARENT
REMARK Flexibility Score: inf
ROOT
ATOM      1  C   UNL     1      54.218   9.109 -51.109  1.00  0.00     0.039 C 
ATOM      2  C   UNL     1      53.724   8.098 -50.119  1.00  0.00    -0.074 C 
ATOM      3  C   UNL     1      53.289   6.867 -50.517  1.00  0.00    -0.027 C 
ATOM      4  C   UNL     1      52.822   5.862 -49.445  1.00  0.00     0.031 C 
ATOM      5  C   UNL     1      52.908   6.517 -48.022  1.00  0.00    -0.000 C 
ATOM      6  C   UNL     1      52.271   7.914 -48.166  1.00  0.00     0.013 C 
ATOM      7  C   UNL     1      53.664   8.399 -48.614  1.00  0.00     0.021 C 
ATOM      8  C   UNL     1      54.284   7.213 -47.829  1.00  0.00    -0.026 C 
ATOM      9  C   UNL     1      55.553   6.527 -48.407  1.00  0.00     0.012 C 
ATOM     10  C   UNL     1      54.556   7.569 -46.346  1.00  0.00     0.012 C 
ENDROOT
TORSDOF 0
ENDMDL
MODEL 4
REMARK VINA RESULT:    -3.613      0.988      3.379
REMARK INTER + INTRA:          -3.613
REMARK INTER:                  -3.613
REMARK INTRA:                   0.000
REMARK UNBOUND:                 0.000
REMARK SMILES CC1=CC[C@@H]2C[C@H]1C2(C)C
REMARK SMILES IDX 1 1 2 2 3 3 4 4 5 5 6 6 7 7 8 8 9 9 10 10
REMARK H PARENT
REMARK Flexibility Score: inf
ROOT
ATOM      1  C   UNL     1      55.734   8.620 -45.138  1.00  0.00     0.039 C 
ATOM      2  C   UNL     1      55.037   7.556 -45.932  1.00  0.00    -0.074 C 
ATOM      3  C   UNL     1      53.780   7.136 -45.608  1.00  0.00    -0.027 C 
ATOM      4  C   UNL     1      53.108   6.059 -46.484  1.00  0.00     0.031 C 
ATOM      5  C   UNL     1      54.089   5.604 -47.620  1.00  0.00    -0.000 C 
ATOM      6  C   UNL     1      55.447   5.367 -46.931  1.00  0.00     0.013 C 
ATOM      7  C   UNL     1      55.706   6.873 -47.134  1.00  0.00     0.021 C 
ATOM      8  C   UNL     1      54.713   6.841 -48.324  1.00  0.00    -0.026 C 
ATOM      9  C   UNL     1      53.817   8.086 -48.573  1.00  0.00     0.012 C 
ATOM     10  C   UNL     1      55.406   6.467 -49.658  1.00  0.00     0.012 C 
ENDROOT
TORSDOF 0
ENDMDL
MODEL 5
REMARK VINA RESULT:    -3.609      1.456      3.837
REMARK INTER + INTRA:          -3.609
REMARK INTER:                  -3.609
REMARK INTRA:                   0.000
REMARK UNBOUND:                 0.000
REMARK SMILES CC1=CC[C@@H]2C[C@H]1C2(C)C
REMARK SMILES IDX 1 1 2 2 3 3 4 4 5 5 6 6 7 7 8 8 9 9 10 10
REMARK H PARENT
REMARK Flexibility Score: inf
ROOT
ATOM      1  C   UNL     1      55.347   8.047 -45.871  1.00  0.00     0.039 C 
ATOM      2  C   UNL     1      54.356   7.504 -46.856  1.00  0.00    -0.074 C 
ATOM      3  C   UNL     1      53.019   7.486 -46.584  1.00  0.00    -0.027 C 
ATOM      4  C   UNL     1      52.050   6.942 -47.653  1.00  0.00     0.031 C 
ATOM      5  C   UNL     1      52.856   6.447 -48.904  1.00  0.00    -0.000 C 
ATOM      6  C   UNL     1      54.017   5.600 -48.346  1.00  0.00     0.013 C 
ATOM      7  C   UNL     1      54.793   6.925 -48.210  1.00  0.00     0.021 C 
ATOM      8  C   UNL     1      53.900   7.515 -49.333  1.00  0.00    -0.026 C 
ATOM      9  C   UNL     1      53.506   9.016 -49.251  1.00  0.00     0.012 C 
ATOM     10  C   UNL     1      54.474   7.239 -50.745  1.00  0.00     0.012 C 
ENDROOT
TORSDOF 0
ENDMDL
MODEL 6
REMARK VINA RESULT:    -3.592     10.564     12.343
REMARK INTER + INTRA:          -3.592
REMARK INTER:                  -3.592
REMARK INTRA:                   0.000
REMARK UNBOUND:                 0.000
REMARK SMILES CC1=CC[C@@H]2C[C@H]1C2(C)C
REMARK SMILES IDX 1 1 2 2 3 3 4 4 5 5 6 6 7 7 8 8 9 9 10 10
REMARK H PARENT
REMARK Flexibility Score: inf
ROOT
ATOM      1  C   UNL     1      44.893   1.968 -42.893  1.00  0.00     0.039 C 
ATOM      2  C   UNL     1      44.338   2.467 -44.193  1.00  0.00    -0.074 C 
ATOM      3  C   UNL     1      44.961   3.455 -44.900  1.00  0.00    -0.027 C 
ATOM      4  C   UNL     1      44.354   3.902 -46.245  1.00  0.00     0.031 C 
ATOM      5  C   UNL     1      43.032   3.107 -46.526  1.00  0.00    -0.000 C 
ATOM      6  C   UNL     1      42.228   3.152 -45.211  1.00  0.00     0.013 C 
ATOM      7  C   UNL     1      43.036   1.910 -44.786  1.00  0.00     0.021 C 
ATOM      8  C   UNL     1      43.252   1.588 -46.288  1.00  0.00    -0.026 C 
ATOM      9  C   UNL     1      44.604   0.955 -46.720  1.00  0.00     0.012 C 
ATOM     10  C   UNL     1      42.104   0.730 -46.876  1.00  0.00     0.012 C 
ENDROOT
TORSDOF 0
ENDMDL
MODEL 7
REMARK VINA RESULT:    -3.493      3.246      5.210
REMARK INTER + INTRA:          -3.493
REMARK INTER:                  -3.493
REMARK INTRA:                   0.000
REMARK UNBOUND:                 0.000
REMARK SMILES CC1=CC[C@@H]2C[C@H]1C2(C)C
REMARK SMILES IDX 1 1 2 2 3 3 4 4 5 5 6 6 7 7 8 8 9 9 10 10
REMARK H PARENT
REMARK Flexibility Score: inf
ROOT
ATOM      1  C   UNL     1      52.060   7.871 -47.932  1.00  0.00     0.039 C 
ATOM      2  C   UNL     1      52.743   8.008 -49.259  1.00  0.00    -0.074 C 
ATOM      3  C   UNL     1      53.457   9.127 -49.579  1.00  0.00    -0.027 C 
ATOM      4  C   UNL     1      54.161   9.191 -50.950  1.00  0.00     0.031 C 
ATOM      5  C   UNL     1      53.860   7.888 -51.769  1.00  0.00    -0.000 C 
ATOM      6  C   UNL     1      52.341   7.655 -51.640  1.00  0.00     0.013 C 
ATOM      7  C   UNL     1      52.662   6.910 -50.330  1.00  0.00     0.021 C 
ATOM      8  C   UNL     1      54.083   6.629 -50.886  1.00  0.00    -0.026 C 
ATOM      9  C   UNL     1      55.277   6.620 -49.891  1.00  0.00     0.012 C 
ATOM     10  C   UNL     1      54.139   5.328 -51.725  1.00  0.00     0.012 C 
ENDROOT
TORSDOF 0
ENDMDL
MODEL 8
REMARK VINA RESULT:    -3.482      1.369      3.108
REMARK INTER + INTRA:          -3.482
REMARK INTER:                  -3.482
REMARK INTRA:                   0.000
REMARK UNBOUND:                 0.000
REMARK SMILES CC1=CC[C@@H]2C[C@H]1C2(C)C
REMARK SMILES IDX 1 1 2 2 3 3 4 4 5 5 6 6 7 7 8 8 9 9 10 10
REMARK H PARENT
REMARK Flexibility Score: inf
ROOT
ATOM      1  C   UNL     1      53.284   9.017 -49.669  1.00  0.00     0.039 C 
ATOM      2  C   UNL     1      53.209   8.158 -48.443  1.00  0.00    -0.074 C 
ATOM      3  C   UNL     1      52.029   7.957 -47.787  1.00  0.00    -0.027 C 
ATOM      4  C   UNL     1      52.015   7.037 -46.549  1.00  0.00     0.031 C 
ATOM      5  C   UNL     1      53.464   6.519 -46.250  1.00  0.00    -0.000 C 
ATOM      6  C   UNL     1      54.378   7.757 -46.338  1.00  0.00     0.013 C 
ATOM      7  C   UNL     1      54.452   7.477 -47.852  1.00  0.00     0.021 C 
ATOM      8  C   UNL     1      54.129   5.990 -47.551  1.00  0.00    -0.026 C 
ATOM      9  C   UNL     1      53.255   5.204 -48.567  1.00  0.00     0.012 C 
ATOM     10  C   UNL     1      55.404   5.159 -47.261  1.00  0.00     0.012 C 
ENDROOT
TORSDOF 0
ENDMDL
MODEL 9
REMARK VINA RESULT:    -3.403     14.638     15.929
REMARK INTER + INTRA:          -3.403
REMARK INTER:                  -3.403
REMARK INTRA:                   0.000
REMARK UNBOUND:                 0.000
REMARK SMILES CC1=CC[C@@H]2C[C@H]1C2(C)C
REMARK SMILES IDX 1 1 2 2 3 3 4 4 5 5 6 6 7 7 8 8 9 9 10 10
REMARK H PARENT
REMARK Flexibility Score: inf
ROOT
ATOM      1  C   UNL     1      52.886  -5.301 -52.423  1.00  0.00     0.039 C 
ATOM      2  C   UNL     1      52.427  -6.506 -51.660  1.00  0.00    -0.074 C 
ATOM      3  C   UNL     1      52.848  -6.743 -50.383  1.00  0.00    -0.027 C 
ATOM      4  C   UNL     1      52.313  -7.986 -49.644  1.00  0.00     0.031 C 
ATOM      5  C   UNL     1      51.364  -8.804 -50.587  1.00  0.00    -0.000 C 
ATOM      6  C   UNL     1      52.103  -8.910 -51.935  1.00  0.00     0.013 C 
ATOM      7  C   UNL     1      51.478  -7.544 -52.278  1.00  0.00     0.021 C 
ATOM      8  C   UNL     1      50.339  -7.860 -51.274  1.00  0.00    -0.026 C 
ATOM      9  C   UNL     1      49.735  -6.689 -50.448  1.00  0.00     0.012 C 
ATOM     10  C   UNL     1      49.174  -8.640 -51.933  1.00  0.00     0.012 C 
ENDROOT
TORSDOF 0
ENDMDL
