MODEL 1
REMARK VINA RESULT:    -3.230      0.000      0.000
REMARK INTER + INTRA:          -3.897
REMARK INTER:                  -3.796
REMARK INTRA:                  -0.101
REMARK UNBOUND:                -0.101
REMARK SMILES O=C([O-])CCC(=O)[O-]
REMARK SMILES IDX 4 1 2 2 1 3 3 4 5 5 6 6 7 7 8 8
REMARK H PARENT
REMARK Flexibility Score: inf
ROOT
ATOM      1  C   UNL     1       2.504   9.220  17.537  1.00  0.00     0.059 C 
ENDROOT
BRANCH   1   2
ATOM      2  C   UNL     1       2.998  10.633  17.483  1.00  0.00     0.042 C 
ATOM      3  O   UNL     1       2.194  11.592  17.622  1.00  0.00    -0.550 OA
ATOM      4  O   UNL     1       4.354  10.890  17.322  1.00  0.00    -0.550 OA
ENDBRANCH   1   2
BRANCH   1   5
ATOM      5  C   UNL     1       1.197   9.109  18.329  1.00  0.00     0.059 C 
BRANCH   5   6
ATOM      6  C   UNL     1       1.453   8.926  19.793  1.00  0.00     0.042 C 
ATOM      7  O   UNL     1       0.630   9.361  20.640  1.00  0.00    -0.550 OA
ATOM      8  O   UNL     1       2.584   8.241  20.221  1.00  0.00    -0.550 OA
ENDBRANCH   5   6
ENDBRANCH   1   5
TORSDOF 3
ENDMDL
MODEL 2
REMARK VINA RESULT:    -3.167      0.939      3.777
REMARK INTER + INTRA:          -3.823
REMARK INTER:                  -3.713
REMARK INTRA:                  -0.110
REMARK UNBOUND:                -0.101
REMARK SMILES O=C([O-])CCC(=O)[O-]
REMARK SMILES IDX 4 1 2 2 1 3 3 4 5 5 6 6 7 7 8 8
REMARK H PARENT
REMARK Flexibility Score: inf
ROOT
ATOM      1  C   UNL     1       2.166   9.246  17.960  1.00  0.00     0.059 C 
ENDROOT
BRANCH   1   2
ATOM      2  C   UNL     1       1.946   9.106  19.436  1.00  0.00     0.042 C 
ATOM      3  O   UNL     1       2.909   9.239  20.236  1.00  0.00    -0.550 OA
ATOM      4  O   UNL     1       0.670   8.868  19.929  1.00  0.00    -0.550 OA
ENDBRANCH   1   2
BRANCH   1   5
ATOM      5  C   UNL     1       1.889  10.675  17.482  1.00  0.00     0.059 C 
BRANCH   5   6
ATOM      6  C   UNL     1       3.156  11.404  17.158  1.00  0.00     0.042 C 
ATOM      7  O   UNL     1       3.129  12.631  16.877  1.00  0.00    -0.550 OA
ATOM      8  O   UNL     1       4.374  10.736  17.204  1.00  0.00    -0.550 OA
ENDBRANCH   5   6
ENDBRANCH   1   5
TORSDOF 3
ENDMDL
MODEL 3
REMARK VINA RESULT:    -2.995      1.824      2.411
REMARK INTER + INTRA:          -3.622
REMARK INTER:                  -3.542
REMARK INTRA:                  -0.080
REMARK UNBOUND:                -0.101
REMARK SMILES O=C([O-])CCC(=O)[O-]
REMARK SMILES IDX 4 1 2 2 1 3 3 4 5 5 6 6 7 7 8 8
REMARK H PARENT
REMARK Flexibility Score: inf
ROOT
ATOM      1  C   UNL     1       1.311  11.485  17.476  1.00  0.00     0.059 C 
ENDROOT
BRANCH   1   2
ATOM      2  C   UNL     1       2.415  12.418  17.080  1.00  0.00     0.042 C 
ATOM      3  O   UNL     1       3.576  11.976  16.877  1.00  0.00    -0.550 OA
ATOM      4  O   UNL     1       2.151  13.769  16.895  1.00  0.00    -0.550 OA
ENDBRANCH   1   2
BRANCH   1   5
ATOM      5  C   UNL     1       1.653  10.718  18.757  1.00  0.00     0.059 C 
BRANCH   5   6
ATOM      6  C   UNL     1       2.099   9.320  18.460  1.00  0.00     0.042 C 
ATOM      7  O   UNL     1       2.267   8.495  19.396  1.00  0.00    -0.550 OA
ATOM      8  O   UNL     1       2.291   8.916  17.144  1.00  0.00    -0.550 OA
ENDBRANCH   5   6
ENDBRANCH   1   5
TORSDOF 3
ENDMDL
MODEL 4
REMARK VINA RESULT:    -2.898     22.266     23.165
REMARK INTER + INTRA:          -3.507
REMARK INTER:                  -3.465
REMARK INTRA:                  -0.043
REMARK UNBOUND:                -0.101
REMARK SMILES O=C([O-])CCC(=O)[O-]
REMARK SMILES IDX 4 1 2 2 1 3 3 4 5 5 6 6 7 7 8 8
REMARK H PARENT
REMARK Flexibility Score: inf
ROOT
ATOM      1  C   UNL     1      15.248  14.261  36.783  1.00  0.00     0.059 C 
ENDROOT
BRANCH   1   2
ATOM      2  C   UNL     1      14.535  12.955  36.955  1.00  0.00     0.042 C 
ATOM      3  O   UNL     1      15.185  11.877  36.992  1.00  0.00    -0.550 OA
ATOM      4  O   UNL     1      13.155  12.932  37.117  1.00  0.00    -0.550 OA
ENDBRANCH   1   2
BRANCH   1   5
ATOM      5  C   UNL     1      16.737  14.140  37.124  1.00  0.00     0.059 C 
BRANCH   5   6
ATOM      6  C   UNL     1      17.570  13.941  35.895  1.00  0.00     0.042 C 
ATOM      7  O   UNL     1      17.347  14.622  34.860  1.00  0.00    -0.550 OA
ATOM      8  O   UNL     1      18.618  13.029  35.907  1.00  0.00    -0.550 OA
ENDBRANCH   5   6
ENDBRANCH   1   5
TORSDOF 3
ENDMDL
MODEL 5
REMARK VINA RESULT:    -2.895      1.978      4.114
REMARK INTER + INTRA:          -3.504
REMARK INTER:                  -3.400
REMARK INTRA:                  -0.104
REMARK UNBOUND:                -0.101
REMARK SMILES O=C([O-])CCC(=O)[O-]
REMARK SMILES IDX 4 1 2 2 1 3 3 4 5 5 6 6 7 7 8 8
REMARK H PARENT
REMARK Flexibility Score: inf
ROOT
ATOM      1  C   UNL     1       1.642  10.819  18.725  1.00  0.00     0.059 C 
ENDROOT
BRANCH   1   2
ATOM      2  C   UNL     1       1.839   9.374  18.380  1.00  0.00     0.042 C 
ATOM      3  O   UNL     1       2.111   8.538  19.281  1.00  0.00    -0.550 OA
ATOM      4  O   UNL     1       1.680   8.945  17.068  1.00  0.00    -0.550 OA
ENDBRANCH   1   2
BRANCH   1   5
ATOM      5  C   UNL     1       1.091  11.612  17.536  1.00  0.00     0.059 C 
BRANCH   5   6
ATOM      6  C   UNL     1       2.045  12.680  17.096  1.00  0.00     0.042 C 
ATOM      7  O   UNL     1       3.255  12.403  16.886  1.00  0.00    -0.550 OA
ATOM      8  O   UNL     1       1.588  13.974  16.881  1.00  0.00    -0.550 OA
ENDBRANCH   5   6
ENDBRANCH   1   5
TORSDOF 3
ENDMDL
MODEL 6
REMARK VINA RESULT:    -2.830     22.936     23.644
REMARK INTER + INTRA:          -3.427
REMARK INTER:                  -3.315
REMARK INTRA:                  -0.112
REMARK UNBOUND:                -0.101
REMARK SMILES O=C([O-])CCC(=O)[O-]
REMARK SMILES IDX 4 1 2 2 1 3 3 4 5 5 6 6 7 7 8 8
REMARK H PARENT
REMARK Flexibility Score: inf
ROOT
ATOM      1  C   UNL     1      17.863  13.796  35.693  1.00  0.00     0.059 C 
ENDROOT
BRANCH   1   2
ATOM      2  C   UNL     1      18.589  12.586  36.195  1.00  0.00     0.042 C 
ATOM      3  O   UNL     1      18.076  11.864  37.090  1.00  0.00    -0.550 OA
ATOM      4  O   UNL     1      19.815  12.232  35.644  1.00  0.00    -0.550 OA
ENDBRANCH   1   2
BRANCH   1   5
ATOM      5  C   UNL     1      17.101  14.503  36.819  1.00  0.00     0.059 C 
BRANCH   5   6
ATOM      6  C   UNL     1      15.619  14.344  36.665  1.00  0.00     0.042 C 
ATOM      7  O   UNL     1      14.941  15.236  36.091  1.00  0.00    -0.550 OA
ATOM      8  O   UNL     1      14.993  13.192  37.122  1.00  0.00    -0.550 OA
ENDBRANCH   5   6
ENDBRANCH   1   5
TORSDOF 3
ENDMDL
MODEL 7
REMARK VINA RESULT:    -2.763     22.441     23.307
REMARK INTER + INTRA:          -3.349
REMARK INTER:                  -3.235
REMARK INTRA:                  -0.113
REMARK UNBOUND:                -0.101
REMARK SMILES O=C([O-])CCC(=O)[O-]
REMARK SMILES IDX 4 1 2 2 1 3 3 4 5 5 6 6 7 7 8 8
REMARK H PARENT
REMARK Flexibility Score: inf
ROOT
ATOM      1  C   UNL     1      15.747  12.378  36.645  1.00  0.00     0.059 C 
ENDROOT
BRANCH   1   2
ATOM      2  C   UNL     1      14.689  13.382  36.988  1.00  0.00     0.042 C 
ATOM      3  O   UNL     1      14.988  14.598  37.121  1.00  0.00    -0.550 OA
ATOM      4  O   UNL     1      13.366  12.980  37.119  1.00  0.00    -0.550 OA
ENDBRANCH   1   2
BRANCH   1   5
ATOM      5  C   UNL     1      17.130  12.830  37.125  1.00  0.00     0.059 C 
BRANCH   5   6
ATOM      6  C   UNL     1      18.014  13.213  35.978  1.00  0.00     0.042 C 
ATOM      7  O   UNL     1      19.044  12.538  35.717  1.00  0.00    -0.550 OA
ATOM      8  O   UNL     1      17.677  14.293  35.171  1.00  0.00    -0.550 OA
ENDBRANCH   5   6
ENDBRANCH   1   5
TORSDOF 3
ENDMDL
MODEL 8
REMARK VINA RESULT:    -2.737     23.336     24.087
REMARK INTER + INTRA:          -3.318
REMARK INTER:                  -3.286
REMARK INTRA:                  -0.032
REMARK UNBOUND:                -0.101
REMARK SMILES O=C([O-])CCC(=O)[O-]
REMARK SMILES IDX 4 1 2 2 1 3 3 4 5 5 6 6 7 7 8 8
REMARK H PARENT
REMARK Flexibility Score: inf
ROOT
ATOM      1  C   UNL     1      17.054  13.099  36.952  1.00  0.00     0.059 C 
ENDROOT
BRANCH   1   2
ATOM      2  C   UNL     1      16.185  14.319  36.921  1.00  0.00     0.042 C 
ATOM      3  O   UNL     1      14.938  14.207  36.790  1.00  0.00    -0.550 OA
ATOM      4  O   UNL     1      16.749  15.579  37.077  1.00  0.00    -0.550 OA
ENDBRANCH   1   2
BRANCH   1   5
ATOM      5  C   UNL     1      18.241  13.228  35.992  1.00  0.00     0.059 C 
BRANCH   5   6
ATOM      6  C   UNL     1      19.156  12.045  36.084  1.00  0.00     0.042 C 
ATOM      7  O   UNL     1      20.078  11.889  35.241  1.00  0.00    -0.550 OA
ATOM      8  O   UNL     1      19.013  11.136  37.125  1.00  0.00    -0.550 OA
ENDBRANCH   5   6
ENDBRANCH   1   5
TORSDOF 3
ENDMDL
MODEL 9
REMARK VINA RESULT:    -2.736      2.675      4.177
REMARK INTER + INTRA:          -3.317
REMARK INTER:                  -3.195
REMARK INTRA:                  -0.122
REMARK UNBOUND:                -0.101
REMARK SMILES O=C([O-])CCC(=O)[O-]
REMARK SMILES IDX 4 1 2 2 1 3 3 4 5 5 6 6 7 7 8 8
REMARK H PARENT
REMARK Flexibility Score: inf
ROOT
ATOM      1  C   UNL     1       2.499  13.593  17.823  1.00  0.00     0.059 C 
ENDROOT
BRANCH   1   2
ATOM      2  C   UNL     1       1.307  14.287  17.239  1.00  0.00     0.042 C 
ATOM      3  O   UNL     1       1.331  15.531  17.041  1.00  0.00    -0.550 OA
ATOM      4  O   UNL     1       0.185  13.554  16.875  1.00  0.00    -0.550 OA
ENDBRANCH   1   2
BRANCH   1   5
ATOM      5  C   UNL     1       3.047  12.520  16.876  1.00  0.00     0.059 C 
BRANCH   5   6
ATOM      6  C   UNL     1       2.817  11.141  17.413  1.00  0.00     0.042 C 
ATOM      7  O   UNL     1       3.483  10.169  16.970  1.00  0.00    -0.550 OA
ATOM      8  O   UNL     1       1.894  10.937  18.431  1.00  0.00    -0.550 OA
ENDBRANCH   5   6
ENDBRANCH   1   5
TORSDOF 3
ENDMDL
