MODEL 1
REMARK VINA RESULT:    -5.349      0.000      0.000
REMARK INTER + INTRA:          -6.787
REMARK INTER:                  -6.444
REMARK INTRA:                  -0.344
REMARK UNBOUND:                -0.344
REMARK SMILES Oc1cc(O)c2cc(O)c(-c3ccc(O)c(O)c3)[o+]c2c1.[Cl-]
REMARK SMILES IDX 10 1 19 2 20 3 21 4 2 5 3 6 4 7 6 8 7 9 8 10 11 11 12 12
REMARK SMILES IDX 13 13 14 14 18 15 16 16 15 17 17 19 9 21 1 23 5 25
REMARK H PARENT 15 18 17 20 9 22 1 24 5 26
REMARK Flexibility Score: inf
ROOT
ATOM      1  C   UNL     1     -27.163 -55.456  55.334  1.00  0.00     0.402 A 
ATOM      2  O   UNL     1     -28.422 -55.754  55.642  1.00  0.00    -0.202 OA
ATOM      3  C   UNL     1     -28.883 -56.999  55.707  1.00  0.00     0.368 A 
ATOM      4  C   UNL     1     -30.223 -57.212  56.043  1.00  0.00     0.162 A 
ATOM      5  C   UNL     1     -30.732 -58.511  56.123  1.00  0.00     0.128 A 
ATOM      6  C   UNL     1     -29.898 -59.602  55.866  1.00  0.00     0.093 A 
ATOM      7  C   UNL     1     -28.551 -59.415  55.528  1.00  0.00     0.136 A 
ATOM      8  C   UNL     1     -28.030 -58.098  55.444  1.00  0.00     0.125 A 
ATOM      9  C   UNL     1     -26.699 -57.816  55.100  1.00  0.00     0.078 A 
ATOM     10  C   UNL     1     -26.258 -56.490  55.032  1.00  0.00     0.223 A 
ENDROOT
BRANCH   1  11
ATOM     11  C   UNL     1     -26.768 -54.029  55.302  1.00  0.00     0.087 A 
ATOM     12  C   UNL     1     -26.300 -53.417  56.473  1.00  0.00     0.022 A 
ATOM     13  C   UNL     1     -25.904 -52.079  56.462  1.00  0.00     0.051 A 
ATOM     14  C   UNL     1     -25.951 -51.330  55.281  1.00  0.00     0.157 A 
ATOM     15  C   UNL     1     -26.796 -53.287  54.109  1.00  0.00     0.068 A 
ATOM     16  C   UNL     1     -26.397 -51.944  54.087  1.00  0.00     0.158 A 
BRANCH  14  17
ATOM     17  O   UNL     1     -25.548 -49.995  55.338  1.00  0.00    -0.504 OA
ATOM     18  H   UNL     1     -26.070 -49.265  55.799  1.00  0.00     0.293 HD
ENDBRANCH  14  17
BRANCH  16  19
ATOM     19  O   UNL     1     -26.453 -51.268  52.866  1.00  0.00    -0.504 OA
ATOM     20  H   UNL     1     -26.941 -51.612  52.052  1.00  0.00     0.293 HD
ENDBRANCH  16  19
ENDBRANCH   1  11
BRANCH  10  21
ATOM     21  O   UNL     1     -24.949 -56.207  54.641  1.00  0.00    -0.500 OA
ATOM     22  H   UNL     1     -24.736 -55.840  53.721  1.00  0.00     0.294 HD
ENDBRANCH  10  21
BRANCH   5  23
ATOM     23  O   UNL     1     -32.066 -58.731  56.456  1.00  0.00    -0.507 OA
ATOM     24  H   UNL     1     -32.327 -59.305  57.249  1.00  0.00     0.293 HD
ENDBRANCH   5  23
BRANCH   7  25
ATOM     25  O   UNL     1     -27.784 -60.559  55.290  1.00  0.00    -0.507 OA
ATOM     26  H   UNL     1     -27.643 -61.300  55.961  1.00  0.00     0.293 HD
ENDBRANCH   7  25
TORSDOF 6
ENDMDL
MODEL 2
REMARK VINA RESULT:    -5.289      9.608     10.758
REMARK INTER + INTRA:          -6.715
REMARK INTER:                  -6.375
REMARK INTRA:                  -0.340
REMARK UNBOUND:                -0.344
REMARK SMILES Oc1cc(O)c2cc(O)c(-c3ccc(O)c(O)c3)[o+]c2c1.[Cl-]
REMARK SMILES IDX 10 1 19 2 20 3 21 4 2 5 3 6 4 7 6 8 7 9 8 10 11 11 12 12
REMARK SMILES IDX 13 13 14 14 18 15 16 16 15 17 17 19 9 21 1 23 5 25
REMARK H PARENT 15 18 17 20 9 22 1 24 5 26
REMARK Flexibility Score: inf
ROOT
ATOM      1  C   UNL     1     -21.654 -64.381  57.633  1.00  0.00     0.402 A 
ATOM      2  O   UNL     1     -22.941 -64.312  57.306  1.00  0.00    -0.202 OA
ATOM      3  C   UNL     1     -23.715 -65.383  57.159  1.00  0.00     0.368 A 
ATOM      4  C   UNL     1     -25.059 -65.208  56.816  1.00  0.00     0.162 A 
ATOM      5  C   UNL     1     -25.896 -66.317  56.659  1.00  0.00     0.128 A 
ATOM      6  C   UNL     1     -25.388 -67.605  56.846  1.00  0.00     0.093 A 
ATOM      7  C   UNL     1     -24.045 -67.806  57.190  1.00  0.00     0.136 A 
ATOM      8  C   UNL     1     -23.190 -66.684  57.349  1.00  0.00     0.125 A 
ATOM      9  C   UNL     1     -21.830 -66.791  57.679  1.00  0.00     0.078 A 
ATOM     10  C   UNL     1     -21.049 -65.639  57.813  1.00  0.00     0.223 A 
ENDROOT
BRANCH   1  11
ATOM     11  C   UNL     1     -20.898 -63.116  57.776  1.00  0.00     0.087 A 
ATOM     12  C   UNL     1     -20.198 -62.603  56.675  1.00  0.00     0.022 A 
ATOM     13  C   UNL     1     -19.494 -61.402  56.782  1.00  0.00     0.051 A 
ATOM     14  C   UNL     1     -19.490 -60.681  57.981  1.00  0.00     0.157 A 
ATOM     15  C   UNL     1     -20.915 -62.384  58.975  1.00  0.00     0.068 A 
ATOM     16  C   UNL     1     -20.215 -61.176  59.091  1.00  0.00     0.158 A 
BRANCH  14  17
ATOM     17  O   UNL     1     -18.762 -59.491  58.026  1.00  0.00    -0.504 OA
ATOM     18  H   UNL     1     -18.512 -59.013  58.878  1.00  0.00     0.293 HD
ENDBRANCH  14  17
BRANCH  16  19
ATOM     19  O   UNL     1     -20.274 -60.503  60.314  1.00  0.00    -0.504 OA
ATOM     20  H   UNL     1     -21.122 -60.116  60.704  1.00  0.00     0.293 HD
ENDBRANCH  16  19
ENDBRANCH   1  11
BRANCH  10  21
ATOM     21  O   UNL     1     -19.686 -65.746  58.091  1.00  0.00    -0.500 OA
ATOM     22  H   UNL     1     -19.066 -64.947  58.035  1.00  0.00     0.294 HD
ENDBRANCH  10  21
BRANCH   5  23
ATOM     23  O   UNL     1     -27.236 -66.151  56.317  1.00  0.00    -0.507 OA
ATOM     24  H   UNL     1     -27.677 -65.239  56.330  1.00  0.00     0.293 HD
ENDBRANCH   5  23
BRANCH   7  25
ATOM     25  O   UNL     1     -23.616 -69.125  57.362  1.00  0.00    -0.507 OA
ATOM     26  H   UNL     1     -23.661 -69.837  56.647  1.00  0.00     0.293 HD
ENDBRANCH   7  25
TORSDOF 6
ENDMDL
MODEL 3
REMARK VINA RESULT:    -5.104      8.444     11.846
REMARK INTER + INTRA:          -6.492
REMARK INTER:                  -6.152
REMARK INTRA:                  -0.341
REMARK UNBOUND:                -0.344
REMARK SMILES Oc1cc(O)c2cc(O)c(-c3ccc(O)c(O)c3)[o+]c2c1.[Cl-]
REMARK SMILES IDX 10 1 19 2 20 3 21 4 2 5 3 6 4 7 6 8 7 9 8 10 11 11 12 12
REMARK SMILES IDX 13 13 14 14 18 15 16 16 15 17 17 19 9 21 1 23 5 25
REMARK H PARENT 15 18 17 20 9 22 1 24 5 26
REMARK Flexibility Score: inf
ROOT
ATOM      1  C   UNL     1     -25.764 -65.568  56.141  1.00  0.00     0.402 A 
ATOM      2  O   UNL     1     -25.903 -64.488  56.905  1.00  0.00    -0.202 OA
ATOM      3  C   UNL     1     -24.875 -63.777  57.358  1.00  0.00     0.368 A 
ATOM      4  C   UNL     1     -25.123 -62.655  58.153  1.00  0.00     0.162 A 
ATOM      5  C   UNL     1     -24.060 -61.887  58.639  1.00  0.00     0.128 A 
ATOM      6  C   UNL     1     -22.745 -62.243  58.328  1.00  0.00     0.093 A 
ATOM      7  C   UNL     1     -22.471 -63.363  57.533  1.00  0.00     0.136 A 
ATOM      8  C   UNL     1     -23.546 -64.147  57.039  1.00  0.00     0.125 A 
ATOM      9  C   UNL     1     -23.366 -65.292  56.247  1.00  0.00     0.078 A 
ATOM     10  C   UNL     1     -24.475 -66.018  55.801  1.00  0.00     0.223 A 
ENDROOT
BRANCH   1  11
ATOM     11  C   UNL     1     -26.987 -66.270  55.691  1.00  0.00     0.087 A 
ATOM     12  C   UNL     1     -27.505 -66.006  54.415  1.00  0.00     0.022 A 
ATOM     13  C   UNL     1     -28.646 -66.670  53.964  1.00  0.00     0.051 A 
ATOM     14  C   UNL     1     -29.283 -67.623  54.766  1.00  0.00     0.157 A 
ATOM     15  C   UNL     1     -27.611 -67.242  56.492  1.00  0.00     0.068 A 
ATOM     16  C   UNL     1     -28.754 -67.918  56.046  1.00  0.00     0.158 A 
BRANCH  14  17
ATOM     17  O   UNL     1     -30.424 -68.248  54.259  1.00  0.00    -0.504 OA
ATOM     18  H   UNL     1     -31.352 -68.119  54.633  1.00  0.00     0.293 HD
ENDBRANCH  14  17
BRANCH  16  19
ATOM     19  O   UNL     1     -29.323 -68.870  56.896  1.00  0.00    -0.504 OA
ATOM     20  H   UNL     1     -30.168 -68.719  57.426  1.00  0.00     0.293 HD
ENDBRANCH  16  19
ENDBRANCH   1  11
BRANCH  10  21
ATOM     21  O   UNL     1     -24.294 -67.184  55.056  1.00  0.00    -0.500 OA
ATOM     22  H   UNL     1     -25.050 -67.598  54.524  1.00  0.00     0.294 HD
ENDBRANCH  10  21
BRANCH   5  23
ATOM     23  O   UNL     1     -24.299 -60.768  59.433  1.00  0.00    -0.507 OA
ATOM     24  H   UNL     1     -25.227 -60.370  59.523  1.00  0.00     0.293 HD
ENDBRANCH   5  23
BRANCH   7  25
ATOM     25  O   UNL     1     -21.130 -63.649  57.266  1.00  0.00    -0.507 OA
ATOM     26  H   UNL     1     -20.765 -63.868  56.351  1.00  0.00     0.293 HD
ENDBRANCH   7  25
TORSDOF 6
ENDMDL
MODEL 4
REMARK VINA RESULT:    -5.082      8.091      9.562
REMARK INTER + INTRA:          -6.466
REMARK INTER:                  -6.138
REMARK INTRA:                  -0.328
REMARK UNBOUND:                -0.344
REMARK SMILES Oc1cc(O)c2cc(O)c(-c3ccc(O)c(O)c3)[o+]c2c1.[Cl-]
REMARK SMILES IDX 10 1 19 2 20 3 21 4 2 5 3 6 4 7 6 8 7 9 8 10 11 11 12 12
REMARK SMILES IDX 13 13 14 14 18 15 16 16 15 17 17 19 9 21 1 23 5 25
REMARK H PARENT 15 18 17 20 9 22 1 24 5 26
REMARK Flexibility Score: inf
ROOT
ATOM      1  C   UNL     1     -26.200 -64.159  56.335  1.00  0.00     0.402 A 
ATOM      2  O   UNL     1     -26.645 -65.318  56.814  1.00  0.00    -0.202 OA
ATOM      3  C   UNL     1     -27.668 -65.982  56.283  1.00  0.00     0.368 A 
ATOM      4  C   UNL     1     -28.060 -67.195  56.856  1.00  0.00     0.162 A 
ATOM      5  C   UNL     1     -29.129 -67.916  56.317  1.00  0.00     0.128 A 
ATOM      6  C   UNL     1     -29.808 -67.423  55.200  1.00  0.00     0.093 A 
ATOM      7  C   UNL     1     -29.433 -66.210  54.607  1.00  0.00     0.136 A 
ATOM      8  C   UNL     1     -28.350 -65.473  55.153  1.00  0.00     0.125 A 
ATOM      9  C   UNL     1     -27.914 -64.243  54.634  1.00  0.00     0.078 A 
ATOM     10  C   UNL     1     -26.841 -63.572  55.228  1.00  0.00     0.223 A 
ENDROOT
BRANCH   1  11
ATOM     11  C   UNL     1     -25.046 -63.520  57.008  1.00  0.00     0.087 A 
ATOM     12  C   UNL     1     -23.744 -63.898  56.652  1.00  0.00     0.022 A 
ATOM     13  C   UNL     1     -22.642 -63.296  57.259  1.00  0.00     0.051 A 
ATOM     14  C   UNL     1     -22.815 -62.293  58.220  1.00  0.00     0.157 A 
ATOM     15  C   UNL     1     -25.224 -62.498  57.955  1.00  0.00     0.068 A 
ATOM     16  C   UNL     1     -24.124 -61.884  58.568  1.00  0.00     0.158 A 
BRANCH  14  17
ATOM     17  O   UNL     1     -21.672 -61.734  58.795  1.00  0.00    -0.504 OA
ATOM     18  H   UNL     1     -20.730 -62.009  58.561  1.00  0.00     0.293 HD
ENDBRANCH  14  17
BRANCH  16  19
ATOM     19  O   UNL     1     -24.376 -60.877  59.502  1.00  0.00    -0.504 OA
ATOM     20  H   UNL     1     -24.749 -59.969  59.266  1.00  0.00     0.293 HD
ENDBRANCH  16  19
ENDBRANCH   1  11
BRANCH  10  21
ATOM     21  O   UNL     1     -26.440 -62.327  54.744  1.00  0.00    -0.500 OA
ATOM     22  H   UNL     1     -26.187 -62.189  53.773  1.00  0.00     0.294 HD
ENDBRANCH  10  21
BRANCH   5  23
ATOM     23  O   UNL     1     -29.527 -69.125  56.882  1.00  0.00    -0.507 OA
ATOM     24  H   UNL     1     -28.880 -69.898  56.991  1.00  0.00     0.293 HD
ENDBRANCH   5  23
BRANCH   7  25
ATOM     25  O   UNL     1     -30.161 -65.788  53.491  1.00  0.00    -0.507 OA
ATOM     26  H   UNL     1     -29.748 -65.413  52.650  1.00  0.00     0.293 HD
ENDBRANCH   7  25
TORSDOF 6
ENDMDL
MODEL 5
REMARK VINA RESULT:    -5.032      9.922     12.115
REMARK INTER + INTRA:          -6.405
REMARK INTER:                  -6.225
REMARK INTRA:                  -0.180
REMARK UNBOUND:                -0.344
REMARK SMILES Oc1cc(O)c2cc(O)c(-c3ccc(O)c(O)c3)[o+]c2c1.[Cl-]
REMARK SMILES IDX 10 1 19 2 20 3 21 4 2 5 3 6 4 7 6 8 7 9 8 10 11 11 12 12
REMARK SMILES IDX 13 13 14 14 18 15 16 16 15 17 17 19 9 21 1 23 5 25
REMARK H PARENT 15 18 17 20 9 22 1 24 5 26
REMARK Flexibility Score: inf
ROOT
ATOM      1  C   UNL     1     -20.731 -64.378  57.387  1.00  0.00     0.402 A 
ATOM      2  O   UNL     1     -19.951 -65.129  58.160  1.00  0.00    -0.202 OA
ATOM      3  C   UNL     1     -20.313 -66.321  58.625  1.00  0.00     0.368 A 
ATOM      4  C   UNL     1     -19.422 -67.036  59.429  1.00  0.00     0.162 A 
ATOM      5  C   UNL     1     -19.775 -68.293  59.927  1.00  0.00     0.128 A 
ATOM      6  C   UNL     1     -21.024 -68.838  59.619  1.00  0.00     0.093 A 
ATOM      7  C   UNL     1     -21.935 -68.141  58.814  1.00  0.00     0.136 A 
ATOM      8  C   UNL     1     -21.582 -66.863  58.308  1.00  0.00     0.125 A 
ATOM      9  C   UNL     1     -22.435 -66.088  57.506  1.00  0.00     0.078 A 
ATOM     10  C   UNL     1     -22.019 -64.834  57.048  1.00  0.00     0.223 A 
ENDROOT
BRANCH   1  11
ATOM     11  C   UNL     1     -20.211 -63.071  56.925  1.00  0.00     0.087 A 
ATOM     12  C   UNL     1     -20.052 -62.838  55.552  1.00  0.00     0.022 A 
ATOM     13  C   UNL     1     -19.581 -61.607  55.093  1.00  0.00     0.051 A 
ATOM     14  C   UNL     1     -19.277 -60.579  55.992  1.00  0.00     0.157 A 
ATOM     15  C   UNL     1     -19.928 -62.034  57.830  1.00  0.00     0.068 A 
ATOM     16  C   UNL     1     -19.459 -60.793  57.379  1.00  0.00     0.158 A 
BRANCH  14  17
ATOM     17  O   UNL     1     -18.805 -59.373  55.471  1.00  0.00    -0.504 OA
ATOM     18  H   UNL     1     -19.396 -58.592  55.227  1.00  0.00     0.293 HD
ENDBRANCH  14  17
BRANCH  16  19
ATOM     19  O   UNL     1     -19.196 -59.809  58.335  1.00  0.00    -0.504 OA
ATOM     20  H   UNL     1     -18.270 -59.566  58.654  1.00  0.00     0.293 HD
ENDBRANCH  16  19
ENDBRANCH   1  11
BRANCH  10  21
ATOM     21  O   UNL     1     -22.885 -64.042  56.293  1.00  0.00    -0.500 OA
ATOM     22  H   UNL     1     -22.567 -63.201  55.827  1.00  0.00     0.294 HD
ENDBRANCH  10  21
BRANCH   5  23
ATOM     23  O   UNL     1     -18.893 -69.012  60.730  1.00  0.00    -0.507 OA
ATOM     24  H   UNL     1     -19.051 -69.121  61.725  1.00  0.00     0.293 HD
ENDBRANCH   5  23
BRANCH   7  25
ATOM     25  O   UNL     1     -23.162 -68.756  58.551  1.00  0.00    -0.507 OA
ATOM     26  H   UNL     1     -23.748 -68.542  57.757  1.00  0.00     0.293 HD
ENDBRANCH   7  25
TORSDOF 6
ENDMDL
MODEL 6
REMARK VINA RESULT:    -5.022      1.175      2.682
REMARK INTER + INTRA:          -6.393
REMARK INTER:                  -6.058
REMARK INTRA:                  -0.335
REMARK UNBOUND:                -0.344
REMARK SMILES Oc1cc(O)c2cc(O)c(-c3ccc(O)c(O)c3)[o+]c2c1.[Cl-]
REMARK SMILES IDX 10 1 19 2 20 3 21 4 2 5 3 6 4 7 6 8 7 9 8 10 11 11 12 12
REMARK SMILES IDX 13 13 14 14 18 15 16 16 15 17 17 19 9 21 1 23 5 25
REMARK H PARENT 15 18 17 20 9 22 1 24 5 26
REMARK Flexibility Score: inf
ROOT
ATOM      1  C   UNL     1     -27.604 -55.438  55.349  1.00  0.00     0.402 A 
ATOM      2  O   UNL     1     -26.752 -56.459  55.394  1.00  0.00    -0.202 OA
ATOM      3  C   UNL     1     -27.139 -57.731  55.426  1.00  0.00     0.368 A 
ATOM      4  C   UNL     1     -26.168 -58.735  55.469  1.00  0.00     0.162 A 
ATOM      5  C   UNL     1     -26.546 -60.080  55.500  1.00  0.00     0.128 A 
ATOM      6  C   UNL     1     -27.900 -60.423  55.487  1.00  0.00     0.093 A 
ATOM      7  C   UNL     1     -28.892 -59.435  55.444  1.00  0.00     0.136 A 
ATOM      8  C   UNL     1     -28.513 -58.067  55.415  1.00  0.00     0.125 A 
ATOM      9  C   UNL     1     -29.438 -57.011  55.384  1.00  0.00     0.078 A 
ATOM     10  C   UNL     1     -28.989 -55.687  55.362  1.00  0.00     0.223 A 
ENDROOT
BRANCH   1  11
ATOM     11  C   UNL     1     -27.050 -54.066  55.307  1.00  0.00     0.087 A 
ATOM     12  C   UNL     1     -26.539 -53.492  56.480  1.00  0.00     0.022 A 
ATOM     13  C   UNL     1     -25.996 -52.207  56.459  1.00  0.00     0.051 A 
ATOM     14  C   UNL     1     -25.935 -51.475  55.268  1.00  0.00     0.157 A 
ATOM     15  C   UNL     1     -26.972 -53.343  54.104  1.00  0.00     0.068 A 
ATOM     16  C   UNL     1     -26.424 -52.054  54.073  1.00  0.00     0.158 A 
BRANCH  14  17
ATOM     17  O   UNL     1     -25.386 -50.193  55.316  1.00  0.00    -0.504 OA
ATOM     18  H   UNL     1     -25.414 -49.595  56.128  1.00  0.00     0.293 HD
ENDBRANCH  14  17
BRANCH  16  19
ATOM     19  O   UNL     1     -26.380 -51.394  52.842  1.00  0.00    -0.504 OA
ATOM     20  H   UNL     1     -27.036 -50.679  52.562  1.00  0.00     0.293 HD
ENDBRANCH  16  19
ENDBRANCH   1  11
BRANCH  10  21
ATOM     21  O   UNL     1     -29.907 -54.637  55.382  1.00  0.00    -0.500 OA
ATOM     22  H   UNL     1     -30.408 -54.352  54.550  1.00  0.00     0.294 HD
ENDBRANCH  10  21
BRANCH   5  23
ATOM     23  O   UNL     1     -25.584 -61.087  55.544  1.00  0.00    -0.507 OA
ATOM     24  H   UNL     1     -24.751 -61.049  54.968  1.00  0.00     0.293 HD
ENDBRANCH   5  23
BRANCH   7  25
ATOM     25  O   UNL     1     -30.223 -59.861  55.430  1.00  0.00    -0.507 OA
ATOM     26  H   UNL     1     -30.996 -59.306  55.091  1.00  0.00     0.293 HD
ENDBRANCH   7  25
TORSDOF 6
ENDMDL
MODEL 7
REMARK VINA RESULT:    -4.993      9.499     12.718
REMARK INTER + INTRA:          -6.358
REMARK INTER:                  -6.032
REMARK INTRA:                  -0.326
REMARK UNBOUND:                -0.344
REMARK SMILES Oc1cc(O)c2cc(O)c(-c3ccc(O)c(O)c3)[o+]c2c1.[Cl-]
REMARK SMILES IDX 10 1 19 2 20 3 21 4 2 5 3 6 4 7 6 8 7 9 8 10 11 11 12 12
REMARK SMILES IDX 13 13 14 14 18 15 16 16 15 17 17 19 9 21 1 23 5 25
REMARK H PARENT 15 18 17 20 9 22 1 24 5 26
REMARK Flexibility Score: inf
ROOT
ATOM      1  C   UNL     1     -23.813 -66.329  56.661  1.00  0.00     0.402 A 
ATOM      2  O   UNL     1     -23.844 -66.654  55.372  1.00  0.00    -0.202 OA
ATOM      3  C   UNL     1     -24.674 -66.094  54.497  1.00  0.00     0.368 A 
ATOM      4  C   UNL     1     -24.629 -66.501  53.161  1.00  0.00     0.162 A 
ATOM      5  C   UNL     1     -25.487 -65.926  52.219  1.00  0.00     0.128 A 
ATOM      6  C   UNL     1     -26.393 -64.939  52.615  1.00  0.00     0.093 A 
ATOM      7  C   UNL     1     -26.457 -64.513  53.948  1.00  0.00     0.136 A 
ATOM      8  C   UNL     1     -25.589 -65.096  54.908  1.00  0.00     0.125 A 
ATOM      9  C   UNL     1     -25.592 -64.741  56.267  1.00  0.00     0.078 A 
ATOM     10  C   UNL     1     -24.710 -65.364  57.156  1.00  0.00     0.223 A 
ENDROOT
BRANCH   1  11
ATOM     11  C   UNL     1     -22.837 -67.018  57.534  1.00  0.00     0.087 A 
ATOM     12  C   UNL     1     -23.078 -68.342  57.928  1.00  0.00     0.022 A 
ATOM     13  C   UNL     1     -22.163 -69.017  58.736  1.00  0.00     0.051 A 
ATOM     14  C   UNL     1     -20.982 -68.394  59.153  1.00  0.00     0.157 A 
ATOM     15  C   UNL     1     -21.642 -66.396  57.933  1.00  0.00     0.068 A 
ATOM     16  C   UNL     1     -20.715 -67.067  58.740  1.00  0.00     0.158 A 
BRANCH  14  17
ATOM     17  O   UNL     1     -20.110 -69.121  59.965  1.00  0.00    -0.504 OA
ATOM     18  H   UNL     1     -19.208 -68.786  60.269  1.00  0.00     0.293 HD
ENDBRANCH  14  17
BRANCH  16  19
ATOM     19  O   UNL     1     -19.549 -66.385  59.099  1.00  0.00    -0.504 OA
ATOM     20  H   UNL     1     -19.260 -65.508  58.691  1.00  0.00     0.293 HD
ENDBRANCH  16  19
ENDBRANCH   1  11
BRANCH  10  21
ATOM     21  O   UNL     1     -24.747 -65.048  58.514  1.00  0.00    -0.500 OA
ATOM     22  H   UNL     1     -24.608 -65.753  59.228  1.00  0.00     0.294 HD
ENDBRANCH  10  21
BRANCH   5  23
ATOM     23  O   UNL     1     -25.449 -66.327  50.886  1.00  0.00    -0.507 OA
ATOM     24  H   UNL     1     -26.240 -66.187  50.268  1.00  0.00     0.293 HD
ENDBRANCH   5  23
BRANCH   7  25
ATOM     25  O   UNL     1     -27.388 -63.519  54.261  1.00  0.00    -0.507 OA
ATOM     26  H   UNL     1     -28.357 -63.538  53.980  1.00  0.00     0.293 HD
ENDBRANCH   7  25
TORSDOF 6
ENDMDL
MODEL 8
REMARK VINA RESULT:    -4.989      9.912     11.589
REMARK INTER + INTRA:          -6.354
REMARK INTER:                  -6.040
REMARK INTRA:                  -0.315
REMARK UNBOUND:                -0.344
REMARK SMILES Oc1cc(O)c2cc(O)c(-c3ccc(O)c(O)c3)[o+]c2c1.[Cl-]
REMARK SMILES IDX 10 1 19 2 20 3 21 4 2 5 3 6 4 7 6 8 7 9 8 10 11 11 12 12
REMARK SMILES IDX 13 13 14 14 18 15 16 16 15 17 17 19 9 21 1 23 5 25
REMARK H PARENT 15 18 17 20 9 22 1 24 5 26
REMARK Flexibility Score: inf
ROOT
ATOM      1  C   UNL     1     -20.227 -64.370  57.280  1.00  0.00     0.402 A 
ATOM      2  O   UNL     1     -21.502 -64.747  57.319  1.00  0.00    -0.202 OA
ATOM      3  C   UNL     1     -21.899 -65.934  57.769  1.00  0.00     0.368 A 
ATOM      4  C   UNL     1     -23.263 -66.237  57.774  1.00  0.00     0.162 A 
ATOM      5  C   UNL     1     -23.709 -67.475  58.245  1.00  0.00     0.128 A 
ATOM      6  C   UNL     1     -22.786 -68.414  58.714  1.00  0.00     0.093 A 
ATOM      7  C   UNL     1     -21.413 -68.133  58.720  1.00  0.00     0.136 A 
ATOM      8  C   UNL     1     -20.956 -66.878  58.240  1.00  0.00     0.125 A 
ATOM      9  C   UNL     1     -19.600 -66.516  58.197  1.00  0.00     0.078 A 
ATOM     10  C   UNL     1     -19.225 -65.262  57.705  1.00  0.00     0.223 A 
ENDROOT
BRANCH   1  11
ATOM     11  C   UNL     1     -19.912 -63.018  56.765  1.00  0.00     0.087 A 
ATOM     12  C   UNL     1     -20.021 -62.760  55.391  1.00  0.00     0.022 A 
ATOM     13  C   UNL     1     -19.747 -61.489  54.887  1.00  0.00     0.051 A 
ATOM     14  C   UNL     1     -19.376 -60.445  55.741  1.00  0.00     0.157 A 
ATOM     15  C   UNL     1     -19.561 -61.968  57.630  1.00  0.00     0.068 A 
ATOM     16  C   UNL     1     -19.288 -60.687  57.133  1.00  0.00     0.158 A 
BRANCH  14  17
ATOM     17  O   UNL     1     -19.108 -59.198  55.174  1.00  0.00    -0.504 OA
ATOM     18  H   UNL     1     -18.200 -58.759  55.176  1.00  0.00     0.293 HD
ENDBRANCH  14  17
BRANCH  16  19
ATOM     19  O   UNL     1     -18.943 -59.691  58.051  1.00  0.00    -0.504 OA
ATOM     20  H   UNL     1     -19.271 -58.738  57.998  1.00  0.00     0.293 HD
ENDBRANCH  16  19
ENDBRANCH   1  11
BRANCH  10  21
ATOM     21  O   UNL     1     -17.876 -64.921  57.615  1.00  0.00    -0.500 OA
ATOM     22  H   UNL     1     -17.379 -64.503  58.392  1.00  0.00     0.294 HD
ENDBRANCH  10  21
BRANCH   5  23
ATOM     23  O   UNL     1     -25.066 -67.786  58.252  1.00  0.00    -0.507 OA
ATOM     24  H   UNL     1     -25.650 -67.629  57.438  1.00  0.00     0.293 HD
ENDBRANCH   5  23
BRANCH   7  25
ATOM     25  O   UNL     1     -20.557 -69.124  59.208  1.00  0.00    -0.507 OA
ATOM     26  H   UNL     1     -20.819 -69.816  59.894  1.00  0.00     0.293 HD
ENDBRANCH   7  25
TORSDOF 6
ENDMDL
MODEL 9
REMARK VINA RESULT:    -4.988      9.155     11.947
REMARK INTER + INTRA:          -6.353
REMARK INTER:                  -6.265
REMARK INTRA:                  -0.087
REMARK UNBOUND:                -0.344
REMARK SMILES Oc1cc(O)c2cc(O)c(-c3ccc(O)c(O)c3)[o+]c2c1.[Cl-]
REMARK SMILES IDX 10 1 19 2 20 3 21 4 2 5 3 6 4 7 6 8 7 9 8 10 11 11 12 12
REMARK SMILES IDX 13 13 14 14 18 15 16 16 15 17 17 19 9 21 1 23 5 25
REMARK H PARENT 15 18 17 20 9 22 1 24 5 26
REMARK Flexibility Score: inf
ROOT
ATOM      1  C   UNL     1     -17.694 -58.869  54.940  1.00  0.00     0.402 A 
ATOM      2  O   UNL     1     -17.867 -57.625  55.378  1.00  0.00    -0.202 OA
ATOM      3  C   UNL     1     -18.389 -56.655  54.634  1.00  0.00     0.368 A 
ATOM      4  C   UNL     1     -18.535 -55.379  55.186  1.00  0.00     0.162 A 
ATOM      5  C   UNL     1     -19.084 -54.341  54.427  1.00  0.00     0.128 A 
ATOM      6  C   UNL     1     -19.491 -54.581  53.112  1.00  0.00     0.093 A 
ATOM      7  C   UNL     1     -19.356 -55.851  52.537  1.00  0.00     0.136 A 
ATOM      8  C   UNL     1     -18.796 -56.907  53.302  1.00  0.00     0.125 A 
ATOM      9  C   UNL     1     -18.611 -58.207  52.804  1.00  0.00     0.078 A 
ATOM     10  C   UNL     1     -18.048 -59.196  53.617  1.00  0.00     0.223 A 
ENDROOT
BRANCH   1  11
ATOM     11  C   UNL     1     -17.110 -59.864  55.867  1.00  0.00     0.087 A 
ATOM     12  C   UNL     1     -15.928 -60.529  55.511  1.00  0.00     0.022 A 
ATOM     13  C   UNL     1     -15.350 -61.457  56.378  1.00  0.00     0.051 A 
ATOM     14  C   UNL     1     -15.927 -61.728  57.623  1.00  0.00     0.157 A 
ATOM     15  C   UNL     1     -17.681 -60.117  57.126  1.00  0.00     0.068 A 
ATOM     16  C   UNL     1     -17.105 -61.043  58.005  1.00  0.00     0.158 A 
BRANCH  14  17
ATOM     17  O   UNL     1     -15.304 -62.671  58.441  1.00  0.00    -0.504 OA
ATOM     18  H   UNL     1     -15.614 -62.905  59.373  1.00  0.00     0.293 HD
ENDBRANCH  14  17
BRANCH  16  19
ATOM     19  O   UNL     1     -17.728 -61.245  59.239  1.00  0.00    -0.504 OA
ATOM     20  H   UNL     1     -18.642 -60.885  59.475  1.00  0.00     0.293 HD
ENDBRANCH  16  19
ENDBRANCH   1  11
BRANCH  10  21
ATOM     21  O   UNL     1     -17.818 -60.473  53.107  1.00  0.00    -0.500 OA
ATOM     22  H   UNL     1     -18.513 -60.959  52.553  1.00  0.00     0.294 HD
ENDBRANCH  10  21
BRANCH   5  23
ATOM     23  O   UNL     1     -19.231 -53.067  54.969  1.00  0.00    -0.507 OA
ATOM     24  H   UNL     1     -20.146 -52.678  55.168  1.00  0.00     0.293 HD
ENDBRANCH   5  23
BRANCH   7  25
ATOM     25  O   UNL     1     -19.789 -56.009  51.218  1.00  0.00    -0.507 OA
ATOM     26  H   UNL     1     -19.177 -56.033  50.415  1.00  0.00     0.293 HD
ENDBRANCH   7  25
TORSDOF 6
ENDMDL
