MODEL 1
REMARK VINA RESULT:    -4.117      0.000      0.000
REMARK INTER + INTRA:          -4.713
REMARK INTER:                  -4.479
REMARK INTRA:                  -0.234
REMARK UNBOUND:                -0.234
REMARK SMILES O=C([O-])c1ccccc1O
REMARK SMILES IDX 4 1 9 2 5 3 8 4 6 5 7 6 2 7 1 8 3 9 10 10
REMARK H PARENT 10 11
REMARK Flexibility Score: inf
ROOT
ATOM      1  C   UNL     1      16.738 129.344  65.112  1.00  0.00     0.039 A 
ATOM      2  C   UNL     1      17.183 128.180  64.432  1.00  0.00     0.124 A 
ATOM      3  C   UNL     1      17.617 130.436  65.236  1.00  0.00     0.014 A 
ATOM      4  C   UNL     1      18.497 128.116  63.956  1.00  0.00     0.047 A 
ATOM      5  C   UNL     1      18.920 130.363  64.736  1.00  0.00     0.001 A 
ATOM      6  C   UNL     1      19.362 129.201  64.106  1.00  0.00     0.004 A 
ENDROOT
BRANCH   1   7
ATOM      7  C   UNL     1      15.397 129.451  65.728  1.00  0.00     0.075 C 
ATOM      8  O   UNL     1      14.629 130.408  65.445  1.00  0.00    -0.545 OA
ATOM      9  O   UNL     1      14.942 128.451  66.579  1.00  0.00    -0.545 OA
ENDBRANCH   1   7
BRANCH   2  10
ATOM     10  O   UNL     1      16.347 127.089  64.180  1.00  0.00    -0.507 OA
ATOM     11  H   UNL     1      16.681 126.192  63.854  1.00  0.00     0.293 HD
ENDBRANCH   2  10
TORSDOF 2
ENDMDL
MODEL 2
REMARK VINA RESULT:    -3.990      1.995      3.733
REMARK INTER + INTRA:          -4.574
REMARK INTER:                  -4.361
REMARK INTRA:                  -0.213
REMARK UNBOUND:                -0.234
REMARK SMILES O=C([O-])c1ccccc1O
REMARK SMILES IDX 4 1 9 2 5 3 8 4 6 5 7 6 2 7 1 8 3 9 10 10
REMARK H PARENT 10 11
REMARK Flexibility Score: inf
ROOT
ATOM      1  C   UNL     1      18.708 128.988  64.307  1.00  0.00     0.039 A 
ATOM      2  C   UNL     1      17.353 128.584  64.440  1.00  0.00     0.124 A 
ATOM      3  C   UNL     1      19.120 130.192  64.909  1.00  0.00     0.014 A 
ATOM      4  C   UNL     1      16.446 129.414  65.109  1.00  0.00     0.047 A 
ATOM      5  C   UNL     1      18.205 130.998  65.591  1.00  0.00     0.001 A 
ATOM      6  C   UNL     1      16.868 130.614  65.682  1.00  0.00     0.004 A 
ENDROOT
BRANCH   1   7
ATOM      7  C   UNL     1      19.704 128.214  63.533  1.00  0.00     0.075 C 
ATOM      8  O   UNL     1      19.448 127.049  63.133  1.00  0.00    -0.545 OA
ATOM      9  O   UNL     1      20.915 128.798  63.179  1.00  0.00    -0.545 OA
ENDBRANCH   1   7
BRANCH   2  10
ATOM     10  O   UNL     1      16.881 127.360  63.959  1.00  0.00    -0.507 OA
ATOM     11  H   UNL     1      17.480 126.578  63.736  1.00  0.00     0.293 HD
ENDBRANCH   2  10
TORSDOF 2
ENDMDL
MODEL 3
REMARK VINA RESULT:    -3.876      2.504      3.819
REMARK INTER + INTRA:          -4.451
REMARK INTER:                  -4.207
REMARK INTRA:                  -0.244
REMARK UNBOUND:                -0.234
REMARK SMILES O=C([O-])c1ccccc1O
REMARK SMILES IDX 4 1 9 2 5 3 8 4 6 5 7 6 2 7 1 8 3 9 10 10
REMARK H PARENT 10 11
REMARK Flexibility Score: inf
ROOT
ATOM      1  C   UNL     1      18.386 130.255  64.830  1.00  0.00     0.039 A 
ATOM      2  C   UNL     1      17.203 129.480  64.694  1.00  0.00     0.124 A 
ATOM      3  C   UNL     1      18.484 131.161  65.902  1.00  0.00     0.014 A 
ATOM      4  C   UNL     1      16.142 129.675  65.586  1.00  0.00     0.047 A 
ATOM      5  C   UNL     1      17.423 131.329  66.795  1.00  0.00     0.001 A 
ATOM      6  C   UNL     1      16.250 130.594  66.631  1.00  0.00     0.004 A 
ENDROOT
BRANCH   1   7
ATOM      7  C   UNL     1      19.511 130.177  63.872  1.00  0.00     0.075 C 
ATOM      8  O   UNL     1      20.015 129.067  63.557  1.00  0.00    -0.545 OA
ATOM      9  O   UNL     1      19.978 131.330  63.254  1.00  0.00    -0.545 OA
ENDBRANCH   1   7
BRANCH   2  10
ATOM     10  O   UNL     1      17.058 128.490  63.719  1.00  0.00    -0.507 OA
ATOM     11  H   UNL     1      17.392 128.588  62.770  1.00  0.00     0.293 HD
ENDBRANCH   2  10
TORSDOF 2
ENDMDL
MODEL 4
REMARK VINA RESULT:    -3.710      2.019      3.282
REMARK INTER + INTRA:          -4.269
REMARK INTER:                  -4.041
REMARK INTRA:                  -0.228
REMARK UNBOUND:                -0.234
REMARK SMILES O=C([O-])c1ccccc1O
REMARK SMILES IDX 4 1 9 2 5 3 8 4 6 5 7 6 2 7 1 8 3 9 10 10
REMARK H PARENT 10 11
REMARK Flexibility Score: inf
ROOT
ATOM      1  C   UNL     1      16.984 129.595  65.041  1.00  0.00     0.039 A 
ATOM      2  C   UNL     1      16.620 128.240  64.821  1.00  0.00     0.124 A 
ATOM      3  C   UNL     1      16.411 130.283  66.127  1.00  0.00     0.014 A 
ATOM      4  C   UNL     1      15.660 127.638  65.642  1.00  0.00     0.047 A 
ATOM      5  C   UNL     1      15.469 129.661  66.950  1.00  0.00     0.001 A 
ATOM      6  C   UNL     1      15.087 128.344  66.702  1.00  0.00     0.004 A 
ENDROOT
BRANCH   1   7
ATOM      7  C   UNL     1      17.918 130.329  64.159  1.00  0.00     0.075 C 
ATOM      8  O   UNL     1      17.589 131.429  63.643  1.00  0.00    -0.545 OA
ATOM      9  O   UNL     1      19.202 129.841  63.947  1.00  0.00    -0.545 OA
ENDBRANCH   1   7
BRANCH   2  10
ATOM     10  O   UNL     1      17.210 127.454  63.828  1.00  0.00    -0.507 OA
ATOM     11  H   UNL     1      17.008 127.553  62.843  1.00  0.00     0.293 HD
ENDBRANCH   2  10
TORSDOF 2
ENDMDL
MODEL 5
REMARK VINA RESULT:    -3.707      3.834      4.889
REMARK INTER + INTRA:          -4.267
REMARK INTER:                  -4.015
REMARK INTRA:                  -0.252
REMARK UNBOUND:                -0.234
REMARK SMILES O=C([O-])c1ccccc1O
REMARK SMILES IDX 4 1 9 2 5 3 8 4 6 5 7 6 2 7 1 8 3 9 10 10
REMARK H PARENT 10 11
REMARK Flexibility Score: inf
ROOT
ATOM      1  C   UNL     1      19.533 131.682  63.548  1.00  0.00     0.039 A 
ATOM      2  C   UNL     1      19.251 130.368  64.006  1.00  0.00     0.124 A 
ATOM      3  C   UNL     1      18.830 132.763  64.112  1.00  0.00     0.014 A 
ATOM      4  C   UNL     1      18.243 130.167  64.957  1.00  0.00     0.047 A 
ATOM      5  C   UNL     1      17.842 132.547  65.076  1.00  0.00     0.001 A 
ATOM      6  C   UNL     1      17.542 131.250  65.490  1.00  0.00     0.004 A 
ENDROOT
BRANCH   1   7
ATOM      7  C   UNL     1      20.514 131.966  62.478  1.00  0.00     0.075 C 
ATOM      8  O   UNL     1      20.275 132.831  61.595  1.00  0.00    -0.545 OA
ATOM      9  O   UNL     1      21.747 131.324  62.478  1.00  0.00    -0.545 OA
ENDBRANCH   1   7
BRANCH   2  10
ATOM     10  O   UNL     1      19.966 129.249  63.572  1.00  0.00    -0.507 OA
ATOM     11  H   UNL     1      20.925 129.064  63.831  1.00  0.00     0.293 HD
ENDBRANCH   2  10
TORSDOF 2
ENDMDL
MODEL 6
REMARK VINA RESULT:    -3.706      2.848      4.347
REMARK INTER + INTRA:          -4.265
REMARK INTER:                  -4.055
REMARK INTRA:                  -0.210
REMARK UNBOUND:                -0.234
REMARK SMILES O=C([O-])c1ccccc1O
REMARK SMILES IDX 4 1 9 2 5 3 8 4 6 5 7 6 2 7 1 8 3 9 10 10
REMARK H PARENT 10 11
REMARK Flexibility Score: inf
ROOT
ATOM      1  C   UNL     1      18.909 130.166  64.228  1.00  0.00     0.039 A 
ATOM      2  C   UNL     1      19.505 131.349  63.714  1.00  0.00     0.124 A 
ATOM      3  C   UNL     1      17.770 130.280  65.046  1.00  0.00     0.014 A 
ATOM      4  C   UNL     1      18.990 132.598  64.079  1.00  0.00     0.047 A 
ATOM      5  C   UNL     1      17.256 131.534  65.384  1.00  0.00     0.001 A 
ATOM      6  C   UNL     1      17.871 132.692  64.909  1.00  0.00     0.004 A 
ENDROOT
BRANCH   1   7
ATOM      7  C   UNL     1      19.453 128.815  63.967  1.00  0.00     0.075 C 
ATOM      8  O   UNL     1      18.796 127.785  64.269  1.00  0.00    -0.545 OA
ATOM      9  O   UNL     1      20.673 128.671  63.317  1.00  0.00    -0.545 OA
ENDBRANCH   1   7
BRANCH   2  10
ATOM     10  O   UNL     1      20.577 131.325  62.819  1.00  0.00    -0.507 OA
ATOM     11  H   UNL     1      20.476 131.141  61.830  1.00  0.00     0.293 HD
ENDBRANCH   2  10
TORSDOF 2
ENDMDL
MODEL 7
REMARK VINA RESULT:    -3.702      1.873      2.830
REMARK INTER + INTRA:          -4.261
REMARK INTER:                  -4.017
REMARK INTRA:                  -0.244
REMARK UNBOUND:                -0.234
REMARK SMILES O=C([O-])c1ccccc1O
REMARK SMILES IDX 4 1 9 2 5 3 8 4 6 5 7 6 2 7 1 8 3 9 10 10
REMARK H PARENT 10 11
REMARK Flexibility Score: inf
ROOT
ATOM      1  C   UNL     1      17.972 130.523  64.703  1.00  0.00     0.039 A 
ATOM      2  C   UNL     1      16.981 129.506  64.693  1.00  0.00     0.124 A 
ATOM      3  C   UNL     1      19.281 130.200  64.299  1.00  0.00     0.014 A 
ATOM      4  C   UNL     1      17.335 128.197  64.344  1.00  0.00     0.047 A 
ATOM      5  C   UNL     1      19.612 128.893  63.934  1.00  0.00     0.001 A 
ATOM      6  C   UNL     1      18.643 127.891  63.966  1.00  0.00     0.004 A 
ENDROOT
BRANCH   1   7
ATOM      7  C   UNL     1      17.698 131.906  65.151  1.00  0.00     0.075 C 
ATOM      8  O   UNL     1      16.801 132.144  66.001  1.00  0.00    -0.545 OA
ATOM      9  O   UNL     1      18.483 132.955  64.687  1.00  0.00    -0.545 OA
ENDBRANCH   1   7
BRANCH   2  10
ATOM     10  O   UNL     1      15.638 129.759  64.985  1.00  0.00    -0.507 OA
ATOM     11  H   UNL     1      14.868 129.366  64.462  1.00  0.00     0.293 HD
ENDBRANCH   2  10
TORSDOF 2
ENDMDL
MODEL 8
REMARK VINA RESULT:    -3.656      1.874      3.459
REMARK INTER + INTRA:          -4.211
REMARK INTER:                  -3.959
REMARK INTRA:                  -0.252
REMARK UNBOUND:                -0.234
REMARK SMILES O=C([O-])c1ccccc1O
REMARK SMILES IDX 4 1 9 2 5 3 8 4 6 5 7 6 2 7 1 8 3 9 10 10
REMARK H PARENT 10 11
REMARK Flexibility Score: inf
ROOT
ATOM      1  C   UNL     1      18.310 129.905  64.334  1.00  0.00     0.039 A 
ATOM      2  C   UNL     1      16.964 130.228  64.656  1.00  0.00     0.124 A 
ATOM      3  C   UNL     1      19.230 130.952  64.138  1.00  0.00     0.014 A 
ATOM      4  C   UNL     1      16.568 131.570  64.709  1.00  0.00     0.047 A 
ATOM      5  C   UNL     1      18.822 132.285  64.216  1.00  0.00     0.001 A 
ATOM      6  C   UNL     1      17.491 132.594  64.491  1.00  0.00     0.004 A 
ENDROOT
BRANCH   1   7
ATOM      7  C   UNL     1      18.782 128.514  64.164  1.00  0.00     0.075 C 
ATOM      8  O   UNL     1      19.925 128.166  64.560  1.00  0.00    -0.545 OA
ATOM      9  O   UNL     1      17.935 127.554  63.624  1.00  0.00    -0.545 OA
ENDBRANCH   1   7
BRANCH   2  10
ATOM     10  O   UNL     1      16.009 129.256  64.961  1.00  0.00    -0.507 OA
ATOM     11  H   UNL     1      15.425 129.285  65.786  1.00  0.00     0.293 HD
ENDBRANCH   2  10
TORSDOF 2
ENDMDL
MODEL 9
REMARK VINA RESULT:    -3.636      2.981      4.449
REMARK INTER + INTRA:          -4.189
REMARK INTER:                  -3.940
REMARK INTRA:                  -0.249
REMARK UNBOUND:                -0.234
REMARK SMILES O=C([O-])c1ccccc1O
REMARK SMILES IDX 4 1 9 2 5 3 8 4 6 5 7 6 2 7 1 8 3 9 10 10
REMARK H PARENT 10 11
REMARK Flexibility Score: inf
ROOT
ATOM      1  C   UNL     1      18.398 130.467  64.863  1.00  0.00     0.039 A 
ATOM      2  C   UNL     1      18.500 131.467  65.867  1.00  0.00     0.124 A 
ATOM      3  C   UNL     1      17.250 129.655  64.829  1.00  0.00     0.014 A 
ATOM      4  C   UNL     1      17.493 131.585  66.832  1.00  0.00     0.047 A 
ATOM      5  C   UNL     1      16.244 129.799  65.788  1.00  0.00     0.001 A 
ATOM      6  C   UNL     1      16.371 130.756  66.794  1.00  0.00     0.004 A 
ENDROOT
BRANCH   1   7
ATOM      7  C   UNL     1      19.464 130.217  63.868  1.00  0.00     0.075 C 
ATOM      8  O   UNL     1      20.014 131.170  63.257  1.00  0.00    -0.545 OA
ATOM      9  O   UNL     1      19.920 128.923  63.649  1.00  0.00    -0.545 OA
ENDBRANCH   1   7
BRANCH   2  10
ATOM     10  O   UNL     1      19.557 132.379  65.917  1.00  0.00    -0.507 OA
ATOM     11  H   UNL     1      19.984 132.693  66.778  1.00  0.00     0.293 HD
ENDBRANCH   2  10
TORSDOF 2
ENDMDL
