MODEL 1
REMARK VINA RESULT:    -3.641      0.000      0.000
REMARK INTER + INTRA:          -7.247
REMARK INTER:                  -5.770
REMARK INTRA:                  -1.477
REMARK UNBOUND:                -1.477
REMARK SMILES C=CCCCCCCCCCCC
REMARK SMILES IDX 7 1 8 2 9 3 10 4 11 5 12 6 13 7 6 8 5 9 4 10 3 11 2 12 1 13
REMARK H PARENT
REMARK Flexibility Score: inf
ROOT
ATOM      1  C   UNL     1     140.190 136.698 131.252  1.00  0.00     0.000 C 
ENDROOT
BRANCH   1   2
ATOM      2  C   UNL     1     141.146 137.837 130.850  1.00  0.00     0.000 C 
BRANCH   2   3
ATOM      3  C   UNL     1     140.459 139.167 130.479  1.00  0.00    -0.000 C 
BRANCH   3   4
ATOM      4  C   UNL     1     138.952 139.232 130.784  1.00  0.00    -0.000 C 
BRANCH   4   5
ATOM      5  C   UNL     1     138.631 140.031 132.056  1.00  0.00    -0.000 C 
BRANCH   5   6
ATOM      6  C   UNL     1     138.020 139.127 133.132  1.00  0.00    -0.003 C 
ATOM      7  C   UNL     1     139.023 138.840 134.247  1.00  0.00     0.004 C 
ENDBRANCH   5   6
ENDBRANCH   4   5
ENDBRANCH   3   4
ENDBRANCH   2   3
ENDBRANCH   1   2
BRANCH   1   8
ATOM      8  C   UNL     1     140.624 135.898 132.495  1.00  0.00     0.000 C 
BRANCH   8   9
ATOM      9  C   UNL     1     139.446 135.258 133.261  1.00  0.00     0.000 C 
BRANCH   9  10
ATOM     10  C   UNL     1     138.210 135.049 132.371  1.00  0.00     0.004 C 
BRANCH  10  11
ATOM     11  C   UNL     1     137.878 133.563 132.183  1.00  0.00     0.027 C 
BRANCH  11  12
ATOM     12  C   UNL     1     138.076 133.133 130.753  1.00  0.00    -0.035 C 
ATOM     13  C   UNL     1     139.267 133.208 130.152  1.00  0.00     0.004 C 
ENDBRANCH  11  12
ENDBRANCH  10  11
ENDBRANCH   9  10
ENDBRANCH   8   9
ENDBRANCH   1   8
TORSDOF 10
ENDMDL
MODEL 2
REMARK VINA RESULT:    -3.567      1.981      5.554
REMARK INTER + INTRA:          -7.129
REMARK INTER:                  -6.427
REMARK INTRA:                  -0.702
REMARK UNBOUND:                -1.477
REMARK SMILES C=CCCCCCCCCCCC
REMARK SMILES IDX 7 1 8 2 9 3 10 4 11 5 12 6 13 7 6 8 5 9 4 10 3 11 2 12 1 13
REMARK H PARENT
REMARK Flexibility Score: inf
ROOT
ATOM      1  C   UNL     1     140.383 139.034 130.563  1.00  0.00     0.000 C 
ENDROOT
BRANCH   1   2
ATOM      2  C   UNL     1     141.189 137.848 131.125  1.00  0.00     0.000 C 
BRANCH   2   3
ATOM      3  C   UNL     1     140.594 137.193 132.389  1.00  0.00    -0.000 C 
BRANCH   3   4
ATOM      4  C   UNL     1     140.677 135.657 132.430  1.00  0.00    -0.000 C 
BRANCH   4   5
ATOM      5  C   UNL     1     139.340 134.975 132.105  1.00  0.00    -0.000 C 
BRANCH   5   6
ATOM      6  C   UNL     1     139.166 134.802 130.592  1.00  0.00    -0.003 C 
ATOM      7  C   UNL     1     139.348 133.344 130.178  1.00  0.00     0.004 C 
ENDBRANCH   5   6
ENDBRANCH   4   5
ENDBRANCH   3   4
ENDBRANCH   2   3
ENDBRANCH   1   2
BRANCH   1   8
ATOM      8  C   UNL     1     138.926 139.117 131.056  1.00  0.00     0.000 C 
BRANCH   8   9
ATOM      9  C   UNL     1     138.637 140.356 131.929  1.00  0.00     0.000 C 
BRANCH   9  10
ATOM     10  C   UNL     1     137.205 140.361 132.490  1.00  0.00     0.004 C 
BRANCH  10  11
ATOM     11  C   UNL     1     136.232 141.121 131.579  1.00  0.00     0.027 C 
BRANCH  11  12
ATOM     12  C   UNL     1     135.260 140.185 130.911  1.00  0.00    -0.035 C 
ATOM     13  C   UNL     1     134.384 140.611 129.997  1.00  0.00     0.004 C 
ENDBRANCH  11  12
ENDBRANCH  10  11
ENDBRANCH   9  10
ENDBRANCH   8   9
ENDBRANCH   1   8
TORSDOF 10
ENDMDL
MODEL 3
REMARK VINA RESULT:    -3.554      4.201      5.859
REMARK INTER + INTRA:          -7.108
REMARK INTER:                  -5.436
REMARK INTRA:                  -1.672
REMARK UNBOUND:                -1.477
REMARK SMILES C=CCCCCCCCCCCC
REMARK SMILES IDX 7 1 8 2 9 3 10 4 11 5 12 6 13 7 6 8 5 9 4 10 3 11 2 12 1 13
REMARK H PARENT
REMARK Flexibility Score: inf
ROOT
ATOM      1  C   UNL     1     132.998 134.769 130.311  1.00  0.00     0.000 C 
ENDROOT
BRANCH   1   2
ATOM      2  C   UNL     1     132.344 135.925 131.090  1.00  0.00     0.000 C 
BRANCH   2   3
ATOM      3  C   UNL     1     133.165 136.459 132.282  1.00  0.00    -0.000 C 
BRANCH   3   4
ATOM      4  C   UNL     1     133.302 137.990 132.348  1.00  0.00    -0.000 C 
BRANCH   4   5
ATOM      5  C   UNL     1     134.648 138.496 131.808  1.00  0.00    -0.000 C 
BRANCH   5   6
ATOM      6  C   UNL     1     134.472 139.174 130.445  1.00  0.00    -0.003 C 
ATOM      7  C   UNL     1     134.943 140.625 130.485  1.00  0.00     0.004 C 
ENDBRANCH   5   6
ENDBRANCH   4   5
ENDBRANCH   3   4
ENDBRANCH   2   3
ENDBRANCH   1   2
BRANCH   1   8
ATOM      8  C   UNL     1     133.723 135.190 129.018  1.00  0.00     0.000 C 
BRANCH   8   9
ATOM      9  C   UNL     1     135.168 135.681 129.250  1.00  0.00     0.000 C 
BRANCH   9  10
ATOM     10  C   UNL     1     136.009 134.676 130.055  1.00  0.00     0.004 C 
BRANCH  10  11
ATOM     11  C   UNL     1     136.585 135.298 131.333  1.00  0.00     0.027 C 
BRANCH  11  12
ATOM     12  C   UNL     1     136.428 134.375 132.512  1.00  0.00    -0.035 C 
ATOM     13  C   UNL     1     135.578 133.345 132.495  1.00  0.00     0.004 C 
ENDBRANCH  11  12
ENDBRANCH  10  11
ENDBRANCH   9  10
ENDBRANCH   8   9
ENDBRANCH   1   8
TORSDOF 10
ENDMDL
MODEL 4
REMARK VINA RESULT:    -3.532      1.217      1.721
REMARK INTER + INTRA:          -7.074
REMARK INTER:                  -5.884
REMARK INTRA:                  -1.190
REMARK UNBOUND:                -1.477
REMARK SMILES C=CCCCCCCCCCCC
REMARK SMILES IDX 7 1 8 2 9 3 10 4 11 5 12 6 13 7 6 8 5 9 4 10 3 11 2 12 1 13
REMARK H PARENT
REMARK Flexibility Score: inf
ROOT
ATOM      1  C   UNL     1     141.413 137.822 131.198  1.00  0.00     0.000 C 
ENDROOT
BRANCH   1   2
ATOM      2  C   UNL     1     140.773 138.909 130.316  1.00  0.00     0.000 C 
BRANCH   2   3
ATOM      3  C   UNL     1     139.650 138.415 129.380  1.00  0.00    -0.000 C 
BRANCH   3   4
ATOM      4  C   UNL     1     138.300 139.134 129.543  1.00  0.00    -0.000 C 
BRANCH   4   5
ATOM      5  C   UNL     1     137.502 138.644 130.760  1.00  0.00    -0.000 C 
BRANCH   5   6
ATOM      6  C   UNL     1     137.026 139.824 131.615  1.00  0.00    -0.003 C 
ATOM      7  C   UNL     1     138.179 140.432 132.409  1.00  0.00     0.004 C 
ENDBRANCH   5   6
ENDBRANCH   4   5
ENDBRANCH   3   4
ENDBRANCH   2   3
ENDBRANCH   1   2
BRANCH   1   8
ATOM      8  C   UNL     1     140.530 137.330 132.362  1.00  0.00     0.000 C 
BRANCH   8   9
ATOM      9  C   UNL     1     140.663 135.818 132.643  1.00  0.00     0.000 C 
BRANCH   9  10
ATOM     10  C   UNL     1     139.387 135.039 132.287  1.00  0.00     0.004 C 
BRANCH  10  11
ATOM     11  C   UNL     1     139.218 134.870 130.771  1.00  0.00     0.027 C 
BRANCH  11  12
ATOM     12  C   UNL     1     139.152 133.416 130.385  1.00  0.00    -0.035 C 
ATOM     13  C   UNL     1     138.129 132.635 130.743  1.00  0.00     0.004 C 
ENDBRANCH  11  12
ENDBRANCH  10  11
ENDBRANCH   9  10
ENDBRANCH   8   9
ENDBRANCH   1   8
TORSDOF 10
ENDMDL
MODEL 5
REMARK VINA RESULT:    -3.526      1.731      3.417
REMARK INTER + INTRA:          -7.064
REMARK INTER:                  -5.884
REMARK INTRA:                  -1.180
REMARK UNBOUND:                -1.477
REMARK SMILES C=CCCCCCCCCCCC
REMARK SMILES IDX 7 1 8 2 9 3 10 4 11 5 12 6 13 7 6 8 5 9 4 10 3 11 2 12 1 13
REMARK H PARENT
REMARK Flexibility Score: inf
ROOT
ATOM      1  C   UNL     1     139.095 135.352 131.397  1.00  0.00     0.000 C 
ENDROOT
BRANCH   1   2
ATOM      2  C   UNL     1     140.311 135.688 132.280  1.00  0.00     0.000 C 
BRANCH   2   3
ATOM      3  C   UNL     1     140.732 137.172 132.278  1.00  0.00    -0.000 C 
BRANCH   3   4
ATOM      4  C   UNL     1     141.205 137.715 130.918  1.00  0.00    -0.000 C 
BRANCH   4   5
ATOM      5  C   UNL     1     140.459 138.987 130.488  1.00  0.00    -0.000 C 
BRANCH   5   6
ATOM      6  C   UNL     1     139.844 138.817 129.095  1.00  0.00    -0.003 C 
ATOM      7  C   UNL     1     140.112 137.421 128.539  1.00  0.00     0.004 C 
ENDBRANCH   5   6
ENDBRANCH   4   5
ENDBRANCH   3   4
ENDBRANCH   2   3
ENDBRANCH   1   2
BRANCH   1   8
ATOM      8  C   UNL     1     139.275 134.120 130.490  1.00  0.00     0.000 C 
BRANCH   8   9
ATOM      9  C   UNL     1     137.991 133.278 130.329  1.00  0.00     0.000 C 
BRANCH   9  10
ATOM     10  C   UNL     1     137.621 132.519 131.614  1.00  0.00     0.004 C 
BRANCH  10  11
ATOM     11  C   UNL     1     136.255 132.949 132.165  1.00  0.00     0.027 C 
BRANCH  11  12
ATOM     12  C   UNL     1     136.399 133.722 133.449  1.00  0.00    -0.035 C 
ATOM     13  C   UNL     1     137.482 133.609 134.223  1.00  0.00     0.004 C 
ENDBRANCH  11  12
ENDBRANCH  10  11
ENDBRANCH   9  10
ENDBRANCH   8   9
ENDBRANCH   1   8
TORSDOF 10
ENDMDL
MODEL 6
REMARK VINA RESULT:    -3.495      2.627      4.816
REMARK INTER + INTRA:          -7.016
REMARK INTER:                  -5.279
REMARK INTRA:                  -1.737
REMARK UNBOUND:                -1.477
REMARK SMILES C=CCCCCCCCCCCC
REMARK SMILES IDX 7 1 8 2 9 3 10 4 11 5 12 6 13 7 6 8 5 9 4 10 3 11 2 12 1 13
REMARK H PARENT
REMARK Flexibility Score: inf
ROOT
ATOM      1  C   UNL     1     137.070 132.830 132.331  1.00  0.00     0.000 C 
ENDROOT
BRANCH   1   2
ATOM      2  C   UNL     1     137.637 132.444 130.953  1.00  0.00     0.000 C 
BRANCH   2   3
ATOM      3  C   UNL     1     138.864 133.260 130.497  1.00  0.00    -0.000 C 
BRANCH   3   4
ATOM      4  C   UNL     1     138.560 134.698 130.042  1.00  0.00    -0.000 C 
BRANCH   4   5
ATOM      5  C   UNL     1     139.210 135.762 130.939  1.00  0.00    -0.000 C 
BRANCH   5   6
ATOM      6  C   UNL     1     140.041 135.108 132.049  1.00  0.00    -0.003 C 
ATOM      7  C   UNL     1     139.489 135.456 133.429  1.00  0.00     0.004 C 
ENDBRANCH   5   6
ENDBRANCH   4   5
ENDBRANCH   3   4
ENDBRANCH   2   3
ENDBRANCH   1   2
BRANCH   1   8
ATOM      8  C   UNL     1     135.623 133.357 132.311  1.00  0.00     0.000 C 
BRANCH   8   9
ATOM      9  C   UNL     1     135.524 134.897 132.347  1.00  0.00     0.000 C 
BRANCH   9  10
ATOM     10  C   UNL     1     134.979 135.482 131.033  1.00  0.00     0.004 C 
BRANCH  10  11
ATOM     11  C   UNL     1     133.882 134.601 130.420  1.00  0.00     0.027 C 
BRANCH  11  12
ATOM     12  C   UNL     1     134.066 134.449 128.934  1.00  0.00    -0.035 C 
ATOM     13  C   UNL     1     135.278 134.377 128.376  1.00  0.00     0.004 C 
ENDBRANCH  11  12
ENDBRANCH  10  11
ENDBRANCH   9  10
ENDBRANCH   8   9
ENDBRANCH   1   8
TORSDOF 10
ENDMDL
MODEL 7
REMARK VINA RESULT:    -3.478      2.993      4.866
REMARK INTER + INTRA:          -6.988
REMARK INTER:                  -5.256
REMARK INTRA:                  -1.732
REMARK UNBOUND:                -1.477
REMARK SMILES C=CCCCCCCCCCCC
REMARK SMILES IDX 7 1 8 2 9 3 10 4 11 5 12 6 13 7 6 8 5 9 4 10 3 11 2 12 1 13
REMARK H PARENT
REMARK Flexibility Score: inf
ROOT
ATOM      1  C   UNL     1     135.221 138.088 129.921  1.00  0.00     0.000 C 
ENDROOT
BRANCH   1   2
ATOM      2  C   UNL     1     134.640 139.277 130.708  1.00  0.00     0.000 C 
BRANCH   2   3
ATOM      3  C   UNL     1     135.092 140.668 130.219  1.00  0.00    -0.000 C 
BRANCH   3   4
ATOM      4  C   UNL     1     135.876 141.500 131.250  1.00  0.00    -0.000 C 
BRANCH   4   5
ATOM      5  C   UNL     1     136.431 140.655 132.406  1.00  0.00    -0.000 C 
BRANCH   5   6
ATOM      6  C   UNL     1     137.963 140.613 132.369  1.00  0.00    -0.003 C 
ATOM      7  C   UNL     1     138.500 139.400 133.123  1.00  0.00     0.004 C 
ENDBRANCH   5   6
ENDBRANCH   4   5
ENDBRANCH   3   4
ENDBRANCH   2   3
ENDBRANCH   1   2
BRANCH   1   8
ATOM      8  C   UNL     1     136.618 137.628 130.381  1.00  0.00     0.000 C 
BRANCH   8   9
ATOM      9  C   UNL     1     137.694 137.720 129.277  1.00  0.00     0.000 C 
BRANCH   9  10
ATOM     10  C   UNL     1     138.204 139.156 129.072  1.00  0.00     0.004 C 
BRANCH  10  11
ATOM     11  C   UNL     1     139.733 139.245 129.173  1.00  0.00     0.027 C 
BRANCH  11  12
ATOM     12  C   UNL     1     140.311 138.028 129.846  1.00  0.00    -0.035 C 
ATOM     13  C   UNL     1     141.156 138.125 130.876  1.00  0.00     0.004 C 
ENDBRANCH  11  12
ENDBRANCH  10  11
ENDBRANCH   9  10
ENDBRANCH   8   9
ENDBRANCH   1   8
TORSDOF 10
ENDMDL
MODEL 8
REMARK VINA RESULT:    -3.469      4.306      5.735
REMARK INTER + INTRA:          -6.974
REMARK INTER:                  -4.924
REMARK INTRA:                  -2.050
REMARK UNBOUND:                -1.477
REMARK SMILES C=CCCCCCCCCCCC
REMARK SMILES IDX 7 1 8 2 9 3 10 4 11 5 12 6 13 7 6 8 5 9 4 10 3 11 2 12 1 13
REMARK H PARENT
REMARK Flexibility Score: inf
ROOT
ATOM      1  C   UNL     1     134.960 137.269 128.827  1.00  0.00     0.000 C 
ENDROOT
BRANCH   1   2
ATOM      2  C   UNL     1     133.631 136.515 128.637  1.00  0.00     0.000 C 
BRANCH   2   3
ATOM      3  C   UNL     1     133.668 135.019 129.010  1.00  0.00    -0.000 C 
BRANCH   3   4
ATOM      4  C   UNL     1     133.054 134.670 130.377  1.00  0.00    -0.000 C 
BRANCH   4   5
ATOM      5  C   UNL     1     132.353 135.864 131.042  1.00  0.00    -0.000 C 
BRANCH   5   6
ATOM      6  C   UNL     1     133.114 136.321 132.291  1.00  0.00    -0.003 C 
ATOM      7  C   UNL     1     133.224 137.842 132.345  1.00  0.00     0.004 C 
ENDBRANCH   5   6
ENDBRANCH   4   5
ENDBRANCH   3   4
ENDBRANCH   2   3
ENDBRANCH   1   2
BRANCH   1   8
ATOM      8  C   UNL     1     136.094 136.435 129.452  1.00  0.00     0.000 C 
BRANCH   8   9
ATOM      9  C   UNL     1     136.494 136.897 130.870  1.00  0.00     0.000 C 
BRANCH   9  10
ATOM     10  C   UNL     1     136.908 135.726 131.776  1.00  0.00     0.004 C 
BRANCH  10  11
ATOM     11  C   UNL     1     136.727 134.369 131.084  1.00  0.00     0.027 C 
BRANCH  11  12
ATOM     12  C   UNL     1     136.253 133.317 132.052  1.00  0.00    -0.035 C 
ATOM     13  C   UNL     1     135.512 133.623 133.120  1.00  0.00     0.004 C 
ENDBRANCH  11  12
ENDBRANCH  10  11
ENDBRANCH   9  10
ENDBRANCH   8   9
ENDBRANCH   1   8
TORSDOF 10
ENDMDL
MODEL 9
REMARK VINA RESULT:    -3.469      3.195      5.550
REMARK INTER + INTRA:          -6.973
REMARK INTER:                  -5.466
REMARK INTRA:                  -1.507
REMARK UNBOUND:                -1.477
REMARK SMILES C=CCCCCCCCCCCC
REMARK SMILES IDX 7 1 8 2 9 3 10 4 11 5 12 6 13 7 6 8 5 9 4 10 3 11 2 12 1 13
REMARK H PARENT
REMARK Flexibility Score: inf
ROOT
ATOM      1  C   UNL     1     136.049 141.405 131.583  1.00  0.00     0.000 C 
ENDROOT
BRANCH   1   2
ATOM      2  C   UNL     1     136.715 140.426 132.568  1.00  0.00     0.000 C 
BRANCH   2   3
ATOM      3  C   UNL     1     138.255 140.366 132.489  1.00  0.00    -0.000 C 
BRANCH   3   4
ATOM      4  C   UNL     1     138.848 138.952 132.364  1.00  0.00    -0.000 C 
BRANCH   4   5
ATOM      5  C   UNL     1     138.504 138.273 131.030  1.00  0.00    -0.000 C 
BRANCH   5   6
ATOM      6  C   UNL     1     138.941 139.141 129.845  1.00  0.00    -0.003 C 
ATOM      7  C   UNL     1     140.462 139.240 129.763  1.00  0.00     0.004 C 
ENDBRANCH   5   6
ENDBRANCH   4   5
ENDBRANCH   3   4
ENDBRANCH   2   3
ENDBRANCH   1   2
BRANCH   1   8
ATOM      8  C   UNL     1     135.636 140.785 130.234  1.00  0.00     0.000 C 
BRANCH   8   9
ATOM      9  C   UNL     1     134.418 139.842 130.333  1.00  0.00     0.000 C 
BRANCH   9  10
ATOM     10  C   UNL     1     134.807 138.361 130.182  1.00  0.00     0.004 C 
BRANCH  10  11
ATOM     11  C   UNL     1     134.203 137.490 131.292  1.00  0.00     0.027 C 
BRANCH  11  12
ATOM     12  C   UNL     1     133.614 138.333 132.392  1.00  0.00    -0.035 C 
ATOM     13  C   UNL     1     133.954 138.161 133.673  1.00  0.00     0.004 C 
ENDBRANCH  11  12
ENDBRANCH  10  11
ENDBRANCH   9  10
ENDBRANCH   8   9
ENDBRANCH   1   8
TORSDOF 10
ENDMDL
