MODEL 1
REMARK VINA RESULT:    -4.256      0.000      0.000
REMARK INTER + INTRA:          -7.755
REMARK INTER:                  -6.496
REMARK INTRA:                  -1.259
REMARK UNBOUND:                -1.259
REMARK SMILES OC[C@@H]1O[C@@H](O[C@]2(CO)O[C@H](CO)[C@@H](O)[C@@H]2O)[C@H](O)[C@H](O)[C@@H]1O
REMARK SMILES IDX 6 1 5 2 3 3 22 4 4 5 20 6 18 7 2 8 1 9 23 11 21 13 19 15
REMARK SMILES IDX 7 17 16 18 10 19 14 20 11 21 8 22 9 23 17 25 15 27 12 29
REMARK SMILES IDX 13 30
REMARK H PARENT 1 10 23 12 21 14 19 16 9 24 17 26 15 28 13 31
REMARK Flexibility Score: inf
ROOT
ATOM      1  O   UNL     1      17.257  28.525  45.291  1.00  0.00    -0.313 OA
ENDROOT
BRANCH   1   2
ATOM      2  C   UNL     1      17.756  27.411  46.020  1.00  0.00     0.285 C 
ATOM      3  C   UNL     1      20.027  27.437  45.200  1.00  0.00     0.178 C 
ATOM      4  C   UNL     1      19.348  27.154  43.808  1.00  0.00     0.177 C 
ATOM      5  O   UNL     1      19.132  27.611  46.302  1.00  0.00    -0.341 OA
ATOM      6  C   UNL     1      18.214  26.105  43.877  1.00  0.00     0.179 C 
ATOM      7  C   UNL     1      17.517  26.092  45.259  1.00  0.00     0.202 C 
BRANCH   3   8
ATOM      8  C   UNL     1      21.122  26.434  45.630  1.00  0.00     0.191 C 
BRANCH   8   9
ATOM      9  O   UNL     1      20.908  25.168  45.072  1.00  0.00    -0.394 OA
ATOM     10  H   UNL     1      21.344  25.179  44.179  1.00  0.00     0.210 HD
ENDBRANCH   8   9
ENDBRANCH   3   8
BRANCH   4  11
ATOM     11  O   UNL     1      20.235  26.868  42.747  1.00  0.00    -0.387 OA
ATOM     12  H   UNL     1      21.167  26.881  43.064  1.00  0.00     0.211 HD
ENDBRANCH   4  11
BRANCH   6  13
ATOM     13  O   UNL     1      18.691  24.821  43.554  1.00  0.00    -0.387 OA
ATOM     14  H   UNL     1      19.197  24.907  42.702  1.00  0.00     0.211 HD
ENDBRANCH   6  13
BRANCH   7  15
ATOM     15  O   UNL     1      17.981  25.027  46.052  1.00  0.00    -0.385 OA
ATOM     16  H   UNL     1      18.078  24.238  45.454  1.00  0.00     0.211 HD
ENDBRANCH   7  15
ENDBRANCH   1   2
BRANCH   1  17
ATOM     17  C   UNL     1      16.634  29.539  46.080  1.00  0.00     0.224 C 
ATOM     18  C   UNL     1      15.140  29.568  45.725  1.00  0.00     0.208 C 
ATOM     19  O   UNL     1      16.733  29.285  47.471  1.00  0.00    -0.337 OA
ATOM     20  C   UNL     1      14.475  29.995  47.015  1.00  0.00     0.180 C 
ATOM     21  C   UNL     1      15.503  29.611  48.085  1.00  0.00     0.179 C 
BRANCH  17  22
ATOM     22  C   UNL     1      17.284  30.906  45.754  1.00  0.00     0.225 C 
BRANCH  22  23
ATOM     23  O   UNL     1      18.659  30.760  45.529  1.00  0.00    -0.391 OA
ATOM     24  H   UNL     1      19.087  30.757  46.424  1.00  0.00     0.210 HD
ENDBRANCH  22  23
ENDBRANCH  17  22
BRANCH  18  25
ATOM     25  O   UNL     1      14.702  28.279  45.374  1.00  0.00    -0.385 OA
ATOM     26  H   UNL     1      14.059  28.385  44.624  1.00  0.00     0.211 HD
ENDBRANCH  18  25
BRANCH  20  27
ATOM     27  O   UNL     1      14.271  31.385  47.027  1.00  0.00    -0.387 OA
ATOM     28  H   UNL     1      14.929  31.777  46.394  1.00  0.00     0.211 HD
ENDBRANCH  20  27
BRANCH  21  29
ATOM     29  C   UNL     1      15.029  28.413  48.924  1.00  0.00     0.191 C 
BRANCH  29  30
ATOM     30  O   UNL     1      16.130  27.687  49.402  1.00  0.00    -0.394 OA
ATOM     31  H   UNL     1      16.401  27.068  48.674  1.00  0.00     0.210 HD
ENDBRANCH  29  30
ENDBRANCH  21  29
ENDBRANCH   1  17
TORSDOF 13
ENDMDL
MODEL 2
REMARK VINA RESULT:    -4.190      1.535      6.040
REMARK INTER + INTRA:          -7.654
REMARK INTER:                  -6.326
REMARK INTRA:                  -1.328
REMARK UNBOUND:                -1.259
REMARK SMILES OC[C@@H]1O[C@@H](O[C@]2(CO)O[C@H](CO)[C@@H](O)[C@@H]2O)[C@H](O)[C@H](O)[C@@H]1O
REMARK SMILES IDX 6 1 5 2 3 3 22 4 4 5 20 6 18 7 2 8 1 9 23 11 21 13 19 15
REMARK SMILES IDX 7 17 16 18 10 19 14 20 11 21 8 22 9 23 17 25 15 27 12 29
REMARK SMILES IDX 13 30
REMARK H PARENT 1 10 23 12 21 14 19 16 9 24 17 26 15 28 13 31
REMARK Flexibility Score: inf
ROOT
ATOM      1  O   UNL     1      18.051  27.295  46.561  1.00  0.00    -0.313 OA
ENDROOT
BRANCH   1   2
ATOM      2  C   UNL     1      16.982  28.135  46.141  1.00  0.00     0.285 C 
ATOM      3  C   UNL     1      17.427  30.023  47.578  1.00  0.00     0.178 C 
ATOM      4  C   UNL     1      17.137  28.996  48.735  1.00  0.00     0.177 C 
ATOM      5  O   UNL     1      17.379  29.492  46.250  1.00  0.00    -0.341 OA
ATOM      6  C   UNL     1      15.919  28.085  48.459  1.00  0.00     0.179 C 
ATOM      7  C   UNL     1      15.699  27.850  46.945  1.00  0.00     0.202 C 
BRANCH   3   8
ATOM      8  C   UNL     1      16.584  31.319  47.603  1.00  0.00     0.191 C 
BRANCH   8   9
ATOM      9  O   UNL     1      15.328  31.104  48.184  1.00  0.00    -0.394 OA
ATOM     10  H   UNL     1      15.095  31.943  48.661  1.00  0.00     0.210 HD
ENDBRANCH   8   9
ENDBRANCH   3   8
BRANCH   4  11
ATOM     11  O   UNL     1      17.071  29.546  50.033  1.00  0.00    -0.387 OA
ATOM     12  H   UNL     1      16.204  29.993  50.175  1.00  0.00     0.211 HD
ENDBRANCH   4  11
BRANCH   6  13
ATOM     13  O   UNL     1      14.753  28.604  49.052  1.00  0.00    -0.387 OA
ATOM     14  H   UNL     1      15.040  29.331  49.667  1.00  0.00     0.211 HD
ENDBRANCH   6  13
BRANCH   7  15
ATOM     15  O   UNL     1      14.668  28.669  46.448  1.00  0.00    -0.385 OA
ATOM     16  H   UNL     1      14.943  29.611  46.607  1.00  0.00     0.211 HD
ENDBRANCH   7  15
ENDBRANCH   1   2
BRANCH   1  17
ATOM     17  C   UNL     1      18.608  26.463  45.543  1.00  0.00     0.224 C 
ATOM     18  C   UNL     1      19.618  27.299  44.744  1.00  0.00     0.208 C 
ATOM     19  O   UNL     1      19.306  25.348  46.072  1.00  0.00    -0.337 OA
ATOM     20  C   UNL     1      20.653  26.286  44.308  1.00  0.00     0.180 C 
ATOM     21  C   UNL     1      20.490  25.153  45.326  1.00  0.00     0.179 C 
BRANCH  17  22
ATOM     22  C   UNL     1      17.472  25.971  44.613  1.00  0.00     0.225 C 
BRANCH  22  23
ATOM     23  O   UNL     1      17.727  26.333  43.284  1.00  0.00    -0.391 OA
ATOM     24  H   UNL     1      16.841  26.470  42.859  1.00  0.00     0.210 HD
ENDBRANCH  22  23
ENDBRANCH  17  22
BRANCH  18  25
ATOM     25  O   UNL     1      20.221  28.256  45.581  1.00  0.00    -0.385 OA
ATOM     26  H   UNL     1      21.042  28.570  45.117  1.00  0.00     0.211 HD
ENDBRANCH  18  25
BRANCH  20  27
ATOM     27  O   UNL     1      20.364  25.813  43.017  1.00  0.00    -0.387 OA
ATOM     28  H   UNL     1      20.496  24.828  43.036  1.00  0.00     0.211 HD
ENDBRANCH  20  27
BRANCH  21  29
ATOM     29  C   UNL     1      21.683  25.081  46.292  1.00  0.00     0.191 C 
BRANCH  29  30
ATOM     30  O   UNL     1      22.514  26.199  46.127  1.00  0.00    -0.394 OA
ATOM     31  H   UNL     1      23.438  25.902  46.337  1.00  0.00     0.210 HD
ENDBRANCH  29  30
ENDBRANCH  21  29
ENDBRANCH   1  17
TORSDOF 13
ENDMDL
MODEL 3
REMARK VINA RESULT:    -4.184      1.469      5.915
REMARK INTER + INTRA:          -7.644
REMARK INTER:                  -6.819
REMARK INTRA:                  -0.825
REMARK UNBOUND:                -1.259
REMARK SMILES OC[C@@H]1O[C@@H](O[C@]2(CO)O[C@H](CO)[C@@H](O)[C@@H]2O)[C@H](O)[C@H](O)[C@@H]1O
REMARK SMILES IDX 6 1 5 2 3 3 22 4 4 5 20 6 18 7 2 8 1 9 23 11 21 13 19 15
REMARK SMILES IDX 7 17 16 18 10 19 14 20 11 21 8 22 9 23 17 25 15 27 12 29
REMARK SMILES IDX 13 30
REMARK H PARENT 1 10 23 12 21 14 19 16 9 24 17 26 15 28 13 31
REMARK Flexibility Score: inf
ROOT
ATOM      1  O   UNL     1      18.183  28.441  45.530  1.00  0.00    -0.313 OA
ENDROOT
BRANCH   1   2
ATOM      2  C   UNL     1      18.254  28.498  46.949  1.00  0.00     0.285 C 
ATOM      3  C   UNL     1      15.896  28.308  47.432  1.00  0.00     0.178 C 
ATOM      4  C   UNL     1      15.798  29.671  46.649  1.00  0.00     0.177 C 
ATOM      5  O   UNL     1      17.201  27.727  47.505  1.00  0.00    -0.341 OA
ATOM      6  C   UNL     1      16.920  30.672  47.013  1.00  0.00     0.179 C 
ATOM      7  C   UNL     1      18.220  29.955  47.451  1.00  0.00     0.202 C 
BRANCH   3   8
ATOM      8  C   UNL     1      15.294  28.306  48.856  1.00  0.00     0.191 C 
BRANCH   8   9
ATOM      9  O   UNL     1      16.236  27.910  49.813  1.00  0.00    -0.394 OA
ATOM     10  H   UNL     1      16.965  28.584  49.781  1.00  0.00     0.210 HD
ENDBRANCH   8   9
ENDBRANCH   3   8
BRANCH   4  11
ATOM     11  O   UNL     1      14.534  30.298  46.679  1.00  0.00    -0.387 OA
ATOM     12  H   UNL     1      14.634  31.278  46.637  1.00  0.00     0.211 HD
ENDBRANCH   4  11
BRANCH   6  13
ATOM     13  O   UNL     1      16.493  31.572  48.007  1.00  0.00    -0.387 OA
ATOM     14  H   UNL     1      16.608  31.113  48.881  1.00  0.00     0.211 HD
ENDBRANCH   6  13
BRANCH   7  15
ATOM     15  O   UNL     1      18.348  29.948  48.853  1.00  0.00    -0.385 OA
ATOM     16  H   UNL     1      18.324  28.998  49.143  1.00  0.00     0.211 HD
ENDBRANCH   7  15
ENDBRANCH   1   2
BRANCH   1  17
ATOM     17  C   UNL     1      18.489  27.169  44.956  1.00  0.00     0.224 C 
ATOM     18  C   UNL     1      19.458  27.396  43.786  1.00  0.00     0.208 C 
ATOM     19  O   UNL     1      19.130  26.298  45.873  1.00  0.00    -0.337 OA
ATOM     20  C   UNL     1      20.299  26.139  43.771  1.00  0.00     0.180 C 
ATOM     21  C   UNL     1      20.163  25.606  45.201  1.00  0.00     0.179 C 
BRANCH  17  22
ATOM     22  C   UNL     1      17.182  26.517  44.444  1.00  0.00     0.225 C 
BRANCH  22  23
ATOM     23  O   UNL     1      16.271  27.493  44.022  1.00  0.00    -0.391 OA
ATOM     24  H   UNL     1      16.717  27.987  43.286  1.00  0.00     0.210 HD
ENDBRANCH  22  23
ENDBRANCH  17  22
BRANCH  18  25
ATOM     25  O   UNL     1      20.279  28.508  44.048  1.00  0.00    -0.385 OA
ATOM     26  H   UNL     1      20.716  28.345  44.925  1.00  0.00     0.211 HD
ENDBRANCH  18  25
BRANCH  20  27
ATOM     27  O   UNL     1      19.772  25.206  42.862  1.00  0.00    -0.387 OA
ATOM     28  H   UNL     1      20.062  25.492  41.956  1.00  0.00     0.211 HD
ENDBRANCH  20  27
BRANCH  21  29
ATOM     29  C   UNL     1      21.469  25.766  45.995  1.00  0.00     0.191 C 
BRANCH  29  30
ATOM     30  O   UNL     1      22.121  24.530  46.117  1.00  0.00    -0.394 OA
ATOM     31  H   UNL     1      22.538  24.515  47.018  1.00  0.00     0.210 HD
ENDBRANCH  29  30
ENDBRANCH  21  29
ENDBRANCH   1  17
TORSDOF 13
ENDMDL
MODEL 4
REMARK VINA RESULT:    -4.168      1.453      2.825
REMARK INTER + INTRA:          -7.619
REMARK INTER:                  -6.156
REMARK INTRA:                  -1.463
REMARK UNBOUND:                -1.259
REMARK SMILES OC[C@@H]1O[C@@H](O[C@]2(CO)O[C@H](CO)[C@@H](O)[C@@H]2O)[C@H](O)[C@H](O)[C@@H]1O
REMARK SMILES IDX 6 1 5 2 3 3 22 4 4 5 20 6 18 7 2 8 1 9 23 11 21 13 19 15
REMARK SMILES IDX 7 17 16 18 10 19 14 20 11 21 8 22 9 23 17 25 15 27 12 29
REMARK SMILES IDX 13 30
REMARK H PARENT 1 10 23 12 21 14 19 16 9 24 17 26 15 28 13 31
REMARK Flexibility Score: inf
ROOT
ATOM      1  O   UNL     1      17.137  27.847  45.954  1.00  0.00    -0.313 OA
ENDROOT
BRANCH   1   2
ATOM      2  C   UNL     1      17.804  28.017  44.710  1.00  0.00     0.285 C 
ATOM      3  C   UNL     1      18.400  25.713  44.305  1.00  0.00     0.178 C 
ATOM      4  C   UNL     1      19.252  25.879  45.619  1.00  0.00     0.177 C 
ATOM      5  O   UNL     1      17.629  26.853  43.918  1.00  0.00    -0.341 OA
ATOM      6  C   UNL     1      20.020  27.219  45.690  1.00  0.00     0.179 C 
ATOM      7  C   UNL     1      19.296  28.346  44.916  1.00  0.00     0.202 C 
BRANCH   3   8
ATOM      8  C   UNL     1      19.173  25.216  43.062  1.00  0.00     0.191 C 
BRANCH   8   9
ATOM      9  O   UNL     1      20.468  25.747  43.015  1.00  0.00    -0.394 OA
ATOM     10  H   UNL     1      20.470  26.414  42.279  1.00  0.00     0.210 HD
ENDBRANCH   8   9
ENDBRANCH   3   8
BRANCH   4  11
ATOM     11  O   UNL     1      20.099  24.795  45.935  1.00  0.00    -0.387 OA
ATOM     12  H   UNL     1      19.928  24.036  45.330  1.00  0.00     0.211 HD
ENDBRANCH   4  11
BRANCH   6  13
ATOM     13  O   UNL     1      21.340  27.071  45.227  1.00  0.00    -0.387 OA
ATOM     14  H   UNL     1      21.931  27.085  46.026  1.00  0.00     0.211 HD
ENDBRANCH   6  13
BRANCH   7  15
ATOM     15  O   UNL     1      19.886  28.557  43.656  1.00  0.00    -0.385 OA
ATOM     16  H   UNL     1      19.651  29.482  43.375  1.00  0.00     0.211 HD
ENDBRANCH   7  15
ENDBRANCH   1   2
BRANCH   1  17
ATOM     17  C   UNL     1      16.227  28.889  46.305  1.00  0.00     0.224 C 
ATOM     18  C   UNL     1      15.426  28.429  47.531  1.00  0.00     0.208 C 
ATOM     19  O   UNL     1      16.888  30.092  46.659  1.00  0.00    -0.337 OA
ATOM     20  C   UNL     1      15.138  29.716  48.272  1.00  0.00     0.180 C 
ATOM     21  C   UNL     1      16.234  30.663  47.775  1.00  0.00     0.179 C 
BRANCH  17  22
ATOM     22  C   UNL     1      15.273  29.151  45.114  1.00  0.00     0.225 C 
BRANCH  22  23
ATOM     23  O   UNL     1      14.094  28.408  45.250  1.00  0.00    -0.391 OA
ATOM     24  H   UNL     1      13.374  28.954  44.840  1.00  0.00     0.210 HD
ENDBRANCH  22  23
ENDBRANCH  17  22
BRANCH  18  25
ATOM     25  O   UNL     1      16.216  27.589  48.337  1.00  0.00    -0.385 OA
ATOM     26  H   UNL     1      15.888  27.689  49.269  1.00  0.00     0.211 HD
ENDBRANCH  18  25
BRANCH  20  27
ATOM     27  O   UNL     1      13.875  30.217  47.914  1.00  0.00    -0.387 OA
ATOM     28  H   UNL     1      13.645  30.917  48.581  1.00  0.00     0.211 HD
ENDBRANCH  20  27
BRANCH  21  29
ATOM     29  C   UNL     1      17.274  30.954  48.869  1.00  0.00     0.191 C 
BRANCH  29  30
ATOM     30  O   UNL     1      17.095  30.086  49.956  1.00  0.00    -0.394 OA
ATOM     31  H   UNL     1      17.688  29.305  49.798  1.00  0.00     0.210 HD
ENDBRANCH  29  30
ENDBRANCH  21  29
ENDBRANCH   1  17
TORSDOF 13
ENDMDL
MODEL 5
REMARK VINA RESULT:    -4.122      1.580      3.327
REMARK INTER + INTRA:          -7.549
REMARK INTER:                  -5.851
REMARK INTRA:                  -1.699
REMARK UNBOUND:                -1.259
REMARK SMILES OC[C@@H]1O[C@@H](O[C@]2(CO)O[C@H](CO)[C@@H](O)[C@@H]2O)[C@H](O)[C@H](O)[C@@H]1O
REMARK SMILES IDX 6 1 5 2 3 3 22 4 4 5 20 6 18 7 2 8 1 9 23 11 21 13 19 15
REMARK SMILES IDX 7 17 16 18 10 19 14 20 11 21 8 22 9 23 17 25 15 27 12 29
REMARK SMILES IDX 13 30
REMARK H PARENT 1 10 23 12 21 14 19 16 9 24 17 26 15 28 13 31
REMARK Flexibility Score: inf
ROOT
ATOM      1  O   UNL     1      17.700  28.268  46.428  1.00  0.00    -0.313 OA
ENDROOT
BRANCH   1   2
ATOM      2  C   UNL     1      18.206  28.359  45.102  1.00  0.00     0.285 C 
ATOM      3  C   UNL     1      18.357  25.999  44.615  1.00  0.00     0.178 C 
ATOM      4  C   UNL     1      19.399  25.994  45.795  1.00  0.00     0.177 C 
ATOM      5  O   UNL     1      17.735  27.258  44.341  1.00  0.00    -0.341 OA
ATOM      6  C   UNL     1      20.377  27.192  45.758  1.00  0.00     0.179 C 
ATOM      7  C   UNL     1      19.745  28.439  45.095  1.00  0.00     0.202 C 
BRANCH   3   8
ATOM      8  C   UNL     1      18.859  25.414  43.274  1.00  0.00     0.191 C 
BRANCH   8   9
ATOM      9  O   UNL     1      20.241  25.581  43.125  1.00  0.00    -0.394 OA
ATOM     10  H   UNL     1      20.651  24.697  43.317  1.00  0.00     0.210 HD
ENDBRANCH   8   9
ENDBRANCH   3   8
BRANCH   4  11
ATOM     11  O   UNL     1      20.095  24.781  45.986  1.00  0.00    -0.387 OA
ATOM     12  H   UNL     1      20.064  24.233  45.168  1.00  0.00     0.211 HD
ENDBRANCH   4  11
BRANCH   6  13
ATOM     13  O   UNL     1      21.578  26.845  45.112  1.00  0.00    -0.387 OA
ATOM     14  H   UNL     1      21.330  26.402  44.257  1.00  0.00     0.211 HD
ENDBRANCH   6  13
BRANCH   7  15
ATOM     15  O   UNL     1      20.180  28.583  43.765  1.00  0.00    -0.385 OA
ATOM     16  H   UNL     1      20.593  29.484  43.688  1.00  0.00     0.211 HD
ENDBRANCH   7  15
ENDBRANCH   1   2
BRANCH   1  17
ATOM     17  C   UNL     1      16.433  28.892  46.641  1.00  0.00     0.224 C 
ATOM     18  C   UNL     1      16.543  29.777  47.890  1.00  0.00     0.208 C 
ATOM     19  O   UNL     1      16.050  29.728  45.562  1.00  0.00    -0.337 OA
ATOM     20  C   UNL     1      15.583  30.911  47.608  1.00  0.00     0.180 C 
ATOM     21  C   UNL     1      15.470  30.907  46.080  1.00  0.00     0.179 C 
BRANCH  17  22
ATOM     22  C   UNL     1      15.360  27.798  46.857  1.00  0.00     0.225 C 
BRANCH  22  23
ATOM     23  O   UNL     1      15.025  27.184  45.644  1.00  0.00    -0.391 OA
ATOM     24  H   UNL     1      14.510  26.369  45.879  1.00  0.00     0.210 HD
ENDBRANCH  22  23
ENDBRANCH  17  22
BRANCH  18  25
ATOM     25  O   UNL     1      17.849  30.286  48.008  1.00  0.00    -0.385 OA
ATOM     26  H   UNL     1      17.799  31.076  48.608  1.00  0.00     0.211 HD
ENDBRANCH  18  25
BRANCH  20  27
ATOM     27  O   UNL     1      14.327  30.646  48.180  1.00  0.00    -0.387 OA
ATOM     28  H   UNL     1      14.063  31.460  48.684  1.00  0.00     0.211 HD
ENDBRANCH  20  27
BRANCH  21  29
ATOM     29  C   UNL     1      16.169  32.125  45.455  1.00  0.00     0.191 C 
BRANCH  29  30
ATOM     30  O   UNL     1      17.557  31.926  45.419  1.00  0.00    -0.394 OA
ATOM     31  H   UNL     1      17.976  32.808  45.601  1.00  0.00     0.210 HD
ENDBRANCH  29  30
ENDBRANCH  21  29
ENDBRANCH   1  17
TORSDOF 13
ENDMDL
MODEL 6
REMARK VINA RESULT:    -4.016     11.430     14.115
REMARK INTER + INTRA:          -7.387
REMARK INTER:                  -5.886
REMARK INTRA:                  -1.501
REMARK UNBOUND:                -1.259
REMARK SMILES OC[C@@H]1O[C@@H](O[C@]2(CO)O[C@H](CO)[C@@H](O)[C@@H]2O)[C@H](O)[C@H](O)[C@@H]1O
REMARK SMILES IDX 6 1 5 2 3 3 22 4 4 5 20 6 18 7 2 8 1 9 23 11 21 13 19 15
REMARK SMILES IDX 7 17 16 18 10 19 14 20 11 21 8 22 9 23 17 25 15 27 12 29
REMARK SMILES IDX 13 30
REMARK H PARENT 1 10 23 12 21 14 19 16 9 24 17 26 15 28 13 31
REMARK Flexibility Score: inf
ROOT
ATOM      1  O   UNL     1      18.639  28.349  33.130  1.00  0.00    -0.313 OA
ENDROOT
BRANCH   1   2
ATOM      2  C   UNL     1      17.911  29.323  32.392  1.00  0.00     0.285 C 
ATOM      3  C   UNL     1      16.916  30.507  34.245  1.00  0.00     0.178 C 
ATOM      4  C   UNL     1      16.211  29.127  34.528  1.00  0.00     0.177 C 
ATOM      5  O   UNL     1      17.830  30.522  33.145  1.00  0.00    -0.341 OA
ATOM      6  C   UNL     1      15.681  28.433  33.252  1.00  0.00     0.179 C 
ATOM      7  C   UNL     1      16.515  28.799  32.001  1.00  0.00     0.202 C 
BRANCH   3   8
ATOM      8  C   UNL     1      15.975  31.725  34.099  1.00  0.00     0.191 C 
BRANCH   8   9
ATOM      9  O   UNL     1      14.712  31.345  33.627  1.00  0.00    -0.394 OA
ATOM     10  H   UNL     1      14.710  30.353  33.601  1.00  0.00     0.210 HD
ENDBRANCH   8   9
ENDBRANCH   3   8
BRANCH   4  11
ATOM     11  O   UNL     1      15.225  29.145  35.538  1.00  0.00    -0.387 OA
ATOM     12  H   UNL     1      14.327  29.236  35.143  1.00  0.00     0.211 HD
ENDBRANCH   4  11
BRANCH   6  13
ATOM     13  O   UNL     1      14.321  28.729  33.042  1.00  0.00    -0.387 OA
ATOM     14  H   UNL     1      14.013  29.251  33.831  1.00  0.00     0.211 HD
ENDBRANCH   6  13
BRANCH   7  15
ATOM     15  O   UNL     1      15.869  29.781  31.229  1.00  0.00    -0.385 OA
ATOM     16  H   UNL     1      14.995  29.401  30.945  1.00  0.00     0.211 HD
ENDBRANCH   7  15
ENDBRANCH   1   2
BRANCH   1  17
ATOM     17  C   UNL     1      19.807  27.842  32.485  1.00  0.00     0.224 C 
ATOM     18  C   UNL     1      20.901  27.668  33.548  1.00  0.00     0.208 C 
ATOM     19  O   UNL     1      19.592  26.575  31.887  1.00  0.00    -0.337 OA
ATOM     20  C   UNL     1      21.706  26.492  33.041  1.00  0.00     0.180 C 
ATOM     21  C   UNL     1      20.722  25.760  32.122  1.00  0.00     0.179 C 
BRANCH  17  22
ATOM     22  C   UNL     1      20.269  28.853  31.407  1.00  0.00     0.225 C 
BRANCH  22  23
ATOM     23  O   UNL     1      21.403  29.555  31.838  1.00  0.00    -0.391 OA
ATOM     24  H   UNL     1      21.581  29.250  32.765  1.00  0.00     0.210 HD
ENDBRANCH  22  23
ENDBRANCH  17  22
BRANCH  18  25
ATOM     25  O   UNL     1      20.322  27.342  34.787  1.00  0.00    -0.385 OA
ATOM     26  H   UNL     1      19.432  27.783  34.816  1.00  0.00     0.211 HD
ENDBRANCH  18  25
BRANCH  20  27
ATOM     27  O   UNL     1      22.812  26.937  32.297  1.00  0.00    -0.387 OA
ATOM     28  H   UNL     1      23.546  27.102  32.946  1.00  0.00     0.211 HD
ENDBRANCH  20  27
BRANCH  21  29
ATOM     29  C   UNL     1      20.260  24.427  32.732  1.00  0.00     0.191 C 
BRANCH  29  30
ATOM     30  O   UNL     1      19.129  24.625  33.539  1.00  0.00    -0.394 OA
ATOM     31  H   UNL     1      19.357  25.353  34.174  1.00  0.00     0.210 HD
ENDBRANCH  29  30
ENDBRANCH  21  29
ENDBRANCH   1  17
TORSDOF 13
ENDMDL
MODEL 7
REMARK VINA RESULT:    -3.973      2.611      5.490
REMARK INTER + INTRA:          -7.322
REMARK INTER:                  -6.134
REMARK INTRA:                  -1.189
REMARK UNBOUND:                -1.259
REMARK SMILES OC[C@@H]1O[C@@H](O[C@]2(CO)O[C@H](CO)[C@@H](O)[C@@H]2O)[C@H](O)[C@H](O)[C@@H]1O
REMARK SMILES IDX 6 1 5 2 3 3 22 4 4 5 20 6 18 7 2 8 1 9 23 11 21 13 19 15
REMARK SMILES IDX 7 17 16 18 10 19 14 20 11 21 8 22 9 23 17 25 15 27 12 29
REMARK SMILES IDX 13 30
REMARK H PARENT 1 10 23 12 21 14 19 16 9 24 17 26 15 28 13 31
REMARK Flexibility Score: inf
ROOT
ATOM      1  O   UNL     1      19.501  28.948  45.933  1.00  0.00    -0.313 OA
ENDROOT
BRANCH   1   2
ATOM      2  C   UNL     1      18.496  28.522  45.022  1.00  0.00     0.285 C 
ATOM      3  C   UNL     1      16.567  28.868  46.431  1.00  0.00     0.178 C 
ATOM      4  C   UNL     1      17.243  27.773  47.338  1.00  0.00     0.177 C 
ATOM      5  O   UNL     1      17.302  29.248  45.264  1.00  0.00    -0.341 OA
ATOM      6  C   UNL     1      17.823  26.583  46.537  1.00  0.00     0.179 C 
ATOM      7  C   UNL     1      18.267  27.000  45.115  1.00  0.00     0.202 C 
BRANCH   3   8
ATOM      8  C   UNL     1      15.109  28.580  46.003  1.00  0.00     0.191 C 
BRANCH   8   9
ATOM      9  O   UNL     1      14.940  27.243  45.623  1.00  0.00    -0.394 OA
ATOM     10  H   UNL     1      14.249  27.241  44.910  1.00  0.00     0.210 HD
ENDBRANCH   8   9
ENDBRANCH   3   8
BRANCH   4  11
ATOM     11  O   UNL     1      16.464  27.317  48.423  1.00  0.00    -0.387 OA
ATOM     12  H   UNL     1      16.707  26.392  48.658  1.00  0.00     0.211 HD
ENDBRANCH   4  11
BRANCH   6  13
ATOM     13  O   UNL     1      16.906  25.518  46.476  1.00  0.00    -0.387 OA
ATOM     14  H   UNL     1      16.638  25.421  45.524  1.00  0.00     0.211 HD
ENDBRANCH   6  13
BRANCH   7  15
ATOM     15  O   UNL     1      17.305  26.633  44.155  1.00  0.00    -0.385 OA
ATOM     16  H   UNL     1      17.062  25.686  44.333  1.00  0.00     0.211 HD
ENDBRANCH   7  15
ENDBRANCH   1   2
BRANCH   1  17
ATOM     17  C   UNL     1      20.581  29.678  45.350  1.00  0.00     0.224 C 
ATOM     18  C   UNL     1      20.780  30.965  46.165  1.00  0.00     0.208 C 
ATOM     19  O   UNL     1      21.804  28.962  45.386  1.00  0.00    -0.337 OA
ATOM     20  C   UNL     1      22.265  31.232  46.052  1.00  0.00     0.180 C 
ATOM     21  C   UNL     1      22.848  29.854  45.722  1.00  0.00     0.179 C 
BRANCH  17  22
ATOM     22  C   UNL     1      20.225  30.026  43.885  1.00  0.00     0.225 C 
BRANCH  22  23
ATOM     23  O   UNL     1      19.912  31.386  43.759  1.00  0.00    -0.391 OA
ATOM     24  H   UNL     1      20.778  31.870  43.754  1.00  0.00     0.210 HD
ENDBRANCH  22  23
ENDBRANCH  17  22
BRANCH  18  25
ATOM     25  O   UNL     1      20.444  30.740  47.512  1.00  0.00    -0.385 OA
ATOM     26  H   UNL     1      21.258  30.389  47.959  1.00  0.00     0.211 HD
ENDBRANCH  18  25
BRANCH  20  27
ATOM     27  O   UNL     1      22.525  32.124  44.998  1.00  0.00    -0.387 OA
ATOM     28  H   UNL     1      22.751  31.572  44.204  1.00  0.00     0.211 HD
ENDBRANCH  20  27
BRANCH  21  29
ATOM     29  C   UNL     1      23.639  29.273  46.906  1.00  0.00     0.191 C 
BRANCH  29  30
ATOM     30  O   UNL     1      24.182  28.026  46.566  1.00  0.00    -0.394 OA
ATOM     31  H   UNL     1      25.090  28.199  46.204  1.00  0.00     0.210 HD
ENDBRANCH  29  30
ENDBRANCH  21  29
ENDBRANCH   1  17
TORSDOF 13
ENDMDL
MODEL 8
REMARK VINA RESULT:    -3.948      1.409      5.906
REMARK INTER + INTRA:          -7.285
REMARK INTER:                  -5.847
REMARK INTRA:                  -1.438
REMARK UNBOUND:                -1.259
REMARK SMILES OC[C@@H]1O[C@@H](O[C@]2(CO)O[C@H](CO)[C@@H](O)[C@@H]2O)[C@H](O)[C@H](O)[C@@H]1O
REMARK SMILES IDX 6 1 5 2 3 3 22 4 4 5 20 6 18 7 2 8 1 9 23 11 21 13 19 15
REMARK SMILES IDX 7 17 16 18 10 19 14 20 11 21 8 22 9 23 17 25 15 27 12 29
REMARK SMILES IDX 13 30
REMARK H PARENT 1 10 23 12 21 14 19 16 9 24 17 26 15 28 13 31
REMARK Flexibility Score: inf
ROOT
ATOM      1  O   UNL     1      18.100  28.484  45.274  1.00  0.00    -0.313 OA
ENDROOT
BRANCH   1   2
ATOM      2  C   UNL     1      17.904  29.281  46.435  1.00  0.00     0.285 C 
ATOM      3  C   UNL     1      15.779  28.374  47.137  1.00  0.00     0.178 C 
ATOM      4  C   UNL     1      15.271  28.948  45.761  1.00  0.00     0.177 C 
ATOM      5  O   UNL     1      17.176  28.538  47.399  1.00  0.00    -0.341 OA
ATOM      6  C   UNL     1      15.815  30.361  45.445  1.00  0.00     0.179 C 
ATOM      7  C   UNL     1      17.201  30.608  46.089  1.00  0.00     0.202 C 
BRANCH   3   8
ATOM      8  C   UNL     1      15.001  28.840  48.388  1.00  0.00     0.191 C 
BRANCH   8   9
ATOM      9  O   UNL     1      14.437  30.108  48.201  1.00  0.00    -0.394 OA
ATOM     10  H   UNL     1      14.511  30.305  47.230  1.00  0.00     0.210 HD
ENDBRANCH   8   9
ENDBRANCH   3   8
BRANCH   4  11
ATOM     11  O   UNL     1      13.876  28.888  45.557  1.00  0.00    -0.387 OA
ATOM     12  H   UNL     1      13.415  28.638  46.391  1.00  0.00     0.211 HD
ENDBRANCH   4  11
BRANCH   6  13
ATOM     13  O   UNL     1      14.902  31.356  45.842  1.00  0.00    -0.387 OA
ATOM     14  H   UNL     1      15.105  31.574  46.790  1.00  0.00     0.211 HD
ENDBRANCH   6  13
BRANCH   7  15
ATOM     15  O   UNL     1      17.085  31.373  47.265  1.00  0.00    -0.385 OA
ATOM     16  H   UNL     1      16.833  30.748  47.996  1.00  0.00     0.211 HD
ENDBRANCH   7  15
ENDBRANCH   1   2
BRANCH   1  17
ATOM     17  C   UNL     1      19.401  27.911  45.141  1.00  0.00     0.224 C 
ATOM     18  C   UNL     1      19.459  26.650  46.014  1.00  0.00     0.208 C 
ATOM     19  O   UNL     1      19.689  27.518  43.809  1.00  0.00    -0.337 OA
ATOM     20  C   UNL     1      20.417  25.746  45.271  1.00  0.00     0.180 C 
ATOM     21  C   UNL     1      20.360  26.275  43.834  1.00  0.00     0.179 C 
BRANCH  17  22
ATOM     22  C   UNL     1      20.457  28.938  45.619  1.00  0.00     0.225 C 
BRANCH  22  23
ATOM     23  O   UNL     1      20.802  29.814  44.583  1.00  0.00    -0.391 OA
ATOM     24  H   UNL     1      21.186  29.252  43.860  1.00  0.00     0.210 HD
ENDBRANCH  22  23
ENDBRANCH  17  22
BRANCH  18  25
ATOM     25  O   UNL     1      18.190  26.045  46.072  1.00  0.00    -0.385 OA
ATOM     26  H   UNL     1      18.283  25.232  46.635  1.00  0.00     0.211 HD
ENDBRANCH  18  25
BRANCH  20  27
ATOM     27  O   UNL     1      21.720  25.886  45.780  1.00  0.00    -0.387 OA
ATOM     28  H   UNL     1      22.239  25.102  45.459  1.00  0.00     0.211 HD
ENDBRANCH  20  27
BRANCH  21  29
ATOM     29  C   UNL     1      19.635  25.296  42.897  1.00  0.00     0.191 C 
BRANCH  29  30
ATOM     30  O   UNL     1      18.294  25.152  43.283  1.00  0.00    -0.394 OA
ATOM     31  H   UNL     1      18.294  24.611  44.116  1.00  0.00     0.210 HD
ENDBRANCH  29  30
ENDBRANCH  21  29
ENDBRANCH   1  17
TORSDOF 13
ENDMDL
MODEL 9
REMARK VINA RESULT:    -1.541      1.097      2.552
REMARK INTER + INTRA:          -3.611
REMARK INTER:                  -2.296
REMARK INTRA:                  -1.315
REMARK UNBOUND:                -1.259
REMARK SMILES OC[C@@H]1O[C@@H](O[C@]2(CO)O[C@H](CO)[C@@H](O)[C@@H]2O)[C@H](O)[C@H](O)[C@@H]1O
REMARK SMILES IDX 6 1 5 2 3 3 22 4 4 5 20 6 18 7 2 8 1 9 23 11 21 13 19 15
REMARK SMILES IDX 7 17 16 18 10 19 14 20 11 21 8 22 9 23 17 25 15 27 12 29
REMARK SMILES IDX 13 30
REMARK H PARENT 1 10 23 12 21 14 19 16 9 24 17 26 15 28 13 31
REMARK Flexibility Score: inf
ROOT
ATOM      1  O   UNL     1      17.362  28.515  45.522  1.00  0.00    -0.313 OA
ENDROOT
BRANCH   1   2
ATOM      2  C   UNL     1      17.856  27.332  46.137  1.00  0.00     0.285 C 
ATOM      3  C   UNL     1      20.112  27.400  45.282  1.00  0.00     0.178 C 
ATOM      4  C   UNL     1      19.406  27.254  43.882  1.00  0.00     0.177 C 
ATOM      5  O   UNL     1      19.239  27.486  46.411  1.00  0.00    -0.341 OA
ATOM      6  C   UNL     1      18.256  26.220  43.877  1.00  0.00     0.179 C 
ATOM      7  C   UNL     1      17.582  26.092  45.264  1.00  0.00     0.202 C 
BRANCH   3   8
ATOM      8  C   UNL     1      21.198  26.346  45.598  1.00  0.00     0.191 C 
BRANCH   8   9
ATOM      9  O   UNL     1      20.989  25.160  44.884  1.00  0.00    -0.394 OA
ATOM     10  H   UNL     1      21.761  24.570  45.090  1.00  0.00     0.210 HD
ENDBRANCH   8   9
ENDBRANCH   3   8
BRANCH   4  11
ATOM     11  O   UNL     1      20.269  27.053  42.784  1.00  0.00    -0.387 OA
ATOM     12  H   UNL     1      20.965  26.393  43.008  1.00  0.00     0.211 HD
ENDBRANCH   4  11
BRANCH   6  13
ATOM     13  O   UNL     1      18.706  24.964  43.430  1.00  0.00    -0.387 OA
ATOM     14  H   UNL     1      19.018  24.466  44.232  1.00  0.00     0.211 HD
ENDBRANCH   6  13
BRANCH   7  15
ATOM     15  O   UNL     1      18.042  24.952  45.950  1.00  0.00    -0.385 OA
ATOM     16  H   UNL     1      17.670  24.159  45.479  1.00  0.00     0.211 HD
ENDBRANCH   7  15
ENDBRANCH   1   2
BRANCH   1  17
ATOM     17  C   UNL     1      16.069  28.935  45.958  1.00  0.00     0.224 C 
ATOM     18  C   UNL     1      16.046  30.470  45.971  1.00  0.00     0.208 C 
ATOM     19  O   UNL     1      15.034  28.504  45.090  1.00  0.00    -0.337 OA
ATOM     20  C   UNL     1      14.606  30.808  45.652  1.00  0.00     0.180 C 
ATOM     21  C   UNL     1      14.099  29.552  44.936  1.00  0.00     0.179 C 
BRANCH  17  22
ATOM     22  C   UNL     1      15.813  28.388  47.384  1.00  0.00     0.225 C 
BRANCH  22  23
ATOM     23  O   UNL     1      16.073  29.371  48.347  1.00  0.00    -0.391 OA
ATOM     24  H   UNL     1      15.309  30.003  48.311  1.00  0.00     0.210 HD
ENDBRANCH  22  23
ENDBRANCH  17  22
BRANCH  18  25
ATOM     25  O   UNL     1      16.882  30.974  44.958  1.00  0.00    -0.385 OA
ATOM     26  H   UNL     1      16.859  30.319  44.212  1.00  0.00     0.211 HD
ENDBRANCH  18  25
BRANCH  20  27
ATOM     27  O   UNL     1      13.875  31.010  46.835  1.00  0.00    -0.387 OA
ATOM     28  H   UNL     1      14.510  31.375  47.506  1.00  0.00     0.211 HD
ENDBRANCH  20  27
BRANCH  21  29
ATOM     29  C   UNL     1      13.875  29.805  43.436  1.00  0.00     0.191 C 
BRANCH  29  30
ATOM     30  O   UNL     1      14.120  28.635  42.702  1.00  0.00    -0.394 OA
ATOM     31  H   UNL     1      13.903  27.872  43.300  1.00  0.00     0.210 HD
ENDBRANCH  29  30
ENDBRANCH  21  29
ENDBRANCH   1  17
TORSDOF 13
ENDMDL
