MODEL 1
REMARK VINA RESULT:    -5.096      0.000      0.000
REMARK INTER + INTRA:          -9.312
REMARK INTER:                  -7.628
REMARK INTRA:                  -1.684
REMARK UNBOUND:                -1.684
REMARK SMILES COc1ccc([C@H]2CC(=O)c3c(O)cc(O[C@H]4O[C@H](CO[C@H]5O[C@H](C)[C@@H](O)[C@@H](O)[C@@H]5O)[C@H](O)[C@@H](O)[C@@H]4O)cc3O2)cc1O
REMARK SMILES IDX 19 1 32 2 34 3 36 4 17 5 18 6 20 7 21 8 22 9 25 10 24 11
REMARK SMILES IDX 26 12 23 13 28 14 30 15 27 16 29 18 31 20 33 22 35 24 16 26
REMARK SMILES IDX 15 27 14 28 38 29 12 30 39 31 11 32 40 33 9 34 7 35 10 36
REMARK SMILES IDX 8 37 13 38 6 40 41 41 5 42 42 43 4 44 3 45 43 46 2 48 1 49
REMARK SMILES IDX 37 50
REMARK H PARENT 27 17 29 19 31 21 33 23 35 25 13 39 43 47 37 51
REMARK Flexibility Score: inf
ROOT
ATOM      1  C   UNL     1       7.379  -2.545  -2.901  1.00  0.00     0.180 C 
ATOM      2  C   UNL     1       6.750  -3.074  -1.548  1.00  0.00     0.177 C 
ATOM      3  C   UNL     1       5.488  -2.402  -1.247  1.00  0.00     0.180 C 
ATOM      4  C   UNL     1       4.897  -1.286  -2.252  1.00  0.00     0.214 C 
ATOM      5  C   UNL     1       5.692  -0.816  -3.683  1.00  0.00     0.339 C 
ATOM      6  O   UNL     1       6.563  -2.029  -4.041  1.00  0.00    -0.332 OA
ENDROOT
BRANCH   1   7
ATOM      7  C   UNL     1       8.674  -3.444  -3.192  1.00  0.00     0.198 C 
BRANCH   7   8
ATOM      8  O   UNL     1       8.427  -4.596  -4.030  1.00  0.00    -0.347 OA
BRANCH   8   9
ATOM      9  C   UNL     1       8.612  -5.914  -3.397  1.00  0.00     0.281 C 
ATOM     10  C   UNL     1       6.758  -9.006  -2.389  1.00  0.00     0.041 C 
ATOM     11  C   UNL     1       7.165  -7.969  -3.507  1.00  0.00     0.150 C 
ATOM     12  C   UNL     1       8.176  -8.677  -4.492  1.00  0.00     0.174 C 
ATOM     13  O   UNL     1       7.356  -6.596  -2.986  1.00  0.00    -0.344 OA
ATOM     14  C   UNL     1       9.327  -7.819  -4.887  1.00  0.00     0.179 C 
ATOM     15  C   UNL     1       9.750  -6.924  -3.760  1.00  0.00     0.202 C 
BRANCH  12  16
ATOM     16  O   UNL     1       7.535  -9.152  -5.646  1.00  0.00    -0.388 OA
ATOM     17  H   UNL     1       6.767  -8.426  -5.927  1.00  0.00     0.211 HD
ENDBRANCH  12  16
BRANCH  14  18
ATOM     18  O   UNL     1       9.018  -7.161  -6.074  1.00  0.00    -0.387 OA
ATOM     19  H   UNL     1       8.088  -7.432  -6.322  1.00  0.00     0.211 HD
ENDBRANCH  14  18
BRANCH  15  20
ATOM     20  O   UNL     1      10.125  -7.768  -2.619  1.00  0.00    -0.385 OA
ATOM     21  H   UNL     1      10.650  -7.302  -1.817  1.00  0.00     0.211 HD
ENDBRANCH  15  20
ENDBRANCH   8   9
ENDBRANCH   7   8
ENDBRANCH   1   7
BRANCH   2  22
ATOM     22  O   UNL     1       6.488  -4.494  -1.500  1.00  0.00    -0.387 OA
ATOM     23  H   UNL     1       6.151  -4.732  -0.615  1.00  0.00     0.211 HD
ENDBRANCH   2  22
BRANCH   3  24
ATOM     24  O   UNL     1       5.365  -2.306   0.190  1.00  0.00    -0.387 OA
ATOM     25  H   UNL     1       4.474  -2.346   0.676  1.00  0.00     0.211 HD
ENDBRANCH   3  24
BRANCH   5  26
ATOM     26  O   UNL     1       5.971   0.460  -4.504  1.00  0.00    -0.462 OA
BRANCH  26  27
ATOM     27  C   UNL     1       5.151   1.396  -5.528  1.00  0.00     0.130 A 
ATOM     28  C   UNL     1       4.507   3.029  -6.025  1.00  0.00     0.093 A 
ATOM     29  C   UNL     1       5.982   2.617  -5.675  1.00  0.00     0.094 A 
ATOM     30  C   UNL     1       5.159   4.701  -6.280  1.00  0.00     0.133 A 
ATOM     31  C   UNL     1       6.828   3.375  -7.068  1.00  0.00     0.138 A 
ATOM     32  C   UNL     1       6.876   4.563  -5.739  1.00  0.00     0.102 A 
ATOM     33  O   UNL     1       6.406   4.100  -8.328  1.00  0.00    -0.484 OA
ATOM     34  C   UNL     1       8.854   5.052  -5.418  1.00  0.00     0.174 C 
ATOM     35  C   UNL     1       7.527   3.149  -7.916  1.00  0.00     0.211 C 
ATOM     36  O   UNL     1       9.177   6.015  -4.069  1.00  0.00    -0.294 OA
ATOM     37  C   UNL     1       8.773   4.706  -8.210  1.00  0.00     0.131 C 
BRANCH  30  38
ATOM     38  O   UNL     1       4.334   3.892  -7.399  1.00  0.00    -0.507 OA
ATOM     39  H   UNL     1       3.894   2.964  -7.563  1.00  0.00     0.293 HD
ENDBRANCH  30  38
BRANCH  35  40
ATOM     40  C   UNL     1       6.911   0.947  -7.576  1.00  0.00    -0.003 A 
ATOM     41  C   UNL     1       5.856  -0.591  -7.734  1.00  0.00     0.057 A 
ATOM     42  C   UNL     1       8.039   0.011  -7.350  1.00  0.00     0.011 A 
ATOM     43  C   UNL     1       6.728  -2.404  -8.551  1.00  0.00     0.158 A 
ATOM     44  C   UNL     1       8.572  -1.674  -7.452  1.00  0.00     0.051 A 
ATOM     45  C   UNL     1       7.630  -3.120  -7.320  1.00  0.00     0.160 A 
BRANCH  43  46
ATOM     46  O   UNL     1       5.040  -2.655  -9.752  1.00  0.00    -0.504 OA
ATOM     47  H   UNL     1       5.911  -2.511  -9.145  1.00  0.00     0.293 HD
ENDBRANCH  43  46
BRANCH  45  48
ATOM     48  O   UNL     1       7.915  -4.748  -7.152  1.00  0.00    -0.493 OA
ATOM     49  C   UNL     1       6.391  -5.252  -7.125  1.00  0.00     0.278 C 
ENDBRANCH  45  48
ENDBRANCH  35  40
ENDBRANCH  26  27
ENDBRANCH   5  26
BRANCH   4  50
ATOM     50  O   UNL     1       3.630  -1.788  -2.632  1.00  0.00    -0.384 OA
ATOM     51  H   UNL     1       3.374  -2.427  -1.822  1.00  0.00     0.211 HD
ENDBRANCH   4  50
TORSDOF 15
ENDMDL
MODEL 2
REMARK VINA RESULT:    -4.628      1.756      5.137
REMARK INTER + INTRA:          -8.612
REMARK INTER:                  -7.103
REMARK INTRA:                  -1.509
REMARK UNBOUND:                -1.684
REMARK SMILES COc1ccc([C@H]2CC(=O)c3c(O)cc(O[C@H]4O[C@H](CO[C@H]5O[C@H](C)[C@@H](O)[C@@H](O)[C@@H]5O)[C@H](O)[C@@H](O)[C@@H]4O)cc3O2)cc1O
REMARK SMILES IDX 19 1 32 2 34 3 36 4 17 5 18 6 20 7 21 8 22 9 25 10 24 11
REMARK SMILES IDX 26 12 23 13 28 14 30 15 27 16 29 18 31 20 33 22 35 24 16 26
REMARK SMILES IDX 15 27 14 28 38 29 12 30 39 31 11 32 40 33 9 34 7 35 10 36
REMARK SMILES IDX 8 37 13 38 6 40 41 41 5 42 42 43 4 44 3 45 43 46 2 48 1 49
REMARK SMILES IDX 37 50
REMARK H PARENT 27 17 29 19 31 21 33 23 35 25 13 39 43 47 37 51
REMARK Flexibility Score: inf
ROOT
ATOM      1  C   UNL     1       7.916  -3.117  -3.109  1.00  0.00     0.180 C 
ATOM      2  C   UNL     1       6.839  -3.314  -1.966  1.00  0.00     0.177 C 
ATOM      3  C   UNL     1       5.907  -2.190  -1.910  1.00  0.00     0.180 C 
ATOM      4  C   UNL     1       6.046  -0.961  -2.946  1.00  0.00     0.214 C 
ATOM      5  C   UNL     1       7.266  -0.886  -4.133  1.00  0.00     0.339 C 
ATOM      6  O   UNL     1       7.651  -2.354  -4.365  1.00  0.00    -0.332 OA
ENDROOT
BRANCH   1   7
ATOM      7  C   UNL     1       8.786  -4.462  -3.162  1.00  0.00     0.198 C 
BRANCH   7   8
ATOM      8  O   UNL     1       8.535  -5.291  -4.320  1.00  0.00    -0.347 OA
BRANCH   8   9
ATOM      9  C   UNL     1       8.691  -6.744  -4.126  1.00  0.00     0.281 C 
ATOM     10  C   UNL     1       7.051 -10.026  -4.869  1.00  0.00     0.041 C 
ATOM     11  C   UNL     1       7.642  -8.656  -5.381  1.00  0.00     0.150 C 
ATOM     12  C   UNL     1       8.994  -8.952  -6.140  1.00  0.00     0.174 C 
ATOM     13  O   UNL     1       7.474  -7.549  -4.411  1.00  0.00    -0.344 OA
ATOM     14  C   UNL     1      10.084  -7.990  -5.820  1.00  0.00     0.179 C 
ATOM     15  C   UNL     1      10.011  -7.541  -4.391  1.00  0.00     0.202 C 
BRANCH  12  16
ATOM     16  O   UNL     1       8.814  -9.003  -7.530  1.00  0.00    -0.388 OA
ATOM     17  H   UNL     1       9.006  -8.004  -7.930  1.00  0.00     0.211 HD
ENDBRANCH  12  16
BRANCH  14  18
ATOM     18  O   UNL     1      10.073  -6.962  -6.759  1.00  0.00    -0.387 OA
ATOM     19  H   UNL     1      10.353  -7.364  -7.631  1.00  0.00     0.211 HD
ENDBRANCH  14  18
BRANCH  15  20
ATOM     20  O   UNL     1      10.123  -8.725  -3.531  1.00  0.00    -0.385 OA
ATOM     21  H   UNL     1       9.263  -9.348  -3.439  1.00  0.00     0.211 HD
ENDBRANCH  15  20
ENDBRANCH   8   9
ENDBRANCH   7   8
ENDBRANCH   1   7
BRANCH   2  22
ATOM     22  O   UNL     1       6.040  -4.513  -2.068  1.00  0.00    -0.387 OA
ATOM     23  H   UNL     1       6.627  -5.293  -2.088  1.00  0.00     0.211 HD
ENDBRANCH   2  22
BRANCH   3  24
ATOM     24  O   UNL     1       5.506  -2.011  -0.532  1.00  0.00    -0.387 OA
ATOM     25  H   UNL     1       6.043  -1.467   0.137  1.00  0.00     0.211 HD
ENDBRANCH   3  24
BRANCH   5  26
ATOM     26  O   UNL     1       8.200   0.152  -4.789  1.00  0.00    -0.462 OA
BRANCH  26  27
ATOM     27  C   UNL     1       8.990   0.299  -6.186  1.00  0.00     0.130 A 
ATOM     28  C   UNL     1      10.009  -0.412  -7.520  1.00  0.00     0.093 A 
ATOM     29  C   UNL     1       8.636  -0.921  -6.952  1.00  0.00     0.094 A 
ATOM     30  C   UNL     1       9.946  -1.843  -8.632  1.00  0.00     0.133 A 
ATOM     31  C   UNL     1       7.771  -1.196  -8.504  1.00  0.00     0.138 A 
ATOM     32  C   UNL     1       8.503  -2.756  -8.048  1.00  0.00     0.102 A 
ATOM     33  O   UNL     1       8.067  -0.950  -9.968  1.00  0.00    -0.484 OA
ATOM     34  C   UNL     1       6.987  -4.154  -7.985  1.00  0.00     0.174 C 
ATOM     35  C   UNL     1       6.838  -0.925  -9.064  1.00  0.00     0.211 C 
ATOM     36  O   UNL     1       7.398  -5.676  -7.379  1.00  0.00    -0.294 OA
ATOM     37  C   UNL     1       6.190  -2.511 -10.125  1.00  0.00     0.131 C 
BRANCH  30  38
ATOM     38  O   UNL     1      10.100  -0.326  -9.147  1.00  0.00    -0.507 OA
ATOM     39  H   UNL     1      10.821   0.337  -9.496  1.00  0.00     0.293 HD
ENDBRANCH  30  38
BRANCH  35  40
ATOM     40  C   UNL     1       6.705   0.850  -7.588  1.00  0.00    -0.003 A 
ATOM     41  C   UNL     1       6.963   2.596  -6.966  1.00  0.00     0.057 A 
ATOM     42  C   UNL     1       5.529   0.824  -6.685  1.00  0.00     0.011 A 
ATOM     43  C   UNL     1       5.242   3.797  -6.411  1.00  0.00     0.158 A 
ATOM     44  C   UNL     1       4.440   1.803  -5.689  1.00  0.00     0.051 A 
ATOM     45  C   UNL     1       4.761   3.295  -4.874  1.00  0.00     0.160 A 
BRANCH  43  46
ATOM     46  O   UNL     1       6.042   5.406  -7.471  1.00  0.00    -0.504 OA
ATOM     47  H   UNL     1       5.638   4.568  -6.939  1.00  0.00     0.293 HD
ENDBRANCH  43  46
BRANCH  45  48
ATOM     48  O   UNL     1       4.013   4.247  -3.736  1.00  0.00    -0.493 OA
ATOM     49  C   UNL     1       2.530   3.649  -3.866  1.00  0.00     0.278 C 
ENDBRANCH  45  48
ENDBRANCH  35  40
ENDBRANCH  26  27
ENDBRANCH   5  26
BRANCH   4  50
ATOM     50  O   UNL     1       4.807  -0.934  -3.629  1.00  0.00    -0.384 OA
ATOM     51  H   UNL     1       5.007  -1.496  -4.508  1.00  0.00     0.211 HD
ENDBRANCH   4  50
TORSDOF 15
ENDMDL
MODEL 3
REMARK VINA RESULT:    -4.593      1.863      9.022
REMARK INTER + INTRA:          -8.559
REMARK INTER:                  -6.924
REMARK INTRA:                  -1.635
REMARK UNBOUND:                -1.684
REMARK SMILES COc1ccc([C@H]2CC(=O)c3c(O)cc(O[C@H]4O[C@H](CO[C@H]5O[C@H](C)[C@@H](O)[C@@H](O)[C@@H]5O)[C@H](O)[C@@H](O)[C@@H]4O)cc3O2)cc1O
REMARK SMILES IDX 19 1 32 2 34 3 36 4 17 5 18 6 20 7 21 8 22 9 25 10 24 11
REMARK SMILES IDX 26 12 23 13 28 14 30 15 27 16 29 18 31 20 33 22 35 24 16 26
REMARK SMILES IDX 15 27 14 28 38 29 12 30 39 31 11 32 40 33 9 34 7 35 10 36
REMARK SMILES IDX 8 37 13 38 6 40 41 41 5 42 42 43 4 44 3 45 43 46 2 48 1 49
REMARK SMILES IDX 37 50
REMARK H PARENT 27 17 29 19 31 21 33 23 35 25 13 39 43 47 37 51
REMARK Flexibility Score: inf
ROOT
ATOM      1  C   UNL     1       5.890  -0.079  -6.105  1.00  0.00     0.180 C 
ATOM      2  C   UNL     1       5.754  -0.083  -7.682  1.00  0.00     0.177 C 
ATOM      3  C   UNL     1       6.380  -1.265  -8.269  1.00  0.00     0.180 C 
ATOM      4  C   UNL     1       7.079  -2.372  -7.326  1.00  0.00     0.214 C 
ATOM      5  C   UNL     1       7.148  -2.232  -5.630  1.00  0.00     0.339 C 
ATOM      6  O   UNL     1       5.960  -1.324  -5.282  1.00  0.00    -0.332 OA
ENDROOT
BRANCH   1   7
ATOM      7  C   UNL     1       5.054   1.182  -5.571  1.00  0.00     0.198 C 
BRANCH   7   8
ATOM      8  O   UNL     1       4.646   2.109  -6.603  1.00  0.00    -0.347 OA
BRANCH   8   9
ATOM      9  C   UNL     1       5.008   3.521  -6.390  1.00  0.00     0.281 C 
ATOM     10  C   UNL     1       6.116   5.932  -3.750  1.00  0.00     0.041 C 
ATOM     11  C   UNL     1       6.334   4.580  -4.532  1.00  0.00     0.150 C 
ATOM     12  C   UNL     1       7.591   4.749  -5.472  1.00  0.00     0.174 C 
ATOM     13  O   UNL     1       5.067   3.947  -4.967  1.00  0.00    -0.344 OA
ATOM     14  C   UNL     1       7.403   4.176  -6.833  1.00  0.00     0.179 C 
ATOM     15  C   UNL     1       5.986   4.336  -7.299  1.00  0.00     0.202 C 
BRANCH  12  16
ATOM     16  O   UNL     1       8.751   4.207  -4.897  1.00  0.00    -0.388 OA
ATOM     17  H   UNL     1       9.426   3.924  -5.708  1.00  0.00     0.211 HD
ENDBRANCH  12  16
BRANCH  14  18
ATOM     18  O   UNL     1       7.882   2.869  -6.846  1.00  0.00    -0.387 OA
ATOM     19  H   UNL     1       7.398   2.391  -7.579  1.00  0.00     0.211 HD
ENDBRANCH  14  18
BRANCH  15  20
ATOM     20  O   UNL     1       5.666   5.768  -7.312  1.00  0.00    -0.385 OA
ATOM     21  H   UNL     1       6.333   6.414  -7.836  1.00  0.00     0.211 HD
ENDBRANCH  15  20
ENDBRANCH   8   9
ENDBRANCH   7   8
ENDBRANCH   1   7
BRANCH   2  22
ATOM     22  O   UNL     1       4.402  -0.032  -8.188  1.00  0.00    -0.387 OA
ATOM     23  H   UNL     1       3.960  -0.887  -8.018  1.00  0.00     0.211 HD
ENDBRANCH   2  22
BRANCH   3  24
ATOM     24  O   UNL     1       6.904  -0.896  -9.565  1.00  0.00    -0.387 OA
ATOM     25  H   UNL     1       7.175  -1.575 -10.270  1.00  0.00     0.211 HD
ENDBRANCH   3  24
BRANCH   5  26
ATOM     26  O   UNL     1       8.127  -2.510  -4.470  1.00  0.00    -0.462 OA
BRANCH  26  27
ATOM     27  C   UNL     1       8.014  -2.895  -2.909  1.00  0.00     0.130 A 
ATOM     28  C   UNL     1       7.394  -2.557  -1.228  1.00  0.00     0.093 A 
ATOM     29  C   UNL     1       6.586  -2.683  -2.568  1.00  0.00     0.094 A 
ATOM     30  C   UNL     1       5.799  -2.225  -0.432  1.00  0.00     0.133 A 
ATOM     31  C   UNL     1       5.274  -3.778  -2.008  1.00  0.00     0.138 A 
ATOM     32  C   UNL     1       4.658  -2.115  -1.827  1.00  0.00     0.102 A 
ATOM     33  O   UNL     1       4.964  -4.533  -0.733  1.00  0.00    -0.484 OA
ATOM     34  C   UNL     1       2.889  -1.994  -2.881  1.00  0.00     0.174 C 
ATOM     35  C   UNL     1       4.776  -4.757  -2.231  1.00  0.00     0.211 C 
ATOM     36  O   UNL     1       2.209  -0.455  -3.028  1.00  0.00    -0.294 OA
ATOM     37  C   UNL     1       2.798  -4.617  -1.867  1.00  0.00     0.131 C 
BRANCH  30  38
ATOM     38  O   UNL     1       6.792  -3.404   0.031  1.00  0.00    -0.507 OA
ATOM     39  H   UNL     1       7.208  -4.291  -0.317  1.00  0.00     0.293 HD
ENDBRANCH  30  38
BRANCH  35  40
ATOM     40  C   UNL     1       6.693  -5.235  -3.431  1.00  0.00    -0.003 A 
ATOM     41  C   UNL     1       8.454  -5.804  -3.709  1.00  0.00     0.057 A 
ATOM     42  C   UNL     1       6.465  -5.624  -4.843  1.00  0.00     0.011 A 
ATOM     43  C   UNL     1       8.843  -7.436  -5.088  1.00  0.00     0.158 A 
ATOM     44  C   UNL     1       7.124  -6.501  -6.234  1.00  0.00     0.051 A 
ATOM     45  C   UNL     1       8.778  -6.795  -6.647  1.00  0.00     0.160 A 
BRANCH  43  46
ATOM     46  O   UNL     1      10.125  -8.295  -3.684  1.00  0.00    -0.504 OA
ATOM     47  H   UNL     1       9.472  -7.866  -4.418  1.00  0.00     0.293 HD
ENDBRANCH  43  46
BRANCH  45  48
ATOM     48  O   UNL     1       9.624  -7.361  -7.960  1.00  0.00    -0.493 OA
ATOM     49  C   UNL     1       9.652  -6.009  -8.824  1.00  0.00     0.278 C 
ENDBRANCH  45  48
ENDBRANCH  35  40
ENDBRANCH  26  27
ENDBRANCH   5  26
BRANCH   4  50
ATOM     50  O   UNL     1       6.381  -3.570  -7.612  1.00  0.00    -0.384 OA
ATOM     51  H   UNL     1       5.506  -3.484  -7.015  1.00  0.00     0.211 HD
ENDBRANCH   4  50
TORSDOF 15
ENDMDL
MODEL 4
REMARK VINA RESULT:    -4.415      1.980      9.248
REMARK INTER + INTRA:          -8.293
REMARK INTER:                  -6.523
REMARK INTRA:                  -1.770
REMARK UNBOUND:                -1.684
REMARK SMILES COc1ccc([C@H]2CC(=O)c3c(O)cc(O[C@H]4O[C@H](CO[C@H]5O[C@H](C)[C@@H](O)[C@@H](O)[C@@H]5O)[C@H](O)[C@@H](O)[C@@H]4O)cc3O2)cc1O
REMARK SMILES IDX 19 1 32 2 34 3 36 4 17 5 18 6 20 7 21 8 22 9 25 10 24 11
REMARK SMILES IDX 26 12 23 13 28 14 30 15 27 16 29 18 31 20 33 22 35 24 16 26
REMARK SMILES IDX 15 27 14 28 38 29 12 30 39 31 11 32 40 33 9 34 7 35 10 36
REMARK SMILES IDX 8 37 13 38 6 40 41 41 5 42 42 43 4 44 3 45 43 46 2 48 1 49
REMARK SMILES IDX 37 50
REMARK H PARENT 27 17 29 19 31 21 33 23 35 25 13 39 43 47 37 51
REMARK Flexibility Score: inf
ROOT
ATOM      1  C   UNL     1       8.472   0.607  -6.583  1.00  0.00     0.180 C 
ATOM      2  C   UNL     1       8.160   0.861  -8.114  1.00  0.00     0.177 C 
ATOM      3  C   UNL     1       7.376  -0.230  -8.687  1.00  0.00     0.180 C 
ATOM      4  C   UNL     1       6.927  -1.482  -7.772  1.00  0.00     0.214 C 
ATOM      5  C   UNL     1       7.340  -1.619  -6.126  1.00  0.00     0.339 C 
ATOM      6  O   UNL     1       7.573  -0.169  -5.678  1.00  0.00    -0.332 OA
ENDROOT
BRANCH   1   7
ATOM      7  C   UNL     1       9.210   1.922  -6.036  1.00  0.00     0.198 C 
BRANCH   7   8
ATOM      8  O   UNL     1       8.521   2.587  -4.953  1.00  0.00    -0.347 OA
BRANCH   8   9
ATOM      9  C   UNL     1       8.133   3.989  -5.191  1.00  0.00     0.281 C 
ATOM     10  C   UNL     1       8.314   6.723  -7.741  1.00  0.00     0.041 C 
ATOM     11  C   UNL     1       7.903   5.249  -7.357  1.00  0.00     0.150 C 
ATOM     12  C   UNL     1       6.328   5.180  -7.276  1.00  0.00     0.174 C 
ATOM     13  O   UNL     1       8.802   4.638  -6.350  1.00  0.00    -0.344 OA
ATOM     14  C   UNL     1       5.821   4.405  -6.110  1.00  0.00     0.179 C 
ATOM     15  C   UNL     1       6.711   4.578  -4.915  1.00  0.00     0.202 C 
BRANCH  12  16
ATOM     16  O   UNL     1       5.766   4.665  -8.454  1.00  0.00    -0.388 OA
ATOM     17  H   UNL     1       6.129   5.269  -9.290  1.00  0.00     0.211 HD
ENDBRANCH  12  16
BRANCH  14  18
ATOM     18  O   UNL     1       5.610   3.085  -6.499  1.00  0.00    -0.387 OA
ATOM     19  H   UNL     1       5.620   3.073  -7.498  1.00  0.00     0.211 HD
ENDBRANCH  14  18
BRANCH  15  20
ATOM     20  O   UNL     1       6.759   6.006  -4.581  1.00  0.00    -0.385 OA
ATOM     21  H   UNL     1       5.905   6.426  -4.098  1.00  0.00     0.211 HD
ENDBRANCH  15  20
ENDBRANCH   8   9
ENDBRANCH   7   8
ENDBRANCH   1   7
BRANCH   2  22
ATOM     22  O   UNL     1       7.449   2.084  -8.406  1.00  0.00    -0.387 OA
ATOM     23  H   UNL     1       6.643   1.876  -8.918  1.00  0.00     0.211 HD
ENDBRANCH   2  22
BRANCH   3  24
ATOM     24  O   UNL     1       7.755  -0.371 -10.075  1.00  0.00    -0.387 OA
ATOM     25  H   UNL     1       8.439   0.229 -10.528  1.00  0.00     0.211 HD
ENDBRANCH   3  24
BRANCH   5  26
ATOM     26  O   UNL     1       7.771  -2.699  -5.112  1.00  0.00    -0.462 OA
BRANCH  26  27
ATOM     27  C   UNL     1       7.881  -2.824  -3.509  1.00  0.00     0.130 A 
ATOM     28  C   UNL     1       7.406  -2.280  -1.834  1.00  0.00     0.093 A 
ATOM     29  C   UNL     1       6.482  -2.724  -3.024  1.00  0.00     0.094 A 
ATOM     30  C   UNL     1       5.875  -2.005  -0.902  1.00  0.00     0.133 A 
ATOM     31  C   UNL     1       5.399  -3.853  -2.137  1.00  0.00     0.138 A 
ATOM     32  C   UNL     1       4.586  -2.266  -2.138  1.00  0.00     0.102 A 
ATOM     33  O   UNL     1       5.333  -4.412  -0.732  1.00  0.00    -0.484 OA
ATOM     34  C   UNL     1       2.714  -2.532  -2.962  1.00  0.00     0.174 C 
ATOM     35  C   UNL     1       5.017  -4.907  -2.141  1.00  0.00     0.211 C 
ATOM     36  O   UNL     1       1.820  -1.130  -3.257  1.00  0.00    -0.294 OA
ATOM     37  C   UNL     1       3.089  -4.938  -1.552  1.00  0.00     0.131 C 
BRANCH  30  38
ATOM     38  O   UNL     1       7.062  -2.965  -0.393  1.00  0.00    -0.507 OA
ATOM     39  H   UNL     1       8.071  -3.154  -0.556  1.00  0.00     0.293 HD
ENDBRANCH  30  38
BRANCH  35  40
ATOM     40  C   UNL     1       6.841  -5.356  -3.489  1.00  0.00    -0.003 A 
ATOM     41  C   UNL     1       8.558  -5.964  -3.917  1.00  0.00     0.057 A 
ATOM     42  C   UNL     1       6.515  -5.623  -4.910  1.00  0.00     0.011 A 
ATOM     43  C   UNL     1       8.800  -7.493  -5.439  1.00  0.00     0.158 A 
ATOM     44  C   UNL     1       7.057  -6.408  -6.402  1.00  0.00     0.051 A 
ATOM     45  C   UNL     1       8.671  -6.727  -6.937  1.00  0.00     0.160 A 
BRANCH  43  46
ATOM     46  O   UNL     1      10.124  -8.508  -4.187  1.00  0.00    -0.504 OA
ATOM     47  H   UNL     1       9.434  -7.982  -4.816  1.00  0.00     0.293 HD
ENDBRANCH  43  46
BRANCH  45  48
ATOM     48  O   UNL     1       9.416  -7.217  -8.339  1.00  0.00    -0.493 OA
ATOM     49  C   UNL     1       9.389  -5.816  -9.121  1.00  0.00     0.278 C 
ENDBRANCH  45  48
ENDBRANCH  35  40
ENDBRANCH  26  27
ENDBRANCH   5  26
BRANCH   4  50
ATOM     50  O   UNL     1       5.513  -1.480  -7.843  1.00  0.00    -0.384 OA
ATOM     51  H   UNL     1       5.258  -0.512  -7.488  1.00  0.00     0.211 HD
ENDBRANCH   4  50
TORSDOF 15
ENDMDL
MODEL 5
REMARK VINA RESULT:    -4.372      1.745      9.624
REMARK INTER + INTRA:          -8.229
REMARK INTER:                  -6.474
REMARK INTRA:                  -1.755
REMARK UNBOUND:                -1.684
REMARK SMILES COc1ccc([C@H]2CC(=O)c3c(O)cc(O[C@H]4O[C@H](CO[C@H]5O[C@H](C)[C@@H](O)[C@@H](O)[C@@H]5O)[C@H](O)[C@@H](O)[C@@H]4O)cc3O2)cc1O
REMARK SMILES IDX 19 1 32 2 34 3 36 4 17 5 18 6 20 7 21 8 22 9 25 10 24 11
REMARK SMILES IDX 26 12 23 13 28 14 30 15 27 16 29 18 31 20 33 22 35 24 16 26
REMARK SMILES IDX 15 27 14 28 38 29 12 30 39 31 11 32 40 33 9 34 7 35 10 36
REMARK SMILES IDX 8 37 13 38 6 40 41 41 5 42 42 43 4 44 3 45 43 46 2 48 1 49
REMARK SMILES IDX 37 50
REMARK H PARENT 27 17 29 19 31 21 33 23 35 25 13 39 43 47 37 51
REMARK Flexibility Score: inf
ROOT
ATOM      1  C   UNL     1       5.963  -0.388  -4.881  1.00  0.00     0.180 C 
ATOM      2  C   UNL     1       4.739   0.318  -4.168  1.00  0.00     0.177 C 
ATOM      3  C   UNL     1       4.260  -0.465  -3.031  1.00  0.00     0.180 C 
ATOM      4  C   UNL     1       4.978  -1.855  -2.635  1.00  0.00     0.214 C 
ATOM      5  C   UNL     1       6.296  -2.494  -3.503  1.00  0.00     0.339 C 
ATOM      6  O   UNL     1       6.937  -1.267  -4.167  1.00  0.00    -0.332 OA
ENDROOT
BRANCH   1   7
ATOM      7  C   UNL     1       6.484   0.621  -6.014  1.00  0.00     0.198 C 
BRANCH   7   8
ATOM      8  O   UNL     1       7.191   1.775  -5.508  1.00  0.00    -0.347 OA
BRANCH   8   9
ATOM      9  C   UNL     1       7.238   2.951  -6.394  1.00  0.00     0.281 C 
ATOM     10  C   UNL     1       6.367   4.095  -9.850  1.00  0.00     0.041 C 
ATOM     11  C   UNL     1       5.925   3.445  -8.483  1.00  0.00     0.150 C 
ATOM     12  C   UNL     1       5.016   4.482  -7.714  1.00  0.00     0.174 C 
ATOM     13  O   UNL     1       7.002   2.663  -7.834  1.00  0.00    -0.344 OA
ATOM     14  C   UNL     1       5.314   4.576  -6.258  1.00  0.00     0.179 C 
ATOM     15  C   UNL     1       6.778   4.390  -5.989  1.00  0.00     0.202 C 
BRANCH  12  16
ATOM     16  O   UNL     1       3.650   4.213  -7.891  1.00  0.00    -0.388 OA
ATOM     17  H   UNL     1       3.128   4.516  -6.980  1.00  0.00     0.211 HD
ENDBRANCH  12  16
BRANCH  14  18
ATOM     18  O   UNL     1       4.475   3.706  -5.566  1.00  0.00    -0.387 OA
ATOM     19  H   UNL     1       5.023   2.904  -5.327  1.00  0.00     0.211 HD
ENDBRANCH  14  18
BRANCH  15  20
ATOM     20  O   UNL     1       7.513   5.431  -6.716  1.00  0.00    -0.385 OA
ATOM     21  H   UNL     1       8.260   5.112  -7.407  1.00  0.00     0.211 HD
ENDBRANCH  15  20
ENDBRANCH   8   9
ENDBRANCH   7   8
ENDBRANCH   1   7
BRANCH   2  22
ATOM     22  O   UNL     1       4.994   1.652  -3.677  1.00  0.00    -0.387 OA
ATOM     23  H   UNL     1       4.911   1.662  -2.704  1.00  0.00     0.211 HD
ENDBRANCH   2  22
BRANCH   3  24
ATOM     24  O   UNL     1       2.833  -0.260  -2.918  1.00  0.00    -0.387 OA
ATOM     25  H   UNL     1       2.204  -0.943  -2.507  1.00  0.00     0.211 HD
ENDBRANCH   3  24
BRANCH   5  26
ATOM     26  O   UNL     1       6.828  -3.859  -3.991  1.00  0.00    -0.462 OA
BRANCH  26  27
ATOM     27  C   UNL     1       8.165  -4.735  -3.787  1.00  0.00     0.130 A 
ATOM     28  C   UNL     1       9.156  -5.925  -2.823  1.00  0.00     0.093 A 
ATOM     29  C   UNL     1       7.681  -6.067  -3.346  1.00  0.00     0.094 A 
ATOM     30  C   UNL     1       8.933  -7.571  -2.096  1.00  0.00     0.133 A 
ATOM     31  C   UNL     1       7.788  -7.716  -4.054  1.00  0.00     0.138 A 
ATOM     32  C   UNL     1       7.186  -7.918  -2.388  1.00  0.00     0.102 A 
ATOM     33  O   UNL     1       8.890  -8.730  -4.279  1.00  0.00    -0.484 OA
ATOM     34  C   UNL     1       5.406  -8.955  -2.496  1.00  0.00     0.174 C 
ATOM     35  C   UNL     1       7.619  -8.291  -5.002  1.00  0.00     0.211 C 
ATOM     36  O   UNL     1       4.535  -9.098  -1.056  1.00  0.00    -0.294 OA
ATOM     37  C   UNL     1       6.901 -10.125  -4.572  1.00  0.00     0.131 C 
BRANCH  30  38
ATOM     38  O   UNL     1      10.124  -7.207  -3.115  1.00  0.00    -0.507 OA
ATOM     39  H   UNL     1      10.329  -7.167  -4.133  1.00  0.00     0.293 HD
ENDBRANCH  30  38
BRANCH  35  40
ATOM     40  C   UNL     1       7.706  -6.225  -6.037  1.00  0.00    -0.003 A 
ATOM     41  C   UNL     1       8.500  -4.738  -6.849  1.00  0.00     0.057 A 
ATOM     42  C   UNL     1       6.503  -5.873  -6.829  1.00  0.00     0.011 A 
ATOM     43  C   UNL     1       7.917  -4.184  -8.865  1.00  0.00     0.158 A 
ATOM     44  C   UNL     1       5.880  -4.894  -8.167  1.00  0.00     0.051 A 
ATOM     45  C   UNL     1       6.446  -3.367  -8.751  1.00  0.00     0.160 A 
BRANCH  43  46
ATOM     46  O   UNL     1       9.928  -3.946  -9.364  1.00  0.00    -0.504 OA
ATOM     47  H   UNL     1       8.890  -4.064  -9.125  1.00  0.00     0.293 HD
ENDBRANCH  43  46
BRANCH  45  48
ATOM     48  O   UNL     1       5.913  -2.187  -9.791  1.00  0.00    -0.493 OA
ATOM     49  C   UNL     1       5.337  -1.157  -8.705  1.00  0.00     0.278 C 
ENDBRANCH  45  48
ENDBRANCH  35  40
ENDBRANCH  26  27
ENDBRANCH   5  26
BRANCH   4  50
ATOM     50  O   UNL     1       5.419  -1.658  -1.305  1.00  0.00    -0.384 OA
ATOM     51  H   UNL     1       4.564  -1.241  -0.830  1.00  0.00     0.211 HD
ENDBRANCH   4  50
TORSDOF 15
ENDMDL
MODEL 6
REMARK VINA RESULT:    -4.240      1.932      5.488
REMARK INTER + INTRA:          -8.032
REMARK INTER:                  -6.328
REMARK INTRA:                  -1.703
REMARK UNBOUND:                -1.684
REMARK SMILES COc1ccc([C@H]2CC(=O)c3c(O)cc(O[C@H]4O[C@H](CO[C@H]5O[C@H](C)[C@@H](O)[C@@H](O)[C@@H]5O)[C@H](O)[C@@H](O)[C@@H]4O)cc3O2)cc1O
REMARK SMILES IDX 19 1 32 2 34 3 36 4 17 5 18 6 20 7 21 8 22 9 25 10 24 11
REMARK SMILES IDX 26 12 23 13 28 14 30 15 27 16 29 18 31 20 33 22 35 24 16 26
REMARK SMILES IDX 15 27 14 28 38 29 12 30 39 31 11 32 40 33 9 34 7 35 10 36
REMARK SMILES IDX 8 37 13 38 6 40 41 41 5 42 42 43 4 44 3 45 43 46 2 48 1 49
REMARK SMILES IDX 37 50
REMARK H PARENT 27 17 29 19 31 21 33 23 35 25 13 39 43 47 37 51
REMARK Flexibility Score: inf
ROOT
ATOM      1  C   UNL     1       6.450  -2.074  -3.149  1.00  0.00     0.180 C 
ATOM      2  C   UNL     1       5.165  -1.614  -2.349  1.00  0.00     0.177 C 
ATOM      3  C   UNL     1       4.580  -0.406  -2.926  1.00  0.00     0.180 C 
ATOM      4  C   UNL     1       5.240   0.278  -4.229  1.00  0.00     0.214 C 
ATOM      5  C   UNL     1       6.635  -0.335  -4.990  1.00  0.00     0.339 C 
ATOM      6  O   UNL     1       6.644  -1.822  -4.609  1.00  0.00    -0.332 OA
ENDROOT
BRANCH   1   7
ATOM      7  C   UNL     1       6.917  -3.470  -2.514  1.00  0.00     0.198 C 
BRANCH   7   8
ATOM      8  O   UNL     1       7.456  -4.412  -3.469  1.00  0.00    -0.347 OA
BRANCH   8   9
ATOM      9  C   UNL     1       7.938  -5.692  -2.920  1.00  0.00     0.281 C 
ATOM     10  C   UNL     1       7.006  -9.298  -2.547  1.00  0.00     0.041 C 
ATOM     11  C   UNL     1       7.244  -8.045  -3.476  1.00  0.00     0.150 C 
ATOM     12  C   UNL     1       8.569  -8.285  -4.300  1.00  0.00     0.174 C 
ATOM     13  O   UNL     1       6.909  -6.761  -2.819  1.00  0.00    -0.344 OA
ATOM     14  C   UNL     1       9.443  -7.083  -4.391  1.00  0.00     0.179 C 
ATOM     15  C   UNL     1       9.377  -6.266  -3.135  1.00  0.00     0.202 C 
BRANCH  12  16
ATOM     16  O   UNL     1       8.304  -8.764  -5.591  1.00  0.00    -0.388 OA
ATOM     17  H   UNL     1       7.220  -8.755  -5.736  1.00  0.00     0.211 HD
ENDBRANCH  12  16
BRANCH  14  18
ATOM     18  O   UNL     1       9.139  -6.389  -5.559  1.00  0.00    -0.387 OA
ATOM     19  H   UNL     1       8.601  -5.591  -5.290  1.00  0.00     0.211 HD
ENDBRANCH  14  18
BRANCH  15  20
ATOM     20  O   UNL     1       9.809  -7.111  -2.015  1.00  0.00    -0.385 OA
ATOM     21  H   UNL     1       9.612  -6.756  -1.029  1.00  0.00     0.211 HD
ENDBRANCH  15  20
ENDBRANCH   8   9
ENDBRANCH   7   8
ENDBRANCH   1   7
BRANCH   2  22
ATOM     22  O   UNL     1       4.105  -2.592  -2.264  1.00  0.00    -0.387 OA
ATOM     23  H   UNL     1       4.296  -3.216  -1.538  1.00  0.00     0.211 HD
ENDBRANCH   2  22
BRANCH   3  24
ATOM     24  O   UNL     1       3.991   0.361  -1.851  1.00  0.00    -0.387 OA
ATOM     25  H   UNL     1       3.954   0.035  -0.890  1.00  0.00     0.211 HD
ENDBRANCH   3  24
BRANCH   5  26
ATOM     26  O   UNL     1       7.922   0.179  -5.668  1.00  0.00    -0.462 OA
BRANCH  26  27
ATOM     27  C   UNL     1       8.850  -0.265  -6.908  1.00  0.00     0.130 A 
ATOM     28  C   UNL     1       9.872  -1.508  -7.766  1.00  0.00     0.093 A 
ATOM     29  C   UNL     1       8.393  -1.634  -7.253  1.00  0.00     0.094 A 
ATOM     30  C   UNL     1       9.703  -3.227  -8.319  1.00  0.00     0.133 A 
ATOM     31  C   UNL     1       7.643  -2.353  -8.721  1.00  0.00     0.138 A 
ATOM     32  C   UNL     1       8.094  -3.715  -7.662  1.00  0.00     0.102 A 
ATOM     33  O   UNL     1       8.106  -2.678 -10.125  1.00  0.00    -0.484 OA
ATOM     34  C   UNL     1       6.391  -4.832  -7.334  1.00  0.00     0.174 C 
ATOM     35  C   UNL     1       6.815  -2.203  -9.462  1.00  0.00     0.211 C 
ATOM     36  O   UNL     1       6.518  -6.072  -6.194  1.00  0.00    -0.294 OA
ATOM     37  C   UNL     1       6.043  -3.987  -9.995  1.00  0.00     0.131 C 
BRANCH  30  38
ATOM     38  O   UNL     1      10.124  -2.019  -9.295  1.00  0.00    -0.507 OA
ATOM     39  H   UNL     1      10.946  -1.434  -9.546  1.00  0.00     0.293 HD
ENDBRANCH  30  38
BRANCH  35  40
ATOM     40  C   UNL     1       6.808  -0.015  -8.715  1.00  0.00    -0.003 A 
ATOM     41  C   UNL     1       7.411   1.748  -8.543  1.00  0.00     0.057 A 
ATOM     42  C   UNL     1       5.466   0.533  -8.403  1.00  0.00     0.011 A 
ATOM     43  C   UNL     1       6.094   3.384  -9.092  1.00  0.00     0.158 A 
ATOM     44  C   UNL     1       4.500   2.009  -8.249  1.00  0.00     0.051 A 
ATOM     45  C   UNL     1       5.014   3.603  -7.814  1.00  0.00     0.160 A 
BRANCH  43  46
ATOM     46  O   UNL     1       7.667   4.283 -10.125  1.00  0.00    -0.504 OA
ATOM     47  H   UNL     1       6.871   3.810  -9.585  1.00  0.00     0.293 HD
ENDBRANCH  43  46
BRANCH  45  48
ATOM     48  O   UNL     1       4.298   5.041  -7.390  1.00  0.00    -0.493 OA
ATOM     49  C   UNL     1       3.178   5.095  -8.538  1.00  0.00     0.278 C 
ENDBRANCH  45  48
ENDBRANCH  35  40
ENDBRANCH  26  27
ENDBRANCH   5  26
BRANCH   4  50
ATOM     50  O   UNL     1       4.206   0.265  -5.196  1.00  0.00    -0.384 OA
ATOM     51  H   UNL     1       3.600   1.089  -4.907  1.00  0.00     0.211 HD
ENDBRANCH   4  50
TORSDOF 15
ENDMDL
MODEL 7
REMARK VINA RESULT:    -4.191      2.001      8.973
REMARK INTER + INTRA:          -7.958
REMARK INTER:                  -6.280
REMARK INTRA:                  -1.678
REMARK UNBOUND:                -1.684
REMARK SMILES COc1ccc([C@H]2CC(=O)c3c(O)cc(O[C@H]4O[C@H](CO[C@H]5O[C@H](C)[C@@H](O)[C@@H](O)[C@@H]5O)[C@H](O)[C@@H](O)[C@@H]4O)cc3O2)cc1O
REMARK SMILES IDX 19 1 32 2 34 3 36 4 17 5 18 6 20 7 21 8 22 9 25 10 24 11
REMARK SMILES IDX 26 12 23 13 28 14 30 15 27 16 29 18 31 20 33 22 35 24 16 26
REMARK SMILES IDX 15 27 14 28 38 29 12 30 39 31 11 32 40 33 9 34 7 35 10 36
REMARK SMILES IDX 8 37 13 38 6 40 41 41 5 42 42 43 4 44 3 45 43 46 2 48 1 49
REMARK SMILES IDX 37 50
REMARK H PARENT 27 17 29 19 31 21 33 23 35 25 13 39 43 47 37 51
REMARK Flexibility Score: inf
ROOT
ATOM      1  C   UNL     1       8.310  -0.066  -6.155  1.00  0.00     0.180 C 
ATOM      2  C   UNL     1       8.100  -0.142  -7.722  1.00  0.00     0.177 C 
ATOM      3  C   UNL     1       7.775  -1.500  -8.152  1.00  0.00     0.180 C 
ATOM      4  C   UNL     1       7.656  -2.692  -7.071  1.00  0.00     0.214 C 
ATOM      5  C   UNL     1       7.911  -2.458  -5.404  1.00  0.00     0.339 C 
ATOM      6  O   UNL     1       7.616  -0.967  -5.187  1.00  0.00    -0.332 OA
ENDROOT
BRANCH   1   7
ATOM      7  C   UNL     1       8.523   1.481  -5.790  1.00  0.00     0.198 C 
BRANCH   7   8
ATOM      8  O   UNL     1       7.656   1.974  -4.743  1.00  0.00    -0.347 OA
BRANCH   8   9
ATOM      9  C   UNL     1       6.425   2.654  -5.183  1.00  0.00     0.281 C 
ATOM     10  C   UNL     1       3.052   3.749  -3.984  1.00  0.00     0.041 C 
ATOM     11  C   UNL     1       4.621   3.758  -3.820  1.00  0.00     0.150 C 
ATOM     12  C   UNL     1       5.151   5.193  -4.207  1.00  0.00     0.174 C 
ATOM     13  O   UNL     1       5.261   2.500  -4.270  1.00  0.00    -0.344 OA
ATOM     14  C   UNL     1       6.385   5.172  -5.040  1.00  0.00     0.179 C 
ATOM     15  C   UNL     1       6.388   4.001  -5.977  1.00  0.00     0.202 C 
BRANCH  12  16
ATOM     16  O   UNL     1       5.370   5.993  -3.076  1.00  0.00    -0.388 OA
ATOM     17  H   UNL     1       5.101   5.407  -2.193  1.00  0.00     0.211 HD
ENDBRANCH  12  16
BRANCH  14  18
ATOM     18  O   UNL     1       7.497   5.259  -4.207  1.00  0.00    -0.387 OA
ATOM     19  H   UNL     1       7.488   6.176  -3.808  1.00  0.00     0.211 HD
ENDBRANCH  14  18
BRANCH  15  20
ATOM     20  O   UNL     1       5.205   4.101  -6.841  1.00  0.00    -0.385 OA
ATOM     21  H   UNL     1       4.463   4.819  -6.574  1.00  0.00     0.211 HD
ENDBRANCH  15  20
ENDBRANCH   8   9
ENDBRANCH   7   8
ENDBRANCH   1   7
BRANCH   2  22
ATOM     22  O   UNL     1       7.070   0.721  -8.251  1.00  0.00    -0.387 OA
ATOM     23  H   UNL     1       7.401   1.639  -8.284  1.00  0.00     0.211 HD
ENDBRANCH   2  22
BRANCH   3  24
ATOM     24  O   UNL     1       8.327  -1.693  -9.474  1.00  0.00    -0.387 OA
ATOM     25  H   UNL     1       7.755  -1.763 -10.311  1.00  0.00     0.211 HD
ENDBRANCH   3  24
BRANCH   5  26
ATOM     26  O   UNL     1       8.555  -3.183  -4.203  1.00  0.00    -0.462 OA
BRANCH  26  27
ATOM     27  C   UNL     1       8.196  -3.424  -2.651  1.00  0.00     0.130 A 
ATOM     28  C   UNL     1       7.483  -2.846  -1.074  1.00  0.00     0.093 A 
ATOM     29  C   UNL     1       6.816  -2.903  -2.495  1.00  0.00     0.094 A 
ATOM     30  C   UNL     1       5.916  -2.142  -0.494  1.00  0.00     0.133 A 
ATOM     31  C   UNL     1       5.251  -3.666  -2.044  1.00  0.00     0.138 A 
ATOM     32  C   UNL     1       4.981  -1.904  -2.020  1.00  0.00     0.102 A 
ATOM     33  O   UNL     1       4.654  -4.248  -0.781  1.00  0.00    -0.484 OA
ATOM     34  C   UNL     1       3.401  -1.504  -3.284  1.00  0.00     0.174 C 
ATOM     35  C   UNL     1       4.586  -4.537  -2.279  1.00  0.00     0.211 C 
ATOM     36  O   UNL     1       3.079   0.126  -3.586  1.00  0.00    -0.294 OA
ATOM     37  C   UNL     1       2.654  -3.974  -2.163  1.00  0.00     0.131 C 
BRANCH  30  38
ATOM     38  O   UNL     1       6.584  -3.461   0.141  1.00  0.00    -0.507 OA
ATOM     39  H   UNL     1       7.290  -3.745   0.850  1.00  0.00     0.293 HD
ENDBRANCH  30  38
BRANCH  35  40
ATOM     40  C   UNL     1       6.479  -5.479  -3.214  1.00  0.00    -0.003 A 
ATOM     41  C   UNL     1       8.032  -6.520  -3.279  1.00  0.00     0.057 A 
ATOM     42  C   UNL     1       6.409  -5.695  -4.679  1.00  0.00     0.011 A 
ATOM     43  C   UNL     1       8.194  -8.104  -4.755  1.00  0.00     0.158 A 
ATOM     44  C   UNL     1       7.038  -6.637  -6.040  1.00  0.00     0.051 A 
ATOM     45  C   UNL     1       8.592  -7.376  -6.224  1.00  0.00     0.160 A 
BRANCH  43  46
ATOM     46  O   UNL     1       8.912  -9.388  -3.276  1.00  0.00    -0.504 OA
ATOM     47  H   UNL     1       8.530  -8.740  -4.039  1.00  0.00     0.293 HD
ENDBRANCH  43  46
BRANCH  45  48
ATOM     48  O   UNL     1       9.469  -8.081  -7.446  1.00  0.00    -0.493 OA
ATOM     49  C   UNL     1       9.715  -6.775  -8.344  1.00  0.00     0.278 C 
ENDBRANCH  45  48
ENDBRANCH  35  40
ENDBRANCH  26  27
ENDBRANCH   5  26
BRANCH   4  50
ATOM     50  O   UNL     1       6.334  -3.173  -7.221  1.00  0.00    -0.384 OA
ATOM     51  H   UNL     1       6.251  -3.891  -6.442  1.00  0.00     0.211 HD
ENDBRANCH   4  50
TORSDOF 15
ENDMDL
MODEL 8
REMARK VINA RESULT:    -4.167      1.948      8.638
REMARK INTER + INTRA:          -7.922
REMARK INTER:                  -5.360
REMARK INTRA:                  -2.562
REMARK UNBOUND:                -1.684
REMARK SMILES COc1ccc([C@H]2CC(=O)c3c(O)cc(O[C@H]4O[C@H](CO[C@H]5O[C@H](C)[C@@H](O)[C@@H](O)[C@@H]5O)[C@H](O)[C@@H](O)[C@@H]4O)cc3O2)cc1O
REMARK SMILES IDX 19 1 32 2 34 3 36 4 17 5 18 6 20 7 21 8 22 9 25 10 24 11
REMARK SMILES IDX 26 12 23 13 28 14 30 15 27 16 29 18 31 20 33 22 35 24 16 26
REMARK SMILES IDX 15 27 14 28 38 29 12 30 39 31 11 32 40 33 9 34 7 35 10 36
REMARK SMILES IDX 8 37 13 38 6 40 41 41 5 42 42 43 4 44 3 45 43 46 2 48 1 49
REMARK SMILES IDX 37 50
REMARK H PARENT 27 17 29 19 31 21 33 23 35 25 13 39 43 47 37 51
REMARK Flexibility Score: inf
ROOT
ATOM      1  C   UNL     1       8.461  -0.043  -6.148  1.00  0.00     0.180 C 
ATOM      2  C   UNL     1       8.210  -0.101  -7.709  1.00  0.00     0.177 C 
ATOM      3  C   UNL     1       7.790  -1.434  -8.134  1.00  0.00     0.180 C 
ATOM      4  C   UNL     1       7.621  -2.620  -7.053  1.00  0.00     0.214 C 
ATOM      5  C   UNL     1       7.929  -2.407  -5.391  1.00  0.00     0.339 C 
ATOM      6  O   UNL     1       7.733  -0.901  -5.165  1.00  0.00    -0.332 OA
ENDROOT
BRANCH   1   7
ATOM      7  C   UNL     1       8.779   1.487  -5.786  1.00  0.00     0.198 C 
BRANCH   7   8
ATOM      8  O   UNL     1       8.052   1.995  -4.644  1.00  0.00    -0.347 OA
BRANCH   8   9
ATOM      9  C   UNL     1       7.013   3.000  -4.928  1.00  0.00     0.281 C 
ATOM     10  C   UNL     1       5.704   5.228  -7.636  1.00  0.00     0.041 C 
ATOM     11  C   UNL     1       6.092   3.784  -7.134  1.00  0.00     0.150 C 
ATOM     12  C   UNL     1       4.762   2.962  -6.916  1.00  0.00     0.174 C 
ATOM     13  O   UNL     1       7.220   3.784  -6.174  1.00  0.00    -0.344 OA
ATOM     14  C   UNL     1       4.757   2.149  -5.668  1.00  0.00     0.179 C 
ATOM     15  C   UNL     1       5.500   2.842  -4.565  1.00  0.00     0.202 C 
BRANCH  12  16
ATOM     16  O   UNL     1       4.473   2.133  -8.010  1.00  0.00    -0.388 OA
ATOM     17  H   UNL     1       4.287   1.126  -7.629  1.00  0.00     0.211 HD
ENDBRANCH  12  16
BRANCH  14  18
ATOM     18  O   UNL     1       5.207   0.865  -5.962  1.00  0.00    -0.387 OA
ATOM     19  H   UNL     1       5.771   0.937  -6.784  1.00  0.00     0.211 HD
ENDBRANCH  14  18
BRANCH  15  20
ATOM     20  O   UNL     1       4.852   4.136  -4.318  1.00  0.00    -0.385 OA
ATOM     21  H   UNL     1       4.261   4.546  -5.106  1.00  0.00     0.211 HD
ENDBRANCH  15  20
ENDBRANCH   8   9
ENDBRANCH   7   8
ENDBRANCH   1   7
BRANCH   2  22
ATOM     22  O   UNL     1       7.225   0.827  -8.213  1.00  0.00    -0.387 OA
ATOM     23  H   UNL     1       7.120   1.564  -7.581  1.00  0.00     0.211 HD
ENDBRANCH   2  22
BRANCH   3  24
ATOM     24  O   UNL     1       8.298  -1.657  -9.469  1.00  0.00    -0.387 OA
ATOM     25  H   UNL     1       9.279  -1.829  -9.670  1.00  0.00     0.211 HD
ENDBRANCH   3  24
BRANCH   5  26
ATOM     26  O   UNL     1       8.553  -3.175  -4.207  1.00  0.00    -0.462 OA
BRANCH  26  27
ATOM     27  C   UNL     1       8.181  -3.450  -2.663  1.00  0.00     0.130 A 
ATOM     28  C   UNL     1       7.484  -2.897  -1.072  1.00  0.00     0.093 A 
ATOM     29  C   UNL     1       6.819  -2.887  -2.495  1.00  0.00     0.094 A 
ATOM     30  C   UNL     1       5.940  -2.157  -0.474  1.00  0.00     0.133 A 
ATOM     31  C   UNL     1       5.228  -3.609  -2.071  1.00  0.00     0.138 A 
ATOM     32  C   UNL     1       5.019  -1.840  -1.993  1.00  0.00     0.102 A 
ATOM     33  O   UNL     1       4.607  -4.208  -0.827  1.00  0.00    -0.484 OA
ATOM     34  C   UNL     1       3.457  -1.348  -3.248  1.00  0.00     0.174 C 
ATOM     35  C   UNL     1       4.534  -4.449  -2.333  1.00  0.00     0.211 C 
ATOM     36  O   UNL     1       3.192   0.301  -3.501  1.00  0.00    -0.294 OA
ATOM     37  C   UNL     1       2.622  -3.824  -2.204  1.00  0.00     0.131 C 
BRANCH  30  38
ATOM     38  O   UNL     1       6.560  -3.516   0.123  1.00  0.00    -0.507 OA
ATOM     39  H   UNL     1       7.280  -3.846   0.797  1.00  0.00     0.293 HD
ENDBRANCH  30  38
BRANCH  35  40
ATOM     40  C   UNL     1       6.396  -5.427  -3.293  1.00  0.00    -0.003 A 
ATOM     41  C   UNL     1       7.896  -6.541  -3.396  1.00  0.00     0.057 A 
ATOM     42  C   UNL     1       6.346  -5.546  -4.770  1.00  0.00     0.011 A 
ATOM     43  C   UNL     1       8.009  -8.035  -4.968  1.00  0.00     0.158 A 
ATOM     44  C   UNL     1       6.956  -6.432  -6.177  1.00  0.00     0.051 A 
ATOM     45  C   UNL     1       8.474  -7.237  -6.380  1.00  0.00     0.160 A 
BRANCH  43  46
ATOM     46  O   UNL     1       8.630  -9.445  -3.561  1.00  0.00    -0.504 OA
ATOM     47  H   UNL     1       8.306  -8.734  -4.295  1.00  0.00     0.293 HD
ENDBRANCH  43  46
BRANCH  45  48
ATOM     48  O   UNL     1       9.340  -7.909  -7.628  1.00  0.00    -0.493 OA
ATOM     49  C   UNL     1       9.701  -6.559  -8.417  1.00  0.00     0.278 C 
ENDBRANCH  45  48
ENDBRANCH  35  40
ENDBRANCH  26  27
ENDBRANCH   5  26
BRANCH   4  50
ATOM     50  O   UNL     1       6.268  -3.016  -7.173  1.00  0.00    -0.384 OA
ATOM     51  H   UNL     1       6.332  -3.919  -7.729  1.00  0.00     0.211 HD
ENDBRANCH   4  50
TORSDOF 15
ENDMDL
MODEL 9
REMARK VINA RESULT:    -3.613      2.497      6.831
REMARK INTER + INTRA:          -7.093
REMARK INTER:                  -7.611
REMARK INTRA:                   0.519
REMARK UNBOUND:                -1.684
REMARK SMILES COc1ccc([C@H]2CC(=O)c3c(O)cc(O[C@H]4O[C@H](CO[C@H]5O[C@H](C)[C@@H](O)[C@@H](O)[C@@H]5O)[C@H](O)[C@@H](O)[C@@H]4O)cc3O2)cc1O
REMARK SMILES IDX 19 1 32 2 34 3 36 4 17 5 18 6 20 7 21 8 22 9 25 10 24 11
REMARK SMILES IDX 26 12 23 13 28 14 30 15 27 16 29 18 31 20 33 22 35 24 16 26
REMARK SMILES IDX 15 27 14 28 38 29 12 30 39 31 11 32 40 33 9 34 7 35 10 36
REMARK SMILES IDX 8 37 13 38 6 40 41 41 5 42 42 43 4 44 3 45 43 46 2 48 1 49
REMARK SMILES IDX 37 50
REMARK H PARENT 27 17 29 19 31 21 33 23 35 25 13 39 43 47 37 51
REMARK Flexibility Score: inf
ROOT
ATOM      1  C   UNL     1       4.669   1.637  -4.070  1.00  0.00     0.180 C 
ATOM      2  C   UNL     1       4.194   3.101  -3.699  1.00  0.00     0.177 C 
ATOM      3  C   UNL     1       5.022   4.113  -4.350  1.00  0.00     0.180 C 
ATOM      4  C   UNL     1       6.236   3.674  -5.319  1.00  0.00     0.214 C 
ATOM      5  C   UNL     1       6.632   2.047  -5.627  1.00  0.00     0.339 C 
ATOM      6  O   UNL     1       5.323   1.289  -5.367  1.00  0.00    -0.332 OA
ENDROOT
BRANCH   1   7
ATOM      7  C   UNL     1       3.611   0.626  -3.415  1.00  0.00     0.198 C 
BRANCH   7   8
ATOM      8  O   UNL     1       3.951  -0.771  -3.557  1.00  0.00    -0.347 OA
BRANCH   8   9
ATOM      9  C   UNL     1       4.020  -1.555  -2.311  1.00  0.00     0.281 C 
ATOM     10  C   UNL     1       2.894  -4.773  -0.766  1.00  0.00     0.041 C 
ATOM     11  C   UNL     1       3.636  -4.013  -1.932  1.00  0.00     0.150 C 
ATOM     12  C   UNL     1       5.186  -4.273  -1.784  1.00  0.00     0.174 C 
ATOM     13  O   UNL     1       3.054  -2.682  -2.223  1.00  0.00    -0.344 OA
ATOM     14  C   UNL     1       6.021  -3.060  -2.004  1.00  0.00     0.179 C 
ATOM     15  C   UNL     1       5.331  -1.827  -1.502  1.00  0.00     0.202 C 
BRANCH  12  16
ATOM     16  O   UNL     1       5.627  -5.299  -2.633  1.00  0.00    -0.388 OA
ATOM     17  H   UNL     1       6.418  -4.893  -3.268  1.00  0.00     0.211 HD
ENDBRANCH  12  16
BRANCH  14  18
ATOM     18  O   UNL     1       6.409  -3.012  -3.340  1.00  0.00    -0.387 OA
ATOM     19  H   UNL     1       7.332  -2.628  -3.359  1.00  0.00     0.211 HD
ENDBRANCH  14  18
BRANCH  15  20
ATOM     20  O   UNL     1       5.070  -1.999  -0.067  1.00  0.00    -0.385 OA
ATOM     21  H   UNL     1       4.256  -2.630   0.210  1.00  0.00     0.211 HD
ENDBRANCH  15  20
ENDBRANCH   8   9
ENDBRANCH   7   8
ENDBRANCH   1   7
BRANCH   2  22
ATOM     22  O   UNL     1       2.822   3.409  -4.030  1.00  0.00    -0.387 OA
ATOM     23  H   UNL     1       2.559   2.904  -4.824  1.00  0.00     0.211 HD
ENDBRANCH   2  22
BRANCH   3  24
ATOM     24  O   UNL     1       5.094   5.261  -3.475  1.00  0.00    -0.387 OA
ATOM     25  H   UNL     1       5.740   6.032  -3.620  1.00  0.00     0.211 HD
ENDBRANCH   3  24
BRANCH   5  26
ATOM     26  O   UNL     1       7.881   1.160  -5.814  1.00  0.00    -0.462 OA
BRANCH  26  27
ATOM     27  C   UNL     1       8.720   0.565  -7.055  1.00  0.00     0.130 A 
ATOM     28  C   UNL     1       9.909  -0.634  -7.742  1.00  0.00     0.093 A 
ATOM     29  C   UNL     1       8.596  -0.908  -6.924  1.00  0.00     0.094 A 
ATOM     30  C   UNL     1      10.125  -2.434  -7.775  1.00  0.00     0.133 A 
ATOM     31  C   UNL     1       7.874  -2.184  -7.965  1.00  0.00     0.138 A 
ATOM     32  C   UNL     1       8.803  -3.028  -6.699  1.00  0.00     0.102 A 
ATOM     33  O   UNL     1       8.215  -2.817  -9.297  1.00  0.00    -0.484 OA
ATOM     34  C   UNL     1       7.512  -4.325  -5.747  1.00  0.00     0.174 C 
ATOM     35  C   UNL     1       6.945  -2.447  -8.535  1.00  0.00     0.211 C 
ATOM     36  O   UNL     1       8.110  -5.100  -4.371  1.00  0.00    -0.294 OA
ATOM     37  C   UNL     1       6.603  -4.430  -8.408  1.00  0.00     0.131 C 
BRANCH  30  38
ATOM     38  O   UNL     1      10.081  -1.523  -9.100  1.00  0.00    -0.507 OA
ATOM     39  H   UNL     1      10.445  -1.497 -10.074  1.00  0.00     0.293 HD
ENDBRANCH  30  38
BRANCH  35  40
ATOM     40  C   UNL     1       6.463  -0.190  -8.408  1.00  0.00    -0.003 A 
ATOM     41  C   UNL     1       6.817   1.647  -8.360  1.00  0.00     0.057 A 
ATOM     42  C   UNL     1       5.135   0.196  -8.943  1.00  0.00     0.011 A 
ATOM     43  C   UNL     1       5.917   2.947  -9.848  1.00  0.00     0.158 A 
ATOM     44  C   UNL     1       4.173   1.514  -9.632  1.00  0.00     0.051 A 
ATOM     45  C   UNL     1       4.322   3.218  -9.371  1.00  0.00     0.160 A 
BRANCH  43  46
ATOM     46  O   UNL     1       7.762   3.881 -10.125  1.00  0.00    -0.504 OA
ATOM     47  H   UNL     1       6.820   3.394  -9.966  1.00  0.00     0.293 HD
ENDBRANCH  43  46
BRANCH  45  48
ATOM     48  O   UNL     1       3.434   4.583  -9.700  1.00  0.00    -0.493 OA
ATOM     49  C   UNL     1       3.005   4.952  -8.198  1.00  0.00     0.278 C 
ENDBRANCH  45  48
ENDBRANCH  35  40
ENDBRANCH  26  27
ENDBRANCH   5  26
BRANCH   4  50
ATOM     50  O   UNL     1       5.920   4.263  -6.567  1.00  0.00    -0.384 OA
ATOM     51  H   UNL     1       6.876   4.507  -6.964  1.00  0.00     0.211 HD
ENDBRANCH   4  50
TORSDOF 15
ENDMDL
