MODEL 1
REMARK VINA RESULT:    -2.914      0.000      0.000
REMARK INTER + INTRA:         -10.654
REMARK INTER:                  -6.320
REMARK INTRA:                  -4.333
REMARK UNBOUND:                -4.333
REMARK SMILES CCCCCCCCCCCCCCCCCCCCCC(=O)[O-]
REMARK SMILES IDX 12 1 11 2 10 3 9 4 8 5 7 6 6 7 5 8 4 9 3 10 2 11 1 12 13 13
REMARK SMILES IDX 14 14 15 15 16 16 17 17 18 18 19 19 20 20 21 21 22 22 23 23
REMARK SMILES IDX 24 24
REMARK H PARENT
REMARK Flexibility Score: inf
ROOT
ATOM      1  C   UNL     1      58.999  25.302  50.757  1.00  0.00     0.000 C 
ENDROOT
BRANCH   1   2
ATOM      2  C   UNL     1      60.040  26.152  51.510  1.00  0.00     0.000 C 
BRANCH   2   3
ATOM      3  C   UNL     1      60.648  27.256  50.631  1.00  0.00     0.000 C 
BRANCH   3   4
ATOM      4  C   UNL     1      59.663  27.791  49.577  1.00  0.00    -0.000 C 
BRANCH   4   5
ATOM      5  C   UNL     1      59.206  29.242  49.836  1.00  0.00    -0.000 C 
BRANCH   5   6
ATOM      6  C   UNL     1      58.124  29.323  50.924  1.00  0.00    -0.000 C 
BRANCH   6   7
ATOM      7  C   UNL     1      58.695  29.905  52.225  1.00  0.00    -0.000 C 
BRANCH   7   8
ATOM      8  C   UNL     1      58.336  29.064  53.461  1.00  0.00    -0.000 C 
BRANCH   8   9
ATOM      9  C   UNL     1      56.954  28.398  53.343  1.00  0.00    -0.000 C 
BRANCH   9  10
ATOM     10  C   UNL     1      56.688  27.386  54.469  1.00  0.00    -0.000 C 
BRANCH  10  11
ATOM     11  C   UNL     1      55.346  26.659  54.308  1.00  0.00    -0.003 C 
ATOM     12  C   UNL     1      55.505  25.157  54.522  1.00  0.00     0.004 C 
ENDBRANCH  10  11
ENDBRANCH   9  10
ENDBRANCH   8   9
ENDBRANCH   7   8
ENDBRANCH   6   7
ENDBRANCH   5   6
ENDBRANCH   4   5
ENDBRANCH   3   4
ENDBRANCH   2   3
ENDBRANCH   1   2
BRANCH   1  13
ATOM     13  C   UNL     1      57.592  25.305  51.385  1.00  0.00     0.000 C 
BRANCH  13  14
ATOM     14  C   UNL     1      56.543  25.991  50.491  1.00  0.00     0.000 C 
BRANCH  14  15
ATOM     15  C   UNL     1      55.104  25.594  50.859  1.00  0.00     0.000 C 
BRANCH  15  16
ATOM     16  C   UNL     1      54.101  26.738  50.648  1.00  0.00     0.000 C 
BRANCH  16  17
ATOM     17  C   UNL     1      54.827  28.061  50.354  1.00  0.00     0.000 C 
BRANCH  17  18
ATOM     18  C   UNL     1      53.971  29.291  50.723  1.00  0.00     0.000 C 
BRANCH  18  19
ATOM     19  C   UNL     1      53.520  29.312  52.194  1.00  0.00     0.000 C 
BRANCH  19  20
ATOM     20  C   UNL     1      54.104  30.496  52.981  1.00  0.00     0.006 C 
BRANCH  20  21
ATOM     21  C   UNL     1      55.000  31.386  52.108  1.00  0.00     0.053 C 
BRANCH  21  22
ATOM     22  C   UNL     1      55.544  32.552  52.873  1.00  0.00     0.041 C 
ATOM     23  O   UNL     1      56.751  32.569  53.229  1.00  0.00    -0.550 OA
ATOM     24  O   UNL     1      54.715  33.617  53.201  1.00  0.00    -0.550 OA
ENDBRANCH  21  22
ENDBRANCH  20  21
ENDBRANCH  19  20
ENDBRANCH  18  19
ENDBRANCH  17  18
ENDBRANCH  16  17
ENDBRANCH  15  16
ENDBRANCH  14  15
ENDBRANCH  13  14
ENDBRANCH   1  13
TORSDOF 20
ENDMDL
MODEL 2
REMARK VINA RESULT:    -2.835      1.656      3.734
REMARK INTER + INTRA:         -10.484
REMARK INTER:                  -7.336
REMARK INTRA:                  -3.148
REMARK UNBOUND:                -4.333
REMARK SMILES CCCCCCCCCCCCCCCCCCCCCC(=O)[O-]
REMARK SMILES IDX 12 1 11 2 10 3 9 4 8 5 7 6 6 7 5 8 4 9 3 10 2 11 1 12 13 13
REMARK SMILES IDX 14 14 15 15 16 16 17 17 18 18 19 19 20 20 21 21 22 22 23 23
REMARK SMILES IDX 24 24
REMARK H PARENT
REMARK Flexibility Score: inf
ROOT
ATOM      1  C   UNL     1      57.172  25.817  52.373  1.00  0.00     0.000 C 
ENDROOT
BRANCH   1   2
ATOM      2  C   UNL     1      58.371  25.260  51.583  1.00  0.00     0.000 C 
BRANCH   2   3
ATOM      3  C   UNL     1      59.436  26.331  51.292  1.00  0.00     0.000 C 
BRANCH   3   4
ATOM      4  C   UNL     1      59.280  26.963  49.897  1.00  0.00    -0.000 C 
BRANCH   4   5
ATOM      5  C   UNL     1      59.155  28.501  49.926  1.00  0.00    -0.000 C 
BRANCH   5   6
ATOM      6  C   UNL     1      58.921  29.037  51.346  1.00  0.00    -0.000 C 
BRANCH   6   7
ATOM      7  C   UNL     1      60.149  29.809  51.852  1.00  0.00    -0.000 C 
BRANCH   7   8
ATOM      8  C   UNL     1      61.301  29.827  50.835  1.00  0.00    -0.000 C 
BRANCH   8   9
ATOM      9  C   UNL     1      62.627  29.326  51.434  1.00  0.00    -0.000 C 
BRANCH   9  10
ATOM     10  C   UNL     1      62.828  27.815  51.238  1.00  0.00    -0.000 C 
BRANCH  10  11
ATOM     11  C   UNL     1      62.960  27.421  49.760  1.00  0.00    -0.003 C 
ATOM     12  C   UNL     1      64.012  28.272  49.056  1.00  0.00     0.004 C 
ENDBRANCH  10  11
ENDBRANCH   9  10
ENDBRANCH   8   9
ENDBRANCH   7   8
ENDBRANCH   6   7
ENDBRANCH   5   6
ENDBRANCH   4   5
ENDBRANCH   3   4
ENDBRANCH   2   3
ENDBRANCH   1   2
BRANCH   1  13
ATOM     13  C   UNL     1      55.796  25.510  51.753  1.00  0.00     0.000 C 
BRANCH  13  14
ATOM     14  C   UNL     1      55.670  26.015  50.304  1.00  0.00     0.000 C 
BRANCH  14  15
ATOM     15  C   UNL     1      54.383  25.525  49.619  1.00  0.00     0.000 C 
BRANCH  15  16
ATOM     16  C   UNL     1      53.142  26.322  50.048  1.00  0.00     0.000 C 
BRANCH  16  17
ATOM     17  C   UNL     1      53.415  27.834  50.002  1.00  0.00     0.000 C 
BRANCH  17  18
ATOM     18  C   UNL     1      53.231  28.502  51.382  1.00  0.00     0.000 C 
BRANCH  18  19
ATOM     19  C   UNL     1      54.532  29.076  51.970  1.00  0.00     0.000 C 
BRANCH  19  20
ATOM     20  C   UNL     1      55.473  29.646  50.896  1.00  0.00     0.006 C 
BRANCH  20  21
ATOM     21  C   UNL     1      55.474  31.181  50.884  1.00  0.00     0.053 C 
BRANCH  21  22
ATOM     22  C   UNL     1      55.717  31.749  52.248  1.00  0.00     0.041 C 
ATOM     23  O   UNL     1      56.846  31.629  52.793  1.00  0.00    -0.550 OA
ATOM     24  O   UNL     1      54.694  32.404  52.922  1.00  0.00    -0.550 OA
ENDBRANCH  21  22
ENDBRANCH  20  21
ENDBRANCH  19  20
ENDBRANCH  18  19
ENDBRANCH  17  18
ENDBRANCH  16  17
ENDBRANCH  15  16
ENDBRANCH  14  15
ENDBRANCH  13  14
ENDBRANCH   1  13
TORSDOF 20
ENDMDL
MODEL 3
REMARK VINA RESULT:    -2.827      1.623      4.494
REMARK INTER + INTRA:         -10.466
REMARK INTER:                  -6.666
REMARK INTRA:                  -3.800
REMARK UNBOUND:                -4.333
REMARK SMILES CCCCCCCCCCCCCCCCCCCCCC(=O)[O-]
REMARK SMILES IDX 12 1 11 2 10 3 9 4 8 5 7 6 6 7 5 8 4 9 3 10 2 11 1 12 13 13
REMARK SMILES IDX 14 14 15 15 16 16 17 17 18 18 19 19 20 20 21 21 22 22 23 23
REMARK SMILES IDX 24 24
REMARK H PARENT
REMARK Flexibility Score: inf
ROOT
ATOM      1  C   UNL     1      54.378  28.176  50.277  1.00  0.00     0.000 C 
ENDROOT
BRANCH   1   2
ATOM      2  C   UNL     1      53.330  29.262  50.582  1.00  0.00     0.000 C 
BRANCH   2   3
ATOM      3  C   UNL     1      53.916  30.444  51.372  1.00  0.00     0.000 C 
BRANCH   3   4
ATOM      4  C   UNL     1      55.364  30.773  50.966  1.00  0.00    -0.000 C 
BRANCH   4   5
ATOM      5  C   UNL     1      56.339  30.848  52.160  1.00  0.00    -0.000 C 
BRANCH   5   6
ATOM      6  C   UNL     1      57.725  30.285  51.812  1.00  0.00    -0.000 C 
BRANCH   6   7
ATOM      7  C   UNL     1      57.653  29.364  50.585  1.00  0.00    -0.000 C 
BRANCH   7   8
ATOM      8  C   UNL     1      59.005  29.222  49.867  1.00  0.00    -0.000 C 
BRANCH   8   9
ATOM      9  C   UNL     1      59.549  27.784  49.908  1.00  0.00    -0.000 C 
BRANCH   9  10
ATOM     10  C   UNL     1      59.747  27.269  51.342  1.00  0.00    -0.000 C 
BRANCH  10  11
ATOM     11  C   UNL     1      60.611  26.001  51.403  1.00  0.00    -0.003 C 
ATOM     12  C   UNL     1      62.090  26.336  51.237  1.00  0.00     0.004 C 
ENDBRANCH  10  11
ENDBRANCH   9  10
ENDBRANCH   8   9
ENDBRANCH   7   8
ENDBRANCH   6   7
ENDBRANCH   5   6
ENDBRANCH   4   5
ENDBRANCH   3   4
ENDBRANCH   2   3
ENDBRANCH   1   2
BRANCH   1  13
ATOM     13  C   UNL     1      53.791  26.786  49.964  1.00  0.00     0.000 C 
BRANCH  13  14
ATOM     14  C   UNL     1      54.789  25.645  50.228  1.00  0.00     0.000 C 
BRANCH  14  15
ATOM     15  C   UNL     1      56.169  26.160  50.668  1.00  0.00     0.000 C 
BRANCH  15  16
ATOM     16  C   UNL     1      56.828  25.261  51.726  1.00  0.00     0.000 C 
BRANCH  16  17
ATOM     17  C   UNL     1      56.440  25.703  53.145  1.00  0.00     0.000 C 
BRANCH  17  18
ATOM     18  C   UNL     1      56.308  27.237  53.263  1.00  0.00     0.000 C 
BRANCH  18  19
ATOM     19  C   UNL     1      54.939  27.702  53.788  1.00  0.00     0.000 C 
BRANCH  19  20
ATOM     20  C   UNL     1      55.051  28.687  54.962  1.00  0.00     0.006 C 
BRANCH  20  21
ATOM     21  C   UNL     1      56.493  28.818  55.471  1.00  0.00     0.053 C 
BRANCH  21  22
ATOM     22  C   UNL     1      56.821  30.225  55.862  1.00  0.00     0.041 C 
ATOM     23  O   UNL     1      57.863  30.780  55.423  1.00  0.00    -0.550 OA
ATOM     24  O   UNL     1      55.981  30.923  56.720  1.00  0.00    -0.550 OA
ENDBRANCH  21  22
ENDBRANCH  20  21
ENDBRANCH  19  20
ENDBRANCH  18  19
ENDBRANCH  17  18
ENDBRANCH  16  17
ENDBRANCH  15  16
ENDBRANCH  14  15
ENDBRANCH  13  14
ENDBRANCH   1  13
TORSDOF 20
ENDMDL
MODEL 4
REMARK VINA RESULT:    -2.784      3.301      6.119
REMARK INTER + INTRA:         -10.373
REMARK INTER:                  -6.472
REMARK INTRA:                  -3.901
REMARK UNBOUND:                -4.333
REMARK SMILES CCCCCCCCCCCCCCCCCCCCCC(=O)[O-]
REMARK SMILES IDX 12 1 11 2 10 3 9 4 8 5 7 6 6 7 5 8 4 9 3 10 2 11 1 12 13 13
REMARK SMILES IDX 14 14 15 15 16 16 17 17 18 18 19 19 20 20 21 21 22 22 23 23
REMARK SMILES IDX 24 24
REMARK H PARENT
REMARK Flexibility Score: inf
ROOT
ATOM      1  C   UNL     1      58.459  25.151  52.283  1.00  0.00     0.000 C 
ENDROOT
BRANCH   1   2
ATOM      2  C   UNL     1      58.360  25.358  50.760  1.00  0.00     0.000 C 
BRANCH   2   3
ATOM      3  C   UNL     1      57.111  26.155  50.351  1.00  0.00     0.000 C 
BRANCH   3   4
ATOM      4  C   UNL     1      55.812  25.566  50.929  1.00  0.00    -0.000 C 
BRANCH   4   5
ATOM      5  C   UNL     1      54.573  26.457  50.698  1.00  0.00    -0.000 C 
BRANCH   5   6
ATOM      6  C   UNL     1      54.922  27.953  50.721  1.00  0.00    -0.000 C 
BRANCH   6   7
ATOM      7  C   UNL     1      53.688  28.811  50.405  1.00  0.00    -0.000 C 
BRANCH   7   8
ATOM      8  C   UNL     1      53.895  30.297  50.743  1.00  0.00    -0.000 C 
BRANCH   8   9
ATOM      9  C   UNL     1      54.472  30.509  52.153  1.00  0.00    -0.000 C 
BRANCH   9  10
ATOM     10  C   UNL     1      55.444  31.698  52.220  1.00  0.00    -0.000 C 
BRANCH  10  11
ATOM     11  C   UNL     1      56.031  31.905  53.624  1.00  0.00    -0.003 C 
ATOM     12  C   UNL     1      57.442  32.482  53.549  1.00  0.00     0.004 C 
ENDBRANCH  10  11
ENDBRANCH   9  10
ENDBRANCH   8   9
ENDBRANCH   7   8
ENDBRANCH   6   7
ENDBRANCH   5   6
ENDBRANCH   4   5
ENDBRANCH   3   4
ENDBRANCH   2   3
ENDBRANCH   1   2
BRANCH   1  13
ATOM     13  C   UNL     1      58.895  26.399  53.075  1.00  0.00     0.000 C 
BRANCH  13  14
ATOM     14  C   UNL     1      57.733  27.051  53.844  1.00  0.00     0.000 C 
BRANCH  14  15
ATOM     15  C   UNL     1      57.388  28.453  53.314  1.00  0.00     0.000 C 
BRANCH  15  16
ATOM     16  C   UNL     1      58.524  29.069  52.484  1.00  0.00     0.000 C 
BRANCH  16  17
ATOM     17  C   UNL     1      58.023  29.500  51.097  1.00  0.00     0.000 C 
BRANCH  17  18
ATOM     18  C   UNL     1      59.054  29.208  49.986  1.00  0.00     0.000 C 
BRANCH  18  19
ATOM     19  C   UNL     1      60.462  28.886  50.518  1.00  0.00     0.000 C 
BRANCH  19  20
ATOM     20  C   UNL     1      61.058  27.612  49.898  1.00  0.00     0.006 C 
BRANCH  20  21
ATOM     21  C   UNL     1      62.020  26.898  50.858  1.00  0.00     0.053 C 
BRANCH  21  22
ATOM     22  C   UNL     1      63.425  26.895  50.339  1.00  0.00     0.041 C 
ATOM     23  O   UNL     1      64.359  26.423  51.039  1.00  0.00    -0.550 OA
ATOM     24  O   UNL     1      63.705  27.421  49.084  1.00  0.00    -0.550 OA
ENDBRANCH  21  22
ENDBRANCH  20  21
ENDBRANCH  19  20
ENDBRANCH  18  19
ENDBRANCH  17  18
ENDBRANCH  16  17
ENDBRANCH  15  16
ENDBRANCH  14  15
ENDBRANCH  13  14
ENDBRANCH   1  13
TORSDOF 20
ENDMDL
MODEL 5
REMARK VINA RESULT:    -2.722      2.852      6.411
REMARK INTER + INTRA:         -10.237
REMARK INTER:                  -6.878
REMARK INTRA:                  -3.358
REMARK UNBOUND:                -4.333
REMARK SMILES CCCCCCCCCCCCCCCCCCCCCC(=O)[O-]
REMARK SMILES IDX 12 1 11 2 10 3 9 4 8 5 7 6 6 7 5 8 4 9 3 10 2 11 1 12 13 13
REMARK SMILES IDX 14 14 15 15 16 16 17 17 18 18 19 19 20 20 21 21 22 22 23 23
REMARK SMILES IDX 24 24
REMARK H PARENT
REMARK Flexibility Score: inf
ROOT
ATOM      1  C   UNL     1      57.931  29.704  51.868  1.00  0.00     0.000 C 
ENDROOT
BRANCH   1   2
ATOM      2  C   UNL     1      56.765  29.585  50.869  1.00  0.00     0.000 C 
BRANCH   2   3
ATOM      3  C   UNL     1      55.855  30.825  50.873  1.00  0.00     0.000 C 
BRANCH   3   4
ATOM      4  C   UNL     1      54.372  30.476  51.087  1.00  0.00    -0.000 C 
BRANCH   4   5
ATOM      5  C   UNL     1      54.117  28.972  51.320  1.00  0.00    -0.000 C 
BRANCH   5   6
ATOM      6  C   UNL     1      53.237  28.356  50.222  1.00  0.00    -0.000 C 
BRANCH   6   7
ATOM      7  C   UNL     1      53.602  26.883  49.985  1.00  0.00    -0.000 C 
BRANCH   7   8
ATOM      8  C   UNL     1      55.095  26.596  50.216  1.00  0.00    -0.000 C 
BRANCH   8   9
ATOM      9  C   UNL     1      55.330  25.430  51.192  1.00  0.00    -0.000 C 
BRANCH   9  10
ATOM     10  C   UNL     1      55.137  25.841  52.660  1.00  0.00    -0.000 C 
BRANCH  10  11
ATOM     11  C   UNL     1      56.331  26.628  53.217  1.00  0.00    -0.003 C 
ATOM     12  C   UNL     1      57.048  25.839  54.308  1.00  0.00     0.004 C 
ENDBRANCH  10  11
ENDBRANCH   9  10
ENDBRANCH   8   9
ENDBRANCH   7   8
ENDBRANCH   6   7
ENDBRANCH   5   6
ENDBRANCH   4   5
ENDBRANCH   3   4
ENDBRANCH   2   3
ENDBRANCH   1   2
BRANCH   1  13
ATOM     13  C   UNL     1      59.314  29.353  51.285  1.00  0.00     0.000 C 
BRANCH  13  14
ATOM     14  C   UNL     1      59.233  28.800  49.852  1.00  0.00     0.000 C 
BRANCH  14  15
ATOM     15  C   UNL     1      59.797  27.374  49.738  1.00  0.00     0.000 C 
BRANCH  15  16
ATOM     16  C   UNL     1      58.855  26.315  50.331  1.00  0.00     0.000 C 
BRANCH  16  17
ATOM     17  C   UNL     1      59.617  25.359  51.263  1.00  0.00     0.000 C 
BRANCH  17  18
ATOM     18  C   UNL     1      60.206  26.086  52.490  1.00  0.00     0.000 C 
BRANCH  18  19
ATOM     19  C   UNL     1      61.666  25.708  52.792  1.00  0.00     0.000 C 
BRANCH  19  20
ATOM     20  C   UNL     1      62.473  25.383  51.525  1.00  0.00     0.006 C 
BRANCH  20  21
ATOM     21  C   UNL     1      63.672  26.325  51.345  1.00  0.00     0.053 C 
BRANCH  21  22
ATOM     22  C   UNL     1      63.316  27.532  50.535  1.00  0.00     0.041 C 
ATOM     23  O   UNL     1      63.432  27.512  49.281  1.00  0.00    -0.550 OA
ATOM     24  O   UNL     1      62.863  28.685  51.164  1.00  0.00    -0.550 OA
ENDBRANCH  21  22
ENDBRANCH  20  21
ENDBRANCH  19  20
ENDBRANCH  18  19
ENDBRANCH  17  18
ENDBRANCH  16  17
ENDBRANCH  15  16
ENDBRANCH  14  15
ENDBRANCH  13  14
ENDBRANCH   1  13
TORSDOF 20
ENDMDL
MODEL 6
REMARK VINA RESULT:    -2.703      1.379      3.994
REMARK INTER + INTRA:         -10.198
REMARK INTER:                  -6.426
REMARK INTRA:                  -3.772
REMARK UNBOUND:                -4.333
REMARK SMILES CCCCCCCCCCCCCCCCCCCCCC(=O)[O-]
REMARK SMILES IDX 12 1 11 2 10 3 9 4 8 5 7 6 6 7 5 8 4 9 3 10 2 11 1 12 13 13
REMARK SMILES IDX 14 14 15 15 16 16 17 17 18 18 19 19 20 20 21 21 22 22 23 23
REMARK SMILES IDX 24 24
REMARK H PARENT
REMARK Flexibility Score: inf
ROOT
ATOM      1  C   UNL     1      55.763  26.466  53.554  1.00  0.00     0.000 C 
ENDROOT
BRANCH   1   2
ATOM      2  C   UNL     1      55.435  27.870  54.094  1.00  0.00     0.000 C 
BRANCH   2   3
ATOM      3  C   UNL     1      56.628  28.836  53.993  1.00  0.00     0.000 C 
BRANCH   3   4
ATOM      4  C   UNL     1      57.640  28.423  52.910  1.00  0.00    -0.000 C 
BRANCH   4   5
ATOM      5  C   UNL     1      58.077  29.587  51.996  1.00  0.00    -0.000 C 
BRANCH   5   6
ATOM      6  C   UNL     1      58.197  29.156  50.526  1.00  0.00    -0.000 C 
BRANCH   6   7
ATOM      7  C   UNL     1      58.694  27.708  50.416  1.00  0.00    -0.000 C 
BRANCH   7   8
ATOM      8  C   UNL     1      60.013  27.589  49.634  1.00  0.00    -0.000 C 
BRANCH   8   9
ATOM      9  C   UNL     1      61.220  27.318  50.549  1.00  0.00    -0.000 C 
BRANCH   9  10
ATOM     10  C   UNL     1      62.284  28.424  50.463  1.00  0.00    -0.000 C 
BRANCH  10  11
ATOM     11  C   UNL     1      61.724  29.813  50.800  1.00  0.00    -0.003 C 
ATOM     12  C   UNL     1      61.997  30.176  52.257  1.00  0.00     0.004 C 
ENDBRANCH  10  11
ENDBRANCH   9  10
ENDBRANCH   8   9
ENDBRANCH   7   8
ENDBRANCH   6   7
ENDBRANCH   5   6
ENDBRANCH   4   5
ENDBRANCH   3   4
ENDBRANCH   2   3
ENDBRANCH   1   2
BRANCH   1  13
ATOM     13  C   UNL     1      54.771  25.935  52.501  1.00  0.00     0.000 C 
BRANCH  13  14
ATOM     14  C   UNL     1      55.332  25.999  51.070  1.00  0.00     0.000 C 
BRANCH  14  15
ATOM     15  C   UNL     1      55.037  27.341  50.380  1.00  0.00     0.000 C 
BRANCH  15  16
ATOM     16  C   UNL     1      53.536  27.665  50.332  1.00  0.00     0.000 C 
BRANCH  16  17
ATOM     17  C   UNL     1      53.296  29.180  50.423  1.00  0.00     0.000 C 
BRANCH  17  18
ATOM     18  C   UNL     1      54.574  29.952  50.814  1.00  0.00     0.000 C 
BRANCH  18  19
ATOM     19  C   UNL     1      54.363  30.964  51.953  1.00  0.00     0.000 C 
BRANCH  19  20
ATOM     20  C   UNL     1      55.409  32.090  51.954  1.00  0.00     0.006 C 
BRANCH  20  21
ATOM     21  C   UNL     1      55.976  32.352  53.356  1.00  0.00     0.053 C 
BRANCH  21  22
ATOM     22  C   UNL     1      55.602  33.709  53.865  1.00  0.00     0.041 C 
ATOM     23  O   UNL     1      56.008  34.099  54.991  1.00  0.00    -0.550 OA
ATOM     24  O   UNL     1      54.795  34.542  53.099  1.00  0.00    -0.550 OA
ENDBRANCH  21  22
ENDBRANCH  20  21
ENDBRANCH  19  20
ENDBRANCH  18  19
ENDBRANCH  17  18
ENDBRANCH  16  17
ENDBRANCH  15  16
ENDBRANCH  14  15
ENDBRANCH  13  14
ENDBRANCH   1  13
TORSDOF 20
ENDMDL
MODEL 7
REMARK VINA RESULT:    -2.681      2.003      4.829
REMARK INTER + INTRA:         -10.149
REMARK INTER:                  -6.432
REMARK INTRA:                  -3.716
REMARK UNBOUND:                -4.333
REMARK SMILES CCCCCCCCCCCCCCCCCCCCCC(=O)[O-]
REMARK SMILES IDX 12 1 11 2 10 3 9 4 8 5 7 6 6 7 5 8 4 9 3 10 2 11 1 12 13 13
REMARK SMILES IDX 14 14 15 15 16 16 17 17 18 18 19 19 20 20 21 21 22 22 23 23
REMARK SMILES IDX 24 24
REMARK H PARENT
REMARK Flexibility Score: inf
ROOT
ATOM      1  C   UNL     1      54.716  28.316  50.391  1.00  0.00     0.000 C 
ENDROOT
BRANCH   1   2
ATOM      2  C   UNL     1      54.634  29.124  51.699  1.00  0.00     0.000 C 
BRANCH   2   3
ATOM      3  C   UNL     1      55.922  29.912  51.989  1.00  0.00     0.000 C 
BRANCH   3   4
ATOM      4  C   UNL     1      56.845  30.018  50.762  1.00  0.00    -0.000 C 
BRANCH   4   5
ATOM      5  C   UNL     1      58.226  29.358  50.968  1.00  0.00    -0.000 C 
BRANCH   5   6
ATOM      6  C   UNL     1      58.939  29.080  49.636  1.00  0.00    -0.000 C 
BRANCH   6   7
ATOM      7  C   UNL     1      59.622  27.705  49.654  1.00  0.00    -0.000 C 
BRANCH   7   8
ATOM      8  C   UNL     1      60.432  27.459  50.938  1.00  0.00    -0.000 C 
BRANCH   8   9
ATOM      9  C   UNL     1      61.910  27.140  50.653  1.00  0.00    -0.000 C 
BRANCH   9  10
ATOM     10  C   UNL     1      62.746  28.402  50.389  1.00  0.00    -0.000 C 
BRANCH  10  11
ATOM     11  C   UNL     1      62.400  29.552  51.345  1.00  0.00    -0.003 C 
ATOM     12  C   UNL     1      62.251  30.869  50.588  1.00  0.00     0.004 C 
ENDBRANCH  10  11
ENDBRANCH   9  10
ENDBRANCH   8   9
ENDBRANCH   7   8
ENDBRANCH   6   7
ENDBRANCH   5   6
ENDBRANCH   4   5
ENDBRANCH   3   4
ENDBRANCH   2   3
ENDBRANCH   1   2
BRANCH   1  13
ATOM     13  C   UNL     1      54.001  26.952  50.431  1.00  0.00     0.000 C 
BRANCH  13  14
ATOM     14  C   UNL     1      54.944  25.776  50.122  1.00  0.00     0.000 C 
BRANCH  14  15
ATOM     15  C   UNL     1      56.420  26.119  50.386  1.00  0.00     0.000 C 
BRANCH  15  16
ATOM     16  C   UNL     1      56.988  25.386  51.611  1.00  0.00     0.000 C 
BRANCH  16  17
ATOM     17  C   UNL     1      57.298  26.372  52.748  1.00  0.00     0.000 C 
BRANCH  17  18
ATOM     18  C   UNL     1      56.121  26.512  53.737  1.00  0.00     0.000 C 
BRANCH  18  19
ATOM     19  C   UNL     1      56.348  27.578  54.823  1.00  0.00     0.000 C 
BRANCH  19  20
ATOM     20  C   UNL     1      55.078  27.890  55.630  1.00  0.00     0.006 C 
BRANCH  20  21
ATOM     21  C   UNL     1      54.648  29.356  55.488  1.00  0.00     0.053 C 
BRANCH  21  22
ATOM     22  C   UNL     1      55.590  30.284  56.191  1.00  0.00     0.041 C 
ATOM     23  O   UNL     1      55.879  30.097  57.402  1.00  0.00    -0.550 OA
ATOM     24  O   UNL     1      56.142  31.363  55.511  1.00  0.00    -0.550 OA
ENDBRANCH  21  22
ENDBRANCH  20  21
ENDBRANCH  19  20
ENDBRANCH  18  19
ENDBRANCH  17  18
ENDBRANCH  16  17
ENDBRANCH  15  16
ENDBRANCH  14  15
ENDBRANCH  13  14
ENDBRANCH   1  13
TORSDOF 20
ENDMDL
MODEL 8
REMARK VINA RESULT:    -2.669      3.343      6.281
REMARK INTER + INTRA:         -10.123
REMARK INTER:                  -6.148
REMARK INTRA:                  -3.975
REMARK UNBOUND:                -4.333
REMARK SMILES CCCCCCCCCCCCCCCCCCCCCC(=O)[O-]
REMARK SMILES IDX 12 1 11 2 10 3 9 4 8 5 7 6 6 7 5 8 4 9 3 10 2 11 1 12 13 13
REMARK SMILES IDX 14 14 15 15 16 16 17 17 18 18 19 19 20 20 21 21 22 22 23 23
REMARK SMILES IDX 24 24
REMARK H PARENT
REMARK Flexibility Score: inf
ROOT
ATOM      1  C   UNL     1      55.244  28.920  53.182  1.00  0.00     0.000 C 
ENDROOT
BRANCH   1   2
ATOM      2  C   UNL     1      54.016  28.829  52.258  1.00  0.00     0.000 C 
BRANCH   2   3
ATOM      3  C   UNL     1      54.398  28.798  50.769  1.00  0.00     0.000 C 
BRANCH   3   4
ATOM      4  C   UNL     1      53.812  27.582  50.028  1.00  0.00    -0.000 C 
BRANCH   4   5
ATOM      5  C   UNL     1      54.738  26.348  50.037  1.00  0.00    -0.000 C 
BRANCH   5   6
ATOM      6  C   UNL     1      53.954  25.037  50.197  1.00  0.00    -0.000 C 
BRANCH   6   7
ATOM      7  C   UNL     1      53.810  24.659  51.679  1.00  0.00    -0.000 C 
BRANCH   7   8
ATOM      8  C   UNL     1      55.065  24.991  52.502  1.00  0.00    -0.000 C 
BRANCH   8   9
ATOM      9  C   UNL     1      54.745  25.277  53.980  1.00  0.00    -0.000 C 
BRANCH   9  10
ATOM     10  C   UNL     1      55.901  24.894  54.918  1.00  0.00    -0.000 C 
BRANCH  10  11
ATOM     11  C   UNL     1      56.680  26.114  55.428  1.00  0.00    -0.003 C 
ATOM     12  C   UNL     1      58.185  25.894  55.307  1.00  0.00     0.004 C 
ENDBRANCH  10  11
ENDBRANCH   9  10
ENDBRANCH   8   9
ENDBRANCH   7   8
ENDBRANCH   6   7
ENDBRANCH   5   6
ENDBRANCH   4   5
ENDBRANCH   3   4
ENDBRANCH   2   3
ENDBRANCH   1   2
BRANCH   1  13
ATOM     13  C   UNL     1      56.534  28.311  52.599  1.00  0.00     0.000 C 
BRANCH  13  14
ATOM     14  C   UNL     1      57.798  29.081  53.020  1.00  0.00     0.000 C 
BRANCH  14  15
ATOM     15  C   UNL     1      58.609  29.586  51.815  1.00  0.00     0.000 C 
BRANCH  15  16
ATOM     16  C   UNL     1      58.083  29.045  50.477  1.00  0.00     0.000 C 
BRANCH  16  17
ATOM     17  C   UNL     1      59.234  28.530  49.599  1.00  0.00     0.000 C 
BRANCH  17  18
ATOM     18  C   UNL     1      59.690  27.112  50.007  1.00  0.00     0.000 C 
BRANCH  18  19
ATOM     19  C   UNL     1      58.527  26.139  50.267  1.00  0.00     0.000 C 
BRANCH  19  20
ATOM     20  C   UNL     1      58.627  25.440  51.632  1.00  0.00     0.006 C 
BRANCH  20  21
ATOM     21  C   UNL     1      59.432  24.135  51.555  1.00  0.00     0.053 C 
BRANCH  21  22
ATOM     22  C   UNL     1      60.737  24.241  52.281  1.00  0.00     0.041 C 
ATOM     23  O   UNL     1      61.776  24.605  51.669  1.00  0.00    -0.550 OA
ATOM     24  O   UNL     1      60.810  23.930  53.633  1.00  0.00    -0.550 OA
ENDBRANCH  21  22
ENDBRANCH  20  21
ENDBRANCH  19  20
ENDBRANCH  18  19
ENDBRANCH  17  18
ENDBRANCH  16  17
ENDBRANCH  15  16
ENDBRANCH  14  15
ENDBRANCH  13  14
ENDBRANCH   1  13
TORSDOF 20
ENDMDL
MODEL 9
REMARK VINA RESULT:    -2.634      1.634      3.560
REMARK INTER + INTRA:         -10.046
REMARK INTER:                  -5.996
REMARK INTRA:                  -4.050
REMARK UNBOUND:                -4.333
REMARK SMILES CCCCCCCCCCCCCCCCCCCCCC(=O)[O-]
REMARK SMILES IDX 12 1 11 2 10 3 9 4 8 5 7 6 6 7 5 8 4 9 3 10 2 11 1 12 13 13
REMARK SMILES IDX 14 14 15 15 16 16 17 17 18 18 19 19 20 20 21 21 22 22 23 23
REMARK SMILES IDX 24 24
REMARK H PARENT
REMARK Flexibility Score: inf
ROOT
ATOM      1  C   UNL     1      56.544  27.402  52.967  1.00  0.00     0.000 C 
ENDROOT
BRANCH   1   2
ATOM      2  C   UNL     1      57.898  26.769  53.337  1.00  0.00     0.000 C 
BRANCH   2   3
ATOM      3  C   UNL     1      58.153  25.444  52.600  1.00  0.00     0.000 C 
BRANCH   3   4
ATOM      4  C   UNL     1      59.447  25.463  51.768  1.00  0.00    -0.000 C 
BRANCH   4   5
ATOM      5  C   UNL     1      59.236  25.911  50.306  1.00  0.00    -0.000 C 
BRANCH   5   6
ATOM      6  C   UNL     1      60.028  27.184  49.971  1.00  0.00    -0.000 C 
BRANCH   6   7
ATOM      7  C   UNL     1      59.083  28.349  49.640  1.00  0.00    -0.000 C 
BRANCH   7   8
ATOM      8  C   UNL     1      59.013  29.396  50.765  1.00  0.00    -0.000 C 
BRANCH   8   9
ATOM      9  C   UNL     1      60.347  29.546  51.517  1.00  0.00    -0.000 C 
BRANCH   9  10
ATOM     10  C   UNL     1      60.163  29.573  53.042  1.00  0.00    -0.000 C 
BRANCH  10  11
ATOM     11  C   UNL     1      58.891  30.316  53.474  1.00  0.00    -0.003 C 
ATOM     12  C   UNL     1      59.152  31.811  53.626  1.00  0.00     0.004 C 
ENDBRANCH  10  11
ENDBRANCH   9  10
ENDBRANCH   8   9
ENDBRANCH   7   8
ENDBRANCH   6   7
ENDBRANCH   5   6
ENDBRANCH   4   5
ENDBRANCH   3   4
ENDBRANCH   2   3
ENDBRANCH   1   2
BRANCH   1  13
ATOM     13  C   UNL     1      55.862  26.784  51.731  1.00  0.00     0.000 C 
BRANCH  13  14
ATOM     14  C   UNL     1      55.606  27.814  50.617  1.00  0.00     0.000 C 
BRANCH  14  15
ATOM     15  C   UNL     1      54.165  28.350  50.630  1.00  0.00     0.000 C 
BRANCH  15  16
ATOM     16  C   UNL     1      54.101  29.876  50.794  1.00  0.00     0.000 C 
BRANCH  16  17
ATOM     17  C   UNL     1      55.509  30.491  50.780  1.00  0.00     0.000 C 
BRANCH  17  18
ATOM     18  C   UNL     1      55.779  31.358  52.029  1.00  0.00     0.000 C 
BRANCH  18  19
ATOM     19  C   UNL     1      55.110  30.826  53.308  1.00  0.00     0.000 C 
BRANCH  19  20
ATOM     20  C   UNL     1      55.351  31.729  54.528  1.00  0.00     0.006 C 
BRANCH  20  21
ATOM     21  C   UNL     1      55.722  33.162  54.123  1.00  0.00     0.053 C 
BRANCH  21  22
ATOM     22  C   UNL     1      56.042  34.013  55.313  1.00  0.00     0.041 C 
ATOM     23  O   UNL     1      55.162  34.764  55.810  1.00  0.00    -0.550 OA
ATOM     24  O   UNL     1      57.315  33.984  55.868  1.00  0.00    -0.550 OA
ENDBRANCH  21  22
ENDBRANCH  20  21
ENDBRANCH  19  20
ENDBRANCH  18  19
ENDBRANCH  17  18
ENDBRANCH  16  17
ENDBRANCH  15  16
ENDBRANCH  14  15
ENDBRANCH  13  14
ENDBRANCH   1  13
TORSDOF 20
ENDMDL
