MODEL 1
REMARK VINA RESULT:    -7.283      0.000      0.000
REMARK INTER + INTRA:          -9.095
REMARK INTER:                  -8.773
REMARK INTRA:                  -0.322
REMARK UNBOUND:                -0.322
REMARK SMILES O=c1c(O)c(-c2ccc(O)c(O)c2)oc2cc(O)cc(O)c12
REMARK SMILES IDX 5 1 3 2 2 3 1 4 22 5 20 6 19 7 17 8 16 9 15 10 14 11 6 12
REMARK SMILES IDX 7 13 8 14 9 15 13 16 11 17 10 18 12 20 4 22 21 24 18 26
REMARK H PARENT 10 19 12 21 4 23 21 25 18 27
REMARK Flexibility Score: inf
ROOT
ATOM      1  C   UNL     1       8.325   8.324  32.895  1.00  0.00     0.180 A 
ATOM      2  C   UNL     1       9.197   8.197  31.798  1.00  0.00     0.208 A 
ATOM      3  C   UNL     1       9.361   9.286  30.929  1.00  0.00     0.238 A 
ATOM      4  O   UNL     1      10.184   9.185  29.982  1.00  0.00    -0.285 OA
ATOM      5  C   UNL     1       8.640  10.484  31.155  1.00  0.00     0.111 A 
ATOM      6  C   UNL     1       8.700  11.636  30.315  1.00  0.00     0.134 A 
ATOM      7  C   UNL     1       8.045  12.810  30.708  1.00  0.00     0.093 A 
ATOM      8  C   UNL     1       7.280  12.853  31.877  1.00  0.00     0.123 A 
ATOM      9  C   UNL     1       7.168  11.715  32.672  1.00  0.00     0.094 A 
ATOM     10  C   UNL     1       7.839  10.540  32.325  1.00  0.00     0.146 A 
ATOM     11  O   UNL     1       7.714   9.482  33.117  1.00  0.00    -0.452 OA
ENDROOT
BRANCH   1  12
ATOM     12  C   UNL     1       8.081   7.211  33.841  1.00  0.00     0.025 A 
ATOM     13  C   UNL     1       8.854   7.059  35.006  1.00  0.00     0.016 A 
ATOM     14  C   UNL     1       8.623   5.987  35.871  1.00  0.00     0.051 A 
ATOM     15  C   UNL     1       7.627   5.045  35.581  1.00  0.00     0.157 A 
ATOM     16  C   UNL     1       7.099   6.254  33.543  1.00  0.00     0.062 A 
ATOM     17  C   UNL     1       6.864   5.178  34.409  1.00  0.00     0.158 A 
BRANCH  15  18
ATOM     18  O   UNL     1       7.397   3.978  36.447  1.00  0.00    -0.504 OA
ATOM     19  H   UNL     1       7.854   3.082  36.318  1.00  0.00     0.293 HD
ENDBRANCH  15  18
BRANCH  17  20
ATOM     20  O   UNL     1       5.871   4.254  34.087  1.00  0.00    -0.504 OA
ATOM     21  H   UNL     1       5.026   4.522  33.597  1.00  0.00     0.293 HD
ENDBRANCH  17  20
ENDBRANCH   1  12
BRANCH   2  22
ATOM     22  O   UNL     1       9.915   7.013  31.606  1.00  0.00    -0.502 OA
ATOM     23  H   UNL     1      10.716   6.957  30.989  1.00  0.00     0.293 HD
ENDBRANCH   2  22
BRANCH   6  24
ATOM     24  O   UNL     1       9.358  11.671  29.083  1.00  0.00    -0.507 OA
ATOM     25  H   UNL     1      10.206  11.167  28.870  1.00  0.00     0.293 HD
ENDBRANCH   6  24
BRANCH   8  26
ATOM     26  O   UNL     1       6.620  14.022  32.251  1.00  0.00    -0.508 OA
ATOM     27  H   UNL     1       5.644  14.017  32.519  1.00  0.00     0.293 HD
ENDBRANCH   8  26
TORSDOF 6
ENDMDL
MODEL 2
REMARK VINA RESULT:    -7.167      7.683      9.820
REMARK INTER + INTRA:          -8.955
REMARK INTER:                  -8.812
REMARK INTRA:                  -0.143
REMARK UNBOUND:                -0.322
REMARK SMILES O=c1c(O)c(-c2ccc(O)c(O)c2)oc2cc(O)cc(O)c12
REMARK SMILES IDX 5 1 3 2 2 3 1 4 22 5 20 6 19 7 17 8 16 9 15 10 14 11 6 12
REMARK SMILES IDX 7 13 8 14 9 15 13 16 11 17 10 18 12 20 4 22 21 24 18 26
REMARK H PARENT 10 19 12 21 4 23 21 25 18 27
REMARK Flexibility Score: inf
ROOT
ATOM      1  C   UNL     1      11.049   5.446  25.690  1.00  0.00     0.180 A 
ATOM      2  C   UNL     1      10.113   4.415  25.487  1.00  0.00     0.208 A 
ATOM      3  C   UNL     1       9.655   4.159  24.185  1.00  0.00     0.238 A 
ATOM      4  O   UNL     1       8.860   3.200  24.002  1.00  0.00    -0.285 OA
ATOM      5  C   UNL     1      10.124   4.945  23.105  1.00  0.00     0.111 A 
ATOM      6  C   UNL     1       9.696   4.799  21.752  1.00  0.00     0.134 A 
ATOM      7  C   UNL     1      10.324   5.545  20.745  1.00  0.00     0.093 A 
ATOM      8  C   UNL     1      11.318   6.477  21.053  1.00  0.00     0.123 A 
ATOM      9  C   UNL     1      11.699   6.669  22.378  1.00  0.00     0.094 A 
ATOM     10  C   UNL     1      11.117   5.915  23.400  1.00  0.00     0.146 A 
ATOM     11  O   UNL     1      11.518   6.122  24.648  1.00  0.00    -0.452 OA
ENDROOT
BRANCH   1  12
ATOM     12  C   UNL     1      11.560   5.792  27.036  1.00  0.00     0.025 A 
ATOM     13  C   UNL     1      10.695   6.208  28.063  1.00  0.00     0.016 A 
ATOM     14  C   UNL     1      11.202   6.553  29.317  1.00  0.00     0.051 A 
ATOM     15  C   UNL     1      12.581   6.500  29.562  1.00  0.00     0.157 A 
ATOM     16  C   UNL     1      12.942   5.761  27.279  1.00  0.00     0.062 A 
ATOM     17  C   UNL     1      13.455   6.105  28.535  1.00  0.00     0.158 A 
BRANCH  15  18
ATOM     18  O   UNL     1      13.085   6.843  30.815  1.00  0.00    -0.504 OA
ATOM     19  H   UNL     1      12.527   7.357  31.489  1.00  0.00     0.293 HD
ENDBRANCH  15  18
BRANCH  17  20
ATOM     20  O   UNL     1      14.833   6.049  28.743  1.00  0.00    -0.504 OA
ATOM     21  H   UNL     1      15.471   5.716  28.032  1.00  0.00     0.293 HD
ENDBRANCH  17  20
ENDBRANCH   1  12
BRANCH   2  22
ATOM     22  O   UNL     1       9.681   3.637  26.564  1.00  0.00    -0.502 OA
ATOM     23  H   UNL     1       9.038   2.863  26.452  1.00  0.00     0.293 HD
ENDBRANCH   2  22
BRANCH   6  24
ATOM     24  O   UNL     1       8.649   3.964  21.348  1.00  0.00    -0.507 OA
ATOM     25  H   UNL     1       8.201   3.280  21.939  1.00  0.00     0.293 HD
ENDBRANCH   6  24
BRANCH   8  26
ATOM     26  O   UNL     1      11.925   7.225  20.046  1.00  0.00    -0.508 OA
ATOM     27  H   UNL     1      12.587   7.961  20.259  1.00  0.00     0.293 HD
ENDBRANCH   8  26
TORSDOF 6
ENDMDL
MODEL 3
REMARK VINA RESULT:    -6.844      9.962     11.284
REMARK INTER + INTRA:          -8.566
REMARK INTER:                  -8.287
REMARK INTRA:                  -0.279
REMARK UNBOUND:                -0.322
REMARK SMILES O=c1c(O)c(-c2ccc(O)c(O)c2)oc2cc(O)cc(O)c12
REMARK SMILES IDX 5 1 3 2 2 3 1 4 22 5 20 6 19 7 17 8 16 9 15 10 14 11 6 12
REMARK SMILES IDX 7 13 8 14 9 15 13 16 11 17 10 18 12 20 4 22 21 24 18 26
REMARK H PARENT 10 19 12 21 4 23 21 25 18 27
REMARK Flexibility Score: inf
ROOT
ATOM      1  C   UNL     1       9.462   1.661  24.405  1.00  0.00     0.180 A 
ATOM      2  C   UNL     1       9.650   2.288  25.650  1.00  0.00     0.208 A 
ATOM      3  C   UNL     1       9.881   3.673  25.687  1.00  0.00     0.238 A 
ATOM      4  O   UNL     1       9.994   4.237  26.806  1.00  0.00    -0.285 OA
ATOM      5  C   UNL     1       9.938   4.410  24.480  1.00  0.00     0.111 A 
ATOM      6  C   UNL     1      10.206   5.809  24.397  1.00  0.00     0.134 A 
ATOM      7  C   UNL     1      10.108   6.459  23.160  1.00  0.00     0.093 A 
ATOM      8  C   UNL     1       9.817   5.747  21.993  1.00  0.00     0.123 A 
ATOM      9  C   UNL     1       9.613   4.371  22.056  1.00  0.00     0.094 A 
ATOM     10  C   UNL     1       9.668   3.701  23.280  1.00  0.00     0.146 A 
ATOM     11  O   UNL     1       9.456   2.391  23.296  1.00  0.00    -0.452 OA
ENDROOT
BRANCH   1  12
ATOM     12  C   UNL     1       9.238   0.202  24.284  1.00  0.00     0.025 A 
ATOM     13  C   UNL     1      10.261  -0.662  23.857  1.00  0.00     0.016 A 
ATOM     14  C   UNL     1      10.020  -2.032  23.726  1.00  0.00     0.051 A 
ATOM     15  C   UNL     1       8.751  -2.557  24.006  1.00  0.00     0.157 A 
ATOM     16  C   UNL     1       7.963  -0.325  24.543  1.00  0.00     0.062 A 
ATOM     17  C   UNL     1       7.717  -1.697  24.414  1.00  0.00     0.158 A 
BRANCH  15  18
ATOM     18  O   UNL     1       8.513  -3.924  23.877  1.00  0.00    -0.504 OA
ATOM     19  H   UNL     1       7.700  -4.362  24.294  1.00  0.00     0.293 HD
ENDBRANCH  15  18
BRANCH  17  20
ATOM     20  O   UNL     1       6.442  -2.186  24.693  1.00  0.00    -0.504 OA
ATOM     21  H   UNL     1       6.146  -3.111  24.407  1.00  0.00     0.293 HD
ENDBRANCH  17  20
ENDBRANCH   1  12
BRANCH   2  22
ATOM     22  O   UNL     1       9.568   1.545  26.831  1.00  0.00    -0.502 OA
ATOM     23  H   UNL     1      10.271   0.866  27.096  1.00  0.00     0.293 HD
ENDBRANCH   2  22
BRANCH   6  24
ATOM     24  O   UNL     1      10.596   6.596  25.486  1.00  0.00    -0.507 OA
ATOM     25  H   UNL     1      10.746   7.593  25.449  1.00  0.00     0.293 HD
ENDBRANCH   6  24
BRANCH   8  26
ATOM     26  O   UNL     1       9.737   6.400  20.765  1.00  0.00    -0.508 OA
ATOM     27  H   UNL     1       9.184   7.240  20.646  1.00  0.00     0.293 HD
ENDBRANCH   8  26
TORSDOF 6
ENDMDL
MODEL 4
REMARK VINA RESULT:    -6.820      5.166      7.223
REMARK INTER + INTRA:          -8.537
REMARK INTER:                  -8.465
REMARK INTRA:                  -0.071
REMARK UNBOUND:                -0.322
REMARK SMILES O=c1c(O)c(-c2ccc(O)c(O)c2)oc2cc(O)cc(O)c12
REMARK SMILES IDX 5 1 3 2 2 3 1 4 22 5 20 6 19 7 17 8 16 9 15 10 14 11 6 12
REMARK SMILES IDX 7 13 8 14 9 15 13 16 11 17 10 18 12 20 4 22 21 24 18 26
REMARK H PARENT 10 19 12 21 4 23 21 25 18 27
REMARK Flexibility Score: inf
ROOT
ATOM      1  C   UNL     1      12.027  11.033  34.101  1.00  0.00     0.180 A 
ATOM      2  C   UNL     1      10.747  11.483  34.470  1.00  0.00     0.208 A 
ATOM      3  C   UNL     1       9.640  11.094  33.699  1.00  0.00     0.238 A 
ATOM      4  O   UNL     1       8.492  11.455  34.065  1.00  0.00    -0.285 OA
ATOM      5  C   UNL     1       9.828  10.273  32.560  1.00  0.00     0.111 A 
ATOM      6  C   UNL     1       8.783   9.852  31.685  1.00  0.00     0.134 A 
ATOM      7  C   UNL     1       9.065   8.935  30.664  1.00  0.00     0.093 A 
ATOM      8  C   UNL     1      10.367   8.475  30.449  1.00  0.00     0.123 A 
ATOM      9  C   UNL     1      11.404   8.927  31.262  1.00  0.00     0.094 A 
ATOM     10  C   UNL     1      11.147   9.814  32.310  1.00  0.00     0.146 A 
ATOM     11  O   UNL     1      12.162  10.211  33.067  1.00  0.00    -0.452 OA
ENDROOT
BRANCH   1  12
ATOM     12  C   UNL     1      13.245  11.421  34.850  1.00  0.00     0.025 A 
ATOM     13  C   UNL     1      13.369  11.165  36.227  1.00  0.00     0.016 A 
ATOM     14  C   UNL     1      14.516  11.562  36.918  1.00  0.00     0.051 A 
ATOM     15  C   UNL     1      15.549  12.232  36.249  1.00  0.00     0.157 A 
ATOM     16  C   UNL     1      14.273  12.110  34.188  1.00  0.00     0.062 A 
ATOM     17  C   UNL     1      15.424  12.510  34.878  1.00  0.00     0.158 A 
BRANCH  15  18
ATOM     18  O   UNL     1      16.693  12.625  36.941  1.00  0.00    -0.504 OA
ATOM     19  H   UNL     1      17.330  13.317  36.562  1.00  0.00     0.293 HD
ENDBRANCH  15  18
BRANCH  17  20
ATOM     20  O   UNL     1      16.430  13.181  34.184  1.00  0.00    -0.504 OA
ATOM     21  H   UNL     1      17.386  13.207  34.516  1.00  0.00     0.293 HD
ENDBRANCH  17  20
ENDBRANCH   1  12
BRANCH   2  22
ATOM     22  O   UNL     1      10.582  12.274  35.610  1.00  0.00    -0.502 OA
ATOM     23  H   UNL     1      11.111  13.123  35.764  1.00  0.00     0.293 HD
ENDBRANCH   2  22
BRANCH   6  24
ATOM     24  O   UNL     1       7.468  10.321  31.755  1.00  0.00    -0.507 OA
ATOM     25  H   UNL     1       6.873  10.243  32.566  1.00  0.00     0.293 HD
ENDBRANCH   6  24
BRANCH   8  26
ATOM     26  O   UNL     1      10.641   7.574  29.422  1.00  0.00    -0.508 OA
ATOM     27  H   UNL     1      11.479   7.006  29.424  1.00  0.00     0.293 HD
ENDBRANCH   8  26
TORSDOF 6
ENDMDL
MODEL 5
REMARK VINA RESULT:    -6.720      3.229      7.458
REMARK INTER + INTRA:          -8.416
REMARK INTER:                  -8.161
REMARK INTRA:                  -0.255
REMARK UNBOUND:                -0.322
REMARK SMILES O=c1c(O)c(-c2ccc(O)c(O)c2)oc2cc(O)cc(O)c12
REMARK SMILES IDX 5 1 3 2 2 3 1 4 22 5 20 6 19 7 17 8 16 9 15 10 14 11 6 12
REMARK SMILES IDX 7 13 8 14 9 15 13 16 11 17 10 18 12 20 4 22 21 24 18 26
REMARK H PARENT 10 19 12 21 4 23 21 25 18 27
REMARK Flexibility Score: inf
ROOT
ATOM      1  C   UNL     1       8.986   5.988  30.791  1.00  0.00     0.180 A 
ATOM      2  C   UNL     1       8.413   7.162  31.312  1.00  0.00     0.208 A 
ATOM      3  C   UNL     1       7.687   7.092  32.511  1.00  0.00     0.238 A 
ATOM      4  O   UNL     1       7.224   8.155  33.000  1.00  0.00    -0.285 OA
ATOM      5  C   UNL     1       7.528   5.847  33.167  1.00  0.00     0.111 A 
ATOM      6  C   UNL     1       6.779   5.653  34.366  1.00  0.00     0.134 A 
ATOM      7  C   UNL     1       6.798   4.403  34.997  1.00  0.00     0.093 A 
ATOM      8  C   UNL     1       7.487   3.324  34.437  1.00  0.00     0.123 A 
ATOM      9  C   UNL     1       8.172   3.488  33.236  1.00  0.00     0.094 A 
ATOM     10  C   UNL     1       8.201   4.733  32.602  1.00  0.00     0.146 A 
ATOM     11  O   UNL     1       8.874   4.849  31.464  1.00  0.00    -0.452 OA
ENDROOT
BRANCH   1  12
ATOM     12  C   UNL     1       9.745   5.978  29.520  1.00  0.00     0.025 A 
ATOM     13  C   UNL     1       9.203   5.420  28.348  1.00  0.00     0.016 A 
ATOM     14  C   UNL     1       9.946   5.399  27.166  1.00  0.00     0.051 A 
ATOM     15  C   UNL     1      11.246   5.923  27.139  1.00  0.00     0.157 A 
ATOM     16  C   UNL     1      11.055   6.482  29.493  1.00  0.00     0.062 A 
ATOM     17  C   UNL     1      11.803   6.464  28.310  1.00  0.00     0.158 A 
BRANCH  15  18
ATOM     18  O   UNL     1      11.985   5.903  25.957  1.00  0.00    -0.504 OA
ATOM     19  H   UNL     1      11.729   6.476  25.161  1.00  0.00     0.293 HD
ENDBRANCH  15  18
BRANCH  17  20
ATOM     20  O   UNL     1      13.096   6.986  28.318  1.00  0.00    -0.504 OA
ATOM     21  H   UNL     1      13.284   7.952  28.552  1.00  0.00     0.293 HD
ENDBRANCH  17  20
ENDBRANCH   1  12
BRANCH   2  22
ATOM     22  O   UNL     1       8.601   8.384  30.660  1.00  0.00    -0.502 OA
ATOM     23  H   UNL     1       8.873   9.226  31.152  1.00  0.00     0.293 HD
ENDBRANCH   2  22
BRANCH   6  24
ATOM     24  O   UNL     1       5.983   6.639  34.958  1.00  0.00    -0.507 OA
ATOM     25  H   UNL     1       5.710   7.501  34.511  1.00  0.00     0.293 HD
ENDBRANCH   6  24
BRANCH   8  26
ATOM     26  O   UNL     1       7.488   2.080  35.065  1.00  0.00    -0.508 OA
ATOM     27  H   UNL     1       7.140   1.251  34.599  1.00  0.00     0.293 HD
ENDBRANCH   8  26
TORSDOF 6
ENDMDL
MODEL 6
REMARK VINA RESULT:    -6.709      7.054      9.371
REMARK INTER + INTRA:          -8.403
REMARK INTER:                  -8.083
REMARK INTRA:                  -0.320
REMARK UNBOUND:                -0.322
REMARK SMILES O=c1c(O)c(-c2ccc(O)c(O)c2)oc2cc(O)cc(O)c12
REMARK SMILES IDX 5 1 3 2 2 3 1 4 22 5 20 6 19 7 17 8 16 9 15 10 14 11 6 12
REMARK SMILES IDX 7 13 8 14 9 15 13 16 11 17 10 18 12 20 4 22 21 24 18 26
REMARK H PARENT 10 19 12 21 4 23 21 25 18 27
REMARK Flexibility Score: inf
ROOT
ATOM      1  C   UNL     1      10.519   4.799  25.867  1.00  0.00     0.180 A 
ATOM      2  C   UNL     1      11.805   5.320  26.101  1.00  0.00     0.208 A 
ATOM      3  C   UNL     1      12.073   5.944  27.329  1.00  0.00     0.238 A 
ATOM      4  O   UNL     1      13.240   6.359  27.554  1.00  0.00    -0.285 OA
ATOM      5  C   UNL     1      11.050   6.055  28.301  1.00  0.00     0.111 A 
ATOM      6  C   UNL     1      11.200   6.704  29.563  1.00  0.00     0.134 A 
ATOM      7  C   UNL     1      10.160   6.640  30.500  1.00  0.00     0.093 A 
ATOM      8  C   UNL     1       8.953   6.007  30.194  1.00  0.00     0.123 A 
ATOM      9  C   UNL     1       8.776   5.423  28.942  1.00  0.00     0.094 A 
ATOM     10  C   UNL     1       9.808   5.439  28.000  1.00  0.00     0.146 A 
ATOM     11  O   UNL     1       9.601   4.861  26.823  1.00  0.00    -0.452 OA
ENDROOT
BRANCH   1  12
ATOM     12  C   UNL     1      10.153   4.148  24.587  1.00  0.00     0.025 A 
ATOM     13  C   UNL     1      10.278   2.759  24.411  1.00  0.00     0.016 A 
ATOM     14  C   UNL     1       9.952   2.170  23.188  1.00  0.00     0.051 A 
ATOM     15  C   UNL     1       9.508   2.960  22.118  1.00  0.00     0.157 A 
ATOM     16  C   UNL     1       9.729   4.938  23.507  1.00  0.00     0.062 A 
ATOM     17  C   UNL     1       9.400   4.351  22.279  1.00  0.00     0.158 A 
BRANCH  15  18
ATOM     18  O   UNL     1       9.181   2.369  20.899  1.00  0.00    -0.504 OA
ATOM     19  H   UNL     1       8.799   2.913  20.132  1.00  0.00     0.293 HD
ENDBRANCH  15  18
BRANCH  17  20
ATOM     20  O   UNL     1       8.970   5.166  21.233  1.00  0.00    -0.504 OA
ATOM     21  H   UNL     1       7.999   5.206  20.947  1.00  0.00     0.293 HD
ENDBRANCH  17  20
ENDBRANCH   1  12
BRANCH   2  22
ATOM     22  O   UNL     1      12.806   5.178  25.135  1.00  0.00    -0.502 OA
ATOM     23  H   UNL     1      13.791   5.230  25.363  1.00  0.00     0.293 HD
ENDBRANCH   2  22
BRANCH   6  24
ATOM     24  O   UNL     1      12.328   7.442  29.934  1.00  0.00    -0.507 OA
ATOM     25  H   UNL     1      12.441   7.912  30.819  1.00  0.00     0.293 HD
ENDBRANCH   6  24
BRANCH   8  26
ATOM     26  O   UNL     1       7.918   5.962  31.126  1.00  0.00    -0.508 OA
ATOM     27  H   UNL     1       7.320   6.761  31.293  1.00  0.00     0.293 HD
ENDBRANCH   8  26
TORSDOF 6
ENDMDL
MODEL 7
REMARK VINA RESULT:    -6.682      8.089     10.661
REMARK INTER + INTRA:          -8.371
REMARK INTER:                  -8.036
REMARK INTRA:                  -0.335
REMARK UNBOUND:                -0.322
REMARK SMILES O=c1c(O)c(-c2ccc(O)c(O)c2)oc2cc(O)cc(O)c12
REMARK SMILES IDX 5 1 3 2 2 3 1 4 22 5 20 6 19 7 17 8 16 9 15 10 14 11 6 12
REMARK SMILES IDX 7 13 8 14 9 15 13 16 11 17 10 18 12 20 4 22 21 24 18 26
REMARK H PARENT 10 19 12 21 4 23 21 25 18 27
REMARK Flexibility Score: inf
ROOT
ATOM      1  C   UNL     1      12.741   5.031  25.103  1.00  0.00     0.180 A 
ATOM      2  C   UNL     1      13.884   4.213  25.031  1.00  0.00     0.208 A 
ATOM      3  C   UNL     1      14.785   4.208  26.107  1.00  0.00     0.238 A 
ATOM      4  O   UNL     1      15.776   3.433  26.061  1.00  0.00    -0.285 OA
ATOM      5  C   UNL     1      14.544   5.032  27.233  1.00  0.00     0.111 A 
ATOM      6  C   UNL     1      15.411   5.136  28.361  1.00  0.00     0.134 A 
ATOM      7  C   UNL     1      15.008   5.882  29.476  1.00  0.00     0.093 A 
ATOM      8  C   UNL     1      13.798   6.581  29.475  1.00  0.00     0.123 A 
ATOM      9  C   UNL     1      12.972   6.533  28.355  1.00  0.00     0.094 A 
ATOM     10  C   UNL     1      13.331   5.768  27.242  1.00  0.00     0.146 A 
ATOM     11  O   UNL     1      12.510   5.742  26.199  1.00  0.00    -0.452 OA
ENDROOT
BRANCH   1  12
ATOM     12  C   UNL     1      11.757   5.108  23.998  1.00  0.00     0.025 A 
ATOM     13  C   UNL     1      11.908   6.029  22.947  1.00  0.00     0.016 A 
ATOM     14  C   UNL     1      10.955   6.102  21.929  1.00  0.00     0.051 A 
ATOM     15  C   UNL     1       9.831   5.265  21.952  1.00  0.00     0.157 A 
ATOM     16  C   UNL     1      10.619   4.287  24.028  1.00  0.00     0.062 A 
ATOM     17  C   UNL     1       9.661   4.356  23.009  1.00  0.00     0.158 A 
BRANCH  15  18
ATOM     18  O   UNL     1       8.882   5.338  20.934  1.00  0.00    -0.504 OA
ATOM     19  H   UNL     1       8.959   6.015  20.183  1.00  0.00     0.293 HD
ENDBRANCH  15  18
BRANCH  17  20
ATOM     20  O   UNL     1       8.550   3.515  23.066  1.00  0.00    -0.504 OA
ATOM     21  H   UNL     1       8.565   2.638  23.572  1.00  0.00     0.293 HD
ENDBRANCH  17  20
ENDBRANCH   1  12
BRANCH   2  22
ATOM     22  O   UNL     1      14.090   3.391  23.920  1.00  0.00    -0.502 OA
ATOM     23  H   UNL     1      13.529   3.461  23.080  1.00  0.00     0.293 HD
ENDBRANCH   2  22
BRANCH   6  24
ATOM     24  O   UNL     1      16.681   4.553  28.427  1.00  0.00    -0.507 OA
ATOM     25  H   UNL     1      17.417   4.704  27.753  1.00  0.00     0.293 HD
ENDBRANCH   6  24
BRANCH   8  26
ATOM     26  O   UNL     1      13.412   7.333  30.582  1.00  0.00    -0.508 OA
ATOM     27  H   UNL     1      13.385   6.933  31.512  1.00  0.00     0.293 HD
ENDBRANCH   8  26
TORSDOF 6
ENDMDL
MODEL 8
REMARK VINA RESULT:    -6.633      3.024      4.283
REMARK INTER + INTRA:          -8.312
REMARK INTER:                  -8.065
REMARK INTRA:                  -0.247
REMARK UNBOUND:                -0.322
REMARK SMILES O=c1c(O)c(-c2ccc(O)c(O)c2)oc2cc(O)cc(O)c12
REMARK SMILES IDX 5 1 3 2 2 3 1 4 22 5 20 6 19 7 17 8 16 9 15 10 14 11 6 12
REMARK SMILES IDX 7 13 8 14 9 15 13 16 11 17 10 18 12 20 4 22 21 24 18 26
REMARK H PARENT 10 19 12 21 4 23 21 25 18 27
REMARK Flexibility Score: inf
ROOT
ATOM      1  C   UNL     1       8.117   8.026  32.849  1.00  0.00     0.180 A 
ATOM      2  C   UNL     1       7.032   8.870  33.146  1.00  0.00     0.208 A 
ATOM      3  C   UNL     1       7.285  10.132  33.708  1.00  0.00     0.238 A 
ATOM      4  O   UNL     1       6.315  10.904  33.920  1.00  0.00    -0.285 OA
ATOM      5  C   UNL     1       8.617  10.526  33.982  1.00  0.00     0.111 A 
ATOM      6  C   UNL     1       8.986  11.764  34.588  1.00  0.00     0.134 A 
ATOM      7  C   UNL     1      10.341  12.105  34.692  1.00  0.00     0.093 A 
ATOM      8  C   UNL     1      11.340  11.223  34.272  1.00  0.00     0.123 A 
ATOM      9  C   UNL     1      10.990   9.987  33.734  1.00  0.00     0.094 A 
ATOM     10  C   UNL     1       9.646   9.634  33.584  1.00  0.00     0.146 A 
ATOM     11  O   UNL     1       9.357   8.451  33.057  1.00  0.00    -0.452 OA
ENDROOT
BRANCH   1  12
ATOM     12  C   UNL     1       7.928   6.672  32.277  1.00  0.00     0.025 A 
ATOM     13  C   UNL     1       7.388   5.624  33.043  1.00  0.00     0.016 A 
ATOM     14  C   UNL     1       7.242   4.349  32.491  1.00  0.00     0.051 A 
ATOM     15  C   UNL     1       7.645   4.099  31.172  1.00  0.00     0.157 A 
ATOM     16  C   UNL     1       8.350   6.412  30.964  1.00  0.00     0.062 A 
ATOM     17  C   UNL     1       8.205   5.136  30.407  1.00  0.00     0.158 A 
BRANCH  15  18
ATOM     18  O   UNL     1       7.497   2.827  30.623  1.00  0.00    -0.504 OA
ATOM     19  H   UNL     1       8.157   2.083  30.820  1.00  0.00     0.293 HD
ENDBRANCH  15  18
BRANCH  17  20
ATOM     20  O   UNL     1       8.622   4.918  29.094  1.00  0.00    -0.504 OA
ATOM     21  H   UNL     1       9.601   4.838  28.848  1.00  0.00     0.293 HD
ENDBRANCH  17  20
ENDBRANCH   1  12
BRANCH   2  22
ATOM     22  O   UNL     1       5.727   8.469  32.846  1.00  0.00    -0.502 OA
ATOM     23  H   UNL     1       5.404   8.339  31.895  1.00  0.00     0.293 HD
ENDBRANCH   2  22
BRANCH   6  24
ATOM     24  O   UNL     1       8.071  12.676  35.124  1.00  0.00    -0.507 OA
ATOM     25  H   UNL     1       7.647  12.594  36.036  1.00  0.00     0.293 HD
ENDBRANCH   6  24
BRANCH   8  26
ATOM     26  O   UNL     1      12.685  11.565  34.394  1.00  0.00    -0.508 OA
ATOM     27  H   UNL     1      13.414  11.008  33.966  1.00  0.00     0.293 HD
ENDBRANCH   8  26
TORSDOF 6
ENDMDL
MODEL 9
REMARK VINA RESULT:    -6.616      2.932      6.620
REMARK INTER + INTRA:          -8.292
REMARK INTER:                  -7.969
REMARK INTRA:                  -0.322
REMARK UNBOUND:                -0.322
REMARK SMILES O=c1c(O)c(-c2ccc(O)c(O)c2)oc2cc(O)cc(O)c12
REMARK SMILES IDX 5 1 3 2 2 3 1 4 22 5 20 6 19 7 17 8 16 9 15 10 14 11 6 12
REMARK SMILES IDX 7 13 8 14 9 15 13 16 11 17 10 18 12 20 4 22 21 24 18 26
REMARK H PARENT 10 19 12 21 4 23 21 25 18 27
REMARK Flexibility Score: inf
ROOT
ATOM      1  C   UNL     1      10.194   7.125  31.273  1.00  0.00     0.180 A 
ATOM      2  C   UNL     1       9.850   8.433  31.661  1.00  0.00     0.208 A 
ATOM      3  C   UNL     1       8.767   8.621  32.535  1.00  0.00     0.238 A 
ATOM      4  O   UNL     1       8.499   9.788  32.921  1.00  0.00    -0.285 OA
ATOM      5  C   UNL     1       8.032   7.503  32.996  1.00  0.00     0.111 A 
ATOM      6  C   UNL     1       6.892   7.580  33.851  1.00  0.00     0.134 A 
ATOM      7  C   UNL     1       6.322   6.402  34.349  1.00  0.00     0.093 A 
ATOM      8  C   UNL     1       6.810   5.149  33.971  1.00  0.00     0.123 A 
ATOM      9  C   UNL     1       7.885   5.063  33.090  1.00  0.00     0.094 A 
ATOM     10  C   UNL     1       8.498   6.221  32.604  1.00  0.00     0.146 A 
ATOM     11  O   UNL     1       9.526   6.094  31.775  1.00  0.00    -0.452 OA
ENDROOT
BRANCH   1  12
ATOM     12  C   UNL     1      11.308   6.849  30.337  1.00  0.00     0.025 A 
ATOM     13  C   UNL     1      12.615   6.622  30.801  1.00  0.00     0.016 A 
ATOM     14  C   UNL     1      13.655   6.389  29.898  1.00  0.00     0.051 A 
ATOM     15  C   UNL     1      13.408   6.391  28.519  1.00  0.00     0.157 A 
ATOM     16  C   UNL     1      11.069   6.872  28.954  1.00  0.00     0.062 A 
ATOM     17  C   UNL     1      12.109   6.638  28.045  1.00  0.00     0.158 A 
BRANCH  15  18
ATOM     18  O   UNL     1      14.447   6.155  27.620  1.00  0.00    -0.504 OA
ATOM     19  H   UNL     1      15.414   6.121  27.924  1.00  0.00     0.293 HD
ENDBRANCH  15  18
BRANCH  17  20
ATOM     20  O   UNL     1      11.831   6.655  26.679  1.00  0.00    -0.504 OA
ATOM     21  H   UNL     1      11.761   5.804  26.134  1.00  0.00     0.293 HD
ENDBRANCH  17  20
ENDBRANCH   1  12
BRANCH   2  22
ATOM     22  O   UNL     1      10.604   9.520  31.211  1.00  0.00    -0.502 OA
ATOM     23  H   UNL     1      10.178  10.366  30.852  1.00  0.00     0.293 HD
ENDBRANCH   2  22
BRANCH   6  24
ATOM     24  O   UNL     1       6.269   8.778  34.216  1.00  0.00    -0.507 OA
ATOM     25  H   UNL     1       5.509   8.851  34.875  1.00  0.00     0.293 HD
ENDBRANCH   6  24
BRANCH   8  26
ATOM     26  O   UNL     1       6.227   3.982  34.460  1.00  0.00    -0.508 OA
ATOM     27  H   UNL     1       6.717   3.096  34.442  1.00  0.00     0.293 HD
ENDBRANCH   8  26
TORSDOF 6
ENDMDL
