MODEL 1
REMARK VINA RESULT:     1.364      0.000      0.000
REMARK INTER + INTRA:           2.983
REMARK INTER:                   2.002
REMARK INTRA:                   0.982
REMARK UNBOUND:                 0.982
REMARK SMILES C=C1CC=CC(C)(C)CC=C(C)CCC1
REMARK SMILES IDX 2 1 1 2 15 3 14 4 13 5 11 6 12 7 10 8 3 10 4 11 5 12 6 13
REMARK SMILES IDX 7 14 8 15 9 16
REMARK H PARENT
REMARK Flexibility Score: 60.00
ROOT
ATOM      1  C   UNL     1     154.073 135.654 162.768  1.00  0.00    -0.074 C 
ATOM      2  C   UNL     1     153.452 134.899 163.689  1.00  0.00     0.008 C 
ENDROOT
BRANCH   1   3
ATOM      3  C   UNL     1     154.980 136.782 163.230  1.00  0.00     0.031 C 
BRANCH   3   4
ATOM      4  C   UNL     1     154.381 137.573 164.404  1.00  0.00     0.009 C 
BRANCH   4   5
ATOM      5  C   UNL     1     153.403 138.681 163.967  1.00  0.00     0.030 C 
BRANCH   5   6
ATOM      6  C   UNL     1     153.626 139.138 162.530  1.00  0.00    -0.077 C 
ATOM      7  C   UNL     1     154.810 140.032 162.248  1.00  0.00     0.039 C 
ATOM      8  C   UNL     1     152.815 138.840 161.483  1.00  0.00    -0.027 CG0
ATOM      9  G   UNL     1     151.491 138.099 161.524  1.00  0.00     0.000 G0
ENDBRANCH   5   6
ENDBRANCH   4   5
ENDBRANCH   3   4
ENDBRANCH   1   3
BRANCH   1  10
ATOM     10  C   UNL     1     153.771 135.426 161.300  1.00  0.00     0.057 C 
BRANCH  10  11
ATOM     11  C   UNL     1     152.360 134.946 161.079  1.00  0.00    -0.026 C 
ATOM     12  C   UNL     1     151.305 135.668 160.640  1.00  0.00    -0.024 C 
BRANCH  12  13
ATOM     13  C   UNL     1     151.242 137.161 160.289  1.00  0.00    -0.014 C 
ATOM     14  C   UNL     1     149.887 137.495 159.624  1.00  0.00     0.016 C 
ATOM     15  C   UNL     1     152.339 137.441 159.229  1.00  0.00     0.016 C 
BRANCH  13  16
ATOM     16  C   UNL     1     151.486 138.094 161.517  1.00  0.00     0.038 CG0
ATOM     17  G   UNL     1     152.812 138.831 161.462  1.00  0.00     0.000 G0
ENDBRANCH  13  16
ENDBRANCH  12  13
ENDBRANCH  10  11
ENDBRANCH   1  10
TORSDOF 0
ENDMDL
MODEL 2
REMARK VINA RESULT:     1.922      1.107      3.823
REMARK INTER + INTRA:           3.802
REMARK INTER:                   2.781
REMARK INTRA:                   1.022
REMARK UNBOUND:                 0.982
REMARK SMILES C=C1CC=CC(C)(C)CC=C(C)CCC1
REMARK SMILES IDX 2 1 1 2 15 3 14 4 13 5 11 6 12 7 10 8 3 10 4 11 5 12 6 13
REMARK SMILES IDX 7 14 8 15 9 16
REMARK H PARENT
REMARK Flexibility Score: 60.00
ROOT
ATOM      1  C   UNL     1     153.196 135.150 162.103  1.00  0.00    -0.074 C 
ATOM      2  C   UNL     1     153.938 134.875 161.017  1.00  0.00     0.008 C 
ENDROOT
BRANCH   1   3
ATOM      3  C   UNL     1     151.683 135.084 161.997  1.00  0.00     0.031 C 
BRANCH   3   4
ATOM      4  C   UNL     1     151.128 136.036 160.925  1.00  0.00     0.009 C 
BRANCH   4   5
ATOM      5  C   UNL     1     151.264 137.527 161.292  1.00  0.00     0.030 C 
BRANCH   5   6
ATOM      6  C   UNL     1     152.533 138.163 160.735  1.00  0.00    -0.077 C 
ATOM      7  C   UNL     1     153.023 137.699 159.384  1.00  0.00     0.039 C 
ATOM      8  C   UNL     1     153.288 139.088 161.381  1.00  0.00    -0.027 CG0
ATOM      9  G   UNL     1     153.104 139.603 162.797  1.00  0.00     0.000 G0
ENDBRANCH   5   6
ENDBRANCH   4   5
ENDBRANCH   3   4
ENDBRANCH   1   3
BRANCH   1  10
ATOM     10  C   UNL     1     153.886 135.615 163.370  1.00  0.00     0.057 C 
BRANCH  10  11
ATOM     11  C   UNL     1     154.995 136.595 163.086  1.00  0.00    -0.026 C 
ATOM     12  C   UNL     1     154.996 137.926 163.317  1.00  0.00    -0.024 C 
BRANCH  12  13
ATOM     13  C   UNL     1     153.873 138.802 163.889  1.00  0.00    -0.014 C 
ATOM     14  C   UNL     1     154.441 139.767 164.956  1.00  0.00     0.016 C 
ATOM     15  C   UNL     1     152.874 137.869 164.621  1.00  0.00     0.016 C 
BRANCH  13  16
ATOM     16  C   UNL     1     153.098 139.602 162.794  1.00  0.00     0.038 CG0
ATOM     17  G   UNL     1     153.316 139.070 161.390  1.00  0.00     0.000 G0
ENDBRANCH  13  16
ENDBRANCH  12  13
ENDBRANCH  10  11
ENDBRANCH   1  10
TORSDOF 0
ENDMDL
MODEL 3
REMARK VINA RESULT:     3.249      0.901      3.708
REMARK INTER + INTRA:           5.750
REMARK INTER:                   3.763
REMARK INTRA:                   1.988
REMARK UNBOUND:                 0.982
REMARK SMILES C=C1CC=CC(C)(C)CC=C(C)CCC1
REMARK SMILES IDX 2 1 1 2 15 3 14 4 13 5 11 6 12 7 10 8 3 10 4 11 5 12 6 13
REMARK SMILES IDX 7 14 8 15 9 16
REMARK H PARENT
REMARK Flexibility Score: 60.00
ROOT
ATOM      1  C   UNL     1     153.896 135.372 162.552  1.00  0.00    -0.074 C 
ATOM      2  C   UNL     1     154.353 135.071 161.325  1.00  0.00     0.008 C 
ENDROOT
BRANCH   1   3
ATOM      3  C   UNL     1     152.522 134.875 162.968  1.00  0.00     0.031 C 
BRANCH   3   4
ATOM      4  C   UNL     1     151.386 135.708 162.352  1.00  0.00     0.009 C 
BRANCH   4   5
ATOM      5  C   UNL     1     151.390 135.714 160.810  1.00  0.00     0.030 C 
BRANCH   5   6
ATOM      6  C   UNL     1     151.259 137.114 160.221  1.00  0.00    -0.077 C 
ATOM      7  C   UNL     1     150.097 137.386 159.295  1.00  0.00     0.039 C 
ATOM      8  C   UNL     1     152.133 138.132 160.430  1.00  0.00    -0.027 CG0
ATOM      9  G   UNL     1     153.448 138.077 161.184  1.00  0.00     0.000 G0
ENDBRANCH   5   6
ENDBRANCH   4   5
ENDBRANCH   3   4
ENDBRANCH   1   3
BRANCH   1  10
ATOM     10  C   UNL     1     154.719 136.280 163.444  1.00  0.00     0.057 C 
BRANCH  10  11
ATOM     11  C   UNL     1     153.863 137.272 164.188  1.00  0.00    -0.026 C 
ATOM     12  C   UNL     1     153.371 138.443 163.726  1.00  0.00    -0.024 C 
BRANCH  12  13
ATOM     13  C   UNL     1     153.576 139.096 162.352  1.00  0.00    -0.014 C 
ATOM     14  C   UNL     1     154.945 139.814 162.303  1.00  0.00     0.016 C 
ATOM     15  C   UNL     1     152.492 140.192 162.186  1.00  0.00     0.016 C 
BRANCH  13  16
ATOM     16  C   UNL     1     153.452 138.087 161.166  1.00  0.00     0.038 CG0
ATOM     17  G   UNL     1     152.110 138.148 160.460  1.00  0.00     0.000 G0
ENDBRANCH  13  16
ENDBRANCH  12  13
ENDBRANCH  10  11
ENDBRANCH   1  10
TORSDOF 0
ENDMDL
MODEL 4
REMARK VINA RESULT:     3.364     20.198     22.300
REMARK INTER + INTRA:           5.918
REMARK INTER:                   4.425
REMARK INTRA:                   1.493
REMARK UNBOUND:                 0.982
REMARK SMILES C=C1CC=CC(C)(C)CC=C(C)CCC1
REMARK SMILES IDX 2 1 1 2 15 3 14 4 13 5 11 6 12 7 10 8 3 10 4 11 5 12 6 13
REMARK SMILES IDX 7 14 8 15 9 16
REMARK H PARENT
REMARK Flexibility Score: 60.00
ROOT
ATOM      1  C   UNL     1     136.034 154.465 163.037  1.00  0.00    -0.074 C 
ATOM      2  C   UNL     1     136.647 155.069 164.068  1.00  0.00     0.008 C 
ENDROOT
BRANCH   1   3
ATOM      3  C   UNL     1     134.897 153.498 163.320  1.00  0.00     0.031 C 
BRANCH   3   4
ATOM      4  C   UNL     1     134.887 152.305 162.350  1.00  0.00     0.009 C 
BRANCH   4   5
ATOM      5  C   UNL     1     135.710 151.100 162.845  1.00  0.00     0.030 C 
BRANCH   5   6
ATOM      6  C   UNL     1     137.123 151.480 163.274  1.00  0.00    -0.077 C 
ATOM      7  C   UNL     1     137.442 151.468 164.750  1.00  0.00     0.039 C 
ATOM      8  C   UNL     1     138.113 151.874 162.432  1.00  0.00    -0.027 CG0
ATOM      9  G   UNL     1     138.010 152.118 160.938  1.00  0.00     0.000 G0
ENDBRANCH   5   6
ENDBRANCH   4   5
ENDBRANCH   3   4
ENDBRANCH   1   3
BRANCH   1  10
ATOM     10  C   UNL     1     136.559 154.688 161.633  1.00  0.00     0.057 C 
BRANCH  10  11
ATOM     11  C   UNL     1     138.001 155.124 161.628  1.00  0.00    -0.026 C 
ATOM     12  C   UNL     1     139.055 154.473 161.090  1.00  0.00    -0.024 C 
BRANCH  12  13
ATOM     13  C   UNL     1     139.083 153.112 160.379  1.00  0.00    -0.014 C 
ATOM     14  C   UNL     1     140.493 152.486 160.482  1.00  0.00     0.016 C 
ATOM     15  C   UNL     1     138.817 153.363 158.872  1.00  0.00     0.016 C 
BRANCH  13  16
ATOM     16  C   UNL     1     138.008 152.115 160.915  1.00  0.00     0.038 CG0
ATOM     17  G   UNL     1     138.107 151.866 162.409  1.00  0.00     0.000 G0
ENDBRANCH  13  16
ENDBRANCH  12  13
ENDBRANCH  10  11
ENDBRANCH   1  10
TORSDOF 0
ENDMDL
MODEL 5
REMARK VINA RESULT:     3.431      1.353      4.378
REMARK INTER + INTRA:           6.017
REMARK INTER:                   4.079
REMARK INTRA:                   1.938
REMARK UNBOUND:                 0.982
REMARK SMILES C=C1CC=CC(C)(C)CC=C(C)CCC1
REMARK SMILES IDX 2 1 1 2 15 3 14 4 13 5 11 6 12 7 10 8 3 10 4 11 5 12 6 13
REMARK SMILES IDX 7 14 8 15 9 16
REMARK H PARENT
REMARK Flexibility Score: 60.00
ROOT
ATOM      1  C   UNL     1     153.956 139.663 162.293  1.00  0.00    -0.074 C 
ATOM      2  C   UNL     1     154.892 140.494 161.805  1.00  0.00     0.008 C 
ENDROOT
BRANCH   1   3
ATOM      3  C   UNL     1     152.628 139.541 161.566  1.00  0.00     0.031 C 
BRANCH   3   4
ATOM      4  C   UNL     1     152.798 139.094 160.104  1.00  0.00     0.009 C 
BRANCH   4   5
ATOM      5  C   UNL     1     152.841 137.564 159.927  1.00  0.00     0.030 C 
BRANCH   5   6
ATOM      6  C   UNL     1     151.634 136.861 160.539  1.00  0.00    -0.077 C 
ATOM      7  C   UNL     1     150.272 137.480 160.327  1.00  0.00     0.039 C 
ATOM      8  C   UNL     1     151.689 135.738 161.300  1.00  0.00    -0.027 CG0
ATOM      9  G   UNL     1     152.931 135.015 161.787  1.00  0.00     0.000 G0
ENDBRANCH   5   6
ENDBRANCH   4   5
ENDBRANCH   3   4
ENDBRANCH   1   3
BRANCH   1  10
ATOM     10  C   UNL     1     154.212 138.951 163.606  1.00  0.00     0.057 C 
BRANCH  10  11
ATOM     11  C   UNL     1     153.054 138.077 164.014  1.00  0.00    -0.026 C 
ATOM     12  C   UNL     1     152.873 136.768 163.732  1.00  0.00    -0.024 C 
BRANCH  12  13
ATOM     13  C   UNL     1     153.760 135.832 162.900  1.00  0.00    -0.014 C 
ATOM     14  C   UNL     1     154.544 134.875 163.828  1.00  0.00     0.016 C 
ATOM     15  C   UNL     1     154.814 136.707 162.172  1.00  0.00     0.016 C 
BRANCH  13  16
ATOM     16  C   UNL     1     152.965 135.018 161.831  1.00  0.00     0.038 CG0
ATOM     17  G   UNL     1     151.736 135.742 161.312  1.00  0.00     0.000 G0
ENDBRANCH  13  16
ENDBRANCH  12  13
ENDBRANCH  10  11
ENDBRANCH   1  10
TORSDOF 0
ENDMDL
MODEL 6
REMARK VINA RESULT:     3.696     20.346     22.117
REMARK INTER + INTRA:           6.406
REMARK INTER:                   5.270
REMARK INTRA:                   1.136
REMARK UNBOUND:                 0.982
REMARK SMILES C=C1CC=CC(C)(C)CC=C(C)CCC1
REMARK SMILES IDX 2 1 1 2 15 3 14 4 13 5 11 6 12 7 10 8 3 10 4 11 5 12 6 13
REMARK SMILES IDX 7 14 8 15 9 16
REMARK H PARENT
REMARK Flexibility Score: 60.00
ROOT
ATOM      1  C   UNL     1     136.217 154.052 163.653  1.00  0.00    -0.074 C 
ATOM      2  C   UNL     1     134.876 154.015 163.728  1.00  0.00     0.008 C 
ENDROOT
BRANCH   1   3
ATOM      3  C   UNL     1     137.030 153.104 164.519  1.00  0.00     0.031 C 
BRANCH   3   4
ATOM      4  C   UNL     1     137.457 151.837 163.760  1.00  0.00     0.009 C 
BRANCH   4   5
ATOM      5  C   UNL     1     136.512 151.463 162.601  1.00  0.00     0.030 C 
BRANCH   5   6
ATOM      6  C   UNL     1     137.253 150.925 161.381  1.00  0.00    -0.077 C 
ATOM      7  C   UNL     1     136.713 149.679 160.719  1.00  0.00     0.039 C 
ATOM      8  C   UNL     1     138.391 151.455 160.864  1.00  0.00    -0.027 CG0
ATOM      9  G   UNL     1     139.213 152.599 161.427  1.00  0.00     0.000 G0
ENDBRANCH   5   6
ENDBRANCH   4   5
ENDBRANCH   3   4
ENDBRANCH   1   3
BRANCH   1  10
ATOM     10  C   UNL     1     136.880 155.104 162.786  1.00  0.00     0.057 C 
BRANCH  10  11
ATOM     11  C   UNL     1     136.686 154.832 161.316  1.00  0.00    -0.026 C 
ATOM     12  C   UNL     1     137.593 154.341 160.444  1.00  0.00    -0.024 C 
BRANCH  12  13
ATOM     13  C   UNL     1     139.061 153.966 160.694  1.00  0.00    -0.014 C 
ATOM     14  C   UNL     1     139.772 155.091 161.482  1.00  0.00     0.016 C 
ATOM     15  C   UNL     1     139.765 153.875 159.316  1.00  0.00     0.016 C 
BRANCH  13  16
ATOM     16  C   UNL     1     139.230 152.600 161.432  1.00  0.00     0.038 CG0
ATOM     17  G   UNL     1     138.389 151.485 160.839  1.00  0.00     0.000 G0
ENDBRANCH  13  16
ENDBRANCH  12  13
ENDBRANCH  10  11
ENDBRANCH   1  10
TORSDOF 0
ENDMDL
