MODEL 1
REMARK VINA RESULT:    -8.342      0.000      0.000
REMARK INTER + INTRA:         -11.467
REMARK INTER:                 -11.025
REMARK INTRA:                  -0.443
REMARK UNBOUND:                -0.443
REMARK SMILES CC[C@@H](C=C[C@H](C)[C@@H]1CC[C@H]2C3=CC[C@H]4C[C@@H](O)CC[C@@]4(C)[C@H]3CC[C@]21C)C(C)C
REMARK SMILES IDX 6 1 7 2 5 3 4 4 3 5 2 6 1 7 28 8 29 9 30 10 8 11 9 12 26 13
REMARK SMILES IDX 10 14 11 15 25 16 27 17 12 18 24 19 23 20 13 21 21 22 14 23
REMARK SMILES IDX 15 24 20 25 22 26 16 27 19 28 17 29 18 30
REMARK H PARENT 18 31
REMARK Flexibility Score: inf
ROOT
ATOM      1  C   UNL     1     114.569 122.481 128.207  1.00  0.00     0.012 C 
ATOM      2  C   UNL     1     113.055 122.692 128.068  1.00  0.00     0.012 C 
ENDROOT
BRANCH   1   3
ATOM      3  C   UNL     1     115.247 123.832 128.097  1.00  0.00    -0.028 C 
ATOM      4  C   UNL     1     116.570 123.938 127.882  1.00  0.00    -0.027 C 
BRANCH   4   5
ATOM      5  C   UNL     1     117.288 125.264 127.704  1.00  0.00     0.014 C 
BRANCH   5   6
ATOM      6  C   UNL     1     118.670 125.065 127.030  1.00  0.00     0.004 C 
ATOM      7  C   UNL     1     119.146 123.611 127.051  1.00  0.00     0.004 C 
ENDBRANCH   5   6
BRANCH   5   8
ATOM      8  C   UNL     1     117.311 126.122 129.011  1.00  0.00    -0.011 C 
ATOM      9  C   UNL     1     116.072 127.009 129.212  1.00  0.00     0.008 C 
ATOM     10  C   UNL     1     118.584 126.978 129.091  1.00  0.00     0.008 C 
ENDBRANCH   5   8
ENDBRANCH   4   5
ENDBRANCH   1   3
BRANCH   1  11
ATOM     11  C   UNL     1     114.907 121.688 129.515  1.00  0.00     0.002 C 
ATOM     12  C   UNL     1     114.192 120.351 129.681  1.00  0.00     0.005 C 
ATOM     13  C   UNL     1     114.734 122.417 130.889  1.00  0.00    -0.023 C 
ATOM     14  C   UNL     1     114.512 119.943 131.106  1.00  0.00     0.009 C 
ATOM     15  C   UNL     1     114.568 121.246 131.923  1.00  0.00     0.021 C 
ATOM     16  C   UNL     1     115.941 123.347 131.192  1.00  0.00     0.008 C 
ATOM     17  C   UNL     1     113.451 123.287 130.917  1.00  0.00     0.012 C 
ATOM     18  C   UNL     1     115.606 121.139 133.042  1.00  0.00    -0.067 C 
ATOM     19  C   UNL     1     117.169 122.592 131.693  1.00  0.00     0.009 C 
ATOM     20  C   UNL     1     116.888 121.951 133.064  1.00  0.00     0.021 C 
ATOM     21  C   UNL     1     115.344 120.311 134.070  1.00  0.00    -0.027 C 
ATOM     22  C   UNL     1     118.089 121.111 133.638  1.00  0.00    -0.023 C 
ATOM     23  C   UNL     1     116.237 120.161 135.269  1.00  0.00     0.031 C 
ATOM     24  C   UNL     1     117.709 120.650 135.093  1.00  0.00     0.002 C 
ATOM     25  C   UNL     1     118.396 119.869 132.744  1.00  0.00     0.010 C 
ATOM     26  C   UNL     1     119.348 122.022 133.708  1.00  0.00     0.012 C 
ATOM     27  C   UNL     1     118.711 119.622 135.686  1.00  0.00     0.036 C 
ATOM     28  C   UNL     1     119.439 118.927 133.359  1.00  0.00     0.032 C 
ATOM     29  C   UNL     1     119.014 118.437 134.747  1.00  0.00     0.114 C 
BRANCH  29  30
ATOM     30  O   UNL     1     117.904 117.587 134.625  1.00  0.00    -0.393 OA
ATOM     31  H   UNL     1     117.294 118.004 133.961  1.00  0.00     0.210 HD
ENDBRANCH  29  30
ENDBRANCH   1  11
TORSDOF 6
ENDMDL
MODEL 2
REMARK VINA RESULT:    -7.832      3.119      6.312
REMARK INTER + INTRA:         -10.793
REMARK INTER:                 -10.020
REMARK INTRA:                  -0.773
REMARK UNBOUND:                -0.443
REMARK SMILES CC[C@@H](C=C[C@H](C)[C@@H]1CC[C@H]2C3=CC[C@H]4C[C@@H](O)CC[C@@]4(C)[C@H]3CC[C@]21C)C(C)C
REMARK SMILES IDX 6 1 7 2 5 3 4 4 3 5 2 6 1 7 28 8 29 9 30 10 8 11 9 12 26 13
REMARK SMILES IDX 10 14 11 15 25 16 27 17 12 18 24 19 23 20 13 21 21 22 14 23
REMARK SMILES IDX 15 24 20 25 22 26 16 27 19 28 17 29 18 30
REMARK H PARENT 18 31
REMARK Flexibility Score: inf
ROOT
ATOM      1  C   UNL     1     114.152 119.939 128.769  1.00  0.00     0.012 C 
ATOM      2  C   UNL     1     113.735 120.376 127.358  1.00  0.00     0.012 C 
ENDROOT
BRANCH   1   3
ATOM      3  C   UNL     1     114.931 118.643 128.653  1.00  0.00    -0.028 C 
ATOM      4  C   UNL     1     116.192 118.622 128.186  1.00  0.00    -0.027 C 
BRANCH   4   5
ATOM      5  C   UNL     1     117.035 117.361 128.106  1.00  0.00     0.014 C 
BRANCH   5   6
ATOM      6  C   UNL     1     118.318 117.493 128.967  1.00  0.00     0.004 C 
ATOM      7  C   UNL     1     118.603 118.930 129.408  1.00  0.00     0.004 C 
ENDBRANCH   5   6
BRANCH   5   8
ATOM      8  C   UNL     1     117.273 116.883 126.638  1.00  0.00    -0.011 C 
ATOM      9  C   UNL     1     117.735 117.989 125.674  1.00  0.00     0.008 C 
ATOM     10  C   UNL     1     116.027 116.186 126.071  1.00  0.00     0.008 C 
ENDBRANCH   5   8
ENDBRANCH   4   5
ENDBRANCH   1   3
BRANCH   1  11
ATOM     11  C   UNL     1     114.912 121.090 129.511  1.00  0.00     0.002 C 
ATOM     12  C   UNL     1     115.233 120.833 130.979  1.00  0.00     0.005 C 
ATOM     13  C   UNL     1     114.296 122.528 129.474  1.00  0.00    -0.023 C 
ATOM     14  C   UNL     1     115.729 122.173 131.483  1.00  0.00     0.009 C 
ATOM     15  C   UNL     1     114.920 123.242 130.727  1.00  0.00     0.021 C 
ATOM     16  C   UNL     1     114.608 123.244 128.131  1.00  0.00     0.008 C 
ATOM     17  C   UNL     1     112.755 122.494 129.641  1.00  0.00     0.012 C 
ATOM     18  C   UNL     1     115.769 124.490 130.479  1.00  0.00    -0.067 C 
ATOM     19  C   UNL     1     116.028 123.800 128.065  1.00  0.00     0.009 C 
ATOM     20  C   UNL     1     116.218 124.926 129.097  1.00  0.00     0.021 C 
ATOM     21  C   UNL     1     116.097 125.252 131.539  1.00  0.00    -0.027 C 
ATOM     22  C   UNL     1     117.672 125.529 129.129  1.00  0.00    -0.023 C 
ATOM     23  C   UNL     1     116.864 126.540 131.434  1.00  0.00     0.031 C 
ATOM     24  C   UNL     1     117.669 126.755 130.115  1.00  0.00     0.002 C 
ATOM     25  C   UNL     1     118.719 124.468 129.594  1.00  0.00     0.010 C 
ATOM     26  C   UNL     1     118.039 126.027 127.702  1.00  0.00     0.012 C 
ATOM     27  C   UNL     1     119.093 127.298 130.414  1.00  0.00     0.036 C 
ATOM     28  C   UNL     1     120.119 125.059 129.811  1.00  0.00     0.032 C 
ATOM     29  C   UNL     1     120.100 126.206 130.826  1.00  0.00     0.114 C 
BRANCH  29  30
ATOM     30  O   UNL     1     119.807 125.699 132.101  1.00  0.00    -0.393 OA
ATOM     31  H   UNL     1     120.071 126.397 132.756  1.00  0.00     0.210 HD
ENDBRANCH  29  30
ENDBRANCH   1  11
TORSDOF 6
ENDMDL
MODEL 3
REMARK VINA RESULT:    -7.604      3.538      4.937
REMARK INTER + INTRA:         -10.492
REMARK INTER:                 -10.276
REMARK INTRA:                  -0.216
REMARK UNBOUND:                -0.443
REMARK SMILES CC[C@@H](C=C[C@H](C)[C@@H]1CC[C@H]2C3=CC[C@H]4C[C@@H](O)CC[C@@]4(C)[C@H]3CC[C@]21C)C(C)C
REMARK SMILES IDX 6 1 7 2 5 3 4 4 3 5 2 6 1 7 28 8 29 9 30 10 8 11 9 12 26 13
REMARK SMILES IDX 10 14 11 15 25 16 27 17 12 18 24 19 23 20 13 21 21 22 14 23
REMARK SMILES IDX 15 24 20 25 22 26 16 27 19 28 17 29 18 30
REMARK H PARENT 18 31
REMARK Flexibility Score: inf
ROOT
ATOM      1  C   UNL     1     114.495 123.737 129.778  1.00  0.00     0.012 C 
ATOM      2  C   UNL     1     114.852 123.716 131.270  1.00  0.00     0.012 C 
ENDROOT
BRANCH   1   3
ATOM      3  C   UNL     1     115.266 124.865 129.121  1.00  0.00    -0.028 C 
ATOM      4  C   UNL     1     116.585 124.765 128.880  1.00  0.00    -0.027 C 
BRANCH   4   5
ATOM      5  C   UNL     1     117.392 125.839 128.173  1.00  0.00     0.014 C 
BRANCH   5   6
ATOM      6  C   UNL     1     118.350 125.217 127.124  1.00  0.00     0.004 C 
ATOM      7  C   UNL     1     118.653 123.741 127.385  1.00  0.00     0.004 C 
ENDBRANCH   5   6
BRANCH   5   8
ATOM      8  C   UNL     1     118.063 126.844 129.163  1.00  0.00    -0.011 C 
ATOM      9  C   UNL     1     119.356 127.490 128.637  1.00  0.00     0.008 C 
ATOM     10  C   UNL     1     118.326 126.189 130.528  1.00  0.00     0.008 C 
ENDBRANCH   5   8
ENDBRANCH   4   5
ENDBRANCH   1   3
BRANCH   1  11
ATOM     11  C   UNL     1     114.720 122.330 129.128  1.00  0.00     0.002 C 
ATOM     12  C   UNL     1     113.679 121.902 128.098  1.00  0.00     0.005 C 
ATOM     13  C   UNL     1     114.888 121.095 130.074  1.00  0.00    -0.023 C 
ATOM     14  C   UNL     1     114.006 120.446 127.834  1.00  0.00     0.009 C 
ATOM     15  C   UNL     1     114.500 119.868 129.172  1.00  0.00     0.021 C 
ATOM     16  C   UNL     1     116.329 121.013 130.648  1.00  0.00     0.008 C 
ATOM     17  C   UNL     1     113.907 121.156 131.273  1.00  0.00     0.012 C 
ATOM     18  C   UNL     1     115.568 118.797 128.939  1.00  0.00    -0.067 C 
ATOM     19  C   UNL     1     117.339 120.448 129.654  1.00  0.00     0.009 C 
ATOM     20  C   UNL     1     117.022 118.975 129.336  1.00  0.00     0.021 C 
ATOM     21  C   UNL     1     115.184 117.631 128.388  1.00  0.00    -0.027 C 
ATOM     22  C   UNL     1     117.989 118.323 128.280  1.00  0.00    -0.023 C 
ATOM     23  C   UNL     1     116.109 116.468 128.168  1.00  0.00     0.031 C 
ATOM     24  C   UNL     1     117.635 116.794 128.175  1.00  0.00     0.002 C 
ATOM     25  C   UNL     1     117.852 119.004 126.882  1.00  0.00     0.010 C 
ATOM     26  C   UNL     1     119.454 118.470 128.786  1.00  0.00     0.012 C 
ATOM     27  C   UNL     1     118.361 116.081 127.002  1.00  0.00     0.036 C 
ATOM     28  C   UNL     1     118.644 118.286 125.782  1.00  0.00     0.032 C 
ATOM     29  C   UNL     1     118.233 116.816 125.653  1.00  0.00     0.114 C 
BRANCH  29  30
ATOM     30  O   UNL     1     116.923 116.738 125.154  1.00  0.00    -0.393 OA
ATOM     31  H   UNL     1     116.963 117.001 124.198  1.00  0.00     0.210 HD
ENDBRANCH  29  30
ENDBRANCH   1  11
TORSDOF 6
ENDMDL
MODEL 4
REMARK VINA RESULT:    -7.455      2.935      6.081
REMARK INTER + INTRA:         -10.295
REMARK INTER:                  -9.433
REMARK INTRA:                  -0.862
REMARK UNBOUND:                -0.443
REMARK SMILES CC[C@@H](C=C[C@H](C)[C@@H]1CC[C@H]2C3=CC[C@H]4C[C@@H](O)CC[C@@]4(C)[C@H]3CC[C@]21C)C(C)C
REMARK SMILES IDX 6 1 7 2 5 3 4 4 3 5 2 6 1 7 28 8 29 9 30 10 8 11 9 12 26 13
REMARK SMILES IDX 10 14 11 15 25 16 27 17 12 18 24 19 23 20 13 21 21 22 14 23
REMARK SMILES IDX 15 24 20 25 22 26 16 27 19 28 17 29 18 30
REMARK H PARENT 18 31
REMARK Flexibility Score: inf
ROOT
ATOM      1  C   UNL     1     119.155 127.072 129.093  1.00  0.00     0.012 C 
ATOM      2  C   UNL     1     118.255 127.498 127.925  1.00  0.00     0.012 C 
ENDROOT
BRANCH   1   3
ATOM      3  C   UNL     1     119.360 128.272 129.996  1.00  0.00    -0.028 C 
ATOM      4  C   UNL     1     120.310 129.188 129.740  1.00  0.00    -0.027 C 
BRANCH   4   5
ATOM      5  C   UNL     1     120.516 130.438 130.578  1.00  0.00     0.014 C 
BRANCH   5   6
ATOM      6  C   UNL     1     119.480 130.515 131.729  1.00  0.00     0.004 C 
ATOM      7  C   UNL     1     120.103 130.884 133.077  1.00  0.00     0.004 C 
ENDBRANCH   5   6
BRANCH   5   8
ATOM      8  C   UNL     1     120.636 131.734 129.714  1.00  0.00    -0.011 C 
ATOM      9  C   UNL     1     121.874 132.593 130.021  1.00  0.00     0.008 C 
ATOM     10  C   UNL     1     119.367 132.594 129.820  1.00  0.00     0.008 C 
ENDBRANCH   5   8
ENDBRANCH   4   5
ENDBRANCH   1   3
BRANCH   1  11
ATOM     11  C   UNL     1     118.578 125.807 129.813  1.00  0.00     0.002 C 
ATOM     12  C   UNL     1     119.033 125.600 131.254  1.00  0.00     0.005 C 
ATOM     13  C   UNL     1     118.762 124.414 129.123  1.00  0.00    -0.023 C 
ATOM     14  C   UNL     1     118.531 124.212 131.598  1.00  0.00     0.009 C 
ATOM     15  C   UNL     1     118.636 123.385 130.305  1.00  0.00     0.021 C 
ATOM     16  C   UNL     1     117.716 124.197 127.996  1.00  0.00     0.008 C 
ATOM     17  C   UNL     1     120.170 124.270 128.492  1.00  0.00     0.012 C 
ATOM     18  C   UNL     1     117.507 122.355 130.226  1.00  0.00    -0.067 C 
ATOM     19  C   UNL     1     116.338 123.807 128.523  1.00  0.00     0.009 C 
ATOM     20  C   UNL     1     116.389 122.426 129.203  1.00  0.00     0.021 C 
ATOM     21  C   UNL     1     117.535 121.320 131.086  1.00  0.00    -0.027 C 
ATOM     22  C   UNL     1     115.017 121.962 129.819  1.00  0.00    -0.023 C 
ATOM     23  C   UNL     1     116.534 120.200 131.076  1.00  0.00     0.031 C 
ATOM     24  C   UNL     1     115.190 120.487 130.337  1.00  0.00     0.002 C 
ATOM     25  C   UNL     1     114.572 122.895 130.989  1.00  0.00     0.010 C 
ATOM     26  C   UNL     1     113.934 121.983 128.701  1.00  0.00     0.012 C 
ATOM     27  C   UNL     1     113.979 119.991 131.173  1.00  0.00     0.036 C 
ATOM     28  C   UNL     1     113.333 122.378 131.733  1.00  0.00     0.032 C 
ATOM     29  C   UNL     1     113.551 120.967 132.287  1.00  0.00     0.114 C 
BRANCH  29  30
ATOM     30  O   UNL     1     114.502 121.010 133.319  1.00  0.00    -0.393 OA
ATOM     31  H   UNL     1     115.038 120.177 133.251  1.00  0.00     0.210 HD
ENDBRANCH  29  30
ENDBRANCH   1  11
TORSDOF 6
ENDMDL
MODEL 5
REMARK VINA RESULT:    -7.431      3.349      6.730
REMARK INTER + INTRA:         -10.264
REMARK INTER:                 -10.131
REMARK INTRA:                  -0.133
REMARK UNBOUND:                -0.443
REMARK SMILES CC[C@@H](C=C[C@H](C)[C@@H]1CC[C@H]2C3=CC[C@H]4C[C@@H](O)CC[C@@]4(C)[C@H]3CC[C@]21C)C(C)C
REMARK SMILES IDX 6 1 7 2 5 3 4 4 3 5 2 6 1 7 28 8 29 9 30 10 8 11 9 12 26 13
REMARK SMILES IDX 10 14 11 15 25 16 27 17 12 18 24 19 23 20 13 21 21 22 14 23
REMARK SMILES IDX 15 24 20 25 22 26 16 27 19 28 17 29 18 30
REMARK H PARENT 18 31
REMARK Flexibility Score: inf
ROOT
ATOM      1  C   UNL     1     117.282 128.730 131.333  1.00  0.00     0.012 C 
ATOM      2  C   UNL     1     117.131 129.106 132.813  1.00  0.00     0.012 C 
ENDROOT
BRANCH   1   3
ATOM      3  C   UNL     1     118.546 129.379 130.805  1.00  0.00    -0.028 C 
ATOM      4  C   UNL     1     118.645 130.713 130.671  1.00  0.00    -0.027 C 
BRANCH   4   5
ATOM      5  C   UNL     1     119.908 131.417 130.205  1.00  0.00     0.014 C 
BRANCH   5   6
ATOM      6  C   UNL     1     121.003 131.381 131.302  1.00  0.00     0.004 C 
ATOM      7  C   UNL     1     120.435 131.265 132.718  1.00  0.00     0.004 C 
ENDBRANCH   5   6
BRANCH   5   8
ATOM      8  C   UNL     1     119.627 132.830 129.602  1.00  0.00    -0.011 C 
ATOM      9  C   UNL     1     120.598 133.927 130.069  1.00  0.00     0.008 C 
ATOM     10  C   UNL     1     118.178 133.270 129.865  1.00  0.00     0.008 C 
ENDBRANCH   5   8
ENDBRANCH   4   5
ENDBRANCH   1   3
BRANCH   1  11
ATOM     11  C   UNL     1     117.218 127.177 131.139  1.00  0.00     0.002 C 
ATOM     12  C   UNL     1     118.192 126.364 131.986  1.00  0.00     0.005 C 
ATOM     13  C   UNL     1     117.362 126.605 129.690  1.00  0.00    -0.023 C 
ATOM     14  C   UNL     1     118.081 124.962 131.422  1.00  0.00     0.009 C 
ATOM     15  C   UNL     1     117.842 125.124 129.911  1.00  0.00     0.021 C 
ATOM     16  C   UNL     1     116.028 126.714 128.902  1.00  0.00     0.008 C 
ATOM     17  C   UNL     1     118.449 127.360 128.882  1.00  0.00     0.012 C 
ATOM     18  C   UNL     1     116.944 124.005 129.380  1.00  0.00    -0.067 C 
ATOM     19  C   UNL     1     115.019 125.634 129.279  1.00  0.00     0.009 C 
ATOM     20  C   UNL     1     115.536 124.243 128.869  1.00  0.00     0.021 C 
ATOM     21  C   UNL     1     117.450 122.759 129.333  1.00  0.00    -0.027 C 
ATOM     22  C   UNL     1     114.575 123.059 129.262  1.00  0.00    -0.023 C 
ATOM     23  C   UNL     1     116.709 121.578 128.771  1.00  0.00     0.031 C 
ATOM     24  C   UNL     1     115.161 121.733 128.651  1.00  0.00     0.002 C 
ATOM     25  C   UNL     1     114.441 122.924 130.812  1.00  0.00     0.010 C 
ATOM     26  C   UNL     1     113.173 123.326 128.643  1.00  0.00     0.012 C 
ATOM     27  C   UNL     1     114.434 120.458 129.157  1.00  0.00     0.036 C 
ATOM     28  C   UNL     1     113.658 121.676 131.241  1.00  0.00     0.032 C 
ATOM     29  C   UNL     1     114.287 120.393 130.691  1.00  0.00     0.114 C 
BRANCH  29  30
ATOM     30  O   UNL     1     115.528 120.175 131.311  1.00  0.00    -0.393 OA
ATOM     31  H   UNL     1     116.191 120.034 130.585  1.00  0.00     0.210 HD
ENDBRANCH  29  30
ENDBRANCH   1  11
TORSDOF 6
ENDMDL
MODEL 6
REMARK VINA RESULT:    -7.307      1.852      4.528
REMARK INTER + INTRA:         -10.099
REMARK INTER:                  -9.359
REMARK INTRA:                  -0.740
REMARK UNBOUND:                -0.443
REMARK SMILES CC[C@@H](C=C[C@H](C)[C@@H]1CC[C@H]2C3=CC[C@H]4C[C@@H](O)CC[C@@]4(C)[C@H]3CC[C@]21C)C(C)C
REMARK SMILES IDX 6 1 7 2 5 3 4 4 3 5 2 6 1 7 28 8 29 9 30 10 8 11 9 12 26 13
REMARK SMILES IDX 10 14 11 15 25 16 27 17 12 18 24 19 23 20 13 21 21 22 14 23
REMARK SMILES IDX 15 24 20 25 22 26 16 27 19 28 17 29 18 30
REMARK H PARENT 18 31
REMARK Flexibility Score: inf
ROOT
ATOM      1  C   UNL     1     117.354 124.733 128.935  1.00  0.00     0.012 C 
ATOM      2  C   UNL     1     118.175 125.106 127.693  1.00  0.00     0.012 C 
ENDROOT
BRANCH   1   3
ATOM      3  C   UNL     1     116.050 124.113 128.471  1.00  0.00    -0.028 C 
ATOM      4  C   UNL     1     114.964 124.090 129.263  1.00  0.00    -0.027 C 
BRANCH   4   5
ATOM      5  C   UNL     1     113.619 123.536 128.825  1.00  0.00     0.014 C 
BRANCH   5   6
ATOM      6  C   UNL     1     112.790 123.058 130.045  1.00  0.00     0.004 C 
ATOM      7  C   UNL     1     113.571 123.101 131.359  1.00  0.00     0.004 C 
ENDBRANCH   5   6
BRANCH   5   8
ATOM      8  C   UNL     1     113.740 122.498 127.664  1.00  0.00    -0.011 C 
ATOM      9  C   UNL     1     112.635 122.601 126.599  1.00  0.00     0.008 C 
ATOM     10  C   UNL     1     113.808 121.062 128.206  1.00  0.00     0.008 C 
ENDBRANCH   5   8
ENDBRANCH   4   5
ENDBRANCH   1   3
BRANCH   1  11
ATOM     11  C   UNL     1     118.189 123.837 129.911  1.00  0.00     0.002 C 
ATOM     12  C   UNL     1     119.659 124.216 130.062  1.00  0.00     0.005 C 
ATOM     13  C   UNL     1     118.189 122.289 129.680  1.00  0.00    -0.023 C 
ATOM     14  C   UNL     1     120.253 123.063 130.846  1.00  0.00     0.009 C 
ATOM     15  C   UNL     1     119.507 121.799 130.382  1.00  0.00     0.021 C 
ATOM     16  C   UNL     1     116.901 121.632 130.248  1.00  0.00     0.008 C 
ATOM     17  C   UNL     1     118.272 121.937 128.173  1.00  0.00     0.012 C 
ATOM     18  C   UNL     1     119.364 120.800 131.532  1.00  0.00    -0.067 C 
ATOM     19  C   UNL     1     116.937 121.454 131.763  1.00  0.00     0.009 C 
ATOM     20  C   UNL     1     118.031 120.448 132.164  1.00  0.00     0.021 C 
ATOM     21  C   UNL     1     120.476 120.183 131.973  1.00  0.00    -0.027 C 
ATOM     22  C   UNL     1     118.170 120.236 133.718  1.00  0.00    -0.023 C 
ATOM     23  C   UNL     1     120.475 119.129 133.045  1.00  0.00     0.031 C 
ATOM     24  C   UNL     1     119.212 119.082 133.960  1.00  0.00     0.002 C 
ATOM     25  C   UNL     1     118.638 121.542 134.432  1.00  0.00     0.010 C 
ATOM     26  C   UNL     1     116.790 119.800 134.288  1.00  0.00     0.012 C 
ATOM     27  C   UNL     1     119.613 118.929 135.453  1.00  0.00     0.036 C 
ATOM     28  C   UNL     1     118.958 121.334 135.918  1.00  0.00     0.032 C 
ATOM     29  C   UNL     1     120.024 120.254 136.125  1.00  0.00     0.114 C 
BRANCH  29  30
ATOM     30  O   UNL     1     121.257 120.712 135.632  1.00  0.00    -0.393 OA
ATOM     31  H   UNL     1     121.056 121.437 134.984  1.00  0.00     0.210 HD
ENDBRANCH  29  30
ENDBRANCH   1  11
TORSDOF 6
ENDMDL
MODEL 7
REMARK VINA RESULT:    -7.300      3.622      7.502
REMARK INTER + INTRA:         -10.089
REMARK INTER:                  -9.370
REMARK INTRA:                  -0.719
REMARK UNBOUND:                -0.443
REMARK SMILES CC[C@@H](C=C[C@H](C)[C@@H]1CC[C@H]2C3=CC[C@H]4C[C@@H](O)CC[C@@]4(C)[C@H]3CC[C@]21C)C(C)C
REMARK SMILES IDX 6 1 7 2 5 3 4 4 3 5 2 6 1 7 28 8 29 9 30 10 8 11 9 12 26 13
REMARK SMILES IDX 10 14 11 15 25 16 27 17 12 18 24 19 23 20 13 21 21 22 14 23
REMARK SMILES IDX 15 24 20 25 22 26 16 27 19 28 17 29 18 30
REMARK H PARENT 18 31
REMARK Flexibility Score: inf
ROOT
ATOM      1  C   UNL     1     117.837 123.850 131.177  1.00  0.00     0.012 C 
ATOM      2  C   UNL     1     117.017 125.141 131.042  1.00  0.00     0.012 C 
ENDROOT
BRANCH   1   3
ATOM      3  C   UNL     1     116.900 122.736 131.600  1.00  0.00    -0.028 C 
ATOM      4  C   UNL     1     115.628 122.987 131.956  1.00  0.00    -0.027 C 
BRANCH   4   5
ATOM      5  C   UNL     1     114.633 121.902 132.330  1.00  0.00     0.014 C 
BRANCH   5   6
ATOM      6  C   UNL     1     115.329 120.747 133.095  1.00  0.00     0.004 C 
ATOM      7  C   UNL     1     114.861 120.617 134.546  1.00  0.00     0.004 C 
ENDBRANCH   5   6
BRANCH   5   8
ATOM      8  C   UNL     1     113.745 121.452 131.125  1.00  0.00    -0.011 C 
ATOM      9  C   UNL     1     114.358 120.337 130.262  1.00  0.00     0.008 C 
ATOM     10  C   UNL     1     113.365 122.648 130.238  1.00  0.00     0.008 C 
ENDBRANCH   5   8
ENDBRANCH   4   5
ENDBRANCH   1   3
BRANCH   1  11
ATOM     11  C   UNL     1     118.644 123.559 129.867  1.00  0.00     0.002 C 
ATOM     12  C   UNL     1     119.394 124.748 129.274  1.00  0.00     0.005 C 
ATOM     13  C   UNL     1     117.888 122.910 128.660  1.00  0.00    -0.023 C 
ATOM     14  C   UNL     1     119.862 124.245 127.923  1.00  0.00     0.009 C 
ATOM     15  C   UNL     1     118.759 123.300 127.411  1.00  0.00     0.021 C 
ATOM     16  C   UNL     1     117.728 121.377 128.851  1.00  0.00     0.008 C 
ATOM     17  C   UNL     1     116.472 123.513 128.482  1.00  0.00     0.012 C 
ATOM     18  C   UNL     1     119.361 122.161 126.586  1.00  0.00    -0.067 C 
ATOM     19  C   UNL     1     119.000 120.597 128.534  1.00  0.00     0.009 C 
ATOM     20  C   UNL     1     119.350 120.713 127.040  1.00  0.00     0.021 C 
ATOM     21  C   UNL     1     119.890 122.462 125.386  1.00  0.00    -0.027 C 
ATOM     22  C   UNL     1     120.678 119.974 126.631  1.00  0.00    -0.023 C 
ATOM     23  C   UNL     1     120.449 121.436 124.441  1.00  0.00     0.031 C 
ATOM     24  C   UNL     1     120.819 120.056 125.066  1.00  0.00     0.002 C 
ATOM     25  C   UNL     1     121.924 120.618 127.318  1.00  0.00     0.010 C 
ATOM     26  C   UNL     1     120.569 118.480 127.053  1.00  0.00     0.012 C 
ATOM     27  C   UNL     1     122.201 119.565 124.555  1.00  0.00     0.036 C 
ATOM     28  C   UNL     1     123.254 120.044 126.811  1.00  0.00     0.032 C 
ATOM     29  C   UNL     1     123.398 120.197 125.294  1.00  0.00     0.114 C 
BRANCH  29  30
ATOM     30  O   UNL     1     123.535 121.556 124.970  1.00  0.00    -0.393 OA
ATOM     31  H   UNL     1     124.508 121.756 124.975  1.00  0.00     0.210 HD
ENDBRANCH  29  30
ENDBRANCH   1  11
TORSDOF 6
ENDMDL
MODEL 8
REMARK VINA RESULT:    -7.289      2.565      7.155
REMARK INTER + INTRA:         -10.076
REMARK INTER:                 -10.173
REMARK INTRA:                   0.097
REMARK UNBOUND:                -0.443
REMARK SMILES CC[C@@H](C=C[C@H](C)[C@@H]1CC[C@H]2C3=CC[C@H]4C[C@@H](O)CC[C@@]4(C)[C@H]3CC[C@]21C)C(C)C
REMARK SMILES IDX 6 1 7 2 5 3 4 4 3 5 2 6 1 7 28 8 29 9 30 10 8 11 9 12 26 13
REMARK SMILES IDX 10 14 11 15 25 16 27 17 12 18 24 19 23 20 13 21 21 22 14 23
REMARK SMILES IDX 15 24 20 25 22 26 16 27 19 28 17 29 18 30
REMARK H PARENT 18 31
REMARK Flexibility Score: inf
ROOT
ATOM      1  C   UNL     1     114.542 121.344 133.512  1.00  0.00     0.012 C 
ATOM      2  C   UNL     1     114.029 119.979 133.034  1.00  0.00     0.012 C 
ENDROOT
BRANCH   1   3
ATOM      3  C   UNL     1     115.629 121.107 134.542  1.00  0.00    -0.028 C 
ATOM      4  C   UNL     1     116.553 120.145 134.378  1.00  0.00    -0.027 C 
BRANCH   4   5
ATOM      5  C   UNL     1     117.696 119.906 135.349  1.00  0.00     0.014 C 
BRANCH   5   6
ATOM      6  C   UNL     1     118.091 121.216 136.078  1.00  0.00     0.004 C 
ATOM      7  C   UNL     1     119.412 121.807 135.581  1.00  0.00     0.004 C 
ENDBRANCH   5   6
BRANCH   5   8
ATOM      8  C   UNL     1     118.887 119.127 134.703  1.00  0.00    -0.011 C 
ATOM      9  C   UNL     1     118.934 119.192 133.168  1.00  0.00     0.008 C 
ATOM     10  C   UNL     1     118.907 117.661 135.164  1.00  0.00     0.008 C 
ENDBRANCH   5   8
ENDBRANCH   4   5
ENDBRANCH   1   3
BRANCH   1  11
ATOM     11  C   UNL     1     114.978 122.236 132.300  1.00  0.00     0.002 C 
ATOM     12  C   UNL     1     113.896 123.142 131.723  1.00  0.00     0.005 C 
ATOM     13  C   UNL     1     115.626 121.534 131.060  1.00  0.00    -0.023 C 
ATOM     14  C   UNL     1     114.514 123.681 130.448  1.00  0.00     0.009 C 
ATOM     15  C   UNL     1     115.386 122.546 129.881  1.00  0.00     0.021 C 
ATOM     16  C   UNL     1     117.126 121.215 131.309  1.00  0.00     0.008 C 
ATOM     17  C   UNL     1     114.912 120.201 130.719  1.00  0.00     0.012 C 
ATOM     18  C   UNL     1     116.619 123.111 129.173  1.00  0.00    -0.067 C 
ATOM     19  C   UNL     1     118.031 122.433 131.153  1.00  0.00     0.009 C 
ATOM     20  C   UNL     1     118.032 122.925 129.694  1.00  0.00     0.021 C 
ATOM     21  C   UNL     1     116.435 123.771 128.015  1.00  0.00    -0.027 C 
ATOM     22  C   UNL     1     118.907 124.210 129.450  1.00  0.00    -0.023 C 
ATOM     23  C   UNL     1     117.558 124.315 127.179  1.00  0.00     0.031 C 
ATOM     24  C   UNL     1     118.928 124.498 127.903  1.00  0.00     0.002 C 
ATOM     25  C   UNL     1     118.337 125.443 130.219  1.00  0.00     0.010 C 
ATOM     26  C   UNL     1     120.359 123.925 129.932  1.00  0.00     0.012 C 
ATOM     27  C   UNL     1     119.566 125.868 127.549  1.00  0.00     0.036 C 
ATOM     28  C   UNL     1     119.054 126.754 129.868  1.00  0.00     0.032 C 
ATOM     29  C   UNL     1     119.001 127.047 128.366  1.00  0.00     0.114 C 
BRANCH  29  30
ATOM     30  O   UNL     1     117.680 127.339 127.991  1.00  0.00    -0.393 OA
ATOM     31  H   UNL     1     117.687 128.251 127.599  1.00  0.00     0.210 HD
ENDBRANCH  29  30
ENDBRANCH   1  11
TORSDOF 6
ENDMDL
MODEL 9
REMARK VINA RESULT:    -7.172      3.792      6.882
REMARK INTER + INTRA:          -9.921
REMARK INTER:                  -8.627
REMARK INTRA:                  -1.294
REMARK UNBOUND:                -0.443
REMARK SMILES CC[C@@H](C=C[C@H](C)[C@@H]1CC[C@H]2C3=CC[C@H]4C[C@@H](O)CC[C@@]4(C)[C@H]3CC[C@]21C)C(C)C
REMARK SMILES IDX 6 1 7 2 5 3 4 4 3 5 2 6 1 7 28 8 29 9 30 10 8 11 9 12 26 13
REMARK SMILES IDX 10 14 11 15 25 16 27 17 12 18 24 19 23 20 13 21 21 22 14 23
REMARK SMILES IDX 15 24 20 25 22 26 16 27 19 28 17 29 18 30
REMARK H PARENT 18 31
REMARK Flexibility Score: inf
ROOT
ATOM      1  C   UNL     1     121.422 121.334 127.727  1.00  0.00     0.012 C 
ATOM      2  C   UNL     1     121.312 119.821 127.963  1.00  0.00     0.012 C 
ENDROOT
BRANCH   1   3
ATOM      3  C   UNL     1     121.870 121.559 126.296  1.00  0.00    -0.028 C 
ATOM      4  C   UNL     1     121.616 120.658 125.331  1.00  0.00    -0.027 C 
BRANCH   4   5
ATOM      5  C   UNL     1     121.990 120.862 123.874  1.00  0.00     0.014 C 
BRANCH   5   6
ATOM      6  C   UNL     1     120.725 121.041 122.994  1.00  0.00     0.004 C 
ATOM      7  C   UNL     1     119.424 120.748 123.742  1.00  0.00     0.004 C 
ENDBRANCH   5   6
BRANCH   5   8
ATOM      8  C   UNL     1     123.008 119.797 123.354  1.00  0.00    -0.011 C 
ATOM      9  C   UNL     1     122.788 119.363 121.895  1.00  0.00     0.008 C 
ATOM     10  C   UNL     1     123.034 118.561 124.266  1.00  0.00     0.008 C 
ENDBRANCH   5   8
ENDBRANCH   4   5
ENDBRANCH   1   3
BRANCH   1  11
ATOM     11  C   UNL     1     120.089 122.060 128.112  1.00  0.00     0.002 C 
ATOM     12  C   UNL     1     119.603 123.118 127.127  1.00  0.00     0.005 C 
ATOM     13  C   UNL     1     119.995 122.739 129.519  1.00  0.00    -0.023 C 
ATOM     14  C   UNL     1     118.467 123.804 127.861  1.00  0.00     0.009 C 
ATOM     15  C   UNL     1     118.862 123.814 129.349  1.00  0.00     0.021 C 
ATOM     16  C   UNL     1     119.699 121.697 130.632  1.00  0.00     0.008 C 
ATOM     17  C   UNL     1     121.313 123.465 129.892  1.00  0.00     0.012 C 
ATOM     18  C   UNL     1     117.625 123.684 130.239  1.00  0.00    -0.067 C 
ATOM     19  C   UNL     1     118.234 121.275 130.686  1.00  0.00     0.009 C 
ATOM     20  C   UNL     1     117.343 122.463 131.094  1.00  0.00     0.021 C 
ATOM     21  C   UNL     1     116.770 124.723 130.288  1.00  0.00    -0.027 C 
ATOM     22  C   UNL     1     115.805 122.130 131.131  1.00  0.00    -0.023 C 
ATOM     23  C   UNL     1     115.555 124.761 131.172  1.00  0.00     0.031 C 
ATOM     24  C   UNL     1     115.049 123.385 131.704  1.00  0.00     0.002 C 
ATOM     25  C   UNL     1     115.264 121.779 129.709  1.00  0.00     0.010 C 
ATOM     26  C   UNL     1     115.578 120.922 132.084  1.00  0.00     0.012 C 
ATOM     27  C   UNL     1     113.505 123.273 131.578  1.00  0.00     0.036 C 
ATOM     28  C   UNL     1     113.738 121.622 129.669  1.00  0.00     0.032 C 
ATOM     29  C   UNL     1     113.023 122.881 130.167  1.00  0.00     0.114 C 
BRANCH  29  30
ATOM     30  O   UNL     1     113.224 123.928 129.253  1.00  0.00    -0.393 OA
ATOM     31  H   UNL     1     113.672 124.662 129.750  1.00  0.00     0.210 HD
ENDBRANCH  29  30
ENDBRANCH   1  11
TORSDOF 6
ENDMDL
