MODEL 1
REMARK VINA RESULT:    -4.319      0.000      0.000
REMARK INTER + INTRA:          -4.661
REMARK INTER:                  -4.572
REMARK INTRA:                  -0.090
REMARK UNBOUND:                -0.090
REMARK SMILES C=C(C)[C@@H]1CC=C(C)C(=O)C1
REMARK SMILES IDX 8 1 7 2 6 3 5 4 4 5 11 6 9 7 10 8 2 9 1 10 3 11
REMARK H PARENT
REMARK Flexibility Score: inf
ROOT
ATOM      1  C   UNL     1      20.642  27.645  30.190  1.00  0.00     0.048 C 
ATOM      2  C   UNL     1      20.475  26.535  29.189  1.00  0.00    -0.012 C 
ATOM      3  C   UNL     1      21.512  25.737  28.885  1.00  0.00    -0.019 C 
ATOM      4  C   UNL     1      21.372  24.565  27.950  1.00  0.00     0.036 C 
ATOM      5  C   UNL     1      20.286  24.825  26.890  1.00  0.00     0.025 C 
ATOM      6  C   UNL     1      18.953  25.194  27.566  1.00  0.00     0.089 C 
ATOM      7  C   UNL     1      19.151  26.310  28.555  1.00  0.00     0.158 C 
ATOM      8  O   UNL     1      18.165  27.028  28.876  1.00  0.00    -0.295 OA
ENDROOT
BRANCH   5   9
ATOM      9  C   UNL     1      20.124  23.635  25.953  1.00  0.00    -0.077 C 
ATOM     10  C   UNL     1      20.986  23.454  24.941  1.00  0.00     0.008 C 
ATOM     11  C   UNL     1      19.005  22.640  26.134  1.00  0.00     0.039 C 
ENDBRANCH   5   9
TORSDOF 1
ENDMDL
MODEL 2
REMARK VINA RESULT:    -4.254      6.007      8.030
REMARK INTER + INTRA:          -4.592
REMARK INTER:                  -4.497
REMARK INTRA:                  -0.095
REMARK UNBOUND:                -0.090
REMARK SMILES C=C(C)[C@@H]1CC=C(C)C(=O)C1
REMARK SMILES IDX 8 1 7 2 6 3 5 4 4 5 11 6 9 7 10 8 2 9 1 10 3 11
REMARK H PARENT
REMARK Flexibility Score: inf
ROOT
ATOM      1  C   UNL     1      19.129  35.014  29.769  1.00  0.00     0.048 C 
ATOM      2  C   UNL     1      18.311  33.762  29.615  1.00  0.00    -0.012 C 
ATOM      3  C   UNL     1      16.981  33.841  29.437  1.00  0.00    -0.019 C 
ATOM      4  C   UNL     1      16.132  32.620  29.198  1.00  0.00     0.036 C 
ATOM      5  C   UNL     1      16.727  31.383  29.898  1.00  0.00     0.025 C 
ATOM      6  C   UNL     1      18.188  31.172  29.463  1.00  0.00     0.089 C 
ATOM      7  C   UNL     1      18.982  32.438  29.636  1.00  0.00     0.158 C 
ATOM      8  O   UNL     1      20.235  32.366  29.754  1.00  0.00    -0.295 OA
ENDROOT
BRANCH   5   9
ATOM      9  C   UNL     1      15.885  30.140  29.643  1.00  0.00    -0.077 C 
ATOM     10  C   UNL     1      14.545  30.216  29.680  1.00  0.00     0.008 C 
ATOM     11  C   UNL     1      16.524  28.805  29.349  1.00  0.00     0.039 C 
ENDBRANCH   5   9
TORSDOF 1
ENDMDL
MODEL 3
REMARK VINA RESULT:    -4.248      1.437      2.047
REMARK INTER + INTRA:          -4.585
REMARK INTER:                  -4.487
REMARK INTRA:                  -0.099
REMARK UNBOUND:                -0.090
REMARK SMILES C=C(C)[C@@H]1CC=C(C)C(=O)C1
REMARK SMILES IDX 8 1 7 2 6 3 5 4 4 5 11 6 9 7 10 8 2 9 1 10 3 11
REMARK H PARENT
REMARK Flexibility Score: inf
ROOT
ATOM      1  C   UNL     1      20.431  27.568  30.132  1.00  0.00     0.048 C 
ATOM      2  C   UNL     1      20.293  26.573  29.012  1.00  0.00    -0.012 C 
ATOM      3  C   UNL     1      19.076  26.145  28.635  1.00  0.00    -0.019 C 
ATOM      4  C   UNL     1      18.883  25.213  27.468  1.00  0.00     0.036 C 
ATOM      5  C   UNL     1      20.097  24.282  27.293  1.00  0.00     0.025 C 
ATOM      6  C   UNL     1      21.392  25.106  27.173  1.00  0.00     0.089 C 
ATOM      7  C   UNL     1      21.505  26.085  28.309  1.00  0.00     0.158 C 
ATOM      8  O   UNL     1      22.643  26.523  28.631  1.00  0.00    -0.295 OA
ENDROOT
BRANCH   5   9
ATOM      9  C   UNL     1      19.918  23.351  26.101  1.00  0.00    -0.077 C 
ATOM     10  C   UNL     1      20.783  23.395  25.077  1.00  0.00     0.008 C 
ATOM     11  C   UNL     1      18.776  22.367  26.038  1.00  0.00     0.039 C 
ENDBRANCH   5   9
TORSDOF 1
ENDMDL
MODEL 4
REMARK VINA RESULT:    -4.200      8.381      9.350
REMARK INTER + INTRA:          -4.535
REMARK INTER:                  -4.441
REMARK INTRA:                  -0.095
REMARK UNBOUND:                -0.090
REMARK SMILES C=C(C)[C@@H]1CC=C(C)C(=O)C1
REMARK SMILES IDX 8 1 7 2 6 3 5 4 4 5 11 6 9 7 10 8 2 9 1 10 3 11
REMARK H PARENT
REMARK Flexibility Score: inf
ROOT
ATOM      1  C   UNL     1      19.393  35.080  29.788  1.00  0.00     0.048 C 
ATOM      2  C   UNL     1      18.274  34.103  30.024  1.00  0.00    -0.012 C 
ATOM      3  C   UNL     1      17.639  33.538  28.983  1.00  0.00    -0.019 C 
ATOM      4  C   UNL     1      16.568  32.496  29.170  1.00  0.00     0.036 C 
ATOM      5  C   UNL     1      15.805  32.712  30.490  1.00  0.00     0.025 C 
ATOM      6  C   UNL     1      16.786  32.758  31.675  1.00  0.00     0.089 C 
ATOM      7  C   UNL     1      17.889  33.748  31.413  1.00  0.00     0.158 C 
ATOM      8  O   UNL     1      18.516  34.241  32.390  1.00  0.00    -0.295 OA
ENDROOT
BRANCH   5   9
ATOM      9  C   UNL     1      14.734  31.649  30.695  1.00  0.00    -0.077 C 
ATOM     10  C   UNL     1      13.883  31.742  31.729  1.00  0.00     0.008 C 
ATOM     11  C   UNL     1      14.602  30.476  29.757  1.00  0.00     0.039 C 
ENDBRANCH   5   9
TORSDOF 1
ENDMDL
MODEL 5
REMARK VINA RESULT:    -4.155      6.656      8.697
REMARK INTER + INTRA:          -4.487
REMARK INTER:                  -4.390
REMARK INTRA:                  -0.097
REMARK UNBOUND:                -0.090
REMARK SMILES C=C(C)[C@@H]1CC=C(C)C(=O)C1
REMARK SMILES IDX 8 1 7 2 6 3 5 4 4 5 11 6 9 7 10 8 2 9 1 10 3 11
REMARK H PARENT
REMARK Flexibility Score: inf
ROOT
ATOM      1  C   UNL     1      14.602  30.002  29.439  1.00  0.00     0.048 C 
ATOM      2  C   UNL     1      15.740  30.969  29.616  1.00  0.00    -0.012 C 
ATOM      3  C   UNL     1      15.492  32.270  29.844  1.00  0.00    -0.019 C 
ATOM      4  C   UNL     1      16.596  33.260  30.107  1.00  0.00     0.036 C 
ATOM      5  C   UNL     1      17.891  32.857  29.376  1.00  0.00     0.025 C 
ATOM      6  C   UNL     1      18.294  31.420  29.754  1.00  0.00     0.089 C 
ATOM      7  C   UNL     1      17.139  30.476  29.560  1.00  0.00     0.158 C 
ATOM      8  O   UNL     1      17.371  29.248  29.393  1.00  0.00    -0.295 OA
ENDROOT
BRANCH   5   9
ATOM      9  C   UNL     1      19.018  33.843  29.655  1.00  0.00    -0.077 C 
ATOM     10  C   UNL     1      18.736  35.124  29.935  1.00  0.00     0.008 C 
ATOM     11  C   UNL     1      20.463  33.413  29.621  1.00  0.00     0.039 C 
ENDBRANCH   5   9
TORSDOF 1
ENDMDL
MODEL 6
REMARK VINA RESULT:    -4.130      2.274      3.469
REMARK INTER + INTRA:          -4.460
REMARK INTER:                  -4.365
REMARK INTRA:                  -0.095
REMARK UNBOUND:                -0.090
REMARK SMILES C=C(C)[C@@H]1CC=C(C)C(=O)C1
REMARK SMILES IDX 8 1 7 2 6 3 5 4 4 5 11 6 9 7 10 8 2 9 1 10 3 11
REMARK H PARENT
REMARK Flexibility Score: inf
ROOT
ATOM      1  C   UNL     1      21.315  27.337  28.981  1.00  0.00     0.048 C 
ATOM      2  C   UNL     1      20.038  26.720  28.480  1.00  0.00    -0.012 C 
ATOM      3  C   UNL     1      18.909  27.447  28.432  1.00  0.00    -0.019 C 
ATOM      4  C   UNL     1      17.627  26.897  27.864  1.00  0.00     0.036 C 
ATOM      5  C   UNL     1      17.535  25.373  28.072  1.00  0.00     0.025 C 
ATOM      6  C   UNL     1      18.778  24.676  27.490  1.00  0.00     0.089 C 
ATOM      7  C   UNL     1      20.037  25.310  28.015  1.00  0.00     0.158 C 
ATOM      8  O   UNL     1      21.107  24.643  28.015  1.00  0.00    -0.295 OA
ENDROOT
BRANCH   5   9
ATOM      9  C   UNL     1      16.251  24.807  27.481  1.00  0.00    -0.077 C 
ATOM     10  C   UNL     1      15.087  25.452  27.658  1.00  0.00     0.008 C 
ATOM     11  C   UNL     1      16.250  23.521  26.692  1.00  0.00     0.039 C 
ENDBRANCH   5   9
TORSDOF 1
ENDMDL
MODEL 7
REMARK VINA RESULT:    -4.060      2.299      5.075
REMARK INTER + INTRA:          -4.387
REMARK INTER:                  -4.289
REMARK INTRA:                  -0.098
REMARK UNBOUND:                -0.090
REMARK SMILES C=C(C)[C@@H]1CC=C(C)C(=O)C1
REMARK SMILES IDX 8 1 7 2 6 3 5 4 4 5 11 6 9 7 10 8 2 9 1 10 3 11
REMARK H PARENT
REMARK Flexibility Score: inf
ROOT
ATOM      1  C   UNL     1      20.243  24.046  27.163  1.00  0.00     0.048 C 
ATOM      2  C   UNL     1      19.843  25.377  27.738  1.00  0.00    -0.012 C 
ATOM      3  C   UNL     1      18.574  25.807  27.627  1.00  0.00    -0.019 C 
ATOM      4  C   UNL     1      18.109  27.094  28.255  1.00  0.00     0.036 C 
ATOM      5  C   UNL     1      19.251  28.126  28.323  1.00  0.00     0.025 C 
ATOM      6  C   UNL     1      20.469  27.529  29.050  1.00  0.00     0.089 C 
ATOM      7  C   UNL     1      20.850  26.204  28.449  1.00  0.00     0.158 C 
ATOM      8  O   UNL     1      22.028  25.779  28.595  1.00  0.00    -0.295 OA
ENDROOT
BRANCH   5   9
ATOM      9  C   UNL     1      18.793  29.423  28.976  1.00  0.00    -0.077 C 
ATOM     10  C   UNL     1      17.547  29.526  29.465  1.00  0.00     0.008 C 
ATOM     11  C   UNL     1      19.712  30.613  29.090  1.00  0.00     0.039 C 
ENDBRANCH   5   9
TORSDOF 1
ENDMDL
MODEL 8
REMARK VINA RESULT:    -4.023      1.484      4.292
REMARK INTER + INTRA:          -4.347
REMARK INTER:                  -4.249
REMARK INTRA:                  -0.098
REMARK UNBOUND:                -0.090
REMARK SMILES C=C(C)[C@@H]1CC=C(C)C(=O)C1
REMARK SMILES IDX 8 1 7 2 6 3 5 4 4 5 11 6 9 7 10 8 2 9 1 10 3 11
REMARK H PARENT
REMARK Flexibility Score: inf
ROOT
ATOM      1  C   UNL     1      18.376  22.016  25.687  1.00  0.00     0.048 C 
ATOM      2  C   UNL     1      18.941  23.232  26.366  1.00  0.00    -0.012 C 
ATOM      3  C   UNL     1      20.257  23.498  26.292  1.00  0.00    -0.019 C 
ATOM      4  C   UNL     1      20.855  24.745  26.887  1.00  0.00     0.036 C 
ATOM      5  C   UNL     1      20.062  25.208  28.124  1.00  0.00     0.025 C 
ATOM      6  C   UNL     1      18.575  25.386  27.770  1.00  0.00     0.089 C 
ATOM      7  C   UNL     1      18.036  24.152  27.100  1.00  0.00     0.158 C 
ATOM      8  O   UNL     1      16.795  23.929  27.129  1.00  0.00    -0.295 OA
ENDROOT
BRANCH   5   9
ATOM      9  C   UNL     1      20.650  26.481  28.718  1.00  0.00    -0.077 C 
ATOM     10  C   UNL     1      19.855  27.354  29.356  1.00  0.00     0.008 C 
ATOM     11  C   UNL     1      22.121  26.793  28.608  1.00  0.00     0.039 C 
ENDBRANCH   5   9
TORSDOF 1
ENDMDL
MODEL 9
REMARK VINA RESULT:    -4.020      2.163      3.506
REMARK INTER + INTRA:          -4.344
REMARK INTER:                  -4.252
REMARK INTRA:                  -0.092
REMARK UNBOUND:                -0.090
REMARK SMILES C=C(C)[C@@H]1CC=C(C)C(=O)C1
REMARK SMILES IDX 8 1 7 2 6 3 5 4 4 5 11 6 9 7 10 8 2 9 1 10 3 11
REMARK H PARENT
REMARK Flexibility Score: inf
ROOT
ATOM      1  C   UNL     1      20.304  30.787  29.462  1.00  0.00     0.048 C 
ATOM      2  C   UNL     1      19.945  29.427  28.929  1.00  0.00    -0.012 C 
ATOM      3  C   UNL     1      18.788  29.244  28.270  1.00  0.00    -0.019 C 
ATOM      4  C   UNL     1      18.423  27.921  27.648  1.00  0.00     0.036 C 
ATOM      5  C   UNL     1      19.036  26.748  28.437  1.00  0.00     0.025 C 
ATOM      6  C   UNL     1      20.559  26.929  28.570  1.00  0.00     0.089 C 
ATOM      7  C   UNL     1      20.886  28.294  29.112  1.00  0.00     0.158 C 
ATOM      8  O   UNL     1      21.993  28.477  29.688  1.00  0.00    -0.295 OA
ENDROOT
BRANCH   5   9
ATOM      9  C   UNL     1      18.688  25.408  27.802  1.00  0.00    -0.077 C 
ATOM     10  C   UNL     1      17.411  24.999  27.753  1.00  0.00     0.008 C 
ATOM     11  C   UNL     1      19.755  24.514  27.220  1.00  0.00     0.039 C 
ENDBRANCH   5   9
TORSDOF 1
ENDMDL
