MODEL 1
REMARK VINA RESULT:    -4.754      0.000      0.000
REMARK INTER + INTRA:         -16.031
REMARK INTER:                 -11.979
REMARK INTRA:                  -4.052
REMARK UNBOUND:                -4.052
REMARK SMILES CCCCCCCCCCCCCCCCCCCCCCCCCCCC(=O)[O-]
REMARK SMILES IDX 15 1 16 2 17 3 18 4 19 5 20 6 21 7 22 8 23 9 24 10 25 11
REMARK SMILES IDX 26 12 27 13 28 14 29 15 30 16 14 17 13 18 12 19 11 20 10 21
REMARK SMILES IDX 9 22 8 23 7 24 6 25 5 26 4 27 3 28 2 29 1 30
REMARK H PARENT
REMARK Flexibility Score: inf
ROOT
ATOM      1  C   UNL     1      51.680  20.760  53.428  1.00  0.00     0.000 C 
ENDROOT
BRANCH   1   2
ATOM      2  C   UNL     1      50.644  21.754  53.974  1.00  0.00     0.000 C 
BRANCH   2   3
ATOM      3  C   UNL     1      49.509  21.981  52.962  1.00  0.00     0.000 C 
BRANCH   3   4
ATOM      4  C   UNL     1      49.751  23.208  52.066  1.00  0.00     0.000 C 
BRANCH   4   5
ATOM      5  C   UNL     1      49.041  24.467  52.591  1.00  0.00     0.000 C 
BRANCH   5   6
ATOM      6  C   UNL     1      47.510  24.391  52.445  1.00  0.00     0.000 C 
BRANCH   6   7
ATOM      7  C   UNL     1      46.712  24.920  53.653  1.00  0.00     0.000 C 
BRANCH   7   8
ATOM      8  C   UNL     1      47.166  24.382  55.024  1.00  0.00     0.000 C 
BRANCH   8   9
ATOM      9  C   UNL     1      46.399  23.143  55.527  1.00  0.00     0.000 C 
BRANCH   9  10
ATOM     10  C   UNL     1      47.114  21.797  55.294  1.00  0.00     0.000 C 
BRANCH  10  11
ATOM     11  C   UNL     1      46.180  20.591  55.072  1.00  0.00     0.000 C 
BRANCH  11  12
ATOM     12  C   UNL     1      44.695  20.852  55.379  1.00  0.00     0.006 C 
BRANCH  12  13
ATOM     13  C   UNL     1      43.849  19.570  55.376  1.00  0.00     0.053 C 
BRANCH  13  14
ATOM     14  C   UNL     1      42.413  19.886  55.098  1.00  0.00     0.041 C 
ATOM     15  O   UNL     1      42.024  21.084  55.046  1.00  0.00    -0.550 OA
ATOM     16  O   UNL     1      41.504  18.858  54.878  1.00  0.00    -0.550 OA
ENDBRANCH  13  14
ENDBRANCH  12  13
ENDBRANCH  11  12
ENDBRANCH  10  11
ENDBRANCH   9  10
ENDBRANCH   8   9
ENDBRANCH   7   8
ENDBRANCH   6   7
ENDBRANCH   5   6
ENDBRANCH   4   5
ENDBRANCH   3   4
ENDBRANCH   2   3
ENDBRANCH   1   2
BRANCH   1  17
ATOM     17  C   UNL     1      52.994  21.440  53.008  1.00  0.00     0.000 C 
BRANCH  17  18
ATOM     18  C   UNL     1      53.025  21.954  51.557  1.00  0.00     0.000 C 
BRANCH  18  19
ATOM     19  C   UNL     1      53.739  20.990  50.597  1.00  0.00     0.000 C 
BRANCH  19  20
ATOM     20  C   UNL     1      52.803  20.553  49.461  1.00  0.00     0.000 C 
BRANCH  20  21
ATOM     21  C   UNL     1      51.313  20.661  49.838  1.00  0.00     0.000 C 
BRANCH  21  22
ATOM     22  C   UNL     1      50.654  19.333  50.261  1.00  0.00    -0.000 C 
BRANCH  22  23
ATOM     23  C   UNL     1      49.132  19.253  50.027  1.00  0.00    -0.000 C 
BRANCH  23  24
ATOM     24  C   UNL     1      48.471  20.581  49.617  1.00  0.00    -0.000 C 
BRANCH  24  25
ATOM     25  C   UNL     1      47.182  20.870  50.407  1.00  0.00    -0.000 C 
BRANCH  25  26
ATOM     26  C   UNL     1      46.954  19.867  51.549  1.00  0.00    -0.000 C 
BRANCH  26  27
ATOM     27  C   UNL     1      45.906  18.801  51.196  1.00  0.00    -0.000 C 
BRANCH  27  28
ATOM     28  C   UNL     1      45.246  18.240  52.462  1.00  0.00    -0.000 C 
BRANCH  28  29
ATOM     29  C   UNL     1      43.940  17.509  52.126  1.00  0.00    -0.003 C 
ATOM     30  C   UNL     1      44.163  16.452  51.047  1.00  0.00     0.004 C 
ENDBRANCH  28  29
ENDBRANCH  27  28
ENDBRANCH  26  27
ENDBRANCH  25  26
ENDBRANCH  24  25
ENDBRANCH  23  24
ENDBRANCH  22  23
ENDBRANCH  21  22
ENDBRANCH  20  21
ENDBRANCH  19  20
ENDBRANCH  18  19
ENDBRANCH  17  18
ENDBRANCH   1  17
TORSDOF 26
ENDMDL
MODEL 2
REMARK VINA RESULT:    -4.608      1.815      4.550
REMARK INTER + INTRA:         -15.664
REMARK INTER:                 -11.389
REMARK INTRA:                  -4.274
REMARK UNBOUND:                -4.052
REMARK SMILES CCCCCCCCCCCCCCCCCCCCCCCCCCCC(=O)[O-]
REMARK SMILES IDX 15 1 16 2 17 3 18 4 19 5 20 6 21 7 22 8 23 9 24 10 25 11
REMARK SMILES IDX 26 12 27 13 28 14 29 15 30 16 14 17 13 18 12 19 11 20 10 21
REMARK SMILES IDX 9 22 8 23 7 24 6 25 5 26 4 27 3 28 2 29 1 30
REMARK H PARENT
REMARK Flexibility Score: inf
ROOT
ATOM      1  C   UNL     1      51.865  20.572  54.605  1.00  0.00     0.000 C 
ENDROOT
BRANCH   1   2
ATOM      2  C   UNL     1      50.702  21.516  54.945  1.00  0.00     0.000 C 
BRANCH   2   3
ATOM      3  C   UNL     1      51.199  22.750  55.714  1.00  0.00     0.000 C 
BRANCH   3   4
ATOM      4  C   UNL     1      50.159  23.882  55.751  1.00  0.00     0.000 C 
BRANCH   4   5
ATOM      5  C   UNL     1      48.775  23.394  56.213  1.00  0.00     0.000 C 
BRANCH   5   6
ATOM      6  C   UNL     1      47.621  24.056  55.438  1.00  0.00     0.000 C 
BRANCH   6   7
ATOM      7  C   UNL     1      46.527  23.089  54.942  1.00  0.00     0.000 C 
BRANCH   7   8
ATOM      8  C   UNL     1      46.964  21.617  54.814  1.00  0.00     0.000 C 
BRANCH   8   9
ATOM      9  C   UNL     1      46.041  20.598  55.513  1.00  0.00     0.000 C 
BRANCH   9  10
ATOM     10  C   UNL     1      44.563  20.656  55.078  1.00  0.00     0.000 C 
BRANCH  10  11
ATOM     11  C   UNL     1      43.725  19.416  55.449  1.00  0.00     0.000 C 
BRANCH  11  12
ATOM     12  C   UNL     1      43.180  18.617  54.252  1.00  0.00     0.006 C 
BRANCH  12  13
ATOM     13  C   UNL     1      44.283  17.912  53.450  1.00  0.00     0.053 C 
BRANCH  13  14
ATOM     14  C   UNL     1      43.997  17.980  51.983  1.00  0.00     0.041 C 
ATOM     15  O   UNL     1      43.089  18.739  51.548  1.00  0.00    -0.550 OA
ATOM     16  O   UNL     1      44.743  17.220  51.092  1.00  0.00    -0.550 OA
ENDBRANCH  13  14
ENDBRANCH  12  13
ENDBRANCH  11  12
ENDBRANCH  10  11
ENDBRANCH   9  10
ENDBRANCH   8   9
ENDBRANCH   7   8
ENDBRANCH   6   7
ENDBRANCH   5   6
ENDBRANCH   4   5
ENDBRANCH   3   4
ENDBRANCH   2   3
ENDBRANCH   1   2
BRANCH   1  17
ATOM     17  C   UNL     1      53.199  21.316  54.411  1.00  0.00     0.000 C 
BRANCH  17  18
ATOM     18  C   UNL     1      53.333  22.070  53.076  1.00  0.00     0.000 C 
BRANCH  18  19
ATOM     19  C   UNL     1      53.779  23.528  53.255  1.00  0.00     0.000 C 
BRANCH  19  20
ATOM     20  C   UNL     1      52.681  24.498  52.796  1.00  0.00     0.000 C 
BRANCH  20  21
ATOM     21  C   UNL     1      51.593  23.812  51.949  1.00  0.00     0.000 C 
BRANCH  21  22
ATOM     22  C   UNL     1      50.197  24.460  52.039  1.00  0.00    -0.000 C 
BRANCH  22  23
ATOM     23  C   UNL     1      49.020  23.470  52.142  1.00  0.00    -0.000 C 
BRANCH  23  24
ATOM     24  C   UNL     1      49.412  21.986  52.034  1.00  0.00    -0.000 C 
BRANCH  24  25
ATOM     25  C   UNL     1      48.740  21.280  50.843  1.00  0.00    -0.000 C 
BRANCH  25  26
ATOM     26  C   UNL     1      49.695  20.326  50.109  1.00  0.00    -0.000 C 
BRANCH  26  27
ATOM     27  C   UNL     1      51.125  20.380  50.665  1.00  0.00    -0.000 C 
BRANCH  27  28
ATOM     28  C   UNL     1      52.157  20.221  49.542  1.00  0.00    -0.000 C 
BRANCH  28  29
ATOM     29  C   UNL     1      53.528  20.758  49.972  1.00  0.00    -0.003 C 
ATOM     30  C   UNL     1      54.632  20.251  49.048  1.00  0.00     0.004 C 
ENDBRANCH  28  29
ENDBRANCH  27  28
ENDBRANCH  26  27
ENDBRANCH  25  26
ENDBRANCH  24  25
ENDBRANCH  23  24
ENDBRANCH  22  23
ENDBRANCH  21  22
ENDBRANCH  20  21
ENDBRANCH  19  20
ENDBRANCH  18  19
ENDBRANCH  17  18
ENDBRANCH   1  17
TORSDOF 26
ENDMDL
MODEL 3
REMARK VINA RESULT:    -4.558      1.860      4.474
REMARK INTER + INTRA:         -15.537
REMARK INTER:                 -11.490
REMARK INTRA:                  -4.047
REMARK UNBOUND:                -4.052
REMARK SMILES CCCCCCCCCCCCCCCCCCCCCCCCCCCC(=O)[O-]
REMARK SMILES IDX 15 1 16 2 17 3 18 4 19 5 20 6 21 7 22 8 23 9 24 10 25 11
REMARK SMILES IDX 26 12 27 13 28 14 29 15 30 16 14 17 13 18 12 19 11 20 10 21
REMARK SMILES IDX 9 22 8 23 7 24 6 25 5 26 4 27 3 28 2 29 1 30
REMARK H PARENT
REMARK Flexibility Score: inf
ROOT
ATOM      1  C   UNL     1      52.466  21.005  53.535  1.00  0.00     0.000 C 
ENDROOT
BRANCH   1   2
ATOM      2  C   UNL     1      51.609  20.701  54.773  1.00  0.00     0.000 C 
BRANCH   2   3
ATOM      3  C   UNL     1      50.510  21.759  54.958  1.00  0.00     0.000 C 
BRANCH   3   4
ATOM      4  C   UNL     1      50.922  22.875  55.934  1.00  0.00     0.000 C 
BRANCH   4   5
ATOM      5  C   UNL     1      49.930  24.051  55.933  1.00  0.00     0.000 C 
BRANCH   5   6
ATOM      6  C   UNL     1      49.076  24.111  57.213  1.00  0.00     0.000 C 
BRANCH   6   7
ATOM      7  C   UNL     1      47.762  23.306  57.159  1.00  0.00     0.000 C 
BRANCH   7   8
ATOM      8  C   UNL     1      46.822  23.664  55.991  1.00  0.00     0.000 C 
BRANCH   8   9
ATOM      9  C   UNL     1      46.624  22.548  54.947  1.00  0.00     0.000 C 
BRANCH   9  10
ATOM     10  C   UNL     1      46.886  21.119  55.463  1.00  0.00     0.000 C 
BRANCH  10  11
ATOM     11  C   UNL     1      45.637  20.363  55.956  1.00  0.00     0.000 C 
BRANCH  11  12
ATOM     12  C   UNL     1      44.652  19.942  54.851  1.00  0.00     0.006 C 
BRANCH  12  13
ATOM     13  C   UNL     1      43.316  19.428  55.404  1.00  0.00     0.053 C 
BRANCH  13  14
ATOM     14  C   UNL     1      42.175  20.227  54.858  1.00  0.00     0.041 C 
ATOM     15  O   UNL     1      42.114  21.469  55.065  1.00  0.00    -0.550 OA
ATOM     16  O   UNL     1      41.187  19.606  54.105  1.00  0.00    -0.550 OA
ENDBRANCH  13  14
ENDBRANCH  12  13
ENDBRANCH  11  12
ENDBRANCH  10  11
ENDBRANCH   9  10
ENDBRANCH   8   9
ENDBRANCH   7   8
ENDBRANCH   6   7
ENDBRANCH   5   6
ENDBRANCH   4   5
ENDBRANCH   3   4
ENDBRANCH   2   3
ENDBRANCH   1   2
BRANCH   1  17
ATOM     17  C   UNL     1      53.730  21.817  53.871  1.00  0.00     0.000 C 
BRANCH  17  18
ATOM     18  C   UNL     1      53.666  23.307  53.487  1.00  0.00     0.000 C 
BRANCH  18  19
ATOM     19  C   UNL     1      52.919  23.553  52.168  1.00  0.00     0.000 C 
BRANCH  19  20
ATOM     20  C   UNL     1      51.677  24.428  52.395  1.00  0.00     0.000 C 
BRANCH  20  21
ATOM     21  C   UNL     1      50.439  23.918  51.634  1.00  0.00     0.000 C 
BRANCH  21  22
ATOM     22  C   UNL     1      49.460  23.077  52.477  1.00  0.00    -0.000 C 
BRANCH  22  23
ATOM     23  C   UNL     1      48.339  22.382  51.680  1.00  0.00    -0.000 C 
BRANCH  23  24
ATOM     24  C   UNL     1      48.629  20.920  51.296  1.00  0.00    -0.000 C 
BRANCH  24  25
ATOM     25  C   UNL     1      49.567  20.800  50.082  1.00  0.00    -0.000 C 
BRANCH  25  26
ATOM     26  C   UNL     1      50.974  20.320  50.470  1.00  0.00    -0.000 C 
BRANCH  26  27
ATOM     27  C   UNL     1      52.067  20.898  49.559  1.00  0.00    -0.000 C 
BRANCH  27  28
ATOM     28  C   UNL     1      53.463  20.609  50.123  1.00  0.00    -0.000 C 
BRANCH  28  29
ATOM     29  C   UNL     1      54.407  20.098  49.028  1.00  0.00    -0.003 C 
ATOM     30  C   UNL     1      55.047  21.257  48.268  1.00  0.00     0.004 C 
ENDBRANCH  28  29
ENDBRANCH  27  28
ENDBRANCH  26  27
ENDBRANCH  25  26
ENDBRANCH  24  25
ENDBRANCH  23  24
ENDBRANCH  22  23
ENDBRANCH  21  22
ENDBRANCH  20  21
ENDBRANCH  19  20
ENDBRANCH  18  19
ENDBRANCH  17  18
ENDBRANCH   1  17
TORSDOF 26
ENDMDL
MODEL 4
REMARK VINA RESULT:    -4.497      1.794      4.903
REMARK INTER + INTRA:         -15.383
REMARK INTER:                 -11.432
REMARK INTRA:                  -3.951
REMARK UNBOUND:                -4.052
REMARK SMILES CCCCCCCCCCCCCCCCCCCCCCCCCCCC(=O)[O-]
REMARK SMILES IDX 15 1 16 2 17 3 18 4 19 5 20 6 21 7 22 8 23 9 24 10 25 11
REMARK SMILES IDX 26 12 27 13 28 14 29 15 30 16 14 17 13 18 12 19 11 20 10 21
REMARK SMILES IDX 9 22 8 23 7 24 6 25 5 26 4 27 3 28 2 29 1 30
REMARK H PARENT
REMARK Flexibility Score: inf
ROOT
ATOM      1  C   UNL     1      52.132  21.797  53.035  1.00  0.00     0.000 C 
ENDROOT
BRANCH   1   2
ATOM      2  C   UNL     1      53.169  21.528  54.135  1.00  0.00     0.000 C 
BRANCH   2   3
ATOM      3  C   UNL     1      53.167  22.652  55.184  1.00  0.00     0.000 C 
BRANCH   3   4
ATOM      4  C   UNL     1      51.808  22.801  55.888  1.00  0.00     0.000 C 
BRANCH   4   5
ATOM      5  C   UNL     1      51.736  24.063  56.766  1.00  0.00     0.000 C 
BRANCH   5   6
ATOM      6  C   UNL     1      50.302  24.600  56.920  1.00  0.00     0.000 C 
BRANCH   6   7
ATOM      7  C   UNL     1      49.188  23.614  56.515  1.00  0.00     0.000 C 
BRANCH   7   8
ATOM      8  C   UNL     1      47.886  24.268  56.012  1.00  0.00     0.000 C 
BRANCH   8   9
ATOM      9  C   UNL     1      46.794  23.280  55.553  1.00  0.00     0.000 C 
BRANCH   9  10
ATOM     10  C   UNL     1      47.174  21.791  55.669  1.00  0.00     0.000 C 
BRANCH  10  11
ATOM     11  C   UNL     1      46.257  20.820  54.899  1.00  0.00     0.000 C 
BRANCH  11  12
ATOM     12  C   UNL     1      45.122  20.198  55.731  1.00  0.00     0.006 C 
BRANCH  12  13
ATOM     13  C   UNL     1      43.863  19.905  54.902  1.00  0.00     0.053 C 
BRANCH  13  14
ATOM     14  C   UNL     1      43.889  18.503  54.379  1.00  0.00     0.041 C 
ATOM     15  O   UNL     1      43.231  17.597  54.958  1.00  0.00    -0.550 OA
ATOM     16  O   UNL     1      44.625  18.198  53.241  1.00  0.00    -0.550 OA
ENDBRANCH  13  14
ENDBRANCH  12  13
ENDBRANCH  11  12
ENDBRANCH  10  11
ENDBRANCH   9  10
ENDBRANCH   8   9
ENDBRANCH   7   8
ENDBRANCH   6   7
ENDBRANCH   5   6
ENDBRANCH   4   5
ENDBRANCH   3   4
ENDBRANCH   2   3
ENDBRANCH   1   2
BRANCH   1  17
ATOM     17  C   UNL     1      52.256  23.207  52.431  1.00  0.00     0.000 C 
BRANCH  17  18
ATOM     18  C   UNL     1      50.958  23.770  51.824  1.00  0.00     0.000 C 
BRANCH  18  19
ATOM     19  C   UNL     1      49.822  23.890  52.850  1.00  0.00     0.000 C 
BRANCH  19  20
ATOM     20  C   UNL     1      48.527  23.265  52.311  1.00  0.00     0.000 C 
BRANCH  20  21
ATOM     21  C   UNL     1      48.603  21.730  52.207  1.00  0.00     0.000 C 
BRANCH  21  22
ATOM     22  C   UNL     1      47.770  21.115  51.065  1.00  0.00    -0.000 C 
BRANCH  22  23
ATOM     23  C   UNL     1      48.584  20.622  49.852  1.00  0.00    -0.000 C 
BRANCH  23  24
ATOM     24  C   UNL     1      49.390  19.333  50.095  1.00  0.00    -0.000 C 
BRANCH  24  25
ATOM     25  C   UNL     1      50.910  19.559  50.009  1.00  0.00    -0.000 C 
BRANCH  25  26
ATOM     26  C   UNL     1      51.270  21.002  49.623  1.00  0.00    -0.000 C 
BRANCH  26  27
ATOM     27  C   UNL     1      52.776  21.194  49.396  1.00  0.00    -0.000 C 
BRANCH  27  28
ATOM     28  C   UNL     1      53.497  19.843  49.323  1.00  0.00    -0.000 C 
BRANCH  28  29
ATOM     29  C   UNL     1      54.966  20.021  48.919  1.00  0.00    -0.003 C 
ATOM     30  C   UNL     1      55.162  21.298  48.106  1.00  0.00     0.004 C 
ENDBRANCH  28  29
ENDBRANCH  27  28
ENDBRANCH  26  27
ENDBRANCH  25  26
ENDBRANCH  24  25
ENDBRANCH  23  24
ENDBRANCH  22  23
ENDBRANCH  21  22
ENDBRANCH  20  21
ENDBRANCH  19  20
ENDBRANCH  18  19
ENDBRANCH  17  18
ENDBRANCH   1  17
TORSDOF 26
ENDMDL
MODEL 5
REMARK VINA RESULT:    -4.458      2.007      6.160
REMARK INTER + INTRA:         -15.285
REMARK INTER:                 -12.302
REMARK INTRA:                  -2.983
REMARK UNBOUND:                -4.052
REMARK SMILES CCCCCCCCCCCCCCCCCCCCCCCCCCCC(=O)[O-]
REMARK SMILES IDX 15 1 16 2 17 3 18 4 19 5 20 6 21 7 22 8 23 9 24 10 25 11
REMARK SMILES IDX 26 12 27 13 28 14 29 15 30 16 14 17 13 18 12 19 11 20 10 21
REMARK SMILES IDX 9 22 8 23 7 24 6 25 5 26 4 27 3 28 2 29 1 30
REMARK H PARENT
REMARK Flexibility Score: inf
ROOT
ATOM      1  C   UNL     1      49.258  19.264  49.854  1.00  0.00     0.000 C 
ENDROOT
BRANCH   1   2
ATOM      2  C   UNL     1      50.575  19.484  50.614  1.00  0.00     0.000 C 
BRANCH   2   3
ATOM      3  C   UNL     1      51.275  20.770  50.147  1.00  0.00     0.000 C 
BRANCH   3   4
ATOM      4  C   UNL     1      52.774  20.562  49.872  1.00  0.00     0.000 C 
BRANCH   4   5
ATOM      5  C   UNL     1      53.656  21.563  50.638  1.00  0.00     0.000 C 
BRANCH   5   6
ATOM      6  C   UNL     1      52.957  22.145  51.879  1.00  0.00     0.000 C 
BRANCH   6   7
ATOM      7  C   UNL     1      53.598  21.764  53.229  1.00  0.00     0.000 C 
BRANCH   7   8
ATOM      8  C   UNL     1      52.678  20.992  54.196  1.00  0.00     0.000 C 
BRANCH   8   9
ATOM      9  C   UNL     1      51.184  20.991  53.815  1.00  0.00     0.000 C 
BRANCH   9  10
ATOM     10  C   UNL     1      50.387  22.218  54.303  1.00  0.00     0.000 C 
BRANCH  10  11
ATOM     11  C   UNL     1      49.555  22.930  53.219  1.00  0.00     0.000 C 
BRANCH  11  12
ATOM     12  C   UNL     1      48.033  22.732  53.332  1.00  0.00     0.006 C 
BRANCH  12  13
ATOM     13  C   UNL     1      47.644  21.638  54.335  1.00  0.00     0.053 C 
BRANCH  13  14
ATOM     14  C   UNL     1      46.803  22.203  55.436  1.00  0.00     0.041 C 
ATOM     15  O   UNL     1      46.788  21.653  56.570  1.00  0.00    -0.550 OA
ATOM     16  O   UNL     1      46.049  23.349  55.218  1.00  0.00    -0.550 OA
ENDBRANCH  13  14
ENDBRANCH  12  13
ENDBRANCH  11  12
ENDBRANCH  10  11
ENDBRANCH   9  10
ENDBRANCH   8   9
ENDBRANCH   7   8
ENDBRANCH   6   7
ENDBRANCH   5   6
ENDBRANCH   4   5
ENDBRANCH   3   4
ENDBRANCH   2   3
ENDBRANCH   1   2
BRANCH   1  17
ATOM     17  C   UNL     1      48.551  20.584  49.496  1.00  0.00     0.000 C 
BRANCH  17  18
ATOM     18  C   UNL     1      47.234  20.840  50.251  1.00  0.00     0.000 C 
BRANCH  18  19
ATOM     19  C   UNL     1      46.975  19.816  51.365  1.00  0.00     0.000 C 
BRANCH  19  20
ATOM     20  C   UNL     1      45.677  19.037  51.104  1.00  0.00     0.000 C 
BRANCH  20  21
ATOM     21  C   UNL     1      45.343  18.038  52.227  1.00  0.00     0.000 C 
BRANCH  21  22
ATOM     22  C   UNL     1      44.780  18.672  53.514  1.00  0.00    -0.000 C 
BRANCH  22  23
ATOM     23  C   UNL     1      43.527  17.984  54.090  1.00  0.00    -0.000 C 
BRANCH  23  24
ATOM     24  C   UNL     1      42.790  18.788  55.177  1.00  0.00    -0.000 C 
BRANCH  24  25
ATOM     25  C   UNL     1      41.401  19.267  54.720  1.00  0.00    -0.000 C 
BRANCH  25  26
ATOM     26  C   UNL     1      41.465  20.571  53.909  1.00  0.00    -0.000 C 
BRANCH  26  27
ATOM     27  C   UNL     1      41.744  21.799  54.788  1.00  0.00    -0.000 C 
BRANCH  27  28
ATOM     28  C   UNL     1      40.620  22.833  54.661  1.00  0.00    -0.000 C 
BRANCH  28  29
ATOM     29  C   UNL     1      41.005  24.154  55.338  1.00  0.00    -0.003 C 
ATOM     30  C   UNL     1      42.520  24.340  55.360  1.00  0.00     0.004 C 
ENDBRANCH  28  29
ENDBRANCH  27  28
ENDBRANCH  26  27
ENDBRANCH  25  26
ENDBRANCH  24  25
ENDBRANCH  23  24
ENDBRANCH  22  23
ENDBRANCH  21  22
ENDBRANCH  20  21
ENDBRANCH  19  20
ENDBRANCH  18  19
ENDBRANCH  17  18
ENDBRANCH   1  17
TORSDOF 26
ENDMDL
MODEL 6
REMARK VINA RESULT:    -4.452      2.120      5.565
REMARK INTER + INTRA:         -15.270
REMARK INTER:                 -11.226
REMARK INTRA:                  -4.043
REMARK UNBOUND:                -4.052
REMARK SMILES CCCCCCCCCCCCCCCCCCCCCCCCCCCC(=O)[O-]
REMARK SMILES IDX 15 1 16 2 17 3 18 4 19 5 20 6 21 7 22 8 23 9 24 10 25 11
REMARK SMILES IDX 26 12 27 13 28 14 29 15 30 16 14 17 13 18 12 19 11 20 10 21
REMARK SMILES IDX 9 22 8 23 7 24 6 25 5 26 4 27 3 28 2 29 1 30
REMARK H PARENT
REMARK Flexibility Score: inf
ROOT
ATOM      1  C   UNL     1      50.153  21.748  54.340  1.00  0.00     0.000 C 
ENDROOT
BRANCH   1   2
ATOM      2  C   UNL     1      49.309  22.004  53.082  1.00  0.00     0.000 C 
BRANCH   2   3
ATOM      3  C   UNL     1      49.128  23.510  52.836  1.00  0.00     0.000 C 
BRANCH   3   4
ATOM      4  C   UNL     1      47.658  23.900  52.608  1.00  0.00     0.000 C 
BRANCH   4   5
ATOM      5  C   UNL     1      47.174  24.974  53.599  1.00  0.00     0.000 C 
BRANCH   5   6
ATOM      6  C   UNL     1      46.981  24.424  55.024  1.00  0.00     0.000 C 
BRANCH   6   7
ATOM      7  C   UNL     1      46.103  23.161  55.124  1.00  0.00     0.000 C 
BRANCH   7   8
ATOM      8  C   UNL     1      46.796  21.930  55.742  1.00  0.00     0.000 C 
BRANCH   8   9
ATOM      9  C   UNL     1      46.131  20.577  55.420  1.00  0.00     0.000 C 
BRANCH   9  10
ATOM     10  C   UNL     1      44.613  20.643  55.158  1.00  0.00     0.000 C 
BRANCH  10  11
ATOM     11  C   UNL     1      43.885  19.285  55.185  1.00  0.00     0.000 C 
BRANCH  11  12
ATOM     12  C   UNL     1      43.446  18.753  53.809  1.00  0.00     0.006 C 
BRANCH  12  13
ATOM     13  C   UNL     1      44.560  17.989  53.079  1.00  0.00     0.053 C 
BRANCH  13  14
ATOM     14  C   UNL     1      44.148  17.664  51.678  1.00  0.00     0.041 C 
ATOM     15  O   UNL     1      44.668  16.686  51.075  1.00  0.00    -0.550 OA
ATOM     16  O   UNL     1      43.177  18.427  51.043  1.00  0.00    -0.550 OA
ENDBRANCH  13  14
ENDBRANCH  12  13
ENDBRANCH  11  12
ENDBRANCH  10  11
ENDBRANCH   9  10
ENDBRANCH   8   9
ENDBRANCH   7   8
ENDBRANCH   6   7
ENDBRANCH   5   6
ENDBRANCH   4   5
ENDBRANCH   3   4
ENDBRANCH   2   3
ENDBRANCH   1   2
BRANCH   1  17
ATOM     17  C   UNL     1      50.482  23.039  55.110  1.00  0.00     0.000 C 
BRANCH  17  18
ATOM     18  C   UNL     1      51.875  23.066  55.766  1.00  0.00     0.000 C 
BRANCH  18  19
ATOM     19  C   UNL     1      52.728  21.841  55.409  1.00  0.00     0.000 C 
BRANCH  19  20
ATOM     20  C   UNL     1      54.215  22.214  55.319  1.00  0.00     0.000 C 
BRANCH  20  21
ATOM     21  C   UNL     1      54.481  23.693  55.654  1.00  0.00     0.000 C 
BRANCH  21  22
ATOM     22  C   UNL     1      54.959  24.552  54.466  1.00  0.00    -0.000 C 
BRANCH  22  23
ATOM     23  C   UNL     1      53.900  24.811  53.376  1.00  0.00    -0.000 C 
BRANCH  23  24
ATOM     24  C   UNL     1      54.001  23.895  52.144  1.00  0.00    -0.000 C 
BRANCH  24  25
ATOM     25  C   UNL     1      52.707  23.103  51.886  1.00  0.00    -0.000 C 
BRANCH  25  26
ATOM     26  C   UNL     1      52.943  21.585  51.848  1.00  0.00    -0.000 C 
BRANCH  26  27
ATOM     27  C   UNL     1      51.996  20.865  50.878  1.00  0.00    -0.000 C 
BRANCH  27  28
ATOM     28  C   UNL     1      52.667  20.645  49.516  1.00  0.00    -0.000 C 
BRANCH  28  29
ATOM     29  C   UNL     1      54.157  20.324  49.680  1.00  0.00    -0.003 C 
ATOM     30  C   UNL     1      54.932  20.640  48.404  1.00  0.00     0.004 C 
ENDBRANCH  28  29
ENDBRANCH  27  28
ENDBRANCH  26  27
ENDBRANCH  25  26
ENDBRANCH  24  25
ENDBRANCH  23  24
ENDBRANCH  22  23
ENDBRANCH  21  22
ENDBRANCH  20  21
ENDBRANCH  19  20
ENDBRANCH  18  19
ENDBRANCH  17  18
ENDBRANCH   1  17
TORSDOF 26
ENDMDL
MODEL 7
REMARK VINA RESULT:    -4.449      1.919      3.957
REMARK INTER + INTRA:         -15.263
REMARK INTER:                 -10.939
REMARK INTRA:                  -4.324
REMARK UNBOUND:                -4.052
REMARK SMILES CCCCCCCCCCCCCCCCCCCCCCCCCCCC(=O)[O-]
REMARK SMILES IDX 15 1 16 2 17 3 18 4 19 5 20 6 21 7 22 8 23 9 24 10 25 11
REMARK SMILES IDX 26 12 27 13 28 14 29 15 30 16 14 17 13 18 12 19 11 20 10 21
REMARK SMILES IDX 9 22 8 23 7 24 6 25 5 26 4 27 3 28 2 29 1 30
REMARK H PARENT
REMARK Flexibility Score: inf
ROOT
ATOM      1  C   UNL     1      51.722  20.422  54.755  1.00  0.00     0.000 C 
ENDROOT
BRANCH   1   2
ATOM      2  C   UNL     1      50.829  21.349  53.918  1.00  0.00     0.000 C 
BRANCH   2   3
ATOM      3  C   UNL     1      50.450  22.612  54.708  1.00  0.00     0.000 C 
BRANCH   3   4
ATOM      4  C   UNL     1      49.961  23.753  53.800  1.00  0.00     0.000 C 
BRANCH   4   5
ATOM      5  C   UNL     1      49.136  23.242  52.606  1.00  0.00     0.000 C 
BRANCH   5   6
ATOM      6  C   UNL     1      47.620  23.267  52.877  1.00  0.00     0.000 C 
BRANCH   6   7
ATOM      7  C   UNL     1      47.211  23.845  54.246  1.00  0.00     0.000 C 
BRANCH   7   8
ATOM      8  C   UNL     1      46.465  22.865  55.173  1.00  0.00     0.000 C 
BRANCH   8   9
ATOM      9  C   UNL     1      46.535  21.384  54.750  1.00  0.00     0.000 C 
BRANCH   9  10
ATOM     10  C   UNL     1      45.625  20.433  55.553  1.00  0.00     0.000 C 
BRANCH  10  11
ATOM     11  C   UNL     1      44.343  19.985  54.825  1.00  0.00     0.000 C 
BRANCH  11  12
ATOM     12  C   UNL     1      44.390  18.563  54.238  1.00  0.00     0.006 C 
BRANCH  12  13
ATOM     13  C   UNL     1      43.637  18.439  52.906  1.00  0.00     0.053 C 
BRANCH  13  14
ATOM     14  C   UNL     1      44.279  17.412  52.028  1.00  0.00     0.041 C 
ATOM     15  O   UNL     1      43.682  16.993  51.000  1.00  0.00    -0.550 OA
ATOM     16  O   UNL     1      45.546  16.930  52.332  1.00  0.00    -0.550 OA
ENDBRANCH  13  14
ENDBRANCH  12  13
ENDBRANCH  11  12
ENDBRANCH  10  11
ENDBRANCH   9  10
ENDBRANCH   8   9
ENDBRANCH   7   8
ENDBRANCH   6   7
ENDBRANCH   5   6
ENDBRANCH   4   5
ENDBRANCH   3   4
ENDBRANCH   2   3
ENDBRANCH   1   2
BRANCH   1  17
ATOM     17  C   UNL     1      53.221  20.736  54.598  1.00  0.00     0.000 C 
BRANCH  17  18
ATOM     18  C   UNL     1      53.726  21.926  55.434  1.00  0.00     0.000 C 
BRANCH  18  19
ATOM     19  C   UNL     1      54.763  22.780  54.690  1.00  0.00     0.000 C 
BRANCH  19  20
ATOM     20  C   UNL     1      54.265  24.222  54.519  1.00  0.00     0.000 C 
BRANCH  20  21
ATOM     21  C   UNL     1      53.391  24.409  53.265  1.00  0.00     0.000 C 
BRANCH  21  22
ATOM     22  C   UNL     1      53.889  23.664  52.011  1.00  0.00    -0.000 C 
BRANCH  22  23
ATOM     23  C   UNL     1      52.893  22.652  51.410  1.00  0.00    -0.000 C 
BRANCH  23  24
ATOM     24  C   UNL     1      53.516  21.314  50.974  1.00  0.00    -0.000 C 
BRANCH  24  25
ATOM     25  C   UNL     1      52.704  20.614  49.870  1.00  0.00    -0.000 C 
BRANCH  25  26
ATOM     26  C   UNL     1      51.214  20.990  49.906  1.00  0.00    -0.000 C 
BRANCH  26  27
ATOM     27  C   UNL     1      50.356  19.931  50.614  1.00  0.00    -0.000 C 
BRANCH  27  28
ATOM     28  C   UNL     1      49.060  19.666  49.838  1.00  0.00    -0.000 C 
BRANCH  28  29
ATOM     29  C   UNL     1      47.954  20.641  50.261  1.00  0.00    -0.003 C 
ATOM     30  C   UNL     1      46.882  19.932  51.084  1.00  0.00     0.004 C 
ENDBRANCH  28  29
ENDBRANCH  27  28
ENDBRANCH  26  27
ENDBRANCH  25  26
ENDBRANCH  24  25
ENDBRANCH  23  24
ENDBRANCH  22  23
ENDBRANCH  21  22
ENDBRANCH  20  21
ENDBRANCH  19  20
ENDBRANCH  18  19
ENDBRANCH  17  18
ENDBRANCH   1  17
TORSDOF 26
ENDMDL
MODEL 8
REMARK VINA RESULT:    -4.449      1.355      4.982
REMARK INTER + INTRA:         -15.262
REMARK INTER:                 -11.143
REMARK INTRA:                  -4.120
REMARK UNBOUND:                -4.052
REMARK SMILES CCCCCCCCCCCCCCCCCCCCCCCCCCCC(=O)[O-]
REMARK SMILES IDX 15 1 16 2 17 3 18 4 19 5 20 6 21 7 22 8 23 9 24 10 25 11
REMARK SMILES IDX 26 12 27 13 28 14 29 15 30 16 14 17 13 18 12 19 11 20 10 21
REMARK SMILES IDX 9 22 8 23 7 24 6 25 5 26 4 27 3 28 2 29 1 30
REMARK H PARENT
REMARK Flexibility Score: inf
ROOT
ATOM      1  C   UNL     1      53.275  21.703  51.596  1.00  0.00     0.000 C 
ENDROOT
BRANCH   1   2
ATOM      2  C   UNL     1      53.830  21.143  50.278  1.00  0.00     0.000 C 
BRANCH   2   3
ATOM      3  C   UNL     1      52.731  20.426  49.476  1.00  0.00     0.000 C 
BRANCH   3   4
ATOM      4  C   UNL     1      51.317  20.771  49.973  1.00  0.00     0.000 C 
BRANCH   4   5
ATOM      5  C   UNL     1      50.566  19.539  50.509  1.00  0.00     0.000 C 
BRANCH   5   6
ATOM      6  C   UNL     1      49.226  19.299  49.790  1.00  0.00     0.000 C 
BRANCH   6   7
ATOM      7  C   UNL     1      48.267  20.506  49.776  1.00  0.00     0.000 C 
BRANCH   7   8
ATOM      8  C   UNL     1      47.426  20.688  51.056  1.00  0.00     0.000 C 
BRANCH   8   9
ATOM      9  C   UNL     1      46.063  19.969  51.049  1.00  0.00     0.000 C 
BRANCH   9  10
ATOM     10  C   UNL     1      46.028  18.633  51.818  1.00  0.00     0.000 C 
BRANCH  10  11
ATOM     11  C   UNL     1      44.743  17.804  51.630  1.00  0.00     0.000 C 
BRANCH  11  12
ATOM     12  C   UNL     1      43.702  17.951  52.754  1.00  0.00     0.006 C 
BRANCH  12  13
ATOM     13  C   UNL     1      44.277  18.600  54.021  1.00  0.00     0.053 C 
BRANCH  13  14
ATOM     14  C   UNL     1      43.222  18.735  55.073  1.00  0.00     0.041 C 
ATOM     15  O   UNL     1      42.869  17.731  55.750  1.00  0.00    -0.550 OA
ATOM     16  O   UNL     1      42.639  19.971  55.321  1.00  0.00    -0.550 OA
ENDBRANCH  13  14
ENDBRANCH  12  13
ENDBRANCH  11  12
ENDBRANCH  10  11
ENDBRANCH   9  10
ENDBRANCH   8   9
ENDBRANCH   7   8
ENDBRANCH   6   7
ENDBRANCH   5   6
ENDBRANCH   4   5
ENDBRANCH   3   4
ENDBRANCH   2   3
ENDBRANCH   1   2
BRANCH   1  17
ATOM     17  C   UNL     1      53.623  23.187  51.806  1.00  0.00     0.000 C 
BRANCH  17  18
ATOM     18  C   UNL     1      54.056  23.557  53.236  1.00  0.00     0.000 C 
BRANCH  18  19
ATOM     19  C   UNL     1      53.130  24.591  53.893  1.00  0.00     0.000 C 
BRANCH  19  20
ATOM     20  C   UNL     1      52.495  24.026  55.171  1.00  0.00     0.000 C 
BRANCH  20  21
ATOM     21  C   UNL     1      52.912  22.570  55.453  1.00  0.00     0.000 C 
BRANCH  21  22
ATOM     22  C   UNL     1      51.931  21.502  54.931  1.00  0.00    -0.000 C 
BRANCH  22  23
ATOM     23  C   UNL     1      50.476  21.978  54.754  1.00  0.00    -0.000 C 
BRANCH  23  24
ATOM     24  C   UNL     1      49.904  21.796  53.337  1.00  0.00    -0.000 C 
BRANCH  24  25
ATOM     25  C   UNL     1      49.989  23.081  52.494  1.00  0.00    -0.000 C 
BRANCH  25  26
ATOM     26  C   UNL     1      49.108  24.210  53.050  1.00  0.00    -0.000 C 
BRANCH  26  27
ATOM     27  C   UNL     1      47.615  23.988  52.765  1.00  0.00    -0.000 C 
BRANCH  27  28
ATOM     28  C   UNL     1      46.747  24.612  53.865  1.00  0.00    -0.000 C 
BRANCH  28  29
ATOM     29  C   UNL     1      46.925  23.871  55.196  1.00  0.00    -0.003 C 
ATOM     30  C   UNL     1      46.668  22.376  55.032  1.00  0.00     0.004 C 
ENDBRANCH  28  29
ENDBRANCH  27  28
ENDBRANCH  26  27
ENDBRANCH  25  26
ENDBRANCH  24  25
ENDBRANCH  23  24
ENDBRANCH  22  23
ENDBRANCH  21  22
ENDBRANCH  20  21
ENDBRANCH  19  20
ENDBRANCH  18  19
ENDBRANCH  17  18
ENDBRANCH   1  17
TORSDOF 26
ENDMDL
MODEL 9
REMARK VINA RESULT:    -4.388      2.510      7.361
REMARK INTER + INTRA:         -15.108
REMARK INTER:                 -12.626
REMARK INTRA:                  -2.482
REMARK UNBOUND:                -4.052
REMARK SMILES CCCCCCCCCCCCCCCCCCCCCCCCCCCC(=O)[O-]
REMARK SMILES IDX 15 1 16 2 17 3 18 4 19 5 20 6 21 7 22 8 23 9 24 10 25 11
REMARK SMILES IDX 26 12 27 13 28 14 29 15 30 16 14 17 13 18 12 19 11 20 10 21
REMARK SMILES IDX 9 22 8 23 7 24 6 25 5 26 4 27 3 28 2 29 1 30
REMARK H PARENT
REMARK Flexibility Score: inf
ROOT
ATOM      1  C   UNL     1      46.555  24.009  54.386  1.00  0.00     0.000 C 
ENDROOT
BRANCH   1   2
ATOM      2  C   UNL     1      46.520  22.576  54.937  1.00  0.00     0.000 C 
BRANCH   2   3
ATOM      3  C   UNL     1      47.936  21.984  55.027  1.00  0.00     0.000 C 
BRANCH   3   4
ATOM      4  C   UNL     1      48.888  22.851  55.868  1.00  0.00     0.000 C 
BRANCH   4   5
ATOM      5  C   UNL     1      50.068  23.396  55.044  1.00  0.00     0.000 C 
BRANCH   5   6
ATOM      6  C   UNL     1      51.328  22.519  55.157  1.00  0.00     0.000 C 
BRANCH   6   7
ATOM      7  C   UNL     1      51.584  21.586  53.957  1.00  0.00     0.000 C 
BRANCH   7   8
ATOM      8  C   UNL     1      52.957  21.755  53.277  1.00  0.00     0.000 C 
BRANCH   8   9
ATOM      9  C   UNL     1      52.903  22.110  51.778  1.00  0.00     0.000 C 
BRANCH   9  10
ATOM     10  C   UNL     1      53.023  20.908  50.820  1.00  0.00     0.000 C 
BRANCH  10  11
ATOM     11  C   UNL     1      51.802  20.674  49.909  1.00  0.00     0.000 C 
BRANCH  11  12
ATOM     12  C   UNL     1      50.481  20.400  50.648  1.00  0.00     0.006 C 
BRANCH  12  13
ATOM     13  C   UNL     1      49.242  20.732  49.803  1.00  0.00     0.053 C 
BRANCH  13  14
ATOM     14  C   UNL     1      48.062  21.008  50.681  1.00  0.00     0.041 C 
ATOM     15  O   UNL     1      47.068  20.233  50.670  1.00  0.00    -0.550 OA
ATOM     16  O   UNL     1      48.066  22.111  51.526  1.00  0.00    -0.550 OA
ENDBRANCH  13  14
ENDBRANCH  12  13
ENDBRANCH  11  12
ENDBRANCH  10  11
ENDBRANCH   9  10
ENDBRANCH   8   9
ENDBRANCH   7   8
ENDBRANCH   6   7
ENDBRANCH   5   6
ENDBRANCH   4   5
ENDBRANCH   3   4
ENDBRANCH   2   3
ENDBRANCH   1   2
BRANCH   1  17
ATOM     17  C   UNL     1      45.383  24.870  54.891  1.00  0.00     0.000 C 
BRANCH  17  18
ATOM     18  C   UNL     1      44.076  24.099  55.151  1.00  0.00     0.000 C 
BRANCH  18  19
ATOM     19  C   UNL     1      42.864  25.023  55.341  1.00  0.00     0.000 C 
BRANCH  19  20
ATOM     20  C   UNL     1      41.550  24.245  55.184  1.00  0.00     0.000 C 
BRANCH  20  21
ATOM     21  C   UNL     1      41.756  22.719  55.176  1.00  0.00     0.000 C 
BRANCH  21  22
ATOM     22  C   UNL     1      40.840  21.945  54.207  1.00  0.00    -0.000 C 
BRANCH  22  23
ATOM     23  C   UNL     1      41.435  20.639  53.644  1.00  0.00    -0.000 C 
BRANCH  23  24
ATOM     24  C   UNL     1      41.320  19.421  54.577  1.00  0.00    -0.000 C 
BRANCH  24  25
ATOM     25  C   UNL     1      42.526  19.283  55.523  1.00  0.00    -0.000 C 
BRANCH  25  26
ATOM     26  C   UNL     1      43.865  19.251  54.770  1.00  0.00    -0.000 C 
BRANCH  26  27
ATOM     27  C   UNL     1      44.004  18.017  53.866  1.00  0.00    -0.000 C 
BRANCH  27  28
ATOM     28  C   UNL     1      45.115  18.218  52.829  1.00  0.00    -0.000 C 
BRANCH  28  29
ATOM     29  C   UNL     1      44.679  17.714  51.448  1.00  0.00    -0.003 C 
ATOM     30  C   UNL     1      43.565  18.584  50.871  1.00  0.00     0.004 C 
ENDBRANCH  28  29
ENDBRANCH  27  28
ENDBRANCH  26  27
ENDBRANCH  25  26
ENDBRANCH  24  25
ENDBRANCH  23  24
ENDBRANCH  22  23
ENDBRANCH  21  22
ENDBRANCH  20  21
ENDBRANCH  19  20
ENDBRANCH  18  19
ENDBRANCH  17  18
ENDBRANCH   1  17
TORSDOF 26
ENDMDL
