MODEL 1
REMARK VINA RESULT:    43.018      0.000      0.000
REMARK INTER + INTRA:          47.279
REMARK INTER:                  46.790
REMARK INTRA:                   0.489
REMARK UNBOUND:                 0.489
REMARK SMILES CC1(C)CC[C@@]2(C(=O)[O-])CC[C@]3(C)C(=CC[C@@H]4[C@@]5(C)CC[C@@H](O)C(C)(C)[C@H]5CC[C@@]43C)[C@H]2C1
REMARK SMILES IDX 6 1 5 2 10 3 32 4 4 5 11 6 14 7 33 8 2 9 12 10 15 11 1 12
REMARK SMILES IDX 3 13 13 14 30 15 16 16 17 17 29 18 31 19 18 20 28 21 27 22
REMARK SMILES IDX 20 23 19 24 24 25 21 26 22 27 25 28 26 29 7 30 8 31 9 32
REMARK SMILES IDX 23 33
REMARK H PARENT 23 34
REMARK Flexibility Score: inf
ROOT
ATOM      1  C   UNL     1      51.080 -56.126 319.736  1.00  0.00     0.017 C 
ATOM      2  C   UNL     1      51.821 -57.469 319.480  1.00  0.00     0.014 C 
ATOM      3  C   UNL     1      51.242 -55.255 318.451  1.00  0.00     0.014 C 
ATOM      4  C   UNL     1      49.557 -56.379 320.056  1.00  0.00     0.028 C 
ATOM      5  C   UNL     1      51.647 -58.476 320.617  1.00  0.00     0.007 C 
ATOM      6  C   UNL     1      50.076 -54.284 318.215  1.00  0.00     0.013 C 
ATOM      7  C   UNL     1      48.674 -56.306 318.792  1.00  0.00    -0.064 C 
ATOM      8  C   UNL     1      49.327 -57.550 321.068  1.00  0.00     0.015 C 
ATOM      9  C   UNL     1      50.166 -58.844 320.847  1.00  0.00    -0.035 C 
ATOM     10  C   UNL     1      48.672 -54.988 318.010  1.00  0.00    -0.006 C 
ATOM     11  C   UNL     1      47.733 -57.221 318.522  1.00  0.00    -0.027 C 
ATOM     12  C   UNL     1      50.075 -59.711 322.124  1.00  0.00     0.011 C 
ATOM     13  C   UNL     1      49.628 -59.695 319.675  1.00  0.00     0.011 C 
ATOM     14  C   UNL     1      47.597 -54.093 318.709  1.00  0.00     0.017 C 
ATOM     15  C   UNL     1      48.288 -55.192 316.453  1.00  0.00    -0.020 C 
ATOM     16  C   UNL     1      46.979 -57.296 317.237  1.00  0.00     0.032 C 
ATOM     17  C   UNL     1      46.955 -56.038 316.300  1.00  0.00     0.006 C 
ATOM     18  C   UNL     1      49.401 -55.977 315.713  1.00  0.00     0.008 C 
ATOM     19  C   UNL     1      48.123 -53.768 315.809  1.00  0.00     0.012 C 
ATOM     20  C   UNL     1      46.536 -56.482 314.805  1.00  0.00    -0.025 C 
ATOM     21  C   UNL     1      49.067 -56.358 314.264  1.00  0.00     0.005 C 
ATOM     22  C   UNL     1      47.755 -57.175 314.066  1.00  0.00     0.003 C 
ATOM     23  C   UNL     1      46.030 -55.282 313.940  1.00  0.00     0.010 C 
ATOM     24  C   UNL     1      45.316 -57.457 314.957  1.00  0.00     0.012 C 
ATOM     25  C   UNL     1      47.498 -57.511 312.523  1.00  0.00    -0.006 C 
ATOM     26  C   UNL     1      45.700 -55.644 312.480  1.00  0.00     0.033 C 
ATOM     27  C   UNL     1      46.889 -56.289 311.750  1.00  0.00     0.120 C 
ATOM     28  C   UNL     1      46.556 -58.743 312.366  1.00  0.00     0.014 C 
ATOM     29  C   UNL     1      48.818 -57.941 311.815  1.00  0.00     0.014 C 
ENDROOT
BRANCH   1  30
ATOM     30  C   UNL     1      51.783 -55.402 320.887  1.00  0.00     0.048 C 
ATOM     31  O   UNL     1      51.995 -54.159 320.860  1.00  0.00    -0.550 OA
ATOM     32  O   UNL     1      52.216 -56.125 321.998  1.00  0.00    -0.550 OA
ENDBRANCH   1  30
BRANCH  27  33
ATOM     33  O   UNL     1      47.857 -55.293 311.521  1.00  0.00    -0.393 OA
ATOM     34  H   UNL     1      48.057 -55.287 310.548  1.00  0.00     0.210 HD
ENDBRANCH  27  33
TORSDOF 2
ENDMDL
