MODEL 1
REMARK VINA RESULT:    -0.762      0.000      0.000
REMARK INTER + INTRA:          -1.791
REMARK INTER:                  -1.653
REMARK INTRA:                  -0.138
REMARK UNBOUND:                -0.138
REMARK SMILES CCCCCCCCCCCCCCCCCCCCCC(=O)[O-]
REMARK SMILES IDX 12 1 11 2 10 3 9 4 8 5 7 6 6 7 5 8 4 9 3 10 2 11 1 12 13 13
REMARK SMILES IDX 14 14 15 15 16 16 17 17 18 18 19 19 20 20 21 21 22 22 23 23
REMARK SMILES IDX 24 24
REMARK H PARENT
REMARK Flexibility Score: inf
ROOT
ATOM      1  C   UNL     1      16.819 -17.691  14.388  1.00  0.00     0.000 C 
ENDROOT
BRANCH   1   2
ATOM      2  C   UNL     1      16.742 -17.207  12.930  1.00  0.00     0.000 C 
BRANCH   2   3
ATOM      3  C   UNL     1      17.660 -16.007  12.653  1.00  0.00     0.000 C 
BRANCH   3   4
ATOM      4  C   UNL     1      18.956 -16.108  13.466  1.00  0.00    -0.000 C 
BRANCH   4   5
ATOM      5  C   UNL     1      19.398 -17.571  13.620  1.00  0.00    -0.000 C 
BRANCH   5   6
ATOM      6  C   UNL     1      20.848 -17.811  13.163  1.00  0.00    -0.000 C 
BRANCH   6   7
ATOM      7  C   UNL     1      21.142 -17.441  11.697  1.00  0.00    -0.000 C 
BRANCH   7   8
ATOM      8  C   UNL     1      20.114 -18.027  10.714  1.00  0.00    -0.000 C 
BRANCH   8   9
ATOM      9  C   UNL     1      19.376 -16.937   9.918  1.00  0.00    -0.000 C 
BRANCH   9  10
ATOM     10  C   UNL     1      18.030 -17.427   9.355  1.00  0.00    -0.000 C 
BRANCH  10  11
ATOM     11  C   UNL     1      17.212 -16.291   8.719  1.00  0.00    -0.003 C 
ATOM     12  C   UNL     1      18.063 -15.065   8.391  1.00  0.00     0.004 C 
ENDBRANCH  10  11
ENDBRANCH   9  10
ENDBRANCH   8   9
ENDBRANCH   7   8
ENDBRANCH   6   7
ENDBRANCH   5   6
ENDBRANCH   4   5
ENDBRANCH   3   4
ENDBRANCH   2   3
ENDBRANCH   1   2
BRANCH   1  13
ATOM     13  C   UNL     1      16.058 -16.777  15.359  1.00  0.00     0.000 C 
BRANCH  13  14
ATOM     14  C   UNL     1      16.835 -16.599  16.673  1.00  0.00     0.000 C 
BRANCH  14  15
ATOM     15  C   UNL     1      17.810 -15.409  16.633  1.00  0.00     0.000 C 
BRANCH  15  16
ATOM     16  C   UNL     1      19.232 -15.742  16.136  1.00  0.00     0.000 C 
BRANCH  16  17
ATOM     17  C   UNL     1      20.090 -16.561  17.117  1.00  0.00     0.000 C 
BRANCH  17  18
ATOM     18  C   UNL     1      20.730 -17.794  16.462  1.00  0.00     0.000 C 
BRANCH  18  19
ATOM     19  C   UNL     1      22.081 -18.125  17.108  1.00  0.00     0.000 C 
BRANCH  19  20
ATOM     20  C   UNL     1      23.110 -17.020  16.824  1.00  0.00     0.006 C 
BRANCH  20  21
ATOM     21  C   UNL     1      23.022 -16.499  15.383  1.00  0.00     0.053 C 
BRANCH  21  22
ATOM     22  C   UNL     1      22.701 -15.037  15.333  1.00  0.00     0.041 C 
ATOM     23  O   UNL     1      22.353 -14.501  14.249  1.00  0.00    -0.550 OA
ATOM     24  O   UNL     1      22.802 -14.263  16.484  1.00  0.00    -0.550 OA
ENDBRANCH  21  22
ENDBRANCH  20  21
ENDBRANCH  19  20
ENDBRANCH  18  19
ENDBRANCH  17  18
ENDBRANCH  16  17
ENDBRANCH  15  16
ENDBRANCH  14  15
ENDBRANCH  13  14
ENDBRANCH   1  13
TORSDOF 20
ENDMDL
MODEL 2
REMARK VINA RESULT:     1.396      2.107      3.381
REMARK INTER + INTRA:           2.891
REMARK INTER:                   0.696
REMARK INTRA:                   2.195
REMARK UNBOUND:                -0.138
REMARK SMILES CCCCCCCCCCCCCCCCCCCCCC(=O)[O-]
REMARK SMILES IDX 12 1 11 2 10 3 9 4 8 5 7 6 6 7 5 8 4 9 3 10 2 11 1 12 13 13
REMARK SMILES IDX 14 14 15 15 16 16 17 17 18 18 19 19 20 20 21 21 22 22 23 23
REMARK SMILES IDX 24 24
REMARK H PARENT
REMARK Flexibility Score: inf
ROOT
ATOM      1  C   UNL     1      17.717 -18.122  14.987  1.00  0.00     0.000 C 
ENDROOT
BRANCH   1   2
ATOM      2  C   UNL     1      18.335 -17.529  13.709  1.00  0.00     0.000 C 
BRANCH   2   3
ATOM      3  C   UNL     1      17.279 -17.111  12.676  1.00  0.00     0.000 C 
BRANCH   3   4
ATOM      4  C   UNL     1      15.998 -17.941  12.834  1.00  0.00    -0.000 C 
BRANCH   4   5
ATOM      5  C   UNL     1      15.124 -17.852  11.575  1.00  0.00    -0.000 C 
BRANCH   5   6
ATOM      6  C   UNL     1      15.930 -18.011  10.272  1.00  0.00    -0.000 C 
BRANCH   6   7
ATOM      7  C   UNL     1      17.455 -18.125  10.456  1.00  0.00    -0.000 C 
BRANCH   7   8
ATOM      8  C   UNL     1      18.247 -17.506   9.291  1.00  0.00    -0.000 C 
BRANCH   8   9
ATOM      9  C   UNL     1      17.437 -16.444   8.530  1.00  0.00    -0.000 C 
BRANCH   9  10
ATOM     10  C   UNL     1      18.176 -15.097   8.430  1.00  0.00    -0.000 C 
BRANCH  10  11
ATOM     11  C   UNL     1      18.478 -14.490   9.809  1.00  0.00    -0.003 C 
ATOM     12  C   UNL     1      18.769 -15.551  10.869  1.00  0.00     0.004 C 
ENDBRANCH  10  11
ENDBRANCH   9  10
ENDBRANCH   8   9
ENDBRANCH   7   8
ENDBRANCH   6   7
ENDBRANCH   5   6
ENDBRANCH   4   5
ENDBRANCH   3   4
ENDBRANCH   2   3
ENDBRANCH   1   2
BRANCH   1  13
ATOM     13  C   UNL     1      17.904 -17.215  16.212  1.00  0.00     0.000 C 
BRANCH  13  14
ATOM     14  C   UNL     1      18.564 -15.884  15.819  1.00  0.00     0.000 C 
BRANCH  14  15
ATOM     15  C   UNL     1      19.540 -15.362  16.888  1.00  0.00     0.000 C 
BRANCH  15  16
ATOM     16  C   UNL     1      20.809 -16.216  17.090  1.00  0.00     0.000 C 
BRANCH  16  17
ATOM     17  C   UNL     1      21.996 -15.845  16.182  1.00  0.00     0.000 C 
BRANCH  17  18
ATOM     18  C   UNL     1      22.753 -17.074  15.658  1.00  0.00     0.000 C 
BRANCH  18  19
ATOM     19  C   UNL     1      21.788 -18.095  15.043  1.00  0.00     0.000 C 
BRANCH  19  20
ATOM     20  C   UNL     1      21.412 -17.698  13.606  1.00  0.00     0.006 C 
BRANCH  20  21
ATOM     21  C   UNL     1      22.525 -18.027  12.602  1.00  0.00     0.053 C 
BRANCH  21  22
ATOM     22  C   UNL     1      22.088 -17.802  11.187  1.00  0.00     0.041 C 
ATOM     23  O   UNL     1      20.866 -17.845  10.887  1.00  0.00    -0.550 OA
ATOM     24  O   UNL     1      23.033 -17.561  10.196  1.00  0.00    -0.550 OA
ENDBRANCH  21  22
ENDBRANCH  20  21
ENDBRANCH  19  20
ENDBRANCH  18  19
ENDBRANCH  17  18
ENDBRANCH  16  17
ENDBRANCH  15  16
ENDBRANCH  14  15
ENDBRANCH  13  14
ENDBRANCH   1  13
TORSDOF 20
ENDMDL
MODEL 3
REMARK VINA RESULT:     1.474      1.569      3.043
REMARK INTER + INTRA:           3.059
REMARK INTER:                   3.887
REMARK INTRA:                  -0.828
REMARK UNBOUND:                -0.138
REMARK SMILES CCCCCCCCCCCCCCCCCCCCCC(=O)[O-]
REMARK SMILES IDX 12 1 11 2 10 3 9 4 8 5 7 6 6 7 5 8 4 9 3 10 2 11 1 12 13 13
REMARK SMILES IDX 14 14 15 15 16 16 17 17 18 18 19 19 20 20 21 21 22 22 23 23
REMARK SMILES IDX 24 24
REMARK H PARENT
REMARK Flexibility Score: inf
ROOT
ATOM      1  C   UNL     1      18.008 -18.020  14.735  1.00  0.00     0.000 C 
ENDROOT
BRANCH   1   2
ATOM      2  C   UNL     1      18.096 -16.787  13.821  1.00  0.00     0.000 C 
BRANCH   2   3
ATOM      3  C   UNL     1      17.118 -16.850  12.639  1.00  0.00     0.000 C 
BRANCH   3   4
ATOM      4  C   UNL     1      17.382 -18.089  11.774  1.00  0.00    -0.000 C 
BRANCH   4   5
ATOM      5  C   UNL     1      16.952 -17.849  10.320  1.00  0.00    -0.000 C 
BRANCH   5   6
ATOM      6  C   UNL     1      17.066 -16.373   9.896  1.00  0.00    -0.000 C 
BRANCH   6   7
ATOM      7  C   UNL     1      17.938 -16.116   8.653  1.00  0.00    -0.000 C 
BRANCH   7   8
ATOM      8  C   UNL     1      19.302 -16.824   8.721  1.00  0.00    -0.000 C 
BRANCH   8   9
ATOM      9  C   UNL     1      19.821 -16.961  10.162  1.00  0.00    -0.000 C 
BRANCH   9  10
ATOM     10  C   UNL     1      20.845 -18.101  10.316  1.00  0.00    -0.000 C 
BRANCH  10  11
ATOM     11  C   UNL     1      22.251 -17.584  10.657  1.00  0.00    -0.003 C 
ATOM     12  C   UNL     1      23.067 -17.232   9.414  1.00  0.00     0.004 C 
ENDBRANCH  10  11
ENDBRANCH   9  10
ENDBRANCH   8   9
ENDBRANCH   7   8
ENDBRANCH   6   7
ENDBRANCH   5   6
ENDBRANCH   4   5
ENDBRANCH   3   4
ENDBRANCH   2   3
ENDBRANCH   1   2
BRANCH   1  13
ATOM     13  C   UNL     1      17.810 -17.651  16.213  1.00  0.00     0.000 C 
BRANCH  13  14
ATOM     14  C   UNL     1      16.796 -16.506  16.364  1.00  0.00     0.000 C 
BRANCH  14  15
ATOM     15  C   UNL     1      17.425 -15.225  16.941  1.00  0.00     0.000 C 
BRANCH  15  16
ATOM     16  C   UNL     1      18.957 -15.268  17.117  1.00  0.00     0.000 C 
BRANCH  16  17
ATOM     17  C   UNL     1      19.765 -14.680  15.946  1.00  0.00     0.000 C 
BRANCH  17  18
ATOM     18  C   UNL     1      21.264 -14.998  16.039  1.00  0.00     0.000 C 
BRANCH  18  19
ATOM     19  C   UNL     1      21.541 -16.045  17.125  1.00  0.00     0.000 C 
BRANCH  19  20
ATOM     20  C   UNL     1      22.570 -17.078  16.641  1.00  0.00     0.006 C 
BRANCH  20  21
ATOM     21  C   UNL     1      21.950 -18.123  15.704  1.00  0.00     0.053 C 
BRANCH  21  22
ATOM     22  C   UNL     1      21.862 -17.627  14.292  1.00  0.00     0.041 C 
ATOM     23  O   UNL     1      20.941 -18.031  13.536  1.00  0.00    -0.550 OA
ATOM     24  O   UNL     1      22.807 -16.730  13.809  1.00  0.00    -0.550 OA
ENDBRANCH  21  22
ENDBRANCH  20  21
ENDBRANCH  19  20
ENDBRANCH  18  19
ENDBRANCH  17  18
ENDBRANCH  16  17
ENDBRANCH  15  16
ENDBRANCH  14  15
ENDBRANCH  13  14
ENDBRANCH   1  13
TORSDOF 20
ENDMDL
