MODEL 1
REMARK VINA RESULT:    -6.974      0.000      0.000
REMARK INTER + INTRA:          -8.601
REMARK INTER:                  -8.605
REMARK INTRA:                   0.004
REMARK UNBOUND:                 0.004
REMARK SMILES COc1cc(-c2oc3cc(O)cc(O)c3c(=O)c2O)ccc1O
REMARK SMILES IDX 6 1 18 2 16 3 17 4 15 5 13 6 12 7 10 8 9 9 8 10 7 11 5 12
REMARK SMILES IDX 3 13 22 14 4 15 21 16 20 17 2 18 1 19 23 20 19 22 14 24
REMARK SMILES IDX 11 26
REMARK H PARENT 23 21 19 23 14 25 11 27
REMARK Flexibility Score: inf
ROOT
ATOM      1  C   UNL     1       3.674   3.749   7.014  1.00  0.00     0.180 A 
ATOM      2  C   UNL     1       5.078   3.769   7.070  1.00  0.00     0.208 A 
ATOM      3  C   UNL     1       5.758   2.628   7.521  1.00  0.00     0.238 A 
ATOM      4  O   UNL     1       7.017   2.632   7.518  1.00  0.00    -0.285 OA
ATOM      5  C   UNL     1       5.027   1.485   7.927  1.00  0.00     0.111 A 
ATOM      6  C   UNL     1       5.610   0.288   8.439  1.00  0.00     0.134 A 
ATOM      7  C   UNL     1       4.798  -0.827   8.685  1.00  0.00     0.093 A 
ATOM      8  C   UNL     1       3.414  -0.764   8.500  1.00  0.00     0.123 A 
ATOM      9  C   UNL     1       2.828   0.419   8.058  1.00  0.00     0.094 A 
ATOM     10  C   UNL     1       3.617   1.536   7.769  1.00  0.00     0.146 A 
ATOM     11  O   UNL     1       3.018   2.640   7.338  1.00  0.00    -0.452 OA
ENDROOT
BRANCH   1  12
ATOM     12  C   UNL     1       2.886   4.922   6.573  1.00  0.00     0.025 A 
ATOM     13  C   UNL     1       1.292   6.701   7.099  1.00  0.00     0.161 A 
ATOM     14  C   UNL     1       1.416   7.190   5.791  1.00  0.00     0.157 A 
ATOM     15  C   UNL     1       2.036   5.568   7.486  1.00  0.00     0.062 A 
ATOM     16  C   UNL     1       2.277   6.561   4.885  1.00  0.00     0.051 A 
ATOM     17  C   UNL     1       3.012   5.439   5.273  1.00  0.00     0.016 A 
BRANCH  13  18
ATOM     18  O   UNL     1       0.423   7.363   7.981  1.00  0.00    -0.493 OA
ATOM     19  C   UNL     1      -0.995   7.375   7.859  1.00  0.00     0.278 C 
ENDBRANCH  13  18
BRANCH  14  20
ATOM     20  O   UNL     1       0.682   8.309   5.401  1.00  0.00    -0.504 OA
ATOM     21  H   UNL     1       1.133   9.189   5.181  1.00  0.00     0.293 HD
ENDBRANCH  14  20
ENDBRANCH   1  12
BRANCH   2  22
ATOM     22  O   UNL     1       5.782   4.899   6.645  1.00  0.00    -0.502 OA
ATOM     23  H   UNL     1       6.606   4.838   6.058  1.00  0.00     0.293 HD
ENDBRANCH   2  22
BRANCH   6  24
ATOM     24  O   UNL     1       6.967   0.151   8.746  1.00  0.00    -0.507 OA
ATOM     25  H   UNL     1       7.517   0.837   9.239  1.00  0.00     0.293 HD
ENDBRANCH   6  24
BRANCH   8  26
ATOM     26  O   UNL     1       2.612  -1.872   8.762  1.00  0.00    -0.508 OA
ATOM     27  H   UNL     1       2.592  -2.672   8.141  1.00  0.00     0.293 HD
ENDBRANCH   8  26
TORSDOF 6
ENDMDL
MODEL 2
REMARK VINA RESULT:    -6.764      1.520      2.329
REMARK INTER + INTRA:          -8.342
REMARK INTER:                  -8.239
REMARK INTRA:                  -0.103
REMARK UNBOUND:                 0.004
REMARK SMILES COc1cc(-c2oc3cc(O)cc(O)c3c(=O)c2O)ccc1O
REMARK SMILES IDX 6 1 18 2 16 3 17 4 15 5 13 6 12 7 10 8 9 9 8 10 7 11 5 12
REMARK SMILES IDX 3 13 22 14 4 15 21 16 20 17 2 18 1 19 23 20 19 22 14 24
REMARK SMILES IDX 11 26
REMARK H PARENT 23 21 19 23 14 25 11 27
REMARK Flexibility Score: inf
ROOT
ATOM      1  C   UNL     1       4.421   1.822   7.625  1.00  0.00     0.180 A 
ATOM      2  C   UNL     1       5.613   1.844   8.370  1.00  0.00     0.208 A 
ATOM      3  C   UNL     1       6.020   0.679   9.038  1.00  0.00     0.238 A 
ATOM      4  O   UNL     1       7.114   0.688   9.659  1.00  0.00    -0.285 OA
ATOM      5  C   UNL     1       5.223  -0.490   8.966  1.00  0.00     0.111 A 
ATOM      6  C   UNL     1       5.518  -1.715   9.636  1.00  0.00     0.134 A 
ATOM      7  C   UNL     1       4.729  -2.845   9.387  1.00  0.00     0.093 A 
ATOM      8  C   UNL     1       3.617  -2.776   8.545  1.00  0.00     0.123 A 
ATOM      9  C   UNL     1       3.285  -1.570   7.934  1.00  0.00     0.094 A 
ATOM     10  C   UNL     1       4.075  -0.434   8.134  1.00  0.00     0.146 A 
ATOM     11  O   UNL     1       3.730   0.693   7.523  1.00  0.00    -0.452 OA
ENDROOT
BRANCH   1  12
ATOM     12  C   UNL     1       3.914   3.018   6.914  1.00  0.00     0.025 A 
ATOM     13  C   UNL     1       2.250   4.801   6.723  1.00  0.00     0.161 A 
ATOM     14  C   UNL     1       2.950   5.328   5.629  1.00  0.00     0.157 A 
ATOM     15  C   UNL     1       2.742   3.647   7.367  1.00  0.00     0.062 A 
ATOM     16  C   UNL     1       4.129   4.715   5.188  1.00  0.00     0.051 A 
ATOM     17  C   UNL     1       4.612   3.573   5.829  1.00  0.00     0.016 A 
BRANCH  13  18
ATOM     18  O   UNL     1       1.075   5.447   7.140  1.00  0.00    -0.493 OA
ATOM     19  C   UNL     1       1.043   6.678   7.854  1.00  0.00     0.278 C 
ENDBRANCH  13  18
BRANCH  14  20
ATOM     20  O   UNL     1       2.468   6.467   4.986  1.00  0.00    -0.504 OA
ATOM     21  H   UNL     1       1.771   7.063   5.416  1.00  0.00     0.293 HD
ENDBRANCH  14  20
ENDBRANCH   1  12
BRANCH   2  22
ATOM     22  O   UNL     1       6.395   3.002   8.411  1.00  0.00    -0.502 OA
ATOM     23  H   UNL     1       6.730   3.402   9.279  1.00  0.00     0.293 HD
ENDBRANCH   2  22
BRANCH   6  24
ATOM     24  O   UNL     1       6.550  -1.866  10.567  1.00  0.00    -0.507 OA
ATOM     25  H   UNL     1       7.513  -2.052  10.332  1.00  0.00     0.293 HD
ENDBRANCH   6  24
BRANCH   8  26
ATOM     26  O   UNL     1       2.828  -3.901   8.316  1.00  0.00    -0.508 OA
ATOM     27  H   UNL     1       3.167  -4.836   8.512  1.00  0.00     0.293 HD
ENDBRANCH   8  26
TORSDOF 6
ENDMDL
MODEL 3
REMARK VINA RESULT:    -6.727      1.999      3.481
REMARK INTER + INTRA:          -8.296
REMARK INTER:                  -8.760
REMARK INTRA:                   0.464
REMARK UNBOUND:                 0.004
REMARK SMILES COc1cc(-c2oc3cc(O)cc(O)c3c(=O)c2O)ccc1O
REMARK SMILES IDX 6 1 18 2 16 3 17 4 15 5 13 6 12 7 10 8 9 9 8 10 7 11 5 12
REMARK SMILES IDX 3 13 22 14 4 15 21 16 20 17 2 18 1 19 23 20 19 22 14 24
REMARK SMILES IDX 11 26
REMARK H PARENT 23 21 19 23 14 25 11 27
REMARK Flexibility Score: inf
ROOT
ATOM      1  C   UNL     1       4.440   1.121   7.648  1.00  0.00     0.180 A 
ATOM      2  C   UNL     1       5.768   0.836   7.286  1.00  0.00     0.208 A 
ATOM      3  C   UNL     1       6.320  -0.404   7.643  1.00  0.00     0.238 A 
ATOM      4  O   UNL     1       7.491  -0.675   7.270  1.00  0.00    -0.285 OA
ATOM      5  C   UNL     1       5.543  -1.338   8.371  1.00  0.00     0.111 A 
ATOM      6  C   UNL     1       6.013  -2.609   8.820  1.00  0.00     0.134 A 
ATOM      7  C   UNL     1       5.117  -3.505   9.417  1.00  0.00     0.093 A 
ATOM      8  C   UNL     1       3.785  -3.150   9.640  1.00  0.00     0.123 A 
ATOM      9  C   UNL     1       3.331  -1.890   9.260  1.00  0.00     0.094 A 
ATOM     10  C   UNL     1       4.192  -0.988   8.629  1.00  0.00     0.146 A 
ATOM     11  O   UNL     1       3.716   0.199   8.272  1.00  0.00    -0.452 OA
ENDROOT
BRANCH   1  12
ATOM     12  C   UNL     1       3.796   2.416   7.329  1.00  0.00     0.025 A 
ATOM     13  C   UNL     1       3.863   4.563   6.160  1.00  0.00     0.161 A 
ATOM     14  C   UNL     1       2.584   4.862   6.649  1.00  0.00     0.157 A 
ATOM     15  C   UNL     1       4.462   3.333   6.499  1.00  0.00     0.062 A 
ATOM     16  C   UNL     1       1.909   3.941   7.459  1.00  0.00     0.051 A 
ATOM     17  C   UNL     1       2.507   2.724   7.793  1.00  0.00     0.016 A 
BRANCH  13  18
ATOM     18  O   UNL     1       4.505   5.509   5.345  1.00  0.00    -0.493 OA
ATOM     19  C   UNL     1       5.914   5.588   5.158  1.00  0.00     0.278 C 
ENDBRANCH  13  18
BRANCH  14  20
ATOM     20  O   UNL     1       1.986   6.077   6.319  1.00  0.00    -0.504 OA
ATOM     21  H   UNL     1       1.078   6.338   6.684  1.00  0.00     0.293 HD
ENDBRANCH  14  20
ENDBRANCH   1  12
BRANCH   2  22
ATOM     22  O   UNL     1       6.510   1.763   6.550  1.00  0.00    -0.502 OA
ATOM     23  H   UNL     1       6.987   2.546   6.983  1.00  0.00     0.293 HD
ENDBRANCH   2  22
BRANCH   6  24
ATOM     24  O   UNL     1       7.345  -3.025   8.728  1.00  0.00    -0.507 OA
ATOM     25  H   UNL     1       7.844  -3.165   7.864  1.00  0.00     0.293 HD
ENDBRANCH   6  24
BRANCH   8  26
ATOM     26  O   UNL     1       2.905  -4.042  10.249  1.00  0.00    -0.508 OA
ATOM     27  H   UNL     1       3.229  -4.742  10.906  1.00  0.00     0.293 HD
ENDBRANCH   8  26
TORSDOF 6
ENDMDL
MODEL 4
REMARK VINA RESULT:    -6.541      1.834      7.316
REMARK INTER + INTRA:          -8.066
REMARK INTER:                  -7.804
REMARK INTRA:                  -0.262
REMARK UNBOUND:                 0.004
REMARK SMILES COc1cc(-c2oc3cc(O)cc(O)c3c(=O)c2O)ccc1O
REMARK SMILES IDX 6 1 18 2 16 3 17 4 15 5 13 6 12 7 10 8 9 9 8 10 7 11 5 12
REMARK SMILES IDX 3 13 22 14 4 15 21 16 20 17 2 18 1 19 23 20 19 22 14 24
REMARK SMILES IDX 11 26
REMARK H PARENT 23 21 19 23 14 25 11 27
REMARK Flexibility Score: inf
ROOT
ATOM      1  C   UNL     1       4.839   1.109   7.489  1.00  0.00     0.180 A 
ATOM      2  C   UNL     1       5.891   1.641   6.723  1.00  0.00     0.208 A 
ATOM      3  C   UNL     1       5.746   2.919   6.163  1.00  0.00     0.238 A 
ATOM      4  O   UNL     1       6.712   3.413   5.523  1.00  0.00    -0.285 OA
ATOM      5  C   UNL     1       4.546   3.644   6.361  1.00  0.00     0.111 A 
ATOM      6  C   UNL     1       4.275   4.931   5.807  1.00  0.00     0.134 A 
ATOM      7  C   UNL     1       3.107   5.611   6.177  1.00  0.00     0.093 A 
ATOM      8  C   UNL     1       2.171   5.021   7.030  1.00  0.00     0.123 A 
ATOM      9  C   UNL     1       2.398   3.741   7.528  1.00  0.00     0.094 A 
ATOM     10  C   UNL     1       3.571   3.053   7.206  1.00  0.00     0.146 A 
ATOM     11  O   UNL     1       3.753   1.839   7.712  1.00  0.00    -0.452 OA
ENDROOT
BRANCH   1  12
ATOM     12  C   UNL     1       4.908  -0.242   8.091  1.00  0.00     0.025 A 
ATOM     13  C   UNL     1       4.155  -2.569   8.124  1.00  0.00     0.161 A 
ATOM     14  C   UNL     1       5.051  -2.838   9.167  1.00  0.00     0.157 A 
ATOM     15  C   UNL     1       4.093  -1.268   7.584  1.00  0.00     0.062 A 
ATOM     16  C   UNL     1       5.880  -1.823   9.660  1.00  0.00     0.051 A 
ATOM     17  C   UNL     1       5.814  -0.536   9.123  1.00  0.00     0.016 A 
BRANCH  13  18
ATOM     18  O   UNL     1       3.345  -3.614   7.651  1.00  0.00    -0.493 OA
ATOM     19  C   UNL     1       3.314  -4.062   6.300  1.00  0.00     0.278 C 
ENDBRANCH  13  18
BRANCH  14  20
ATOM     20  O   UNL     1       5.116  -4.122   9.706  1.00  0.00    -0.504 OA
ATOM     21  H   UNL     1       5.249  -4.937   9.119  1.00  0.00     0.293 HD
ENDBRANCH  14  20
ENDBRANCH   1  12
BRANCH   2  22
ATOM     22  O   UNL     1       7.075   0.918   6.557  1.00  0.00    -0.502 OA
ATOM     23  H   UNL     1       7.932   1.345   6.223  1.00  0.00     0.293 HD
ENDBRANCH   2  22
BRANCH   6  24
ATOM     24  O   UNL     1       5.100   5.569   4.876  1.00  0.00    -0.507 OA
ATOM     25  H   UNL     1       4.828   6.363   4.317  1.00  0.00     0.293 HD
ENDBRANCH   6  24
BRANCH   8  26
ATOM     26  O   UNL     1       1.004   5.697   7.380  1.00  0.00    -0.508 OA
ATOM     27  H   UNL     1       0.107   5.227   7.411  1.00  0.00     0.293 HD
ENDBRANCH   8  26
TORSDOF 6
ENDMDL
MODEL 5
REMARK VINA RESULT:    -6.535      1.960      4.262
REMARK INTER + INTRA:          -8.059
REMARK INTER:                  -8.464
REMARK INTRA:                   0.405
REMARK UNBOUND:                 0.004
REMARK SMILES COc1cc(-c2oc3cc(O)cc(O)c3c(=O)c2O)ccc1O
REMARK SMILES IDX 6 1 18 2 16 3 17 4 15 5 13 6 12 7 10 8 9 9 8 10 7 11 5 12
REMARK SMILES IDX 3 13 22 14 4 15 21 16 20 17 2 18 1 19 23 20 19 22 14 24
REMARK SMILES IDX 11 26
REMARK H PARENT 23 21 19 23 14 25 11 27
REMARK Flexibility Score: inf
ROOT
ATOM      1  C   UNL     1       3.765   1.195   7.533  1.00  0.00     0.180 A 
ATOM      2  C   UNL     1       2.892   0.296   8.169  1.00  0.00     0.208 A 
ATOM      3  C   UNL     1       3.309  -1.028   8.375  1.00  0.00     0.238 A 
ATOM      4  O   UNL     1       2.545  -1.814   8.993  1.00  0.00    -0.285 OA
ATOM      5  C   UNL     1       4.588  -1.442   7.929  1.00  0.00     0.111 A 
ATOM      6  C   UNL     1       5.099  -2.768   8.049  1.00  0.00     0.134 A 
ATOM      7  C   UNL     1       6.427  -3.033   7.690  1.00  0.00     0.093 A 
ATOM      8  C   UNL     1       7.241  -2.032   7.155  1.00  0.00     0.123 A 
ATOM      9  C   UNL     1       6.733  -0.747   6.978  1.00  0.00     0.094 A 
ATOM     10  C   UNL     1       5.423  -0.445   7.360  1.00  0.00     0.146 A 
ATOM     11  O   UNL     1       4.982   0.795   7.184  1.00  0.00    -0.452 OA
ENDROOT
BRANCH   1  12
ATOM     12  C   UNL     1       3.386   2.600   7.258  1.00  0.00     0.025 A 
ATOM     13  C   UNL     1       3.956   4.783   6.315  1.00  0.00     0.161 A 
ATOM     14  C   UNL     1       2.685   5.259   6.664  1.00  0.00     0.157 A 
ATOM     15  C   UNL     1       4.299   3.448   6.609  1.00  0.00     0.062 A 
ATOM     16  C   UNL     1       1.766   4.411   7.293  1.00  0.00     0.051 A 
ATOM     17  C   UNL     1       2.110   3.089   7.583  1.00  0.00     0.016 A 
BRANCH  13  18
ATOM     18  O   UNL     1       4.848   5.662   5.679  1.00  0.00    -0.493 OA
ATOM     19  C   UNL     1       5.976   5.252   4.915  1.00  0.00     0.278 C 
ENDBRANCH  13  18
BRANCH  14  20
ATOM     20  O   UNL     1       2.340   6.579   6.378  1.00  0.00    -0.504 OA
ATOM     21  H   UNL     1       1.684   7.093   6.953  1.00  0.00     0.293 HD
ENDBRANCH  14  20
ENDBRANCH   1  12
BRANCH   2  22
ATOM     22  O   UNL     1       1.643   0.730   8.621  1.00  0.00    -0.502 OA
ATOM     23  H   UNL     1       1.389   0.730   9.602  1.00  0.00     0.293 HD
ENDBRANCH   2  22
BRANCH   6  24
ATOM     24  O   UNL     1       4.341  -3.860   8.485  1.00  0.00    -0.507 OA
ATOM     25  H   UNL     1       4.722  -4.758   8.739  1.00  0.00     0.293 HD
ENDBRANCH   6  24
BRANCH   8  26
ATOM     26  O   UNL     1       8.556  -2.307   6.786  1.00  0.00    -0.508 OA
ATOM     27  H   UNL     1       9.337  -2.064   7.384  1.00  0.00     0.293 HD
ENDBRANCH   8  26
TORSDOF 6
ENDMDL
MODEL 6
REMARK VINA RESULT:    -6.529      1.150      2.016
REMARK INTER + INTRA:          -8.051
REMARK INTER:                  -8.218
REMARK INTRA:                   0.167
REMARK UNBOUND:                 0.004
REMARK SMILES COc1cc(-c2oc3cc(O)cc(O)c3c(=O)c2O)ccc1O
REMARK SMILES IDX 6 1 18 2 16 3 17 4 15 5 13 6 12 7 10 8 9 9 8 10 7 11 5 12
REMARK SMILES IDX 3 13 22 14 4 15 21 16 20 17 2 18 1 19 23 20 19 22 14 24
REMARK SMILES IDX 11 26
REMARK H PARENT 23 21 19 23 14 25 11 27
REMARK Flexibility Score: inf
ROOT
ATOM      1  C   UNL     1       4.020   2.994   7.327  1.00  0.00     0.180 A 
ATOM      2  C   UNL     1       5.409   3.106   7.146  1.00  0.00     0.208 A 
ATOM      3  C   UNL     1       6.218   1.980   7.365  1.00  0.00     0.238 A 
ATOM      4  O   UNL     1       7.454   2.071   7.149  1.00  0.00    -0.285 OA
ATOM      5  C   UNL     1       5.630   0.760   7.779  1.00  0.00     0.111 A 
ATOM      6  C   UNL     1       6.357  -0.433   8.069  1.00  0.00     0.134 A 
ATOM      7  C   UNL     1       5.661  -1.618   8.343  1.00  0.00     0.093 A 
ATOM      8  C   UNL     1       4.265  -1.635   8.402  1.00  0.00     0.123 A 
ATOM      9  C   UNL     1       3.548  -0.462   8.180  1.00  0.00     0.094 A 
ATOM     10  C   UNL     1       4.214   0.727   7.868  1.00  0.00     0.146 A 
ATOM     11  O   UNL     1       3.491   1.820   7.652  1.00  0.00    -0.452 OA
ENDROOT
BRANCH   1  12
ATOM     12  C   UNL     1       3.105   4.143   7.139  1.00  0.00     0.025 A 
ATOM     13  C   UNL     1       2.485   6.152   5.889  1.00  0.00     0.161 A 
ATOM     14  C   UNL     1       1.359   6.306   6.709  1.00  0.00     0.157 A 
ATOM     15  C   UNL     1       3.353   5.062   6.106  1.00  0.00     0.062 A 
ATOM     16  C   UNL     1       1.098   5.381   7.726  1.00  0.00     0.051 A 
ATOM     17  C   UNL     1       1.960   4.303   7.937  1.00  0.00     0.016 A 
BRANCH  13  18
ATOM     18  O   UNL     1       2.709   7.097   4.875  1.00  0.00    -0.493 OA
ATOM     19  C   UNL     1       3.741   8.077   4.901  1.00  0.00     0.278 C 
ENDBRANCH  13  18
BRANCH  14  20
ATOM     20  O   UNL     1       0.497   7.383   6.501  1.00  0.00    -0.504 OA
ATOM     21  H   UNL     1       0.748   8.152   5.892  1.00  0.00     0.293 HD
ENDBRANCH  14  20
ENDBRANCH   1  12
BRANCH   2  22
ATOM     22  O   UNL     1       5.967   4.313   6.716  1.00  0.00    -0.502 OA
ATOM     23  H   UNL     1       5.687   5.209   7.101  1.00  0.00     0.293 HD
ENDBRANCH   2  22
BRANCH   6  24
ATOM     24  O   UNL     1       7.752  -0.502   8.127  1.00  0.00    -0.507 OA
ATOM     25  H   UNL     1       8.364  -0.433   7.329  1.00  0.00     0.293 HD
ENDBRANCH   6  24
BRANCH   8  26
ATOM     26  O   UNL     1       3.581  -2.814   8.691  1.00  0.00    -0.508 OA
ATOM     27  H   UNL     1       3.496  -3.159   9.640  1.00  0.00     0.293 HD
ENDBRANCH   8  26
TORSDOF 6
ENDMDL
MODEL 7
REMARK VINA RESULT:    -6.342      2.219      7.947
REMARK INTER + INTRA:          -7.821
REMARK INTER:                  -7.426
REMARK INTRA:                  -0.395
REMARK UNBOUND:                 0.004
REMARK SMILES COc1cc(-c2oc3cc(O)cc(O)c3c(=O)c2O)ccc1O
REMARK SMILES IDX 6 1 18 2 16 3 17 4 15 5 13 6 12 7 10 8 9 9 8 10 7 11 5 12
REMARK SMILES IDX 3 13 22 14 4 15 21 16 20 17 2 18 1 19 23 20 19 22 14 24
REMARK SMILES IDX 11 26
REMARK H PARENT 23 21 19 23 14 25 11 27
REMARK Flexibility Score: inf
ROOT
ATOM      1  C   UNL     1       4.493   0.929   7.623  1.00  0.00     0.180 A 
ATOM      2  C   UNL     1       3.150   1.261   7.872  1.00  0.00     0.208 A 
ATOM      3  C   UNL     1       2.685   2.533   7.506  1.00  0.00     0.238 A 
ATOM      4  O   UNL     1       1.468   2.806   7.681  1.00  0.00    -0.285 OA
ATOM      5  C   UNL     1       3.571   3.464   6.912  1.00  0.00     0.111 A 
ATOM      6  C   UNL     1       3.218   4.795   6.538  1.00  0.00     0.134 A 
ATOM      7  C   UNL     1       4.139   5.584   5.838  1.00  0.00     0.093 A 
ATOM      8  C   UNL     1       5.424   5.113   5.557  1.00  0.00     0.123 A 
ATOM      9  C   UNL     1       5.799   3.837   5.971  1.00  0.00     0.094 A 
ATOM     10  C   UNL     1       4.888   3.013   6.639  1.00  0.00     0.146 A 
ATOM     11  O   UNL     1       5.283   1.799   7.005  1.00  0.00    -0.452 OA
ENDROOT
BRANCH   1  12
ATOM     12  C   UNL     1       5.064  -0.384   8.003  1.00  0.00     0.025 A 
ATOM     13  C   UNL     1       5.512  -2.722   7.440  1.00  0.00     0.161 A 
ATOM     14  C   UNL     1       6.186  -2.879   8.659  1.00  0.00     0.157 A 
ATOM     15  C   UNL     1       4.957  -1.467   7.114  1.00  0.00     0.062 A 
ATOM     16  C   UNL     1       6.312  -1.797   9.537  1.00  0.00     0.051 A 
ATOM     17  C   UNL     1       5.761  -0.556   9.210  1.00  0.00     0.016 A 
BRANCH  13  18
ATOM     18  O   UNL     1       5.412  -3.829   6.583  1.00  0.00    -0.493 OA
ATOM     19  C   UNL     1       6.162  -3.989   5.383  1.00  0.00     0.278 C 
ENDBRANCH  13  18
BRANCH  14  20
ATOM     20  O   UNL     1       6.735  -4.118   8.988  1.00  0.00    -0.504 OA
ATOM     21  H   UNL     1       6.151  -4.913   9.213  1.00  0.00     0.293 HD
ENDBRANCH  14  20
ENDBRANCH   1  12
BRANCH   2  22
ATOM     22  O   UNL     1       2.287   0.320   8.439  1.00  0.00    -0.502 OA
ATOM     23  H   UNL     1       2.572  -0.295   9.194  1.00  0.00     0.293 HD
ENDBRANCH   2  22
BRANCH   6  24
ATOM     24  O   UNL     1       1.994   5.395   6.851  1.00  0.00    -0.507 OA
ATOM     25  H   UNL     1       1.623   6.215   6.397  1.00  0.00     0.293 HD
ENDBRANCH   6  24
BRANCH   8  26
ATOM     26  O   UNL     1       6.340   5.910   4.875  1.00  0.00    -0.508 OA
ATOM     27  H   UNL     1       6.075   6.436   4.050  1.00  0.00     0.293 HD
ENDBRANCH   8  26
TORSDOF 6
ENDMDL
MODEL 8
REMARK VINA RESULT:    -6.335      1.585      7.284
REMARK INTER + INTRA:          -7.812
REMARK INTER:                  -8.058
REMARK INTRA:                   0.246
REMARK UNBOUND:                 0.004
REMARK SMILES COc1cc(-c2oc3cc(O)cc(O)c3c(=O)c2O)ccc1O
REMARK SMILES IDX 6 1 18 2 16 3 17 4 15 5 13 6 12 7 10 8 9 9 8 10 7 11 5 12
REMARK SMILES IDX 3 13 22 14 4 15 21 16 20 17 2 18 1 19 23 20 19 22 14 24
REMARK SMILES IDX 11 26
REMARK H PARENT 23 21 19 23 14 25 11 27
REMARK Flexibility Score: inf
ROOT
ATOM      1  C   UNL     1       4.068   1.383   7.495  1.00  0.00     0.180 A 
ATOM      2  C   UNL     1       5.230   1.780   6.812  1.00  0.00     0.208 A 
ATOM      3  C   UNL     1       5.275   3.057   6.232  1.00  0.00     0.238 A 
ATOM      4  O   UNL     1       6.337   3.429   5.667  1.00  0.00    -0.285 OA
ATOM      5  C   UNL     1       4.153   3.915   6.327  1.00  0.00     0.111 A 
ATOM      6  C   UNL     1       4.073   5.215   5.743  1.00  0.00     0.134 A 
ATOM      7  C   UNL     1       2.964   6.027   6.013  1.00  0.00     0.093 A 
ATOM      8  C   UNL     1       1.903   5.560   6.792  1.00  0.00     0.123 A 
ATOM      9  C   UNL     1       1.944   4.272   7.318  1.00  0.00     0.094 A 
ATOM     10  C   UNL     1       3.053   3.451   7.096  1.00  0.00     0.146 A 
ATOM     11  O   UNL     1       3.057   2.233   7.625  1.00  0.00    -0.452 OA
ENDROOT
BRANCH   1  12
ATOM     12  C   UNL     1       3.936   0.043   8.112  1.00  0.00     0.025 A 
ATOM     13  C   UNL     1       4.972  -1.856   9.253  1.00  0.00     0.161 A 
ATOM     14  C   UNL     1       3.719  -2.476   9.346  1.00  0.00     0.157 A 
ATOM     15  C   UNL     1       5.073  -0.591   8.640  1.00  0.00     0.062 A 
ATOM     16  C   UNL     1       2.580  -1.839   8.840  1.00  0.00     0.051 A 
ATOM     17  C   UNL     1       2.686  -0.586   8.232  1.00  0.00     0.016 A 
BRANCH  13  18
ATOM     18  O   UNL     1       6.090  -2.524   9.779  1.00  0.00    -0.493 OA
ATOM     19  C   UNL     1       6.973  -3.340   9.018  1.00  0.00     0.278 C 
ENDBRANCH  13  18
BRANCH  14  20
ATOM     20  O   UNL     1       3.612  -3.728   9.950  1.00  0.00    -0.504 OA
ATOM     21  H   UNL     1       2.982  -4.436   9.594  1.00  0.00     0.293 HD
ENDBRANCH  14  20
ENDBRANCH   1  12
BRANCH   2  22
ATOM     22  O   UNL     1       6.334   0.926   6.748  1.00  0.00    -0.502 OA
ATOM     23  H   UNL     1       7.281   1.247   6.916  1.00  0.00     0.293 HD
ENDBRANCH   2  22
BRANCH   6  24
ATOM     24  O   UNL     1       5.035   5.740   4.875  1.00  0.00    -0.507 OA
ATOM     25  H   UNL     1       5.970   6.003   5.146  1.00  0.00     0.293 HD
ENDBRANCH   6  24
BRANCH   8  26
ATOM     26  O   UNL     1       0.796   6.369   7.043  1.00  0.00    -0.508 OA
ATOM     27  H   UNL     1       0.231   6.253   7.876  1.00  0.00     0.293 HD
ENDBRANCH   8  26
TORSDOF 6
ENDMDL
MODEL 9
REMARK VINA RESULT:    -4.009      2.264      3.757
REMARK INTER + INTRA:          -4.942
REMARK INTER:                  -5.160
REMARK INTRA:                   0.218
REMARK UNBOUND:                 0.004
REMARK SMILES COc1cc(-c2oc3cc(O)cc(O)c3c(=O)c2O)ccc1O
REMARK SMILES IDX 6 1 18 2 16 3 17 4 15 5 13 6 12 7 10 8 9 9 8 10 7 11 5 12
REMARK SMILES IDX 3 13 22 14 4 15 21 16 20 17 2 18 1 19 23 20 19 22 14 24
REMARK SMILES IDX 11 26
REMARK H PARENT 23 21 19 23 14 25 11 27
REMARK Flexibility Score: inf
ROOT
ATOM      1  C   UNL     1       5.081   0.421   7.157  1.00  0.00     0.180 A 
ATOM      2  C   UNL     1       6.273  -0.274   6.891  1.00  0.00     0.208 A 
ATOM      3  C   UNL     1       6.464  -1.541   7.463  1.00  0.00     0.238 A 
ATOM      4  O   UNL     1       7.509  -2.182   7.178  1.00  0.00    -0.285 OA
ATOM      5  C   UNL     1       5.469  -2.091   8.307  1.00  0.00     0.111 A 
ATOM      6  C   UNL     1       5.574  -3.349   8.973  1.00  0.00     0.134 A 
ATOM      7  C   UNL     1       4.474  -3.852   9.678  1.00  0.00     0.093 A 
ATOM      8  C   UNL     1       3.295  -3.112   9.797  1.00  0.00     0.123 A 
ATOM      9  C   UNL     1       3.203  -1.856   9.201  1.00  0.00     0.094 A 
ATOM     10  C   UNL     1       4.272  -1.344   8.460  1.00  0.00     0.146 A 
ATOM     11  O   UNL     1       4.138  -0.148   7.899  1.00  0.00    -0.452 OA
ENDROOT
BRANCH   1  12
ATOM     12  C   UNL     1       4.817   1.772   6.610  1.00  0.00     0.025 A 
ATOM     13  C   UNL     1       3.846   3.999   6.889  1.00  0.00     0.161 A 
ATOM     14  C   UNL     1       4.346   4.368   5.632  1.00  0.00     0.157 A 
ATOM     15  C   UNL     1       4.092   2.700   7.376  1.00  0.00     0.062 A 
ATOM     16  C   UNL     1       5.086   3.453   4.875  1.00  0.00     0.051 A 
ATOM     17  C   UNL     1       5.326   2.166   5.361  1.00  0.00     0.016 A 
BRANCH  13  18
ATOM     18  O   UNL     1       3.114   4.947   7.622  1.00  0.00    -0.493 OA
ATOM     19  C   UNL     1       1.709   5.140   7.512  1.00  0.00     0.278 C 
ENDBRANCH  13  18
BRANCH  14  20
ATOM     20  O   UNL     1       4.106   5.651   5.144  1.00  0.00    -0.504 OA
ATOM     21  H   UNL     1       3.887   5.815   4.169  1.00  0.00     0.293 HD
ENDBRANCH  14  20
ENDBRANCH   1  12
BRANCH   2  22
ATOM     22  O   UNL     1       7.232   0.277   6.038  1.00  0.00    -0.502 OA
ATOM     23  H   UNL     1       7.263   1.267   5.821  1.00  0.00     0.293 HD
ENDBRANCH   2  22
BRANCH   6  24
ATOM     24  O   UNL     1       6.737  -4.125   8.994  1.00  0.00    -0.507 OA
ATOM     25  H   UNL     1       7.062  -4.695   8.229  1.00  0.00     0.293 HD
ENDBRANCH   6  24
BRANCH   8  26
ATOM     26  O   UNL     1       2.211  -3.613  10.514  1.00  0.00    -0.508 OA
ATOM     27  H   UNL     1       2.214  -4.552  10.894  1.00  0.00     0.293 HD
ENDBRANCH   8  26
TORSDOF 6
ENDMDL
