MODEL 1
REMARK VINA RESULT:    -5.556      0.000      0.000
REMARK INTER + INTRA:          -7.521
REMARK INTER:                  -7.018
REMARK INTRA:                  -0.502
REMARK UNBOUND:                -0.502
REMARK SMILES Oc1cc(O)cc(CCc2ccccc2O)c1
REMARK SMILES IDX 9 1 10 2 12 3 13 4 11 5 14 6 15 7 16 8 8 10 7 11 6 12 17 13
REMARK SMILES IDX 4 14 2 15 3 16 5 17 1 19
REMARK H PARENT 16 9 5 18 1 20
REMARK Flexibility Score: inf
ROOT
ATOM      1  C   UNL     1       4.543  -6.848   5.630  1.00  0.00     0.044 C 
ENDROOT
BRANCH   1   2
ATOM      2  C   UNL     1       5.678  -6.196   4.881  1.00  0.00    -0.006 A 
ATOM      3  C   UNL     1       6.997  -4.209   4.395  1.00  0.00     0.001 A 
ATOM      4  C   UNL     1       7.737  -4.927   3.453  1.00  0.00     0.004 A 
ATOM      5  C   UNL     1       5.968  -4.838   5.104  1.00  0.00     0.007 A 
ATOM      6  C   UNL     1       7.448  -6.272   3.212  1.00  0.00     0.046 A 
ATOM      7  C   UNL     1       6.416  -6.911   3.916  1.00  0.00     0.118 A 
BRANCH   7   8
ATOM      8  O   UNL     1       6.124  -8.250   3.660  1.00  0.00    -0.508 OA
ATOM      9  H   UNL     1       5.809  -8.875   4.394  1.00  0.00     0.293 HD
ENDBRANCH   7   8
ENDBRANCH   1   2
BRANCH   1  10
ATOM     10  C   UNL     1       3.258  -6.027   5.485  1.00  0.00     0.040 C 
BRANCH  10  11
ATOM     11  C   UNL     1       2.110  -6.910   5.077  1.00  0.00    -0.040 A 
ATOM     12  C   UNL     1       0.787  -6.507   5.321  1.00  0.00     0.050 A 
ATOM     13  C   UNL     1       2.350  -8.115   4.398  1.00  0.00     0.050 A 
ATOM     14  C   UNL     1      -0.284  -7.314   4.912  1.00  0.00     0.119 A 
ATOM     15  C   UNL     1       1.280  -8.923   3.989  1.00  0.00     0.119 A 
ATOM     16  C   UNL     1      -0.034  -8.520   4.250  1.00  0.00     0.092 A 
BRANCH  14  17
ATOM     17  O   UNL     1      -1.600  -6.925   5.157  1.00  0.00    -0.508 OA
ATOM     18  H   UNL     1      -2.352  -7.175   4.525  1.00  0.00     0.293 HD
ENDBRANCH  14  17
BRANCH  15  19
ATOM     19  O   UNL     1       1.511 -10.123   3.321  1.00  0.00    -0.508 OA
ATOM     20  H   UNL     1       0.757 -10.769   3.116  1.00  0.00     0.293 HD
ENDBRANCH  15  19
ENDBRANCH  10  11
ENDBRANCH   1  10
TORSDOF 6
ENDMDL
MODEL 2
REMARK VINA RESULT:    -5.551      0.027      2.030
REMARK INTER + INTRA:          -7.514
REMARK INTER:                  -7.004
REMARK INTRA:                  -0.509
REMARK UNBOUND:                -0.502
REMARK SMILES Oc1cc(O)cc(CCc2ccccc2O)c1
REMARK SMILES IDX 9 1 10 2 12 3 13 4 11 5 14 6 15 7 16 8 8 10 7 11 6 12 17 13
REMARK SMILES IDX 4 14 2 15 3 16 5 17 1 19
REMARK H PARENT 16 9 5 18 1 20
REMARK Flexibility Score: inf
ROOT
ATOM      1  C   UNL     1       4.549  -6.866   5.638  1.00  0.00     0.044 C 
ENDROOT
BRANCH   1   2
ATOM      2  C   UNL     1       5.677  -6.205   4.887  1.00  0.00    -0.006 A 
ATOM      3  C   UNL     1       6.973  -4.207   4.391  1.00  0.00     0.001 A 
ATOM      4  C   UNL     1       7.723  -4.921   3.454  1.00  0.00     0.004 A 
ATOM      5  C   UNL     1       5.951  -4.843   5.102  1.00  0.00     0.007 A 
ATOM      6  C   UNL     1       7.449  -6.270   3.220  1.00  0.00     0.046 A 
ATOM      7  C   UNL     1       6.424  -6.918   3.927  1.00  0.00     0.118 A 
BRANCH   7   8
ATOM      8  O   UNL     1       6.147  -8.261   3.678  1.00  0.00    -0.508 OA
ATOM      9  H   UNL     1       6.624  -8.775   2.945  1.00  0.00     0.293 HD
ENDBRANCH   7   8
ENDBRANCH   1   2
BRANCH   1  10
ATOM     10  C   UNL     1       3.266  -6.037   5.525  1.00  0.00     0.040 C 
BRANCH  10  11
ATOM     11  C   UNL     1       2.123  -6.894   5.053  1.00  0.00    -0.040 A 
ATOM     12  C   UNL     1       2.374  -8.107   4.392  1.00  0.00     0.050 A 
ATOM     13  C   UNL     1       0.797  -6.516   5.320  1.00  0.00     0.050 A 
ATOM     14  C   UNL     1       1.310  -8.922   3.981  1.00  0.00     0.119 A 
ATOM     15  C   UNL     1      -0.268  -7.330   4.909  1.00  0.00     0.119 A 
ATOM     16  C   UNL     1      -0.007  -8.529   4.238  1.00  0.00     0.092 A 
BRANCH  14  17
ATOM     17  O   UNL     1       1.551 -10.124   3.318  1.00  0.00    -0.508 OA
ATOM     18  H   UNL     1       2.424 -10.625   3.432  1.00  0.00     0.293 HD
ENDBRANCH  14  17
BRANCH  15  19
ATOM     19  O   UNL     1      -1.585  -6.958   5.165  1.00  0.00    -0.508 OA
ATOM     20  H   UNL     1      -2.129  -7.401   5.896  1.00  0.00     0.293 HD
ENDBRANCH  15  19
ENDBRANCH  10  11
ENDBRANCH   1  10
TORSDOF 6
ENDMDL
MODEL 3
REMARK VINA RESULT:    -5.282      2.854      6.584
REMARK INTER + INTRA:          -7.174
REMARK INTER:                  -6.616
REMARK INTRA:                  -0.558
REMARK UNBOUND:                -0.502
REMARK SMILES Oc1cc(O)cc(CCc2ccccc2O)c1
REMARK SMILES IDX 9 1 10 2 12 3 13 4 11 5 14 6 15 7 16 8 8 10 7 11 6 12 17 13
REMARK SMILES IDX 4 14 2 15 3 16 5 17 1 19
REMARK H PARENT 16 9 5 18 1 20
REMARK Flexibility Score: inf
ROOT
ATOM      1  C   UNL     1       1.888  -5.257   5.724  1.00  0.00     0.044 C 
ENDROOT
BRANCH   1   2
ATOM      2  C   UNL     1       1.793  -6.636   5.122  1.00  0.00    -0.006 A 
ATOM      3  C   UNL     1       2.893  -8.578   4.154  1.00  0.00     0.001 A 
ATOM      4  C   UNL     1       1.651  -9.176   3.932  1.00  0.00     0.004 A 
ATOM      5  C   UNL     1       2.966  -7.312   4.742  1.00  0.00     0.007 A 
ATOM      6  C   UNL     1       0.478  -8.508   4.290  1.00  0.00     0.046 A 
ATOM      7  C   UNL     1       0.540  -7.236   4.880  1.00  0.00     0.118 A 
BRANCH   7   8
ATOM      8  O   UNL     1      -0.636  -6.570   5.222  1.00  0.00    -0.508 OA
ATOM      9  H   UNL     1      -1.483  -6.673   4.676  1.00  0.00     0.293 HD
ENDBRANCH   7   8
ENDBRANCH   1   2
BRANCH   1  10
ATOM     10  C   UNL     1       3.180  -5.110   6.534  1.00  0.00     0.040 C 
BRANCH  10  11
ATOM     11  C   UNL     1       4.048  -4.028   5.951  1.00  0.00    -0.040 A 
ATOM     12  C   UNL     1       5.261  -4.355   5.324  1.00  0.00     0.050 A 
ATOM     13  C   UNL     1       3.626  -2.689   5.979  1.00  0.00     0.050 A 
ATOM     14  C   UNL     1       6.055  -3.351   4.752  1.00  0.00     0.119 A 
ATOM     15  C   UNL     1       4.418  -1.684   5.408  1.00  0.00     0.119 A 
ATOM     16  C   UNL     1       5.632  -2.019   4.799  1.00  0.00     0.092 A 
BRANCH  14  17
ATOM     17  O   UNL     1       7.263  -3.667   4.134  1.00  0.00    -0.508 OA
ATOM     18  H   UNL     1       7.348  -3.703   3.125  1.00  0.00     0.293 HD
ENDBRANCH  14  17
BRANCH  15  19
ATOM     19  O   UNL     1       4.009  -0.353   5.438  1.00  0.00    -0.508 OA
ATOM     20  H   UNL     1       3.758   0.144   4.592  1.00  0.00     0.293 HD
ENDBRANCH  15  19
ENDBRANCH  10  11
ENDBRANCH   1  10
TORSDOF 6
ENDMDL
MODEL 4
REMARK VINA RESULT:    -5.280      2.844      6.292
REMARK INTER + INTRA:          -7.171
REMARK INTER:                  -6.626
REMARK INTRA:                  -0.545
REMARK UNBOUND:                -0.502
REMARK SMILES Oc1cc(O)cc(CCc2ccccc2O)c1
REMARK SMILES IDX 9 1 10 2 12 3 13 4 11 5 14 6 15 7 16 8 8 10 7 11 6 12 17 13
REMARK SMILES IDX 4 14 2 15 3 16 5 17 1 19
REMARK H PARENT 16 9 5 18 1 20
REMARK Flexibility Score: inf
ROOT
ATOM      1  C   UNL     1       1.856  -5.218   5.851  1.00  0.00     0.044 C 
ENDROOT
BRANCH   1   2
ATOM      2  C   UNL     1       1.734  -6.576   5.208  1.00  0.00    -0.006 A 
ATOM      3  C   UNL     1       2.798  -8.512   4.187  1.00  0.00     0.001 A 
ATOM      4  C   UNL     1       1.544  -9.077   3.943  1.00  0.00     0.004 A 
ATOM      5  C   UNL     1       2.894  -7.265   4.812  1.00  0.00     0.007 A 
ATOM      6  C   UNL     1       0.384  -8.395   4.317  1.00  0.00     0.046 A 
ATOM      7  C   UNL     1       0.470  -7.142   4.944  1.00  0.00     0.118 A 
BRANCH   7   8
ATOM      8  O   UNL     1      -0.693  -6.462   5.302  1.00  0.00    -0.508 OA
ATOM      9  H   UNL     1      -0.684  -5.724   5.997  1.00  0.00     0.293 HD
ENDBRANCH   7   8
ENDBRANCH   1   2
BRANCH   1  10
ATOM     10  C   UNL     1       3.200  -5.080   6.571  1.00  0.00     0.040 C 
BRANCH  10  11
ATOM     11  C   UNL     1       4.044  -4.020   5.918  1.00  0.00    -0.040 A 
ATOM     12  C   UNL     1       3.645  -2.673   5.959  1.00  0.00     0.050 A 
ATOM     13  C   UNL     1       5.264  -4.359   5.312  1.00  0.00     0.050 A 
ATOM     14  C   UNL     1       4.447  -1.681   5.379  1.00  0.00     0.119 A 
ATOM     15  C   UNL     1       6.067  -3.367   4.732  1.00  0.00     0.119 A 
ATOM     16  C   UNL     1       5.653  -2.031   4.765  1.00  0.00     0.092 A 
BRANCH  14  17
ATOM     17  O   UNL     1       4.055  -0.344   5.410  1.00  0.00    -0.508 OA
ATOM     18  H   UNL     1       4.511   0.327   6.017  1.00  0.00     0.293 HD
ENDBRANCH  14  17
BRANCH  15  19
ATOM     19  O   UNL     1       7.275  -3.698   4.123  1.00  0.00    -0.508 OA
ATOM     20  H   UNL     1       7.953  -2.988   3.870  1.00  0.00     0.293 HD
ENDBRANCH  15  19
ENDBRANCH  10  11
ENDBRANCH   1  10
TORSDOF 6
ENDMDL
MODEL 5
REMARK VINA RESULT:    -5.153      2.626      4.764
REMARK INTER + INTRA:          -7.011
REMARK INTER:                  -6.500
REMARK INTRA:                  -0.511
REMARK UNBOUND:                -0.502
REMARK SMILES Oc1cc(O)cc(CCc2ccccc2O)c1
REMARK SMILES IDX 9 1 10 2 12 3 13 4 11 5 14 6 15 7 16 8 8 10 7 11 6 12 17 13
REMARK SMILES IDX 4 14 2 15 3 16 5 17 1 19
REMARK H PARENT 16 9 5 18 1 20
REMARK Flexibility Score: inf
ROOT
ATOM      1  C   UNL     1       0.781  -7.663   4.759  1.00  0.00     0.044 C 
ENDROOT
BRANCH   1   2
ATOM      2  C   UNL     1       2.172  -8.130   4.415  1.00  0.00    -0.006 A 
ATOM      3  C   UNL     1       4.575  -7.748   4.443  1.00  0.00     0.001 A 
ATOM      4  C   UNL     1       4.775  -8.932   3.729  1.00  0.00     0.004 A 
ATOM      5  C   UNL     1       3.280  -7.345   4.781  1.00  0.00     0.007 A 
ATOM      6  C   UNL     1       3.682  -9.712   3.346  1.00  0.00     0.046 A 
ATOM      7  C   UNL     1       2.378  -9.315   3.680  1.00  0.00     0.118 A 
BRANCH   7   8
ATOM      8  O   UNL     1       1.290 -10.092   3.282  1.00  0.00    -0.508 OA
ATOM      9  H   UNL     1       0.368  -9.690   3.157  1.00  0.00     0.293 HD
ENDBRANCH   7   8
ENDBRANCH   1   2
BRANCH   1  10
ATOM     10  C   UNL     1       0.675  -7.337   6.253  1.00  0.00     0.040 C 
BRANCH  10  11
ATOM     11  C   UNL     1      -0.032  -6.024   6.458  1.00  0.00    -0.040 A 
ATOM     12  C   UNL     1       0.696  -4.878   6.818  1.00  0.00     0.050 A 
ATOM     13  C   UNL     1      -1.414  -5.922   6.236  1.00  0.00     0.050 A 
ATOM     14  C   UNL     1       0.043  -3.648   6.978  1.00  0.00     0.119 A 
ATOM     15  C   UNL     1      -2.068  -4.692   6.395  1.00  0.00     0.119 A 
ATOM     16  C   UNL     1      -1.336  -3.560   6.769  1.00  0.00     0.092 A 
BRANCH  14  17
ATOM     17  O   UNL     1       0.757  -2.508   7.342  1.00  0.00    -0.508 OA
ATOM     18  H   UNL     1       1.540  -2.555   7.983  1.00  0.00     0.293 HD
ENDBRANCH  14  17
BRANCH  15  19
ATOM     19  O   UNL     1      -3.440  -4.585   6.184  1.00  0.00    -0.508 OA
ATOM     20  H   UNL     1      -4.062  -5.372   6.327  1.00  0.00     0.293 HD
ENDBRANCH  15  19
ENDBRANCH  10  11
ENDBRANCH   1  10
TORSDOF 6
ENDMDL
MODEL 6
REMARK VINA RESULT:    -5.141      3.467      5.568
REMARK INTER + INTRA:          -6.997
REMARK INTER:                  -6.546
REMARK INTRA:                  -0.451
REMARK UNBOUND:                -0.502
REMARK SMILES Oc1cc(O)cc(CCc2ccccc2O)c1
REMARK SMILES IDX 9 1 10 2 12 3 13 4 11 5 14 6 15 7 16 8 8 10 7 11 6 12 17 13
REMARK SMILES IDX 4 14 2 15 3 16 5 17 1 19
REMARK H PARENT 16 9 5 18 1 20
REMARK Flexibility Score: inf
ROOT
ATOM      1  C   UNL     1       4.833  -5.953   5.502  1.00  0.00     0.044 C 
ENDROOT
BRANCH   1   2
ATOM      2  C   UNL     1       4.528  -7.191   4.698  1.00  0.00    -0.006 A 
ATOM      3  C   UNL     1       2.915  -8.842   3.929  1.00  0.00     0.001 A 
ATOM      4  C   UNL     1       3.933  -9.535   3.270  1.00  0.00     0.004 A 
ATOM      5  C   UNL     1       3.210  -7.678   4.645  1.00  0.00     0.007 A 
ATOM      6  C   UNL     1       5.248  -9.070   3.329  1.00  0.00     0.046 A 
ATOM      7  C   UNL     1       5.555  -7.903   4.046  1.00  0.00     0.118 A 
BRANCH   7   8
ATOM      8  O   UNL     1       6.873  -7.453   4.113  1.00  0.00    -0.508 OA
ATOM      9  H   UNL     1       7.350  -7.335   4.999  1.00  0.00     0.293 HD
ENDBRANCH   7   8
ENDBRANCH   1   2
BRANCH   1  10
ATOM     10  C   UNL     1       3.539  -5.248   5.921  1.00  0.00     0.040 C 
BRANCH  10  11
ATOM     11  C   UNL     1       3.734  -3.757   5.948  1.00  0.00    -0.040 A 
ATOM     12  C   UNL     1       2.989  -2.962   6.836  1.00  0.00     0.050 A 
ATOM     13  C   UNL     1       4.701  -3.154   5.129  1.00  0.00     0.050 A 
ATOM     14  C   UNL     1       3.193  -1.576   6.885  1.00  0.00     0.119 A 
ATOM     15  C   UNL     1       4.907  -1.768   5.178  1.00  0.00     0.119 A 
ATOM     16  C   UNL     1       4.149  -0.983   6.054  1.00  0.00     0.092 A 
BRANCH  14  17
ATOM     17  O   UNL     1       2.454  -0.780   7.758  1.00  0.00    -0.508 OA
ATOM     18  H   UNL     1       2.905  -0.152   8.412  1.00  0.00     0.293 HD
ENDBRANCH  14  17
BRANCH  15  19
ATOM     19  O   UNL     1       5.860  -1.162   4.363  1.00  0.00    -0.508 OA
ATOM     20  H   UNL     1       6.187  -1.604   3.511  1.00  0.00     0.293 HD
ENDBRANCH  15  19
ENDBRANCH  10  11
ENDBRANCH   1  10
TORSDOF 6
ENDMDL
MODEL 7
REMARK VINA RESULT:    -5.120      3.497      5.901
REMARK INTER + INTRA:          -6.970
REMARK INTER:                  -6.513
REMARK INTRA:                  -0.457
REMARK UNBOUND:                -0.502
REMARK SMILES Oc1cc(O)cc(CCc2ccccc2O)c1
REMARK SMILES IDX 9 1 10 2 12 3 13 4 11 5 14 6 15 7 16 8 8 10 7 11 6 12 17 13
REMARK SMILES IDX 4 14 2 15 3 16 5 17 1 19
REMARK H PARENT 16 9 5 18 1 20
REMARK Flexibility Score: inf
ROOT
ATOM      1  C   UNL     1       4.987  -5.871   5.472  1.00  0.00     0.044 C 
ENDROOT
BRANCH   1   2
ATOM      2  C   UNL     1       4.593  -7.114   4.714  1.00  0.00    -0.006 A 
ATOM      3  C   UNL     1       2.868  -8.685   4.023  1.00  0.00     0.001 A 
ATOM      4  C   UNL     1       3.831  -9.461   3.373  1.00  0.00     0.004 A 
ATOM      5  C   UNL     1       3.246  -7.518   4.695  1.00  0.00     0.007 A 
ATOM      6  C   UNL     1       5.173  -9.077   3.399  1.00  0.00     0.046 A 
ATOM      7  C   UNL     1       5.563  -7.909   4.073  1.00  0.00     0.118 A 
BRANCH   7   8
ATOM      8  O   UNL     1       6.907  -7.540   4.106  1.00  0.00    -0.508 OA
ATOM      9  H   UNL     1       7.492  -7.734   4.911  1.00  0.00     0.293 HD
ENDBRANCH   7   8
ENDBRANCH   1   2
BRANCH   1  10
ATOM     10  C   UNL     1       3.752  -5.189   6.071  1.00  0.00     0.040 C 
BRANCH  10  11
ATOM     11  C   UNL     1       3.926  -3.695   6.078  1.00  0.00    -0.040 A 
ATOM     12  C   UNL     1       4.856  -3.087   5.220  1.00  0.00     0.050 A 
ATOM     13  C   UNL     1       3.119  -2.892   6.900  1.00  0.00     0.050 A 
ATOM     14  C   UNL     1       4.995  -1.692   5.203  1.00  0.00     0.119 A 
ATOM     15  C   UNL     1       3.257  -1.497   6.884  1.00  0.00     0.119 A 
ATOM     16  C   UNL     1       4.198  -0.902   6.036  1.00  0.00     0.092 A 
BRANCH  14  17
ATOM     17  O   UNL     1       5.921  -1.081   4.359  1.00  0.00    -0.508 OA
ATOM     18  H   UNL     1       5.641  -0.378   3.686  1.00  0.00     0.293 HD
ENDBRANCH  14  17
BRANCH  15  19
ATOM     19  O   UNL     1       2.465  -0.696   7.702  1.00  0.00    -0.508 OA
ATOM     20  H   UNL     1       2.349  -0.896   8.688  1.00  0.00     0.293 HD
ENDBRANCH  15  19
ENDBRANCH  10  11
ENDBRANCH   1  10
TORSDOF 6
ENDMDL
MODEL 8
REMARK VINA RESULT:    -5.077      2.444      3.962
REMARK INTER + INTRA:          -6.916
REMARK INTER:                  -6.484
REMARK INTRA:                  -0.432
REMARK UNBOUND:                -0.502
REMARK SMILES Oc1cc(O)cc(CCc2ccccc2O)c1
REMARK SMILES IDX 9 1 10 2 12 3 13 4 11 5 14 6 15 7 16 8 8 10 7 11 6 12 17 13
REMARK SMILES IDX 4 14 2 15 3 16 5 17 1 19
REMARK H PARENT 16 9 5 18 1 20
REMARK Flexibility Score: inf
ROOT
ATOM      1  C   UNL     1       4.869  -5.329   5.442  1.00  0.00     0.044 C 
ENDROOT
BRANCH   1   2
ATOM      2  C   UNL     1       4.754  -3.831   5.577  1.00  0.00    -0.006 A 
ATOM      3  C   UNL     1       3.538  -1.891   6.399  1.00  0.00     0.001 A 
ATOM      4  C   UNL     1       4.467  -1.046   5.790  1.00  0.00     0.004 A 
ATOM      5  C   UNL     1       3.676  -3.278   6.290  1.00  0.00     0.007 A 
ATOM      6  C   UNL     1       5.534  -1.583   5.067  1.00  0.00     0.046 A 
ATOM      7  C   UNL     1       5.681  -2.974   4.950  1.00  0.00     0.118 A 
BRANCH   7   8
ATOM      8  O   UNL     1       6.740  -3.503   4.214  1.00  0.00    -0.508 OA
ATOM      9  H   UNL     1       7.578  -2.964   4.025  1.00  0.00     0.293 HD
ENDBRANCH   7   8
ENDBRANCH   1   2
BRANCH   1  10
ATOM     10  C   UNL     1       3.503  -5.994   5.631  1.00  0.00     0.040 C 
BRANCH  10  11
ATOM     11  C   UNL     1       3.423  -7.272   4.840  1.00  0.00    -0.040 A 
ATOM     12  C   UNL     1       4.597  -7.910   4.407  1.00  0.00     0.050 A 
ATOM     13  C   UNL     1       2.179  -7.867   4.579  1.00  0.00     0.050 A 
ATOM     14  C   UNL     1       4.525  -9.117   3.698  1.00  0.00     0.119 A 
ATOM     15  C   UNL     1       2.106  -9.074   3.870  1.00  0.00     0.119 A 
ATOM     16  C   UNL     1       3.280  -9.694   3.430  1.00  0.00     0.092 A 
BRANCH  14  17
ATOM     17  O   UNL     1       5.685  -9.752   3.259  1.00  0.00    -0.508 OA
ATOM     18  H   UNL     1       6.235 -10.337   3.878  1.00  0.00     0.293 HD
ENDBRANCH  14  17
BRANCH  15  19
ATOM     19  O   UNL     1       0.874  -9.666   3.601  1.00  0.00    -0.508 OA
ATOM     20  H   UNL     1       0.740 -10.270   2.799  1.00  0.00     0.293 HD
ENDBRANCH  15  19
ENDBRANCH  10  11
ENDBRANCH   1  10
TORSDOF 6
ENDMDL
MODEL 9
REMARK VINA RESULT:    -5.010      1.913      6.325
REMARK INTER + INTRA:          -6.831
REMARK INTER:                  -6.283
REMARK INTRA:                  -0.548
REMARK UNBOUND:                -0.502
REMARK SMILES Oc1cc(O)cc(CCc2ccccc2O)c1
REMARK SMILES IDX 9 1 10 2 12 3 13 4 11 5 14 6 15 7 16 8 8 10 7 11 6 12 17 13
REMARK SMILES IDX 4 14 2 15 3 16 5 17 1 19
REMARK H PARENT 16 9 5 18 1 20
REMARK Flexibility Score: inf
ROOT
ATOM      1  C   UNL     1       3.158  -6.059   5.428  1.00  0.00     0.044 C 
ENDROOT
BRANCH   1   2
ATOM      2  C   UNL     1       2.520  -7.295   4.847  1.00  0.00    -0.006 A 
ATOM      3  C   UNL     1       2.758  -9.474   3.791  1.00  0.00     0.001 A 
ATOM      4  C   UNL     1       1.369  -9.581   3.692  1.00  0.00     0.004 A 
ATOM      5  C   UNL     1       3.333  -8.334   4.362  1.00  0.00     0.007 A 
ATOM      6  C   UNL     1       0.552  -8.549   4.157  1.00  0.00     0.046 A 
ATOM      7  C   UNL     1       1.119  -7.400   4.729  1.00  0.00     0.118 A 
BRANCH   7   8
ATOM      8  O   UNL     1       0.297  -6.366   5.178  1.00  0.00    -0.508 OA
ATOM      9  H   UNL     1      -0.418  -5.961   4.585  1.00  0.00     0.293 HD
ENDBRANCH   7   8
ENDBRANCH   1   2
BRANCH   1  10
ATOM     10  C   UNL     1       4.525  -6.391   6.036  1.00  0.00     0.040 C 
BRANCH  10  11
ATOM     11  C   UNL     1       5.620  -5.662   5.306  1.00  0.00    -0.040 A 
ATOM     12  C   UNL     1       5.699  -4.261   5.367  1.00  0.00     0.050 A 
ATOM     13  C   UNL     1       6.603  -6.379   4.606  1.00  0.00     0.050 A 
ATOM     14  C   UNL     1       6.738  -3.583   4.713  1.00  0.00     0.119 A 
ATOM     15  C   UNL     1       7.643  -5.702   3.953  1.00  0.00     0.119 A 
ATOM     16  C   UNL     1       7.704  -4.305   4.007  1.00  0.00     0.092 A 
BRANCH  14  17
ATOM     17  O   UNL     1       6.819  -2.193   4.763  1.00  0.00    -0.508 OA
ATOM     18  H   UNL     1       6.072  -1.633   5.155  1.00  0.00     0.293 HD
ENDBRANCH  14  17
BRANCH  15  19
ATOM     19  O   UNL     1       8.618  -6.406   3.251  1.00  0.00    -0.508 OA
ATOM     20  H   UNL     1       8.555  -6.542   2.249  1.00  0.00     0.293 HD
ENDBRANCH  15  19
ENDBRANCH  10  11
ENDBRANCH   1  10
TORSDOF 6
ENDMDL
