MODEL 1
REMARK VINA RESULT:    -4.011      0.000      0.000
REMARK INTER + INTRA:          -9.507
REMARK INTER:                  -7.528
REMARK INTRA:                  -1.979
REMARK UNBOUND:                -1.979
REMARK SMILES O=C([O-])CCCCCCCCCCCCCCC(=O)[O-]
REMARK SMILES IDX 10 1 9 2 8 3 7 4 6 5 5 6 4 7 2 8 1 9 3 10 11 11 12 12 13 13
REMARK SMILES IDX 14 14 15 15 16 16 17 17 18 18 19 19 20 20
REMARK H PARENT
REMARK Flexibility Score: inf
ROOT
ATOM      1  C   UNL     1      28.494  26.296 -12.774  1.00  0.00     0.000 C 
ENDROOT
BRANCH   1   2
ATOM      2  C   UNL     1      29.939  26.739 -13.065  1.00  0.00     0.000 C 
BRANCH   2   3
ATOM      3  C   UNL     1      30.639  25.955 -14.192  1.00  0.00     0.000 C 
BRANCH   3   4
ATOM      4  C   UNL     1      31.085  26.838 -15.376  1.00  0.00     0.000 C 
BRANCH   4   5
ATOM      5  C   UNL     1      30.006  26.933 -16.469  1.00  0.00     0.000 C 
BRANCH   5   6
ATOM      6  C   UNL     1      29.435  28.355 -16.623  1.00  0.00     0.006 C 
BRANCH   6   7
ATOM      7  C   UNL     1      27.981  28.401 -17.119  1.00  0.00     0.053 C 
BRANCH   7   8
ATOM      8  C   UNL     1      27.672  29.684 -17.828  1.00  0.00     0.041 C 
ATOM      9  O   UNL     1      28.473  30.145 -18.681  1.00  0.00    -0.550 OA
ATOM     10  O   UNL     1      26.513  30.385 -17.521  1.00  0.00    -0.550 OA
ENDBRANCH   7   8
ENDBRANCH   6   7
ENDBRANCH   5   6
ENDBRANCH   4   5
ENDBRANCH   3   4
ENDBRANCH   2   3
ENDBRANCH   1   2
BRANCH   1  11
ATOM     11  C   UNL     1      28.316  24.783 -12.540  1.00  0.00     0.000 C 
BRANCH  11  12
ATOM     12  C   UNL     1      27.208  24.148 -13.408  1.00  0.00     0.000 C 
BRANCH  12  13
ATOM     13  C   UNL     1      27.771  23.133 -14.418  1.00  0.00     0.000 C 
BRANCH  13  14
ATOM     14  C   UNL     1      27.961  23.734 -15.820  1.00  0.00     0.000 C 
BRANCH  14  15
ATOM     15  C   UNL     1      27.116  24.998 -16.043  1.00  0.00     0.000 C 
BRANCH  15  16
ATOM     16  C   UNL     1      26.423  24.960 -17.413  1.00  0.00     0.006 C 
BRANCH  16  17
ATOM     17  C   UNL     1      27.363  24.483 -18.527  1.00  0.00     0.053 C 
BRANCH  17  18
ATOM     18  C   UNL     1      26.684  24.469 -19.861  1.00  0.00     0.041 C 
ATOM     19  O   UNL     1      25.756  25.283 -20.108  1.00  0.00    -0.550 OA
ATOM     20  O   UNL     1      27.051  23.533 -20.820  1.00  0.00    -0.550 OA
ENDBRANCH  17  18
ENDBRANCH  16  17
ENDBRANCH  15  16
ENDBRANCH  14  15
ENDBRANCH  13  14
ENDBRANCH  12  13
ENDBRANCH  11  12
ENDBRANCH   1  11
TORSDOF 15
ENDMDL
MODEL 2
REMARK VINA RESULT:    -3.822      3.315      5.648
REMARK INTER + INTRA:          -9.153
REMARK INTER:                  -6.807
REMARK INTRA:                  -2.346
REMARK UNBOUND:                -1.979
REMARK SMILES O=C([O-])CCCCCCCCCCCCCCC(=O)[O-]
REMARK SMILES IDX 10 1 9 2 8 3 7 4 6 5 5 6 4 7 2 8 1 9 3 10 11 11 12 12 13 13
REMARK SMILES IDX 14 14 15 15 16 16 17 17 18 18 19 19 20 20
REMARK H PARENT
REMARK Flexibility Score: inf
ROOT
ATOM      1  C   UNL     1      27.773  23.384 -19.124  1.00  0.00     0.000 C 
ENDROOT
BRANCH   1   2
ATOM      2  C   UNL     1      26.731  24.363 -19.692  1.00  0.00     0.000 C 
BRANCH   2   3
ATOM      3  C   UNL     1      26.062  25.273 -18.644  1.00  0.00     0.000 C 
BRANCH   3   4
ATOM      4  C   UNL     1      26.856  25.386 -17.325  1.00  0.00     0.000 C 
BRANCH   4   5
ATOM      5  C   UNL     1      27.498  26.773 -17.149  1.00  0.00     0.000 C 
BRANCH   5   6
ATOM      6  C   UNL     1      28.478  26.832 -15.963  1.00  0.00     0.006 C 
BRANCH   6   7
ATOM      7  C   UNL     1      29.874  27.364 -16.322  1.00  0.00     0.053 C 
BRANCH   7   8
ATOM      8  C   UNL     1      30.906  26.955 -15.316  1.00  0.00     0.041 C 
ATOM      9  O   UNL     1      30.611  26.897 -14.095  1.00  0.00    -0.550 OA
ATOM     10  O   UNL     1      32.202  26.671 -15.727  1.00  0.00    -0.550 OA
ENDBRANCH   7   8
ENDBRANCH   6   7
ENDBRANCH   5   6
ENDBRANCH   4   5
ENDBRANCH   3   4
ENDBRANCH   2   3
ENDBRANCH   1   2
BRANCH   1  11
ATOM     11  C   UNL     1      28.948  23.068 -20.071  1.00  0.00     0.000 C 
BRANCH  11  12
ATOM     12  C   UNL     1      30.328  23.464 -19.502  1.00  0.00     0.000 C 
BRANCH  12  13
ATOM     13  C   UNL     1      30.208  24.334 -18.239  1.00  0.00     0.000 C 
BRANCH  13  14
ATOM     14  C   UNL     1      30.723  23.623 -16.977  1.00  0.00     0.000 C 
BRANCH  14  15
ATOM     15  C   UNL     1      29.587  23.163 -16.050  1.00  0.00     0.000 C 
BRANCH  15  16
ATOM     16  C   UNL     1      30.003  23.274 -14.576  1.00  0.00     0.006 C 
BRANCH  16  17
ATOM     17  C   UNL     1      28.916  23.926 -13.713  1.00  0.00     0.053 C 
BRANCH  17  18
ATOM     18  C   UNL     1      27.619  23.182 -13.795  1.00  0.00     0.041 C 
ATOM     19  O   UNL     1      27.559  21.972 -13.453  1.00  0.00    -0.550 OA
ATOM     20  O   UNL     1      26.483  23.816 -14.284  1.00  0.00    -0.550 OA
ENDBRANCH  17  18
ENDBRANCH  16  17
ENDBRANCH  15  16
ENDBRANCH  14  15
ENDBRANCH  13  14
ENDBRANCH  12  13
ENDBRANCH  11  12
ENDBRANCH   1  11
TORSDOF 15
ENDMDL
MODEL 3
REMARK VINA RESULT:    -3.818      2.712      4.032
REMARK INTER + INTRA:          -9.145
REMARK INTER:                  -6.753
REMARK INTRA:                  -2.392
REMARK UNBOUND:                -1.979
REMARK SMILES O=C([O-])CCCCCCCCCCCCCCC(=O)[O-]
REMARK SMILES IDX 10 1 9 2 8 3 7 4 6 5 5 6 4 7 2 8 1 9 3 10 11 11 12 12 13 13
REMARK SMILES IDX 14 14 15 15 16 16 17 17 18 18 19 19 20 20
REMARK H PARENT
REMARK Flexibility Score: inf
ROOT
ATOM      1  C   UNL     1      27.759  26.441 -15.153  1.00  0.00     0.000 C 
ENDROOT
BRANCH   1   2
ATOM      2  C   UNL     1      27.900  27.310 -16.414  1.00  0.00     0.000 C 
BRANCH   2   3
ATOM      3  C   UNL     1      29.337  27.779 -16.717  1.00  0.00     0.000 C 
BRANCH   3   4
ATOM      4  C   UNL     1      30.336  27.493 -15.576  1.00  0.00     0.000 C 
BRANCH   4   5
ATOM      5  C   UNL     1      31.414  26.477 -15.988  1.00  0.00     0.000 C 
BRANCH   5   6
ATOM      6  C   UNL     1      31.358  26.118 -17.484  1.00  0.00     0.006 C 
BRANCH   6   7
ATOM      7  C   UNL     1      32.732  26.044 -18.169  1.00  0.00     0.053 C 
BRANCH   7   8
ATOM      8  C   UNL     1      33.087  24.643 -18.561  1.00  0.00     0.041 C 
ATOM      9  O   UNL     1      32.474  23.668 -18.054  1.00  0.00    -0.550 OA
ATOM     10  O   UNL     1      34.118  24.415 -19.464  1.00  0.00    -0.550 OA
ENDBRANCH   7   8
ENDBRANCH   6   7
ENDBRANCH   5   6
ENDBRANCH   4   5
ENDBRANCH   3   4
ENDBRANCH   2   3
ENDBRANCH   1   2
BRANCH   1  11
ATOM     11  C   UNL     1      26.785  25.254 -15.291  1.00  0.00     0.000 C 
BRANCH  11  12
ATOM     12  C   UNL     1      27.352  23.920 -14.759  1.00  0.00     0.000 C 
BRANCH  12  13
ATOM     13  C   UNL     1      28.891  23.901 -14.760  1.00  0.00     0.000 C 
BRANCH  13  14
ATOM     14  C   UNL     1      29.477  23.338 -16.065  1.00  0.00     0.000 C 
BRANCH  14  15
ATOM     15  C   UNL     1      28.472  22.475 -16.843  1.00  0.00     0.000 C 
BRANCH  15  16
ATOM     16  C   UNL     1      28.493  22.824 -18.339  1.00  0.00     0.006 C 
BRANCH  16  17
ATOM     17  C   UNL     1      28.121  24.288 -18.600  1.00  0.00     0.053 C 
BRANCH  17  18
ATOM     18  C   UNL     1      26.789  24.413 -19.274  1.00  0.00     0.041 C 
ATOM     19  O   UNL     1      25.793  24.842 -18.634  1.00  0.00    -0.550 OA
ATOM     20  O   UNL     1      26.640  24.022 -20.599  1.00  0.00    -0.550 OA
ENDBRANCH  17  18
ENDBRANCH  16  17
ENDBRANCH  15  16
ENDBRANCH  14  15
ENDBRANCH  13  14
ENDBRANCH  12  13
ENDBRANCH  11  12
ENDBRANCH   1  11
TORSDOF 15
ENDMDL
MODEL 4
REMARK VINA RESULT:    -3.817      3.112      5.689
REMARK INTER + INTRA:          -9.144
REMARK INTER:                  -7.226
REMARK INTRA:                  -1.918
REMARK UNBOUND:                -1.979
REMARK SMILES O=C([O-])CCCCCCCCCCCCCCC(=O)[O-]
REMARK SMILES IDX 10 1 9 2 8 3 7 4 6 5 5 6 4 7 2 8 1 9 3 10 11 11 12 12 13 13
REMARK SMILES IDX 14 14 15 15 16 16 17 17 18 18 19 19 20 20
REMARK H PARENT
REMARK Flexibility Score: inf
ROOT
ATOM      1  C   UNL     1      27.921  26.393 -15.017  1.00  0.00     0.000 C 
ENDROOT
BRANCH   1   2
ATOM      2  C   UNL     1      26.906  25.237 -15.007  1.00  0.00     0.000 C 
BRANCH   2   3
ATOM      3  C   UNL     1      27.531  23.831 -14.918  1.00  0.00     0.000 C 
BRANCH   3   4
ATOM      4  C   UNL     1      28.733  23.626 -15.863  1.00  0.00     0.000 C 
BRANCH   4   5
ATOM      5  C   UNL     1      28.456  22.556 -16.933  1.00  0.00     0.000 C 
BRANCH   5   6
ATOM      6  C   UNL     1      28.387  23.138 -18.357  1.00  0.00     0.006 C 
BRANCH   6   7
ATOM      7  C   UNL     1      27.393  24.299 -18.517  1.00  0.00     0.053 C 
BRANCH   7   8
ATOM      8  C   UNL     1      26.767  24.317 -19.877  1.00  0.00     0.041 C 
ATOM      9  O   UNL     1      27.202  23.563 -20.786  1.00  0.00    -0.550 OA
ATOM     10  O   UNL     1      25.723  25.193 -20.150  1.00  0.00    -0.550 OA
ENDBRANCH   7   8
ENDBRANCH   6   7
ENDBRANCH   5   6
ENDBRANCH   4   5
ENDBRANCH   3   4
ENDBRANCH   2   3
ENDBRANCH   1   2
BRANCH   1  11
ATOM     11  C   UNL     1      27.999  27.175 -16.344  1.00  0.00     0.000 C 
BRANCH  11  12
ATOM     12  C   UNL     1      29.429  27.616 -16.721  1.00  0.00     0.000 C 
BRANCH  12  13
ATOM     13  C   UNL     1      30.464  27.206 -15.659  1.00  0.00     0.000 C 
BRANCH  13  14
ATOM     14  C   UNL     1      31.517  26.227 -16.201  1.00  0.00     0.000 C 
BRANCH  14  15
ATOM     15  C   UNL     1      31.110  25.602 -17.544  1.00  0.00     0.000 C 
BRANCH  15  16
ATOM     16  C   UNL     1      32.347  25.244 -18.381  1.00  0.00     0.006 C 
BRANCH  16  17
ATOM     17  C   UNL     1      33.404  26.355 -18.359  1.00  0.00     0.053 C 
BRANCH  17  18
ATOM     18  C   UNL     1      34.511  26.091 -19.333  1.00  0.00     0.041 C 
ATOM     19  O   UNL     1      35.150  27.049 -19.841  1.00  0.00    -0.550 OA
ATOM     20  O   UNL     1      34.813  24.787 -19.706  1.00  0.00    -0.550 OA
ENDBRANCH  17  18
ENDBRANCH  16  17
ENDBRANCH  15  16
ENDBRANCH  14  15
ENDBRANCH  13  14
ENDBRANCH  12  13
ENDBRANCH  11  12
ENDBRANCH   1  11
TORSDOF 15
ENDMDL
MODEL 5
REMARK VINA RESULT:    -3.804      2.937      4.494
REMARK INTER + INTRA:          -9.119
REMARK INTER:                  -7.117
REMARK INTRA:                  -2.002
REMARK UNBOUND:                -1.979
REMARK SMILES O=C([O-])CCCCCCCCCCCCCCC(=O)[O-]
REMARK SMILES IDX 10 1 9 2 8 3 7 4 6 5 5 6 4 7 2 8 1 9 3 10 11 11 12 12 13 13
REMARK SMILES IDX 14 14 15 15 16 16 17 17 18 18 19 19 20 20
REMARK H PARENT
REMARK Flexibility Score: inf
ROOT
ATOM      1  C   UNL     1      32.076  26.011 -15.991  1.00  0.00     0.000 C 
ENDROOT
BRANCH   1   2
ATOM      2  C   UNL     1      31.014  27.046 -15.582  1.00  0.00     0.000 C 
BRANCH   2   3
ATOM      3  C   UNL     1      30.062  27.476 -16.716  1.00  0.00     0.000 C 
BRANCH   3   4
ATOM      4  C   UNL     1      28.568  27.299 -16.371  1.00  0.00     0.000 C 
BRANCH   4   5
ATOM      5  C   UNL     1      28.291  25.969 -15.649  1.00  0.00     0.000 C 
BRANCH   5   6
ATOM      6  C   UNL     1      27.240  26.103 -14.533  1.00  0.00     0.006 C 
BRANCH   6   7
ATOM      7  C   UNL     1      27.619  25.399 -13.220  1.00  0.00     0.053 C 
BRANCH   7   8
ATOM      8  C   UNL     1      28.890  25.940 -12.641  1.00  0.00     0.041 C 
ATOM      9  O   UNL     1      28.945  27.129 -12.235  1.00  0.00    -0.550 OA
ATOM     10  O   UNL     1      30.023  25.138 -12.583  1.00  0.00    -0.550 OA
ENDBRANCH   7   8
ENDBRANCH   6   7
ENDBRANCH   5   6
ENDBRANCH   4   5
ENDBRANCH   3   4
ENDBRANCH   2   3
ENDBRANCH   1   2
BRANCH   1  11
ATOM     11  C   UNL     1      32.497  26.066 -17.473  1.00  0.00     0.000 C 
BRANCH  11  12
ATOM     12  C   UNL     1      31.974  24.879 -18.311  1.00  0.00     0.000 C 
BRANCH  12  13
ATOM     13  C   UNL     1      31.622  23.662 -17.438  1.00  0.00     0.000 C 
BRANCH  13  14
ATOM     14  C   UNL     1      30.109  23.393 -17.377  1.00  0.00     0.000 C 
BRANCH  14  15
ATOM     15  C   UNL     1      29.356  23.960 -18.590  1.00  0.00     0.000 C 
BRANCH  15  16
ATOM     16  C   UNL     1      28.003  23.256 -18.774  1.00  0.00     0.006 C 
BRANCH  16  17
ATOM     17  C   UNL     1      27.185  23.860 -19.921  1.00  0.00     0.053 C 
BRANCH  17  18
ATOM     18  C   UNL     1      26.170  24.843 -19.424  1.00  0.00     0.041 C 
ATOM     19  O   UNL     1      25.614  25.639 -20.226  1.00  0.00    -0.550 OA
ATOM     20  O   UNL     1      25.863  24.903 -18.071  1.00  0.00    -0.550 OA
ENDBRANCH  17  18
ENDBRANCH  16  17
ENDBRANCH  15  16
ENDBRANCH  14  15
ENDBRANCH  13  14
ENDBRANCH  12  13
ENDBRANCH  11  12
ENDBRANCH   1  11
TORSDOF 15
ENDMDL
MODEL 6
REMARK VINA RESULT:    -3.768      2.560      4.893
REMARK INTER + INTRA:          -9.052
REMARK INTER:                  -6.997
REMARK INTRA:                  -2.055
REMARK UNBOUND:                -1.979
REMARK SMILES O=C([O-])CCCCCCCCCCCCCCC(=O)[O-]
REMARK SMILES IDX 10 1 9 2 8 3 7 4 6 5 5 6 4 7 2 8 1 9 3 10 11 11 12 12 13 13
REMARK SMILES IDX 14 14 15 15 16 16 17 17 18 18 19 19 20 20
REMARK H PARENT
REMARK Flexibility Score: inf
ROOT
ATOM      1  C   UNL     1      31.376  26.453 -14.927  1.00  0.00     0.000 C 
ENDROOT
BRANCH   1   2
ATOM      2  C   UNL     1      30.766  25.796 -13.677  1.00  0.00     0.000 C 
BRANCH   2   3
ATOM      3  C   UNL     1      29.832  26.709 -12.859  1.00  0.00     0.000 C 
BRANCH   3   4
ATOM      4  C   UNL     1      28.570  25.993 -12.333  1.00  0.00     0.000 C 
BRANCH   4   5
ATOM      5  C   UNL     1      27.506  25.810 -13.429  1.00  0.00     0.000 C 
BRANCH   5   6
ATOM      6  C   UNL     1      26.711  24.500 -13.277  1.00  0.00     0.006 C 
BRANCH   6   7
ATOM      7  C   UNL     1      27.411  23.431 -12.424  1.00  0.00     0.053 C 
BRANCH   7   8
ATOM      8  C   UNL     1      28.017  22.351 -13.266  1.00  0.00     0.041 C 
ATOM      9  O   UNL     1      27.537  21.188 -13.248  1.00  0.00    -0.550 OA
ATOM     10  O   UNL     1      29.135  22.622 -14.046  1.00  0.00    -0.550 OA
ENDBRANCH   7   8
ENDBRANCH   6   7
ENDBRANCH   5   6
ENDBRANCH   4   5
ENDBRANCH   3   4
ENDBRANCH   2   3
ENDBRANCH   1   2
BRANCH   1  11
ATOM     11  C   UNL     1      30.443  27.434 -15.663  1.00  0.00     0.000 C 
BRANCH  11  12
ATOM     12  C   UNL     1      29.676  26.796 -16.841  1.00  0.00     0.000 C 
BRANCH  12  13
ATOM     13  C   UNL     1      28.165  27.080 -16.773  1.00  0.00     0.000 C 
BRANCH  13  14
ATOM     14  C   UNL     1      27.313  25.841 -17.092  1.00  0.00     0.000 C 
BRANCH  14  15
ATOM     15  C   UNL     1      28.052  24.524 -16.810  1.00  0.00     0.000 C 
BRANCH  15  16
ATOM     16  C   UNL     1      27.889  23.542 -17.979  1.00  0.00     0.006 C 
BRANCH  16  17
ATOM     17  C   UNL     1      28.207  24.191 -19.331  1.00  0.00     0.053 C 
BRANCH  17  18
ATOM     18  C   UNL     1      27.056  24.086 -20.284  1.00  0.00     0.041 C 
ATOM     19  O   UNL     1      26.057  24.842 -20.157  1.00  0.00    -0.550 OA
ATOM     20  O   UNL     1      27.071  23.128 -21.291  1.00  0.00    -0.550 OA
ENDBRANCH  17  18
ENDBRANCH  16  17
ENDBRANCH  15  16
ENDBRANCH  14  15
ENDBRANCH  13  14
ENDBRANCH  12  13
ENDBRANCH  11  12
ENDBRANCH   1  11
TORSDOF 15
ENDMDL
MODEL 7
REMARK VINA RESULT:    -3.739      2.961      5.141
REMARK INTER + INTRA:          -8.997
REMARK INTER:                  -6.819
REMARK INTRA:                  -2.178
REMARK UNBOUND:                -1.979
REMARK SMILES O=C([O-])CCCCCCCCCCCCCCC(=O)[O-]
REMARK SMILES IDX 10 1 9 2 8 3 7 4 6 5 5 6 4 7 2 8 1 9 3 10 11 11 12 12 13 13
REMARK SMILES IDX 14 14 15 15 16 16 17 17 18 18 19 19 20 20
REMARK H PARENT
REMARK Flexibility Score: inf
ROOT
ATOM      1  C   UNL     1      31.639  26.610 -15.819  1.00  0.00     0.000 C 
ENDROOT
BRANCH   1   2
ATOM      2  C   UNL     1      31.653  25.690 -17.051  1.00  0.00     0.000 C 
BRANCH   2   3
ATOM      3  C   UNL     1      30.877  24.369 -16.880  1.00  0.00     0.000 C 
BRANCH   3   4
ATOM      4  C   UNL     1      31.590  23.345 -15.971  1.00  0.00     0.000 C 
BRANCH   4   5
ATOM      5  C   UNL     1      30.911  23.215 -14.597  1.00  0.00     0.000 C 
BRANCH   5   6
ATOM      6  C   UNL     1      29.391  23.453 -14.656  1.00  0.00     0.006 C 
BRANCH   6   7
ATOM      7  C   UNL     1      28.564  22.188 -14.933  1.00  0.00     0.053 C 
BRANCH   7   8
ATOM      8  C   UNL     1      27.873  21.689 -13.702  1.00  0.00     0.041 C 
ATOM      9  O   UNL     1      27.421  22.502 -12.855  1.00  0.00    -0.550 OA
ATOM     10  O   UNL     1      27.756  20.323 -13.476  1.00  0.00    -0.550 OA
ENDBRANCH   7   8
ENDBRANCH   6   7
ENDBRANCH   5   6
ENDBRANCH   4   5
ENDBRANCH   3   4
ENDBRANCH   2   3
ENDBRANCH   1   2
BRANCH   1  11
ATOM     11  C   UNL     1      30.258  27.199 -15.467  1.00  0.00     0.000 C 
BRANCH  11  12
ATOM     12  C   UNL     1      29.525  27.824 -16.673  1.00  0.00     0.000 C 
BRANCH  12  13
ATOM     13  C   UNL     1      28.030  27.461 -16.697  1.00  0.00     0.000 C 
BRANCH  13  14
ATOM     14  C   UNL     1      27.673  26.345 -15.702  1.00  0.00     0.000 C 
BRANCH  14  15
ATOM     15  C   UNL     1      26.708  25.307 -16.295  1.00  0.00     0.000 C 
BRANCH  15  16
ATOM     16  C   UNL     1      26.799  25.289 -17.828  1.00  0.00     0.006 C 
BRANCH  16  17
ATOM     17  C   UNL     1      27.617  24.101 -18.348  1.00  0.00     0.053 C 
BRANCH  17  18
ATOM     18  C   UNL     1      27.358  23.837 -19.799  1.00  0.00     0.041 C 
ATOM     19  O   UNL     1      26.454  24.469 -20.406  1.00  0.00    -0.550 OA
ATOM     20  O   UNL     1      28.089  22.867 -20.472  1.00  0.00    -0.550 OA
ENDBRANCH  17  18
ENDBRANCH  16  17
ENDBRANCH  15  16
ENDBRANCH  14  15
ENDBRANCH  13  14
ENDBRANCH  12  13
ENDBRANCH  11  12
ENDBRANCH   1  11
TORSDOF 15
ENDMDL
MODEL 8
REMARK VINA RESULT:    -3.721      2.658      5.106
REMARK INTER + INTRA:          -8.963
REMARK INTER:                  -6.563
REMARK INTRA:                  -2.400
REMARK UNBOUND:                -1.979
REMARK SMILES O=C([O-])CCCCCCCCCCCCCCC(=O)[O-]
REMARK SMILES IDX 10 1 9 2 8 3 7 4 6 5 5 6 4 7 2 8 1 9 3 10 11 11 12 12 13 13
REMARK SMILES IDX 14 14 15 15 16 16 17 17 18 18 19 19 20 20
REMARK H PARENT
REMARK Flexibility Score: inf
ROOT
ATOM      1  C   UNL     1      28.857  23.790 -14.451  1.00  0.00     0.000 C 
ENDROOT
BRANCH   1   2
ATOM      2  C   UNL     1      29.584  22.919 -15.490  1.00  0.00     0.000 C 
BRANCH   2   3
ATOM      3  C   UNL     1      28.732  21.783 -16.089  1.00  0.00     0.000 C 
BRANCH   3   4
ATOM      4  C   UNL     1      28.978  21.552 -17.595  1.00  0.00     0.000 C 
BRANCH   4   5
ATOM      5  C   UNL     1      29.775  22.701 -18.237  1.00  0.00     0.000 C 
BRANCH   5   6
ATOM      6  C   UNL     1      28.931  23.540 -19.214  1.00  0.00     0.006 C 
BRANCH   6   7
ATOM      7  C   UNL     1      27.921  24.478 -18.533  1.00  0.00     0.053 C 
BRANCH   7   8
ATOM      8  C   UNL     1      26.621  24.533 -19.273  1.00  0.00     0.041 C 
ATOM      9  O   UNL     1      25.573  24.911 -18.687  1.00  0.00    -0.550 OA
ATOM     10  O   UNL     1      26.560  24.136 -20.603  1.00  0.00    -0.550 OA
ENDBRANCH   7   8
ENDBRANCH   6   7
ENDBRANCH   5   6
ENDBRANCH   4   5
ENDBRANCH   3   4
ENDBRANCH   2   3
ENDBRANCH   1   2
BRANCH   1  11
ATOM     11  C   UNL     1      27.321  23.795 -14.571  1.00  0.00     0.000 C 
BRANCH  11  12
ATOM     12  C   UNL     1      26.754  25.071 -15.229  1.00  0.00     0.000 C 
BRANCH  12  13
ATOM     13  C   UNL     1      27.697  26.276 -15.069  1.00  0.00     0.000 C 
BRANCH  13  14
ATOM     14  C   UNL     1      27.706  27.192 -16.303  1.00  0.00     0.000 C 
BRANCH  14  15
ATOM     15  C   UNL     1      29.110  27.717 -16.643  1.00  0.00     0.000 C 
BRANCH  15  16
ATOM     16  C   UNL     1      30.194  26.791 -16.071  1.00  0.00     0.006 C 
BRANCH  16  17
ATOM     17  C   UNL     1      31.010  26.103 -17.173  1.00  0.00     0.053 C 
BRANCH  17  18
ATOM     18  C   UNL     1      32.375  25.716 -16.695  1.00  0.00     0.041 C 
ATOM     19  O   UNL     1      32.934  26.371 -15.775  1.00  0.00    -0.550 OA
ATOM     20  O   UNL     1      33.047  24.656 -17.290  1.00  0.00    -0.550 OA
ENDBRANCH  17  18
ENDBRANCH  16  17
ENDBRANCH  15  16
ENDBRANCH  14  15
ENDBRANCH  13  14
ENDBRANCH  12  13
ENDBRANCH  11  12
ENDBRANCH   1  11
TORSDOF 15
ENDMDL
MODEL 9
REMARK VINA RESULT:    -3.667      2.667      5.253
REMARK INTER + INTRA:          -8.861
REMARK INTER:                  -6.629
REMARK INTRA:                  -2.232
REMARK UNBOUND:                -1.979
REMARK SMILES O=C([O-])CCCCCCCCCCCCCCC(=O)[O-]
REMARK SMILES IDX 10 1 9 2 8 3 7 4 6 5 5 6 4 7 2 8 1 9 3 10 11 11 12 12 13 13
REMARK SMILES IDX 14 14 15 15 16 16 17 17 18 18 19 19 20 20
REMARK H PARENT
REMARK Flexibility Score: inf
ROOT
ATOM      1  C   UNL     1      31.599  26.386 -16.037  1.00  0.00     0.000 C 
ENDROOT
BRANCH   1   2
ATOM      2  C   UNL     1      30.323  27.133 -15.612  1.00  0.00     0.000 C 
BRANCH   2   3
ATOM      3  C   UNL     1      29.611  27.893 -16.748  1.00  0.00     0.000 C 
BRANCH   3   4
ATOM      4  C   UNL     1      28.095  27.613 -16.825  1.00  0.00     0.000 C 
BRANCH   4   5
ATOM      5  C   UNL     1      27.761  26.139 -16.541  1.00  0.00     0.000 C 
BRANCH   5   6
ATOM      6  C   UNL     1      26.734  25.557 -17.531  1.00  0.00     0.006 C 
BRANCH   6   7
ATOM      7  C   UNL     1      27.281  24.427 -18.417  1.00  0.00     0.053 C 
BRANCH   7   8
ATOM      8  C   UNL     1      26.675  24.447 -19.787  1.00  0.00     0.041 C 
ATOM      9  O   UNL     1      25.702  25.205 -20.039  1.00  0.00    -0.550 OA
ATOM     10  O   UNL     1      27.166  23.604 -20.776  1.00  0.00    -0.550 OA
ENDBRANCH   7   8
ENDBRANCH   6   7
ENDBRANCH   5   6
ENDBRANCH   4   5
ENDBRANCH   3   4
ENDBRANCH   2   3
ENDBRANCH   1   2
BRANCH   1  11
ATOM     11  C   UNL     1      31.508  24.849 -15.951  1.00  0.00     0.000 C 
BRANCH  11  12
ATOM     12  C   UNL     1      30.767  24.204 -17.142  1.00  0.00     0.000 C 
BRANCH  12  13
ATOM     13  C   UNL     1      30.245  22.796 -16.808  1.00  0.00     0.000 C 
BRANCH  13  14
ATOM     14  C   UNL     1      29.906  22.626 -15.318  1.00  0.00     0.000 C 
BRANCH  14  15
ATOM     15  C   UNL     1      28.427  22.908 -15.010  1.00  0.00     0.000 C 
BRANCH  15  16
ATOM     16  C   UNL     1      28.234  23.268 -13.530  1.00  0.00     0.006 C 
BRANCH  16  17
ATOM     17  C   UNL     1      27.775  24.719 -13.339  1.00  0.00     0.053 C 
BRANCH  17  18
ATOM     18  C   UNL     1      28.846  25.565 -12.724  1.00  0.00     0.041 C 
ATOM     19  O   UNL     1      30.023  25.127 -12.626  1.00  0.00    -0.550 OA
ATOM     20  O   UNL     1      28.538  26.825 -12.225  1.00  0.00    -0.550 OA
ENDBRANCH  17  18
ENDBRANCH  16  17
ENDBRANCH  15  16
ENDBRANCH  14  15
ENDBRANCH  13  14
ENDBRANCH  12  13
ENDBRANCH  11  12
ENDBRANCH   1  11
TORSDOF 15
ENDMDL
