MODEL 1
REMARK VINA RESULT:    -4.956      0.000      0.000
REMARK INTER + INTRA:          -5.342
REMARK INTER:                  -5.246
REMARK INTRA:                  -0.096
REMARK UNBOUND:                -0.096
REMARK SMILES C=C(C)[C@H]1CC=C(C)C(=O)C1
REMARK SMILES IDX 8 1 7 2 6 3 5 4 4 5 11 6 9 7 10 8 2 9 1 10 3 11
REMARK H PARENT
REMARK Flexibility Score: inf
ROOT
ATOM      1  C   UNL     1      12.750 -28.916  24.605  1.00  0.00     0.048 C 
ATOM      2  C   UNL     1      13.285 -29.964  23.667  1.00  0.00    -0.012 C 
ATOM      3  C   UNL     1      14.514 -30.471  23.861  1.00  0.00    -0.019 C 
ATOM      4  C   UNL     1      15.104 -31.508  22.942  1.00  0.00     0.036 C 
ATOM      5  C   UNL     1      14.010 -32.432  22.372  1.00  0.00     0.025 C 
ATOM      6  C   UNL     1      12.913 -31.598  21.683  1.00  0.00     0.089 C 
ATOM      7  C   UNL     1      12.409 -30.522  22.606  1.00  0.00     0.158 C 
ATOM      8  O   UNL     1      11.242 -30.072  22.445  1.00  0.00    -0.295 OA
ENDROOT
BRANCH   5   9
ATOM      9  C   UNL     1      14.592 -33.480  21.433  1.00  0.00    -0.077 C 
ATOM     10  C   UNL     1      14.280 -33.496  20.126  1.00  0.00     0.008 C 
ATOM     11  C   UNL     1      15.537 -34.528  21.962  1.00  0.00     0.039 C 
ENDBRANCH   5   9
TORSDOF 1
ENDMDL
MODEL 2
REMARK VINA RESULT:    -4.948      2.106      4.415
REMARK INTER + INTRA:          -5.334
REMARK INTER:                  -5.238
REMARK INTRA:                  -0.096
REMARK UNBOUND:                -0.096
REMARK SMILES C=C(C)[C@H]1CC=C(C)C(=O)C1
REMARK SMILES IDX 8 1 7 2 6 3 5 4 4 5 11 6 9 7 10 8 2 9 1 10 3 11
REMARK H PARENT
REMARK Flexibility Score: inf
ROOT
ATOM      1  C   UNL     1      16.414 -35.034  22.935  1.00  0.00     0.048 C 
ATOM      2  C   UNL     1      15.358 -33.966  23.010  1.00  0.00    -0.012 C 
ATOM      3  C   UNL     1      14.973 -33.489  24.205  1.00  0.00    -0.019 C 
ATOM      4  C   UNL     1      13.907 -32.433  24.338  1.00  0.00     0.036 C 
ATOM      5  C   UNL     1      13.928 -31.469  23.136  1.00  0.00     0.025 C 
ATOM      6  C   UNL     1      13.807 -32.258  21.818  1.00  0.00     0.089 C 
ATOM      7  C   UNL     1      14.835 -33.355  21.762  1.00  0.00     0.158 C 
ATOM      8  O   UNL     1      15.222 -33.776  20.639  1.00  0.00    -0.295 OA
ENDROOT
BRANCH   5   9
ATOM      9  C   UNL     1      12.850 -30.401  23.252  1.00  0.00    -0.077 C 
ATOM     10  C   UNL     1      11.802 -30.370  22.410  1.00  0.00     0.008 C 
ATOM     11  C   UNL     1      12.941 -29.348  24.327  1.00  0.00     0.039 C 
ENDBRANCH   5   9
TORSDOF 1
ENDMDL
MODEL 3
REMARK VINA RESULT:    -4.936      2.069      4.714
REMARK INTER + INTRA:          -5.320
REMARK INTER:                  -5.224
REMARK INTRA:                  -0.097
REMARK UNBOUND:                -0.096
REMARK SMILES C=C(C)[C@H]1CC=C(C)C(=O)C1
REMARK SMILES IDX 8 1 7 2 6 3 5 4 4 5 11 6 9 7 10 8 2 9 1 10 3 11
REMARK H PARENT
REMARK Flexibility Score: inf
ROOT
ATOM      1  C   UNL     1      15.553 -34.883  21.553  1.00  0.00     0.048 C 
ATOM      2  C   UNL     1      14.925 -33.582  21.970  1.00  0.00    -0.012 C 
ATOM      3  C   UNL     1      14.214 -32.866  21.082  1.00  0.00    -0.019 C 
ATOM      4  C   UNL     1      13.580 -31.549  21.442  1.00  0.00     0.036 C 
ATOM      5  C   UNL     1      13.142 -31.529  22.919  1.00  0.00     0.025 C 
ATOM      6  C   UNL     1      14.333 -31.872  23.834  1.00  0.00     0.089 C 
ATOM      7  C   UNL     1      14.989 -33.152  23.390  1.00  0.00     0.158 C 
ATOM      8  O   UNL     1      15.625 -33.840  24.233  1.00  0.00    -0.295 OA
ENDROOT
BRANCH   5   9
ATOM      9  C   UNL     1      12.507 -30.198  23.299  1.00  0.00    -0.077 C 
ATOM     10  C   UNL     1      13.052 -29.407  24.240  1.00  0.00     0.008 C 
ATOM     11  C   UNL     1      11.243 -29.741  22.618  1.00  0.00     0.039 C 
ENDBRANCH   5   9
TORSDOF 1
ENDMDL
MODEL 4
REMARK VINA RESULT:    -4.914      0.768      1.315
REMARK INTER + INTRA:          -5.298
REMARK INTER:                  -5.205
REMARK INTRA:                  -0.092
REMARK UNBOUND:                -0.096
REMARK SMILES C=C(C)[C@H]1CC=C(C)C(=O)C1
REMARK SMILES IDX 8 1 7 2 6 3 5 4 4 5 11 6 9 7 10 8 2 9 1 10 3 11
REMARK H PARENT
REMARK Flexibility Score: inf
ROOT
ATOM      1  C   UNL     1      12.008 -28.318  24.582  1.00  0.00     0.048 C 
ATOM      2  C   UNL     1      12.713 -29.426  23.849  1.00  0.00    -0.012 C 
ATOM      3  C   UNL     1      13.918 -29.846  24.269  1.00  0.00    -0.019 C 
ATOM      4  C   UNL     1      14.675 -30.939  23.561  1.00  0.00     0.036 C 
ATOM      5  C   UNL     1      13.711 -31.972  22.947  1.00  0.00     0.025 C 
ATOM      6  C   UNL     1      12.697 -31.273  22.022  1.00  0.00     0.089 C 
ATOM      7  C   UNL     1      12.023 -30.135  22.742  1.00  0.00     0.158 C 
ATOM      8  O   UNL     1      10.877 -29.767  22.369  1.00  0.00    -0.295 OA
ENDROOT
BRANCH   5   9
ATOM      9  C   UNL     1      14.463 -33.080  22.220  1.00  0.00    -0.077 C 
ATOM     10  C   UNL     1      15.299 -33.904  22.875  1.00  0.00     0.008 C 
ATOM     11  C   UNL     1      14.279 -33.270  20.736  1.00  0.00     0.039 C 
ENDBRANCH   5   9
TORSDOF 1
ENDMDL
MODEL 5
REMARK VINA RESULT:    -4.864      8.523      9.469
REMARK INTER + INTRA:          -5.244
REMARK INTER:                  -5.149
REMARK INTRA:                  -0.095
REMARK UNBOUND:                -0.096
REMARK SMILES C=C(C)[C@H]1CC=C(C)C(=O)C1
REMARK SMILES IDX 8 1 7 2 6 3 5 4 4 5 11 6 9 7 10 8 2 9 1 10 3 11
REMARK H PARENT
REMARK Flexibility Score: inf
ROOT
ATOM      1  C   UNL     1      23.356 -24.885  19.677  1.00  0.00     0.048 C 
ATOM      2  C   UNL     1      22.447 -25.942  20.241  1.00  0.00    -0.012 C 
ATOM      3  C   UNL     1      21.115 -25.770  20.201  1.00  0.00    -0.019 C 
ATOM      4  C   UNL     1      20.161 -26.789  20.767  1.00  0.00     0.036 C 
ATOM      5  C   UNL     1      20.721 -28.217  20.618  1.00  0.00     0.025 C 
ATOM      6  C   UNL     1      22.120 -28.310  21.257  1.00  0.00     0.089 C 
ATOM      7  C   UNL     1      23.017 -27.225  20.726  1.00  0.00     0.158 C 
ATOM      8  O   UNL     1      24.265 -27.403  20.730  1.00  0.00    -0.295 OA
ENDROOT
BRANCH   5   9
ATOM      9  C   UNL     1      19.770 -29.257  21.195  1.00  0.00    -0.077 C 
ATOM     10  C   UNL     1      18.440 -29.061  21.201  1.00  0.00     0.008 C 
ATOM     11  C   UNL     1      20.313 -30.538  21.776  1.00  0.00     0.039 C 
ENDBRANCH   5   9
TORSDOF 1
ENDMDL
MODEL 6
REMARK VINA RESULT:    -4.751      1.824      3.036
REMARK INTER + INTRA:          -5.125
REMARK INTER:                  -5.031
REMARK INTRA:                  -0.094
REMARK UNBOUND:                -0.096
REMARK SMILES C=C(C)[C@H]1CC=C(C)C(=O)C1
REMARK SMILES IDX 8 1 7 2 6 3 5 4 4 5 11 6 9 7 10 8 2 9 1 10 3 11
REMARK H PARENT
REMARK Flexibility Score: inf
ROOT
ATOM      1  C   UNL     1      11.062 -30.944  21.654  1.00  0.00     0.048 C 
ATOM      2  C   UNL     1      12.483 -31.036  22.137  1.00  0.00    -0.012 C 
ATOM      3  C   UNL     1      12.825 -30.494  23.318  1.00  0.00    -0.019 C 
ATOM      4  C   UNL     1      14.237 -30.542  23.841  1.00  0.00     0.036 C 
ATOM      5  C   UNL     1      14.952 -31.830  23.391  1.00  0.00     0.025 C 
ATOM      6  C   UNL     1      14.893 -31.966  21.857  1.00  0.00     0.089 C 
ATOM      7  C   UNL     1      13.476 -31.830  21.369  1.00  0.00     0.158 C 
ATOM      8  O   UNL     1      13.148 -32.370  20.278  1.00  0.00    -0.295 OA
ENDROOT
BRANCH   5   9
ATOM      9  C   UNL     1      16.384 -31.887  23.904  1.00  0.00    -0.077 C 
ATOM     10  C   UNL     1      17.184 -30.807  23.865  1.00  0.00     0.008 C 
ATOM     11  C   UNL     1      16.933 -33.171  24.472  1.00  0.00     0.039 C 
ENDBRANCH   5   9
TORSDOF 1
ENDMDL
MODEL 7
REMARK VINA RESULT:    -4.748      9.372     10.649
REMARK INTER + INTRA:          -5.122
REMARK INTER:                  -5.028
REMARK INTRA:                  -0.094
REMARK UNBOUND:                -0.096
REMARK SMILES C=C(C)[C@H]1CC=C(C)C(=O)C1
REMARK SMILES IDX 8 1 7 2 6 3 5 4 4 5 11 6 9 7 10 8 2 9 1 10 3 11
REMARK H PARENT
REMARK Flexibility Score: inf
ROOT
ATOM      1  C   UNL     1      19.568 -28.926  21.230  1.00  0.00     0.048 C 
ATOM      2  C   UNL     1      20.603 -27.851  21.042  1.00  0.00    -0.012 C 
ATOM      3  C   UNL     1      20.291 -26.734  20.365  1.00  0.00    -0.019 C 
ATOM      4  C   UNL     1      21.294 -25.634  20.132  1.00  0.00     0.036 C 
ATOM      5  C   UNL     1      22.283 -25.527  21.309  1.00  0.00     0.025 C 
ATOM      6  C   UNL     1      22.958 -26.889  21.564  1.00  0.00     0.089 C 
ATOM      7  C   UNL     1      21.924 -27.973  21.708  1.00  0.00     0.158 C 
ATOM      8  O   UNL     1      22.206 -29.004  22.375  1.00  0.00    -0.295 OA
ENDROOT
BRANCH   5   9
ATOM      9  C   UNL     1      23.309 -24.425  21.082  1.00  0.00    -0.077 C 
ATOM     10  C   UNL     1      23.993 -24.333  19.928  1.00  0.00     0.008 C 
ATOM     11  C   UNL     1      23.578 -23.409  22.162  1.00  0.00     0.039 C 
ENDBRANCH   5   9
TORSDOF 1
ENDMDL
MODEL 8
REMARK VINA RESULT:    -4.739      9.802     10.633
REMARK INTER + INTRA:          -5.112
REMARK INTER:                  -5.022
REMARK INTRA:                  -0.090
REMARK UNBOUND:                -0.096
REMARK SMILES C=C(C)[C@H]1CC=C(C)C(=O)C1
REMARK SMILES IDX 8 1 7 2 6 3 5 4 4 5 11 6 9 7 10 8 2 9 1 10 3 11
REMARK H PARENT
REMARK Flexibility Score: inf
ROOT
ATOM      1  C   UNL     1      24.018 -23.016  21.626  1.00  0.00     0.048 C 
ATOM      2  C   UNL     1      23.323 -24.343  21.491  1.00  0.00    -0.012 C 
ATOM      3  C   UNL     1      22.705 -24.886  22.554  1.00  0.00    -0.019 C 
ATOM      4  C   UNL     1      22.010 -26.220  22.479  1.00  0.00     0.036 C 
ATOM      5  C   UNL     1      21.407 -26.453  21.081  1.00  0.00     0.025 C 
ATOM      6  C   UNL     1      22.492 -26.299  19.998  1.00  0.00     0.089 C 
ATOM      7  C   UNL     1      23.217 -24.990  20.159  1.00  0.00     0.158 C 
ATOM      8  O   UNL     1      23.765 -24.464  19.153  1.00  0.00    -0.295 OA
ENDROOT
BRANCH   5   9
ATOM      9  C   UNL     1      20.709 -27.804  20.987  1.00  0.00    -0.077 C 
ATOM     10  C   UNL     1      19.469 -27.916  20.480  1.00  0.00     0.008 C 
ATOM     11  C   UNL     1      21.406 -29.050  21.468  1.00  0.00     0.039 C 
ENDBRANCH   5   9
TORSDOF 1
ENDMDL
MODEL 9
REMARK VINA RESULT:    -4.680      2.623      3.826
REMARK INTER + INTRA:          -5.050
REMARK INTER:                  -4.960
REMARK INTRA:                  -0.090
REMARK UNBOUND:                -0.096
REMARK SMILES C=C(C)[C@H]1CC=C(C)C(=O)C1
REMARK SMILES IDX 8 1 7 2 6 3 5 4 4 5 11 6 9 7 10 8 2 9 1 10 3 11
REMARK H PARENT
REMARK Flexibility Score: inf
ROOT
ATOM      1  C   UNL     1      14.157 -33.072  24.540  1.00  0.00     0.048 C 
ATOM      2  C   UNL     1      14.946 -33.614  23.381  1.00  0.00    -0.012 C 
ATOM      3  C   UNL     1      15.872 -34.566  23.588  1.00  0.00    -0.019 C 
ATOM      4  C   UNL     1      16.703 -35.131  22.466  1.00  0.00     0.036 C 
ATOM      5  C   UNL     1      15.909 -35.155  21.146  1.00  0.00     0.025 C 
ATOM      6  C   UNL     1      15.369 -33.749  20.821  1.00  0.00     0.089 C 
ATOM      7  C   UNL     1      14.616 -33.188  21.997  1.00  0.00     0.158 C 
ATOM      8  O   UNL     1      13.723 -32.322  21.797  1.00  0.00    -0.295 OA
ENDROOT
BRANCH   5   9
ATOM      9  C   UNL     1      16.740 -35.716  19.999  1.00  0.00    -0.077 C 
ATOM     10  C   UNL     1      16.854 -37.041  19.802  1.00  0.00     0.008 C 
ATOM     11  C   UNL     1      17.455 -34.782  19.058  1.00  0.00     0.039 C 
ENDBRANCH   5   9
TORSDOF 1
ENDMDL
