MODEL 1
REMARK VINA RESULT:    -4.832      0.000      0.000
REMARK INTER + INTRA:         -10.017
REMARK INTER:                  -7.515
REMARK INTRA:                  -2.502
REMARK UNBOUND:                -2.502
REMARK SMILES COc1cc(CNC(=O)CCCCC=CC(C)C)ccc1O
REMARK SMILES IDX 11 1 12 2 13 3 14 4 15 5 16 6 17 7 18 8 10 9 8 10 9 11 7 12
REMARK SMILES IDX 6 14 5 15 4 16 19 17 3 18 20 19 21 20 2 21 1 22 22 23
REMARK H PARENT 7 13 22 24
REMARK Flexibility Score: inf
ROOT
ATOM      1  C   UNL     1     117.873 114.833 144.192  1.00  0.00     0.010 C 
ENDROOT
BRANCH   1   2
ATOM      2  C   UNL     1     116.527 115.495 144.510  1.00  0.00     0.005 C 
BRANCH   2   3
ATOM      3  C   UNL     1     115.382 114.795 143.767  1.00  0.00     0.027 C 
BRANCH   3   4
ATOM      4  C   UNL     1     114.608 115.768 142.920  1.00  0.00    -0.031 C 
ATOM      5  C   UNL     1     115.011 117.043 142.772  1.00  0.00    -0.028 C 
BRANCH   5   6
ATOM      6  C   UNL     1     114.247 118.053 141.945  1.00  0.00     0.005 C 
ATOM      7  C   UNL     1     113.141 117.378 141.126  1.00  0.00     0.012 C 
ATOM      8  C   UNL     1     115.186 118.868 141.048  1.00  0.00     0.012 C 
ENDBRANCH   5   6
ENDBRANCH   3   4
ENDBRANCH   2   3
ENDBRANCH   1   2
BRANCH   1   9
ATOM      9  C   UNL     1     118.913 115.878 143.763  1.00  0.00     0.100 C 
BRANCH   9  10
ATOM     10  C   UNL     1     118.538 116.516 142.456  1.00  0.00     0.220 C 
ATOM     11  O   UNL     1     118.442 117.773 142.380  1.00  0.00    -0.275 OA
ATOM     12  N   UNL     1     118.338 115.704 141.288  1.00  0.00    -0.352 N 
ATOM     13  H   UNL     1     118.495 114.672 141.350  1.00  0.00     0.163 HD
BRANCH  12  14
ATOM     14  C   UNL     1     117.811 116.245 140.038  1.00  0.00     0.151 C 
BRANCH  14  15
ATOM     15  C   UNL     1     116.585 115.476 139.627  1.00  0.00    -0.025 A 
ATOM     16  C   UNL     1     116.308 114.232 140.217  1.00  0.00     0.056 A 
ATOM     17  C   UNL     1     115.684 116.016 138.697  1.00  0.00     0.009 A 
ATOM     18  C   UNL     1     115.146 113.515 139.869  1.00  0.00     0.160 A 
ATOM     19  C   UNL     1     114.529 115.311 138.349  1.00  0.00     0.050 A 
ATOM     20  C   UNL     1     114.255 114.066 138.928  1.00  0.00     0.157 A 
BRANCH  18  21
ATOM     21  O   UNL     1     114.846 112.264 140.435  1.00  0.00    -0.493 OA
ATOM     22  C   UNL     1     114.021 112.070 141.579  1.00  0.00     0.278 C 
ENDBRANCH  18  21
BRANCH  20  23
ATOM     23  O   UNL     1     113.092 113.393 138.555  1.00  0.00    -0.504 OA
ATOM     24  H   UNL     1     112.694 113.477 137.627  1.00  0.00     0.293 HD
ENDBRANCH  20  23
ENDBRANCH  14  15
ENDBRANCH  12  14
ENDBRANCH   9  10
ENDBRANCH   1   9
TORSDOF 10
ENDMDL
MODEL 2
REMARK VINA RESULT:    -4.818      2.063      5.647
REMARK INTER + INTRA:          -9.996
REMARK INTER:                  -7.880
REMARK INTRA:                  -2.116
REMARK UNBOUND:                -2.502
REMARK SMILES COc1cc(CNC(=O)CCCCC=CC(C)C)ccc1O
REMARK SMILES IDX 11 1 12 2 13 3 14 4 15 5 16 6 17 7 18 8 10 9 8 10 9 11 7 12
REMARK SMILES IDX 6 14 5 15 4 16 19 17 3 18 20 19 21 20 2 21 1 22 22 23
REMARK H PARENT 7 13 22 24
REMARK Flexibility Score: inf
ROOT
ATOM      1  C   UNL     1     113.891 113.436 138.884  1.00  0.00     0.010 C 
ENDROOT
BRANCH   1   2
ATOM      2  C   UNL     1     114.712 112.932 140.076  1.00  0.00     0.005 C 
BRANCH   2   3
ATOM      3  C   UNL     1     115.954 113.805 140.296  1.00  0.00     0.027 C 
BRANCH   3   4
ATOM      4  C   UNL     1     116.036 114.289 141.718  1.00  0.00    -0.031 C 
ATOM      5  C   UNL     1     117.198 114.706 142.250  1.00  0.00    -0.028 C 
BRANCH   5   6
ATOM      6  C   UNL     1     117.320 115.179 143.681  1.00  0.00     0.005 C 
ATOM      7  C   UNL     1     116.001 115.778 144.184  1.00  0.00     0.012 C 
ATOM      8  C   UNL     1     118.480 116.168 143.848  1.00  0.00     0.012 C 
ENDBRANCH   5   6
ENDBRANCH   3   4
ENDBRANCH   2   3
ENDBRANCH   1   2
BRANCH   1   9
ATOM      9  C   UNL     1     112.481 113.857 139.323  1.00  0.00     0.100 C 
BRANCH   9  10
ATOM     10  C   UNL     1     112.535 114.961 140.341  1.00  0.00     0.220 C 
ATOM     11  O   UNL     1     112.054 114.772 141.494  1.00  0.00    -0.275 OA
ATOM     12  N   UNL     1     113.173 116.207 140.020  1.00  0.00    -0.352 N 
ATOM     13  H   UNL     1     113.631 116.322 139.087  1.00  0.00     0.163 HD
BRANCH  12  14
ATOM     14  C   UNL     1     113.109 117.370 140.902  1.00  0.00     0.151 C 
BRANCH  14  15
ATOM     15  C   UNL     1     114.500 117.854 141.208  1.00  0.00    -0.025 A 
ATOM     16  C   UNL     1     115.568 117.495 140.369  1.00  0.00     0.056 A 
ATOM     17  C   UNL     1     114.734 118.708 142.296  1.00  0.00     0.009 A 
ATOM     18  C   UNL     1     116.871 117.969 140.623  1.00  0.00     0.160 A 
ATOM     19  C   UNL     1     116.022 119.182 142.553  1.00  0.00     0.050 A 
ATOM     20  C   UNL     1     117.090 118.819 141.723  1.00  0.00     0.157 A 
BRANCH  18  21
ATOM     21  O   UNL     1     117.961 117.620 139.807  1.00  0.00    -0.493 OA
ATOM     22  C   UNL     1     118.178 118.117 138.490  1.00  0.00     0.278 C 
ENDBRANCH  18  21
BRANCH  20  23
ATOM     23  O   UNL     1     118.362 119.313 142.010  1.00  0.00    -0.504 OA
ATOM     24  H   UNL     1     118.844 119.955 141.391  1.00  0.00     0.293 HD
ENDBRANCH  20  23
ENDBRANCH  14  15
ENDBRANCH  12  14
ENDBRANCH   9  10
ENDBRANCH   1   9
TORSDOF 10
ENDMDL
MODEL 3
REMARK VINA RESULT:    -4.740      1.691      5.214
REMARK INTER + INTRA:          -9.875
REMARK INTER:                  -7.919
REMARK INTRA:                  -1.956
REMARK UNBOUND:                -2.502
REMARK SMILES COc1cc(CNC(=O)CCCCC=CC(C)C)ccc1O
REMARK SMILES IDX 11 1 12 2 13 3 14 4 15 5 16 6 17 7 18 8 10 9 8 10 9 11 7 12
REMARK SMILES IDX 6 14 5 15 4 16 19 17 3 18 20 19 21 20 2 21 1 22 22 23
REMARK H PARENT 7 13 22 24
REMARK Flexibility Score: inf
ROOT
ATOM      1  C   UNL     1     113.913 113.416 142.101  1.00  0.00     0.010 C 
ENDROOT
BRANCH   1   2
ATOM      2  C   UNL     1     115.174 114.085 142.660  1.00  0.00     0.005 C 
BRANCH   2   3
ATOM      3  C   UNL     1     114.889 115.536 143.071  1.00  0.00     0.027 C 
BRANCH   3   4
ATOM      4  C   UNL     1     116.037 116.115 143.852  1.00  0.00    -0.031 C 
ATOM      5  C   UNL     1     117.225 115.490 143.919  1.00  0.00    -0.028 C 
BRANCH   5   6
ATOM      6  C   UNL     1     118.393 116.033 144.711  1.00  0.00     0.005 C 
ATOM      7  C   UNL     1     119.437 114.945 144.982  1.00  0.00     0.012 C 
ATOM      8  C   UNL     1     117.926 116.694 146.014  1.00  0.00     0.012 C 
ENDBRANCH   5   6
ENDBRANCH   3   4
ENDBRANCH   2   3
ENDBRANCH   1   2
BRANCH   1   9
ATOM      9  C   UNL     1     114.232 112.609 140.834  1.00  0.00     0.100 C 
BRANCH   9  10
ATOM     10  C   UNL     1     115.002 113.434 139.843  1.00  0.00     0.220 C 
ATOM     11  O   UNL     1     115.993 112.927 139.246  1.00  0.00    -0.275 OA
ATOM     12  N   UNL     1     114.584 114.774 139.540  1.00  0.00    -0.352 N 
ATOM     13  H   UNL     1     113.717 115.152 139.987  1.00  0.00     0.163 HD
BRANCH  12  14
ATOM     14  C   UNL     1     115.384 115.678 138.717  1.00  0.00     0.151 C 
BRANCH  14  15
ATOM     15  C   UNL     1     116.322 116.465 139.591  1.00  0.00    -0.025 A 
ATOM     16  C   UNL     1     115.869 117.628 140.237  1.00  0.00     0.056 A 
ATOM     17  C   UNL     1     117.633 116.018 139.813  1.00  0.00     0.009 A 
ATOM     18  C   UNL     1     116.725 118.356 141.087  1.00  0.00     0.160 A 
ATOM     19  C   UNL     1     118.486 116.735 140.655  1.00  0.00     0.050 A 
ATOM     20  C   UNL     1     118.041 117.899 141.292  1.00  0.00     0.157 A 
BRANCH  18  21
ATOM     21  O   UNL     1     116.304 119.528 141.739  1.00  0.00    -0.493 OA
ATOM     22  C   UNL     1     114.952 119.824 142.078  1.00  0.00     0.278 C 
ENDBRANCH  18  21
BRANCH  20  23
ATOM     23  O   UNL     1     118.921 118.588 142.127  1.00  0.00    -0.504 OA
ATOM     24  H   UNL     1     118.927 118.455 143.131  1.00  0.00     0.293 HD
ENDBRANCH  20  23
ENDBRANCH  14  15
ENDBRANCH  12  14
ENDBRANCH   9  10
ENDBRANCH   1   9
TORSDOF 10
ENDMDL
MODEL 4
REMARK VINA RESULT:    -4.710      2.587      6.169
REMARK INTER + INTRA:          -9.828
REMARK INTER:                  -8.451
REMARK INTRA:                  -1.377
REMARK UNBOUND:                -2.502
REMARK SMILES COc1cc(CNC(=O)CCCCC=CC(C)C)ccc1O
REMARK SMILES IDX 11 1 12 2 13 3 14 4 15 5 16 6 17 7 18 8 10 9 8 10 9 11 7 12
REMARK SMILES IDX 6 14 5 15 4 16 19 17 3 18 20 19 21 20 2 21 1 22 22 23
REMARK H PARENT 7 13 22 24
REMARK Flexibility Score: inf
ROOT
ATOM      1  C   UNL     1     113.199 113.138 138.871  1.00  0.00     0.010 C 
ENDROOT
BRANCH   1   2
ATOM      2  C   UNL     1     112.504 111.792 139.110  1.00  0.00     0.005 C 
BRANCH   2   3
ATOM      3  C   UNL     1     113.308 110.924 140.086  1.00  0.00     0.027 C 
BRANCH   3   4
ATOM      4  C   UNL     1     114.130 111.773 141.018  1.00  0.00    -0.031 C 
ATOM      5  C   UNL     1     113.739 112.001 142.285  1.00  0.00    -0.028 C 
BRANCH   5   6
ATOM      6  C   UNL     1     114.530 112.865 143.242  1.00  0.00     0.005 C 
ATOM      7  C   UNL     1     115.363 113.909 142.491  1.00  0.00     0.012 C 
ATOM      8  C   UNL     1     115.406 112.015 144.170  1.00  0.00     0.012 C 
ENDBRANCH   5   6
ENDBRANCH   3   4
ENDBRANCH   2   3
ENDBRANCH   1   2
BRANCH   1   9
ATOM      9  C   UNL     1     112.185 114.290 138.872  1.00  0.00     0.100 C 
BRANCH   9  10
ATOM     10  C   UNL     1     112.333 115.145 140.098  1.00  0.00     0.220 C 
ATOM     11  O   UNL     1     111.897 114.727 141.207  1.00  0.00    -0.275 OA
ATOM     12  N   UNL     1     113.010 116.409 140.018  1.00  0.00    -0.352 N 
ATOM     13  H   UNL     1     113.431 116.707 139.108  1.00  0.00     0.163 HD
BRANCH  12  14
ATOM     14  C   UNL     1     113.037 117.355 141.131  1.00  0.00     0.151 C 
BRANCH  14  15
ATOM     15  C   UNL     1     114.446 117.828 141.363  1.00  0.00    -0.025 A 
ATOM     16  C   UNL     1     115.475 117.418 140.498  1.00  0.00     0.056 A 
ATOM     17  C   UNL     1     114.736 118.721 142.406  1.00  0.00     0.009 A 
ATOM     18  C   UNL     1     116.793 117.881 140.681  1.00  0.00     0.160 A 
ATOM     19  C   UNL     1     116.040 119.184 142.592  1.00  0.00     0.050 A 
ATOM     20  C   UNL     1     117.069 118.770 141.737  1.00  0.00     0.157 A 
BRANCH  18  21
ATOM     21  O   UNL     1     117.845 117.481 139.838  1.00  0.00    -0.493 OA
ATOM     22  C   UNL     1     118.157 118.091 138.590  1.00  0.00     0.278 C 
ENDBRANCH  18  21
BRANCH  20  23
ATOM     23  O   UNL     1     118.359 119.254 141.954  1.00  0.00    -0.504 OA
ATOM     24  H   UNL     1     118.550 120.006 142.606  1.00  0.00     0.293 HD
ENDBRANCH  20  23
ENDBRANCH  14  15
ENDBRANCH  12  14
ENDBRANCH   9  10
ENDBRANCH   1   9
TORSDOF 10
ENDMDL
MODEL 5
REMARK VINA RESULT:    -4.672      2.014      5.381
REMARK INTER + INTRA:          -9.769
REMARK INTER:                  -7.713
REMARK INTRA:                  -2.056
REMARK UNBOUND:                -2.502
REMARK SMILES COc1cc(CNC(=O)CCCCC=CC(C)C)ccc1O
REMARK SMILES IDX 11 1 12 2 13 3 14 4 15 5 16 6 17 7 18 8 10 9 8 10 9 11 7 12
REMARK SMILES IDX 6 14 5 15 4 16 19 17 3 18 20 19 21 20 2 21 1 22 22 23
REMARK H PARENT 7 13 22 24
REMARK Flexibility Score: inf
ROOT
ATOM      1  C   UNL     1     112.617 111.013 140.217  1.00  0.00     0.010 C 
ENDROOT
BRANCH   1   2
ATOM      2  C   UNL     1     114.052 110.875 140.740  1.00  0.00     0.005 C 
BRANCH   2   3
ATOM      3  C   UNL     1     114.126 111.213 142.235  1.00  0.00     0.027 C 
BRANCH   3   4
ATOM      4  C   UNL     1     114.468 112.663 142.449  1.00  0.00    -0.031 C 
ATOM      5  C   UNL     1     113.847 113.397 143.389  1.00  0.00    -0.028 C 
BRANCH   5   6
ATOM      6  C   UNL     1     114.151 114.861 143.617  1.00  0.00     0.005 C 
ATOM      7  C   UNL     1     113.689 115.717 142.432  1.00  0.00     0.012 C 
ATOM      8  C   UNL     1     115.638 115.084 143.918  1.00  0.00     0.012 C 
ENDBRANCH   5   6
ENDBRANCH   3   4
ENDBRANCH   2   3
ENDBRANCH   1   2
BRANCH   1   9
ATOM      9  C   UNL     1     112.588 111.762 138.877  1.00  0.00     0.100 C 
BRANCH   9  10
ATOM     10  C   UNL     1     112.949 113.209 139.055  1.00  0.00     0.220 C 
ATOM     11  O   UNL     1     112.201 113.960 139.743  1.00  0.00    -0.275 OA
ATOM     12  N   UNL     1     114.162 113.725 138.486  1.00  0.00    -0.352 N 
ATOM     13  H   UNL     1     114.808 113.074 137.982  1.00  0.00     0.163 HD
BRANCH  12  14
ATOM     14  C   UNL     1     114.482 115.150 138.480  1.00  0.00     0.151 C 
BRANCH  14  15
ATOM     15  C   UNL     1     115.665 115.411 139.372  1.00  0.00    -0.025 A 
ATOM     16  C   UNL     1     115.969 116.724 139.767  1.00  0.00     0.056 A 
ATOM     17  C   UNL     1     116.437 114.346 139.860  1.00  0.00     0.009 A 
ATOM     18  C   UNL     1     117.053 116.981 140.630  1.00  0.00     0.160 A 
ATOM     19  C   UNL     1     117.511 114.594 140.718  1.00  0.00     0.050 A 
ATOM     20  C   UNL     1     117.823 115.902 141.105  1.00  0.00     0.157 A 
BRANCH  18  21
ATOM     21  O   UNL     1     117.388 118.285 141.035  1.00  0.00    -0.493 OA
ATOM     22  C   UNL     1     116.594 119.093 141.898  1.00  0.00     0.278 C 
ENDBRANCH  18  21
BRANCH  20  23
ATOM     23  O   UNL     1     118.902 116.110 141.964  1.00  0.00    -0.504 OA
ATOM     24  H   UNL     1     119.630 115.417 142.092  1.00  0.00     0.293 HD
ENDBRANCH  20  23
ENDBRANCH  14  15
ENDBRANCH  12  14
ENDBRANCH   9  10
ENDBRANCH   1   9
TORSDOF 10
ENDMDL
MODEL 6
REMARK VINA RESULT:    -4.592      2.432      4.895
REMARK INTER + INTRA:          -9.644
REMARK INTER:                  -7.375
REMARK INTRA:                  -2.269
REMARK UNBOUND:                -2.502
REMARK SMILES COc1cc(CNC(=O)CCCCC=CC(C)C)ccc1O
REMARK SMILES IDX 11 1 12 2 13 3 14 4 15 5 16 6 17 7 18 8 10 9 8 10 9 11 7 12
REMARK SMILES IDX 6 14 5 15 4 16 19 17 3 18 20 19 21 20 2 21 1 22 22 23
REMARK H PARENT 7 13 22 24
REMARK Flexibility Score: inf
ROOT
ATOM      1  C   UNL     1     113.551 116.802 144.838  1.00  0.00     0.010 C 
ENDROOT
BRANCH   1   2
ATOM      2  C   UNL     1     114.576 115.819 144.260  1.00  0.00     0.005 C 
BRANCH   2   3
ATOM      3  C   UNL     1     113.900 114.511 143.831  1.00  0.00     0.027 C 
BRANCH   3   4
ATOM      4  C   UNL     1     114.200 114.189 142.392  1.00  0.00    -0.031 C 
ATOM      5  C   UNL     1     115.195 114.805 141.730  1.00  0.00    -0.028 C 
BRANCH   5   6
ATOM      6  C   UNL     1     115.511 114.522 140.278  1.00  0.00     0.005 C 
ATOM      7  C   UNL     1     117.008 114.265 140.074  1.00  0.00     0.012 C 
ATOM      8  C   UNL     1     115.009 115.647 139.365  1.00  0.00     0.012 C 
ENDBRANCH   5   6
ENDBRANCH   3   4
ENDBRANCH   2   3
ENDBRANCH   1   2
BRANCH   1   9
ATOM      9  C   UNL     1     112.549 117.249 143.764  1.00  0.00     0.100 C 
BRANCH   9  10
ATOM     10  C   UNL     1     113.238 117.968 142.640  1.00  0.00     0.220 C 
ATOM     11  O   UNL     1     112.975 117.656 141.445  1.00  0.00    -0.275 OA
ATOM     12  N   UNL     1     114.156 119.036 142.922  1.00  0.00    -0.352 N 
ATOM     13  H   UNL     1     114.307 119.332 143.914  1.00  0.00     0.163 HD
BRANCH  12  14
ATOM     14  C   UNL     1     114.980 119.656 141.888  1.00  0.00     0.151 C 
BRANCH  14  15
ATOM     15  C   UNL     1     116.229 118.844 141.677  1.00  0.00    -0.025 A 
ATOM     16  C   UNL     1     116.840 118.202 142.767  1.00  0.00     0.056 A 
ATOM     17  C   UNL     1     116.761 118.676 140.390  1.00  0.00     0.009 A 
ATOM     18  C   UNL     1     117.990 117.409 142.581  1.00  0.00     0.160 A 
ATOM     19  C   UNL     1     117.900 117.891 140.198  1.00  0.00     0.050 A 
ATOM     20  C   UNL     1     118.516 117.257 141.284  1.00  0.00     0.157 A 
BRANCH  18  21
ATOM     21  O   UNL     1     118.628 116.762 143.653  1.00  0.00    -0.493 OA
ATOM     22  C   UNL     1     118.284 115.467 144.137  1.00  0.00     0.278 C 
ENDBRANCH  18  21
BRANCH  20  23
ATOM     23  O   UNL     1     119.651 116.480 141.053  1.00  0.00    -0.504 OA
ATOM     24  H   UNL     1     119.687 115.495 141.288  1.00  0.00     0.293 HD
ENDBRANCH  20  23
ENDBRANCH  14  15
ENDBRANCH  12  14
ENDBRANCH   9  10
ENDBRANCH   1   9
TORSDOF 10
ENDMDL
MODEL 7
REMARK VINA RESULT:    -4.554      1.670      5.254
REMARK INTER + INTRA:          -9.586
REMARK INTER:                  -7.841
REMARK INTRA:                  -1.745
REMARK UNBOUND:                -2.502
REMARK SMILES COc1cc(CNC(=O)CCCCC=CC(C)C)ccc1O
REMARK SMILES IDX 11 1 12 2 13 3 14 4 15 5 16 6 17 7 18 8 10 9 8 10 9 11 7 12
REMARK SMILES IDX 6 14 5 15 4 16 19 17 3 18 20 19 21 20 2 21 1 22 22 23
REMARK H PARENT 7 13 22 24
REMARK Flexibility Score: inf
ROOT
ATOM      1  C   UNL     1     113.971 112.827 142.283  1.00  0.00     0.010 C 
ENDROOT
BRANCH   1   2
ATOM      2  C   UNL     1     115.117 113.215 143.226  1.00  0.00     0.005 C 
BRANCH   2   3
ATOM      3  C   UNL     1     115.143 114.730 143.464  1.00  0.00     0.027 C 
BRANCH   3   4
ATOM      4  C   UNL     1     116.554 115.239 143.578  1.00  0.00    -0.031 C 
ATOM      5  C   UNL     1     117.423 114.702 144.453  1.00  0.00    -0.028 C 
BRANCH   5   6
ATOM      6  C   UNL     1     118.842 115.203 144.609  1.00  0.00     0.005 C 
ATOM      7  C   UNL     1     119.358 114.979 146.034  1.00  0.00     0.012 C 
ATOM      8  C   UNL     1     118.965 116.675 144.197  1.00  0.00     0.012 C 
ENDBRANCH   5   6
ENDBRANCH   3   4
ENDBRANCH   2   3
ENDBRANCH   1   2
BRANCH   1   9
ATOM      9  C   UNL     1     114.510 112.229 140.976  1.00  0.00     0.100 C 
BRANCH   9  10
ATOM     10  C   UNL     1     114.860 113.304 139.988  1.00  0.00     0.220 C 
ATOM     11  O   UNL     1     115.691 113.061 139.069  1.00  0.00    -0.275 OA
ATOM     12  N   UNL     1     114.217 114.587 140.060  1.00  0.00    -0.352 N 
ATOM     13  H   UNL     1     113.477 114.748 140.781  1.00  0.00     0.163 HD
BRANCH  12  14
ATOM     14  C   UNL     1     114.635 115.720 139.239  1.00  0.00     0.151 C 
BRANCH  14  15
ATOM     15  C   UNL     1     115.443 116.680 140.069  1.00  0.00    -0.025 A 
ATOM     16  C   UNL     1     116.845 116.602 140.065  1.00  0.00     0.056 A 
ATOM     17  C   UNL     1     114.810 117.692 140.807  1.00  0.00     0.009 A 
ATOM     18  C   UNL     1     117.617 117.516 140.809  1.00  0.00     0.160 A 
ATOM     19  C   UNL     1     115.569 118.602 141.546  1.00  0.00     0.050 A 
ATOM     20  C   UNL     1     116.967 118.520 141.551  1.00  0.00     0.157 A 
BRANCH  18  21
ATOM     21  O   UNL     1     119.022 117.456 140.833  1.00  0.00    -0.493 OA
ATOM     22  C   UNL     1     119.858 117.635 139.693  1.00  0.00     0.278 C 
ENDBRANCH  18  21
BRANCH  20  23
ATOM     23  O   UNL     1     117.691 119.447 142.300  1.00  0.00    -0.504 OA
ATOM     24  H   UNL     1     117.238 120.161 142.858  1.00  0.00     0.293 HD
ENDBRANCH  20  23
ENDBRANCH  14  15
ENDBRANCH  12  14
ENDBRANCH   9  10
ENDBRANCH   1   9
TORSDOF 10
ENDMDL
MODEL 8
REMARK VINA RESULT:    -4.523      1.644      5.300
REMARK INTER + INTRA:          -9.538
REMARK INTER:                  -7.305
REMARK INTRA:                  -2.232
REMARK UNBOUND:                -2.502
REMARK SMILES COc1cc(CNC(=O)CCCCC=CC(C)C)ccc1O
REMARK SMILES IDX 11 1 12 2 13 3 14 4 15 5 16 6 17 7 18 8 10 9 8 10 9 11 7 12
REMARK SMILES IDX 6 14 5 15 4 16 19 17 3 18 20 19 21 20 2 21 1 22 22 23
REMARK H PARENT 7 13 22 24
REMARK Flexibility Score: inf
ROOT
ATOM      1  C   UNL     1     112.762 115.161 138.865  1.00  0.00     0.010 C 
ENDROOT
BRANCH   1   2
ATOM      2  C   UNL     1     112.248 115.584 140.246  1.00  0.00     0.005 C 
BRANCH   2   3
ATOM      3  C   UNL     1     113.103 116.718 140.826  1.00  0.00     0.027 C 
BRANCH   3   4
ATOM      4  C   UNL     1     113.979 116.221 141.945  1.00  0.00    -0.031 C 
ATOM      5  C   UNL     1     113.635 115.148 142.679  1.00  0.00    -0.028 C 
BRANCH   5   6
ATOM      6  C   UNL     1     114.480 114.635 143.823  1.00  0.00     0.005 C 
ATOM      7  C   UNL     1     115.278 115.767 144.479  1.00  0.00     0.012 C 
ATOM      8  C   UNL     1     115.401 113.495 143.371  1.00  0.00     0.012 C 
ENDBRANCH   5   6
ENDBRANCH   3   4
ENDBRANCH   2   3
ENDBRANCH   1   2
BRANCH   1   9
ATOM      9  C   UNL     1     113.110 113.665 138.841  1.00  0.00     0.100 C 
BRANCH   9  10
ATOM     10  C   UNL     1     114.476 113.415 139.412  1.00  0.00     0.220 C 
ATOM     11  O   UNL     1     114.723 112.317 139.984  1.00  0.00    -0.275 OA
ATOM     12  N   UNL     1     115.511 114.401 139.265  1.00  0.00    -0.352 N 
ATOM     13  H   UNL     1     115.313 115.273 138.724  1.00  0.00     0.163 HD
BRANCH  12  14
ATOM     14  C   UNL     1     116.802 114.289 139.941  1.00  0.00     0.151 C 
BRANCH  14  15
ATOM     15  C   UNL     1     117.197 115.626 140.507  1.00  0.00    -0.025 A 
ATOM     16  C   UNL     1     117.805 115.699 141.772  1.00  0.00     0.056 A 
ATOM     17  C   UNL     1     117.015 116.798 139.759  1.00  0.00     0.009 A 
ATOM     18  C   UNL     1     118.213 116.939 142.301  1.00  0.00     0.160 A 
ATOM     19  C   UNL     1     117.419 118.031 140.278  1.00  0.00     0.050 A 
ATOM     20  C   UNL     1     118.016 118.108 141.542  1.00  0.00     0.157 A 
BRANCH  18  21
ATOM     21  O   UNL     1     118.814 117.045 143.567  1.00  0.00    -0.493 OA
ATOM     22  C   UNL     1     119.040 115.950 144.450  1.00  0.00     0.278 C 
ENDBRANCH  18  21
BRANCH  20  23
ATOM     23  O   UNL     1     118.406 119.357 142.026  1.00  0.00    -0.504 OA
ATOM     24  H   UNL     1     119.290 119.498 142.502  1.00  0.00     0.293 HD
ENDBRANCH  20  23
ENDBRANCH  14  15
ENDBRANCH  12  14
ENDBRANCH   9  10
ENDBRANCH   1   9
TORSDOF 10
ENDMDL
MODEL 9
REMARK VINA RESULT:    -4.487      1.851      5.299
REMARK INTER + INTRA:          -9.481
REMARK INTER:                  -7.543
REMARK INTRA:                  -1.938
REMARK UNBOUND:                -2.502
REMARK SMILES COc1cc(CNC(=O)CCCCC=CC(C)C)ccc1O
REMARK SMILES IDX 11 1 12 2 13 3 14 4 15 5 16 6 17 7 18 8 10 9 8 10 9 11 7 12
REMARK SMILES IDX 6 14 5 15 4 16 19 17 3 18 20 19 21 20 2 21 1 22 22 23
REMARK H PARENT 7 13 22 24
REMARK Flexibility Score: inf
ROOT
ATOM      1  C   UNL     1     113.564 113.344 138.886  1.00  0.00     0.010 C 
ENDROOT
BRANCH   1   2
ATOM      2  C   UNL     1     112.560 114.271 139.582  1.00  0.00     0.005 C 
BRANCH   2   3
ATOM      3  C   UNL     1     113.002 115.737 139.476  1.00  0.00     0.027 C 
BRANCH   3   4
ATOM      4  C   UNL     1     113.393 116.286 140.821  1.00  0.00    -0.031 C 
ATOM      5  C   UNL     1     113.998 117.481 140.940  1.00  0.00    -0.028 C 
BRANCH   5   6
ATOM      6  C   UNL     1     114.423 118.054 142.274  1.00  0.00     0.005 C 
ATOM      7  C   UNL     1     113.214 118.311 143.181  1.00  0.00     0.012 C 
ATOM      8  C   UNL     1     115.265 119.323 142.096  1.00  0.00     0.012 C 
ENDBRANCH   5   6
ENDBRANCH   3   4
ENDBRANCH   2   3
ENDBRANCH   1   2
BRANCH   1   9
ATOM      9  C   UNL     1     113.812 112.077 139.716  1.00  0.00     0.100 C 
BRANCH   9  10
ATOM     10  C   UNL     1     114.241 112.417 141.114  1.00  0.00     0.220 C 
ATOM     11  O   UNL     1     113.691 111.839 142.094  1.00  0.00    -0.275 OA
ATOM     12  N   UNL     1     115.305 113.356 141.335  1.00  0.00    -0.352 N 
ATOM     13  H   UNL     1     115.800 113.770 140.511  1.00  0.00     0.163 HD
BRANCH  12  14
ATOM     14  C   UNL     1     115.651 113.852 142.664  1.00  0.00     0.151 C 
BRANCH  14  15
ATOM     15  C   UNL     1     116.601 115.012 142.544  1.00  0.00    -0.025 A 
ATOM     16  C   UNL     1     117.077 115.400 141.281  1.00  0.00     0.056 A 
ATOM     17  C   UNL     1     116.974 115.748 143.679  1.00  0.00     0.009 A 
ATOM     18  C   UNL     1     117.940 116.507 141.148  1.00  0.00     0.160 A 
ATOM     19  C   UNL     1     117.828 116.846 143.554  1.00  0.00     0.050 A 
ATOM     20  C   UNL     1     118.312 117.229 142.298  1.00  0.00     0.157 A 
BRANCH  18  21
ATOM     21  O   UNL     1     118.440 116.913 139.899  1.00  0.00    -0.493 OA
ATOM     22  C   UNL     1     117.955 118.028 139.157  1.00  0.00     0.278 C 
ENDBRANCH  18  21
BRANCH  20  23
ATOM     23  O   UNL     1     119.161 118.332 142.212  1.00  0.00    -0.504 OA
ATOM     24  H   UNL     1     119.860 118.530 142.918  1.00  0.00     0.293 HD
ENDBRANCH  20  23
ENDBRANCH  14  15
ENDBRANCH  12  14
ENDBRANCH   9  10
ENDBRANCH   1   9
TORSDOF 10
ENDMDL
