MODEL 1
REMARK VINA RESULT:    -5.375      0.000      0.000
REMARK INTER + INTRA:          -6.042
REMARK INTER:                  -6.004
REMARK INTRA:                  -0.038
REMARK UNBOUND:                -0.038
REMARK SMILES O=C([O-])c1ccc(O)c(O)c1
REMARK SMILES IDX 4 1 11 2 5 3 9 4 6 5 7 6 2 7 1 8 3 9 10 10 8 12
REMARK H PARENT 10 11 8 13
REMARK Flexibility Score: inf
ROOT
ATOM      1  C   UNL     1      10.822   9.746  13.402  1.00  0.00     0.001 A 
ATOM      2  C   UNL     1      10.463  10.468  14.554  1.00  0.00     0.060 A 
ATOM      3  C   UNL     1       9.832   9.017  12.719  1.00  0.00     0.014 A 
ATOM      4  C   UNL     1       9.142  10.463  15.018  1.00  0.00     0.158 A 
ATOM      5  C   UNL     1       8.513   9.012  13.179  1.00  0.00     0.051 A 
ATOM      6  C   UNL     1       8.162   9.732  14.328  1.00  0.00     0.157 A 
ENDROOT
BRANCH   1   7
ATOM      7  C   UNL     1      12.220   9.757  12.919  1.00  0.00     0.072 C 
ATOM      8  O   UNL     1      12.490  10.134  11.747  1.00  0.00    -0.545 OA
ATOM      9  O   UNL     1      13.256   9.349  13.750  1.00  0.00    -0.545 OA
ENDBRANCH   1   7
BRANCH   4  10
ATOM     10  O   UNL     1       8.825  11.191  16.165  1.00  0.00    -0.504 OA
ATOM     11  H   UNL     1       8.823  12.204  16.175  1.00  0.00     0.293 HD
ENDBRANCH   4  10
BRANCH   6  12
ATOM     12  O   UNL     1       6.844   9.724  14.785  1.00  0.00    -0.504 OA
ATOM     13  H   UNL     1       6.330  10.584  14.937  1.00  0.00     0.293 HD
ENDBRANCH   6  12
TORSDOF 3
ENDMDL
MODEL 2
REMARK VINA RESULT:    -5.251      1.918      3.634
REMARK INTER + INTRA:          -5.903
REMARK INTER:                  -5.861
REMARK INTRA:                  -0.041
REMARK UNBOUND:                -0.038
REMARK SMILES O=C([O-])c1ccc(O)c(O)c1
REMARK SMILES IDX 4 1 11 2 5 3 9 4 6 5 7 6 2 7 1 8 3 9 10 10 8 12
REMARK H PARENT 10 11 8 13
REMARK Flexibility Score: inf
ROOT
ATOM      1  C   UNL     1      10.010   9.259  13.106  1.00  0.00     0.001 A 
ATOM      2  C   UNL     1       9.824   9.408  14.491  1.00  0.00     0.060 A 
ATOM      3  C   UNL     1      11.213   9.706  12.528  1.00  0.00     0.014 A 
ATOM      4  C   UNL     1      10.817   9.992  15.287  1.00  0.00     0.158 A 
ATOM      5  C   UNL     1      12.205  10.289  13.320  1.00  0.00     0.051 A 
ATOM      6  C   UNL     1      12.013  10.435  14.700  1.00  0.00     0.157 A 
ENDROOT
BRANCH   1   7
ATOM      7  C   UNL     1       8.957   8.641  12.272  1.00  0.00     0.072 C 
ATOM      8  O   UNL     1       7.739   8.810  12.549  1.00  0.00    -0.545 OA
ATOM      9  O   UNL     1       9.295   7.863  11.171  1.00  0.00    -0.545 OA
ENDBRANCH   1   7
BRANCH   4  10
ATOM     10  O   UNL     1      10.595  10.123  16.658  1.00  0.00    -0.504 OA
ATOM     11  H   UNL     1       9.665  10.238  17.042  1.00  0.00     0.293 HD
ENDBRANCH   4  10
BRANCH   6  12
ATOM     12  O   UNL     1      13.006  11.017  15.488  1.00  0.00    -0.504 OA
ATOM     13  H   UNL     1      13.613  11.742  15.124  1.00  0.00     0.293 HD
ENDBRANCH   6  12
TORSDOF 3
ENDMDL
MODEL 3
REMARK VINA RESULT:    -5.175      1.187      2.184
REMARK INTER + INTRA:          -5.818
REMARK INTER:                  -5.774
REMARK INTRA:                  -0.044
REMARK UNBOUND:                -0.038
REMARK SMILES O=C([O-])c1ccc(O)c(O)c1
REMARK SMILES IDX 4 1 11 2 5 3 9 4 6 5 7 6 2 7 1 8 3 9 10 10 8 12
REMARK H PARENT 10 11 8 13
REMARK Flexibility Score: inf
ROOT
ATOM      1  C   UNL     1      10.889   9.697  13.846  1.00  0.00     0.001 A 
ATOM      2  C   UNL     1      10.056   9.182  12.839  1.00  0.00     0.060 A 
ATOM      3  C   UNL     1      10.317  10.089  15.070  1.00  0.00     0.014 A 
ATOM      4  C   UNL     1       8.676   9.060  13.045  1.00  0.00     0.158 A 
ATOM      5  C   UNL     1       8.940   9.968  15.279  1.00  0.00     0.051 A 
ATOM      6  C   UNL     1       8.115   9.454  14.271  1.00  0.00     0.157 A 
ENDROOT
BRANCH   1   7
ATOM      7  C   UNL     1      12.345   9.823  13.621  1.00  0.00     0.072 C 
ATOM      8  O   UNL     1      12.865   9.413  12.548  1.00  0.00    -0.545 OA
ATOM      9  O   UNL     1      13.162  10.393  14.590  1.00  0.00    -0.545 OA
ENDBRANCH   1   7
BRANCH   4  10
ATOM     10  O   UNL     1       7.881   8.545  12.021  1.00  0.00    -0.504 OA
ATOM     11  H   UNL     1       8.281   8.154  11.176  1.00  0.00     0.293 HD
ENDBRANCH   4  10
BRANCH   6  12
ATOM     12  O   UNL     1       6.741   9.335  14.482  1.00  0.00    -0.504 OA
ATOM     13  H   UNL     1       6.304   8.433  14.628  1.00  0.00     0.293 HD
ENDBRANCH   6  12
TORSDOF 3
ENDMDL
MODEL 4
REMARK VINA RESULT:    -5.143      2.008      2.751
REMARK INTER + INTRA:          -5.782
REMARK INTER:                  -5.745
REMARK INTRA:                  -0.037
REMARK UNBOUND:                -0.038
REMARK SMILES O=C([O-])c1ccc(O)c(O)c1
REMARK SMILES IDX 4 1 11 2 5 3 9 4 6 5 7 6 2 7 1 8 3 9 10 10 8 12
REMARK H PARENT 10 11 8 13
REMARK Flexibility Score: inf
ROOT
ATOM      1  C   UNL     1      12.914   9.825  13.930  1.00  0.00     0.001 A 
ATOM      2  C   UNL     1      13.143  10.964  14.719  1.00  0.00     0.060 A 
ATOM      3  C   UNL     1      11.589   9.405  13.707  1.00  0.00     0.014 A 
ATOM      4  C   UNL     1      12.073  11.675  15.278  1.00  0.00     0.158 A 
ATOM      5  C   UNL     1      10.520  10.112  14.263  1.00  0.00     0.051 A 
ATOM      6  C   UNL     1      10.755  11.247  15.049  1.00  0.00     0.157 A 
ENDROOT
BRANCH   1   7
ATOM      7  C   UNL     1      14.049   9.081  13.343  1.00  0.00     0.072 C 
ATOM      8  O   UNL     1      14.266   9.117  12.102  1.00  0.00    -0.545 OA
ATOM      9  O   UNL     1      14.894   8.330  14.153  1.00  0.00    -0.545 OA
ENDBRANCH   1   7
BRANCH   4  10
ATOM     10  O   UNL     1      12.341  12.800  16.057  1.00  0.00    -0.504 OA
ATOM     11  H   UNL     1      13.002  13.510  15.765  1.00  0.00     0.293 HD
ENDBRANCH   4  10
BRANCH   6  12
ATOM     12  O   UNL     1       9.686  11.950  15.603  1.00  0.00    -0.504 OA
ATOM     13  H   UNL     1       9.630  12.132  16.598  1.00  0.00     0.293 HD
ENDBRANCH   6  12
TORSDOF 3
ENDMDL
MODEL 5
REMARK VINA RESULT:    -5.014      1.758      4.160
REMARK INTER + INTRA:          -5.638
REMARK INTER:                  -5.595
REMARK INTRA:                  -0.044
REMARK UNBOUND:                -0.038
REMARK SMILES O=C([O-])c1ccc(O)c(O)c1
REMARK SMILES IDX 4 1 11 2 5 3 9 4 6 5 7 6 2 7 1 8 3 9 10 10 8 12
REMARK H PARENT 10 11 8 13
REMARK Flexibility Score: inf
ROOT
ATOM      1  C   UNL     1      10.163   9.980  14.120  1.00  0.00     0.001 A 
ATOM      2  C   UNL     1      10.570  10.980  15.020  1.00  0.00     0.060 A 
ATOM      3  C   UNL     1      11.143   9.273  13.398  1.00  0.00     0.014 A 
ATOM      4  C   UNL     1      11.928  11.272  15.198  1.00  0.00     0.158 A 
ATOM      5  C   UNL     1      12.498   9.563  13.574  1.00  0.00     0.051 A 
ATOM      6  C   UNL     1      12.897  10.561  14.472  1.00  0.00     0.157 A 
ENDROOT
BRANCH   1   7
ATOM      7  C   UNL     1       8.727   9.676  13.938  1.00  0.00     0.072 C 
ATOM      8  O   UNL     1       7.879  10.061  14.786  1.00  0.00    -0.545 OA
ATOM      9  O   UNL     1       8.293   8.960  12.828  1.00  0.00    -0.545 OA
ENDBRANCH   1   7
BRANCH   4  10
ATOM     10  O   UNL     1      12.292  12.273  16.099  1.00  0.00    -0.504 OA
ATOM     11  H   UNL     1      11.603  12.817  16.605  1.00  0.00     0.293 HD
ENDBRANCH   4  10
BRANCH   6  12
ATOM     12  O   UNL     1      14.251  10.849  14.645  1.00  0.00    -0.504 OA
ATOM     13  H   UNL     1      14.654  11.717  14.315  1.00  0.00     0.293 HD
ENDBRANCH   6  12
TORSDOF 3
ENDMDL
MODEL 6
REMARK VINA RESULT:    -4.944      1.754      2.690
REMARK INTER + INTRA:          -5.560
REMARK INTER:                  -5.517
REMARK INTRA:                  -0.043
REMARK UNBOUND:                -0.038
REMARK SMILES O=C([O-])c1ccc(O)c(O)c1
REMARK SMILES IDX 4 1 11 2 5 3 9 4 6 5 7 6 2 7 1 8 3 9 10 10 8 12
REMARK H PARENT 10 11 8 13
REMARK Flexibility Score: inf
ROOT
ATOM      1  C   UNL     1       9.733   9.042  12.787  1.00  0.00     0.001 A 
ATOM      2  C   UNL     1      10.864   9.470  13.503  1.00  0.00     0.060 A 
ATOM      3  C   UNL     1       8.472   9.096  13.409  1.00  0.00     0.014 A 
ATOM      4  C   UNL     1      10.743   9.943  14.816  1.00  0.00     0.158 A 
ATOM      5  C   UNL     1       8.348   9.568  14.718  1.00  0.00     0.051 A 
ATOM      6  C   UNL     1       9.480   9.992  15.427  1.00  0.00     0.157 A 
ENDROOT
BRANCH   1   7
ATOM      7  C   UNL     1       9.870   8.545  11.401  1.00  0.00     0.072 C 
ATOM      8  O   UNL     1       9.028   7.737  10.924  1.00  0.00    -0.545 OA
ATOM      9  O   UNL     1      10.930   8.962  10.604  1.00  0.00    -0.545 OA
ENDBRANCH   1   7
BRANCH   4  10
ATOM     10  O   UNL     1      11.889  10.357  15.494  1.00  0.00    -0.504 OA
ATOM     11  H   UNL     1      12.771  10.505  15.019  1.00  0.00     0.293 HD
ENDBRANCH   4  10
BRANCH   6  12
ATOM     12  O   UNL     1       9.353  10.461  16.734  1.00  0.00    -0.504 OA
ATOM     13  H   UNL     1       8.902  11.345  16.938  1.00  0.00     0.293 HD
ENDBRANCH   6  12
TORSDOF 3
ENDMDL
MODEL 7
REMARK VINA RESULT:    -4.940      1.743      2.254
REMARK INTER + INTRA:          -5.555
REMARK INTER:                  -5.517
REMARK INTRA:                  -0.038
REMARK UNBOUND:                -0.038
REMARK SMILES O=C([O-])c1ccc(O)c(O)c1
REMARK SMILES IDX 4 1 11 2 5 3 9 4 6 5 7 6 2 7 1 8 3 9 10 10 8 12
REMARK H PARENT 10 11 8 13
REMARK Flexibility Score: inf
ROOT
ATOM      1  C   UNL     1      11.336  10.337  14.194  1.00  0.00     0.001 A 
ATOM      2  C   UNL     1      10.184  10.005  14.928  1.00  0.00     0.060 A 
ATOM      3  C   UNL     1      11.380  10.037  12.821  1.00  0.00     0.014 A 
ATOM      4  C   UNL     1       9.094   9.384  14.304  1.00  0.00     0.158 A 
ATOM      5  C   UNL     1      10.294   9.418  12.196  1.00  0.00     0.051 A 
ATOM      6  C   UNL     1       9.149   9.089  12.933  1.00  0.00     0.157 A 
ENDROOT
BRANCH   1   7
ATOM      7  C   UNL     1      12.483  10.992  14.860  1.00  0.00     0.072 C 
ATOM      8  O   UNL     1      12.320  12.056  15.516  1.00  0.00    -0.545 OA
ATOM      9  O   UNL     1      13.757  10.445  14.771  1.00  0.00    -0.545 OA
ENDBRANCH   1   7
BRANCH   4  10
ATOM     10  O   UNL     1       7.969   9.069  15.066  1.00  0.00    -0.504 OA
ATOM     11  H   UNL     1       7.855   9.396  16.017  1.00  0.00     0.293 HD
ENDBRANCH   4  10
BRANCH   6  12
ATOM     12  O   UNL     1       8.066   8.471  12.307  1.00  0.00    -0.504 OA
ATOM     13  H   UNL     1       8.133   7.528  11.942  1.00  0.00     0.293 HD
ENDBRANCH   6  12
TORSDOF 3
ENDMDL
MODEL 8
REMARK VINA RESULT:    -4.908      1.650      2.413
REMARK INTER + INTRA:          -5.519
REMARK INTER:                  -5.482
REMARK INTRA:                  -0.037
REMARK UNBOUND:                -0.038
REMARK SMILES O=C([O-])c1ccc(O)c(O)c1
REMARK SMILES IDX 4 1 11 2 5 3 9 4 6 5 7 6 2 7 1 8 3 9 10 10 8 12
REMARK H PARENT 10 11 8 13
REMARK Flexibility Score: inf
ROOT
ATOM      1  C   UNL     1      12.282  10.244  13.835  1.00  0.00     0.001 A 
ATOM      2  C   UNL     1      11.301   9.345  14.286  1.00  0.00     0.060 A 
ATOM      3  C   UNL     1      12.114  11.618  14.086  1.00  0.00     0.014 A 
ATOM      4  C   UNL     1      10.172   9.805  14.975  1.00  0.00     0.158 A 
ATOM      5  C   UNL     1      10.989  12.080  14.773  1.00  0.00     0.051 A 
ATOM      6  C   UNL     1      10.014  11.178  15.219  1.00  0.00     0.157 A 
ENDROOT
BRANCH   1   7
ATOM      7  C   UNL     1      13.473   9.750  13.109  1.00  0.00     0.072 C 
ATOM      8  O   UNL     1      13.665  10.065  11.904  1.00  0.00    -0.545 OA
ATOM      9  O   UNL     1      14.396   8.929  13.747  1.00  0.00    -0.545 OA
ENDBRANCH   1   7
BRANCH   4  10
ATOM     10  O   UNL     1       9.219   8.881  15.405  1.00  0.00    -0.504 OA
ATOM     11  H   UNL     1       9.473   7.947  15.703  1.00  0.00     0.293 HD
ENDBRANCH   4  10
BRANCH   6  12
ATOM     12  O   UNL     1       8.891  11.642  15.904  1.00  0.00    -0.504 OA
ATOM     13  H   UNL     1       8.669  11.319  16.838  1.00  0.00     0.293 HD
ENDBRANCH   6  12
TORSDOF 3
ENDMDL
MODEL 9
REMARK VINA RESULT:    -4.868      2.124      2.656
REMARK INTER + INTRA:          -5.475
REMARK INTER:                  -5.434
REMARK INTRA:                  -0.041
REMARK UNBOUND:                -0.038
REMARK SMILES O=C([O-])c1ccc(O)c(O)c1
REMARK SMILES IDX 4 1 11 2 5 3 9 4 6 5 7 6 2 7 1 8 3 9 10 10 8 12
REMARK H PARENT 10 11 8 13
REMARK Flexibility Score: inf
ROOT
ATOM      1  C   UNL     1      11.471  10.381  12.736  1.00  0.00     0.001 A 
ATOM      2  C   UNL     1      12.039  11.246  13.687  1.00  0.00     0.060 A 
ATOM      3  C   UNL     1      10.552   9.406  13.165  1.00  0.00     0.014 A 
ATOM      4  C   UNL     1      11.699  11.142  15.042  1.00  0.00     0.158 A 
ATOM      5  C   UNL     1      10.211   9.300  14.515  1.00  0.00     0.051 A 
ATOM      6  C   UNL     1      10.781  10.165  15.458  1.00  0.00     0.157 A 
ENDROOT
BRANCH   1   7
ATOM      7  C   UNL     1      11.834  10.498  11.307  1.00  0.00     0.072 C 
ATOM      8  O   UNL     1      11.980   9.468  10.597  1.00  0.00    -0.545 OA
ATOM      9  O   UNL     1      12.022  11.748  10.728  1.00  0.00    -0.545 OA
ENDBRANCH   1   7
BRANCH   4  10
ATOM     10  O   UNL     1      12.285  12.018  15.955  1.00  0.00    -0.504 OA
ATOM     11  H   UNL     1      12.194  11.890  16.956  1.00  0.00     0.293 HD
ENDBRANCH   4  10
BRANCH   6  12
ATOM     12  O   UNL     1      10.439  10.056  16.806  1.00  0.00    -0.504 OA
ATOM     13  H   UNL     1       9.477   9.931  17.100  1.00  0.00     0.293 HD
ENDBRANCH   6  12
TORSDOF 3
ENDMDL
