MODEL 1
REMARK VINA RESULT:    -6.896      0.000      0.000
REMARK INTER + INTRA:          -8.548
REMARK INTER:                  -8.508
REMARK INTRA:                  -0.040
REMARK UNBOUND:                -0.040
REMARK SMILES O=c1c(O)c(-c2cc(O)c(O)c(O)c2)oc2cc(O)cc(O)c12
REMARK SMILES IDX 5 1 3 2 2 3 1 4 23 5 21 6 20 7 18 8 17 9 16 10 15 11 6 12
REMARK SMILES IDX 7 13 8 14 14 15 10 16 12 17 9 18 11 20 13 22 4 24 22 26
REMARK SMILES IDX 19 28
REMARK H PARENT 9 19 11 21 13 23 4 25 22 27 19 29
REMARK Flexibility Score: inf
ROOT
ATOM      1  C   UNL     1     128.311 115.768 101.802  1.00  0.00     0.180 A 
ATOM      2  C   UNL     1     128.172 114.610 101.018  1.00  0.00     0.208 A 
ATOM      3  C   UNL     1     129.305 114.083 100.376  1.00  0.00     0.238 A 
ATOM      4  O   UNL     1     129.163 113.076  99.632  1.00  0.00    -0.285 OA
ATOM      5  C   UNL     1     130.563 114.709 100.539  1.00  0.00     0.111 A 
ATOM      6  C   UNL     1     131.783 114.238  99.967  1.00  0.00     0.134 A 
ATOM      7  C   UNL     1     132.945 115.011 100.086  1.00  0.00     0.093 A 
ATOM      8  C   UNL     1     132.946 116.203 100.811  1.00  0.00     0.123 A 
ATOM      9  C   UNL     1     131.773 116.642 101.424  1.00  0.00     0.094 A 
ATOM     10  C   UNL     1     130.588 115.912 101.292  1.00  0.00     0.146 A 
ATOM     11  O   UNL     1     129.492 116.370 101.882  1.00  0.00    -0.452 OA
ENDROOT
BRANCH   1  12
ATOM     12  C   UNL     1     127.170 116.368 102.530  1.00  0.00     0.029 A 
ATOM     13  C   UNL     1     126.004 116.707 101.826  1.00  0.00     0.062 A 
ATOM     14  C   UNL     1     124.917 117.294 102.487  1.00  0.00     0.162 A 
ATOM     15  C   UNL     1     127.248 116.658 103.902  1.00  0.00     0.062 A 
ATOM     16  C   UNL     1     124.995 117.563 103.864  1.00  0.00     0.200 A 
ATOM     17  C   UNL     1     126.165 117.248 104.568  1.00  0.00     0.162 A 
BRANCH  14  18
ATOM     18  O   UNL     1     123.758 117.615 101.780  1.00  0.00    -0.504 OA
ATOM     19  H   UNL     1     122.887 117.122 101.937  1.00  0.00     0.293 HD
ENDBRANCH  14  18
BRANCH  16  20
ATOM     20  O   UNL     1     123.927 118.145 104.545  1.00  0.00    -0.502 OA
ATOM     21  H   UNL     1     122.963 117.967 104.288  1.00  0.00     0.293 HD
ENDBRANCH  16  20
BRANCH  17  22
ATOM     22  O   UNL     1     126.245 117.528 105.931  1.00  0.00    -0.504 OA
ATOM     23  H   UNL     1     126.581 116.841 106.596  1.00  0.00     0.293 HD
ENDBRANCH  17  22
ENDBRANCH   1  12
BRANCH   2  24
ATOM     24  O   UNL     1     126.917 114.018 100.854  1.00  0.00    -0.502 OA
ATOM     25  H   UNL     1     126.172 114.127 101.531  1.00  0.00     0.293 HD
ENDBRANCH   2  24
BRANCH   6  26
ATOM     26  O   UNL     1     131.913 113.015  99.302  1.00  0.00    -0.507 OA
ATOM     27  H   UNL     1     132.704 112.753  98.733  1.00  0.00     0.293 HD
ENDBRANCH   6  26
BRANCH   8  28
ATOM     28  O   UNL     1     134.124 116.937 100.922  1.00  0.00    -0.508 OA
ATOM     29  H   UNL     1     134.474 117.246 101.822  1.00  0.00     0.293 HD
ENDBRANCH   8  28
TORSDOF 7
ENDMDL
MODEL 2
REMARK VINA RESULT:    -6.600      1.885      2.240
REMARK INTER + INTRA:          -8.183
REMARK INTER:                  -7.853
REMARK INTRA:                  -0.330
REMARK UNBOUND:                -0.040
REMARK SMILES O=c1c(O)c(-c2cc(O)c(O)c(O)c2)oc2cc(O)cc(O)c12
REMARK SMILES IDX 5 1 3 2 2 3 1 4 23 5 21 6 20 7 18 8 17 9 16 10 15 11 6 12
REMARK SMILES IDX 7 13 8 14 14 15 10 16 12 17 9 18 11 20 13 22 4 24 22 26
REMARK SMILES IDX 19 28
REMARK H PARENT 9 19 11 21 13 23 4 25 22 27 19 29
REMARK Flexibility Score: inf
ROOT
ATOM      1  C   UNL     1     128.278 114.619 100.700  1.00  0.00     0.180 A 
ATOM      2  C   UNL     1     127.861 113.281 100.598  1.00  0.00     0.208 A 
ATOM      3  C   UNL     1     128.716 112.345  99.993  1.00  0.00     0.238 A 
ATOM      4  O   UNL     1     128.313 111.159  99.857  1.00  0.00    -0.285 OA
ATOM      5  C   UNL     1     129.981 112.756  99.512  1.00  0.00     0.111 A 
ATOM      6  C   UNL     1     130.943 111.885  98.917  1.00  0.00     0.134 A 
ATOM      7  C   UNL     1     132.109 112.423  98.357  1.00  0.00     0.093 A 
ATOM      8  C   UNL     1     132.378 113.790  98.429  1.00  0.00     0.123 A 
ATOM      9  C   UNL     1     131.472 114.642  99.062  1.00  0.00     0.094 A 
ATOM     10  C   UNL     1     130.283 114.140  99.596  1.00  0.00     0.146 A 
ATOM     11  O   UNL     1     129.443 114.986 100.180  1.00  0.00    -0.452 OA
ENDROOT
BRANCH   1  12
ATOM     12  C   UNL     1     127.443 115.657 101.347  1.00  0.00     0.029 A 
ATOM     13  C   UNL     1     126.407 116.263 100.620  1.00  0.00     0.062 A 
ATOM     14  C   UNL     1     125.616 117.262 101.202  1.00  0.00     0.162 A 
ATOM     15  C   UNL     1     127.702 116.090 102.658  1.00  0.00     0.062 A 
ATOM     16  C   UNL     1     125.868 117.676 102.521  1.00  0.00     0.200 A 
ATOM     17  C   UNL     1     126.916 117.091 103.245  1.00  0.00     0.162 A 
BRANCH  14  18
ATOM     18  O   UNL     1     124.581 117.848 100.474  1.00  0.00    -0.504 OA
ATOM     19  H   UNL     1     124.746 118.288  99.576  1.00  0.00     0.293 HD
ENDBRANCH  14  18
BRANCH  16  20
ATOM     20  O   UNL     1     125.094 118.667 103.124  1.00  0.00    -0.502 OA
ATOM     21  H   UNL     1     124.085 118.692 103.032  1.00  0.00     0.293 HD
ENDBRANCH  16  20
BRANCH  17  22
ATOM     22  O   UNL     1     127.171 117.513 104.549  1.00  0.00    -0.504 OA
ATOM     23  H   UNL     1     127.577 116.892 105.239  1.00  0.00     0.293 HD
ENDBRANCH  17  22
ENDBRANCH   1  12
BRANCH   2  24
ATOM     24  O   UNL     1     126.598 112.901 101.061  1.00  0.00    -0.502 OA
ATOM     25  H   UNL     1     126.131 113.379 101.823  1.00  0.00     0.293 HD
ENDBRANCH   2  24
BRANCH   6  26
ATOM     26  O   UNL     1     130.817 110.493  98.875  1.00  0.00    -0.507 OA
ATOM     27  H   UNL     1     131.228 109.859  99.543  1.00  0.00     0.293 HD
ENDBRANCH   6  26
BRANCH   8  28
ATOM     28  O   UNL     1     133.555 114.288  97.876  1.00  0.00    -0.508 OA
ATOM     29  H   UNL     1     133.658 115.269  97.644  1.00  0.00     0.293 HD
ENDBRANCH   8  28
TORSDOF 7
ENDMDL
MODEL 3
REMARK VINA RESULT:    -6.582      2.965      7.654
REMARK INTER + INTRA:          -8.160
REMARK INTER:                  -8.109
REMARK INTRA:                  -0.051
REMARK UNBOUND:                -0.040
REMARK SMILES O=c1c(O)c(-c2cc(O)c(O)c(O)c2)oc2cc(O)cc(O)c12
REMARK SMILES IDX 5 1 3 2 2 3 1 4 23 5 21 6 20 7 18 8 17 9 16 10 15 11 6 12
REMARK SMILES IDX 7 13 8 14 14 15 10 16 12 17 9 18 11 20 13 22 4 24 22 26
REMARK SMILES IDX 19 28
REMARK H PARENT 9 19 11 21 13 23 4 25 22 27 19 29
REMARK Flexibility Score: inf
ROOT
ATOM      1  C   UNL     1     125.923 116.693 101.947  1.00  0.00     0.180 A 
ATOM      2  C   UNL     1     126.809 117.024 102.987  1.00  0.00     0.208 A 
ATOM      3  C   UNL     1     126.287 117.517 104.194  1.00  0.00     0.238 A 
ATOM      4  O   UNL     1     127.089 117.861 105.102  1.00  0.00    -0.285 OA
ATOM      5  C   UNL     1     124.888 117.657 104.352  1.00  0.00     0.111 A 
ATOM      6  C   UNL     1     124.249 118.108 105.546  1.00  0.00     0.134 A 
ATOM      7  C   UNL     1     122.866 118.335 105.546  1.00  0.00     0.093 A 
ATOM      8  C   UNL     1     122.092 118.063 104.418  1.00  0.00     0.123 A 
ATOM      9  C   UNL     1     122.699 117.564 103.265  1.00  0.00     0.094 A 
ATOM     10  C   UNL     1     124.081 117.364 103.222  1.00  0.00     0.146 A 
ATOM     11  O   UNL     1     124.620 116.899 102.102  1.00  0.00    -0.452 OA
ENDROOT
BRANCH   1  12
ATOM     12  C   UNL     1     126.395 116.145 100.655  1.00  0.00     0.029 A 
ATOM     13  C   UNL     1     125.904 116.683  99.455  1.00  0.00     0.062 A 
ATOM     14  C   UNL     1     126.319 116.169  98.220  1.00  0.00     0.162 A 
ATOM     15  C   UNL     1     127.282 115.057 100.603  1.00  0.00     0.062 A 
ATOM     16  C   UNL     1     127.223 115.094  98.176  1.00  0.00     0.200 A 
ATOM     17  C   UNL     1     127.699 114.537  99.370  1.00  0.00     0.162 A 
BRANCH  14  18
ATOM     18  O   UNL     1     125.835 116.721  97.034  1.00  0.00    -0.504 OA
ATOM     19  H   UNL     1     125.715 116.161  96.198  1.00  0.00     0.293 HD
ENDBRANCH  14  18
BRANCH  16  20
ATOM     20  O   UNL     1     127.652 114.566  96.959  1.00  0.00    -0.502 OA
ATOM     21  H   UNL     1     127.757 113.568  96.811  1.00  0.00     0.293 HD
ENDBRANCH  16  20
BRANCH  17  22
ATOM     22  O   UNL     1     128.585 113.461  99.323  1.00  0.00    -0.504 OA
ATOM     23  H   UNL     1     129.466 113.520  98.825  1.00  0.00     0.293 HD
ENDBRANCH  17  22
ENDBRANCH   1  12
BRANCH   2  24
ATOM     24  O   UNL     1     128.188 116.897 102.802  1.00  0.00    -0.502 OA
ATOM     25  H   UNL     1     128.832 116.784 103.576  1.00  0.00     0.293 HD
ENDBRANCH   2  24
BRANCH   6  26
ATOM     26  O   UNL     1     124.915 118.323 106.756  1.00  0.00    -0.507 OA
ATOM     27  H   UNL     1     125.644 119.005 106.897  1.00  0.00     0.293 HD
ENDBRANCH   6  26
BRANCH   8  28
ATOM     28  O   UNL     1     120.718 118.284 104.459  1.00  0.00    -0.508 OA
ATOM     29  H   UNL     1     120.172 118.074 105.288  1.00  0.00     0.293 HD
ENDBRANCH   8  28
TORSDOF 7
ENDMDL
MODEL 4
REMARK VINA RESULT:    -6.580      4.447      7.466
REMARK INTER + INTRA:          -8.159
REMARK INTER:                  -8.283
REMARK INTRA:                   0.124
REMARK UNBOUND:                -0.040
REMARK SMILES O=c1c(O)c(-c2cc(O)c(O)c(O)c2)oc2cc(O)cc(O)c12
REMARK SMILES IDX 5 1 3 2 2 3 1 4 23 5 21 6 20 7 18 8 17 9 16 10 15 11 6 12
REMARK SMILES IDX 7 13 8 14 14 15 10 16 12 17 9 18 11 20 13 22 4 24 22 26
REMARK SMILES IDX 19 28
REMARK H PARENT 9 19 11 21 13 23 4 25 22 27 19 29
REMARK Flexibility Score: inf
ROOT
ATOM      1  C   UNL     1     122.782 117.621 105.117  1.00  0.00     0.180 A 
ATOM      2  C   UNL     1     123.992 117.662 105.831  1.00  0.00     0.208 A 
ATOM      3  C   UNL     1     125.203 117.672 105.119  1.00  0.00     0.238 A 
ATOM      4  O   UNL     1     126.283 117.655 105.766  1.00  0.00    -0.285 OA
ATOM      5  C   UNL     1     125.188 117.659 103.704  1.00  0.00     0.111 A 
ATOM      6  C   UNL     1     126.353 117.708 102.882  1.00  0.00     0.134 A 
ATOM      7  C   UNL     1     126.226 117.557 101.494  1.00  0.00     0.093 A 
ATOM      8  C   UNL     1     124.973 117.424 100.896  1.00  0.00     0.123 A 
ATOM      9  C   UNL     1     123.823 117.435 101.686  1.00  0.00     0.094 A 
ATOM     10  C   UNL     1     123.920 117.547 103.076  1.00  0.00     0.146 A 
ATOM     11  O   UNL     1     122.803 117.543 103.792  1.00  0.00    -0.452 OA
ENDROOT
BRANCH   1  12
ATOM     12  C   UNL     1     121.466 117.633 105.796  1.00  0.00     0.029 A 
ATOM     13  C   UNL     1     121.267 116.831 106.931  1.00  0.00     0.062 A 
ATOM     14  C   UNL     1     120.026 116.808 107.580  1.00  0.00     0.162 A 
ATOM     15  C   UNL     1     120.392 118.388 105.297  1.00  0.00     0.062 A 
ATOM     16  C   UNL     1     118.962 117.582 107.086  1.00  0.00     0.200 A 
ATOM     17  C   UNL     1     119.147 118.367 105.940  1.00  0.00     0.162 A 
BRANCH  14  18
ATOM     18  O   UNL     1     119.844 116.018 108.714  1.00  0.00    -0.504 OA
ATOM     19  H   UNL     1     119.156 116.252 109.421  1.00  0.00     0.293 HD
ENDBRANCH  14  18
BRANCH  16  20
ATOM     20  O   UNL     1     117.718 117.578 107.715  1.00  0.00    -0.502 OA
ATOM     21  H   UNL     1     117.222 116.719 107.924  1.00  0.00     0.293 HD
ENDBRANCH  16  20
BRANCH  17  22
ATOM     22  O   UNL     1     118.086 119.123 105.445  1.00  0.00    -0.504 OA
ATOM     23  H   UNL     1     118.209 120.086 105.155  1.00  0.00     0.293 HD
ENDBRANCH  17  22
ENDBRANCH   1  12
BRANCH   2  24
ATOM     24  O   UNL     1     123.984 117.654 107.229  1.00  0.00    -0.502 OA
ATOM     25  H   UNL     1     124.381 116.895 107.770  1.00  0.00     0.293 HD
ENDBRANCH   2  24
BRANCH   6  26
ATOM     26  O   UNL     1     127.645 117.929 103.369  1.00  0.00    -0.507 OA
ATOM     27  H   UNL     1     128.315 118.559 102.953  1.00  0.00     0.293 HD
ENDBRANCH   6  26
BRANCH   8  28
ATOM     28  O   UNL     1     124.884 117.292  99.513  1.00  0.00    -0.508 OA
ATOM     29  H   UNL     1     125.407 117.895  98.888  1.00  0.00     0.293 HD
ENDBRANCH   8  28
TORSDOF 7
ENDMDL
MODEL 5
REMARK VINA RESULT:    -6.490      4.669      7.548
REMARK INTER + INTRA:          -8.047
REMARK INTER:                  -7.827
REMARK INTRA:                  -0.220
REMARK UNBOUND:                -0.040
REMARK SMILES O=c1c(O)c(-c2cc(O)c(O)c(O)c2)oc2cc(O)cc(O)c12
REMARK SMILES IDX 5 1 3 2 2 3 1 4 23 5 21 6 20 7 18 8 17 9 16 10 15 11 6 12
REMARK SMILES IDX 7 13 8 14 14 15 10 16 12 17 9 18 11 20 13 22 4 24 22 26
REMARK SMILES IDX 19 28
REMARK H PARENT 9 19 11 21 13 23 4 25 22 27 19 29
REMARK Flexibility Score: inf
ROOT
ATOM      1  C   UNL     1     123.889 117.422 101.455  1.00  0.00     0.180 A 
ATOM      2  C   UNL     1     125.287 117.565 101.426  1.00  0.00     0.208 A 
ATOM      3  C   UNL     1     125.982 117.708 102.638  1.00  0.00     0.238 A 
ATOM      4  O   UNL     1     127.228 117.890 102.602  1.00  0.00    -0.285 OA
ATOM      5  C   UNL     1     125.274 117.691 103.863  1.00  0.00     0.111 A 
ATOM      6  C   UNL     1     125.880 117.787 105.151  1.00  0.00     0.134 A 
ATOM      7  C   UNL     1     125.070 117.891 106.290  1.00  0.00     0.093 A 
ATOM      8  C   UNL     1     123.680 117.835 106.193  1.00  0.00     0.123 A 
ATOM      9  C   UNL     1     123.079 117.680 104.943  1.00  0.00     0.094 A 
ATOM     10  C   UNL     1     123.858 117.612 103.785  1.00  0.00     0.146 A 
ATOM     11  O   UNL     1     123.247 117.475 102.616  1.00  0.00    -0.452 OA
ENDROOT
BRANCH   1  12
ATOM     12  C   UNL     1     123.091 117.241 100.222  1.00  0.00     0.029 A 
ATOM     13  C   UNL     1     122.486 116.000  99.966  1.00  0.00     0.062 A 
ATOM     14  C   UNL     1     121.742 115.795  98.797  1.00  0.00     0.162 A 
ATOM     15  C   UNL     1     122.970 118.267  99.271  1.00  0.00     0.062 A 
ATOM     16  C   UNL     1     121.610 116.834  97.860  1.00  0.00     0.200 A 
ATOM     17  C   UNL     1     122.230 118.068  98.098  1.00  0.00     0.162 A 
BRANCH  14  18
ATOM     18  O   UNL     1     121.134 114.563  98.560  1.00  0.00    -0.504 OA
ATOM     19  H   UNL     1     120.299 114.482  97.992  1.00  0.00     0.293 HD
ENDBRANCH  14  18
BRANCH  16  20
ATOM     20  O   UNL     1     120.873 116.657  96.689  1.00  0.00    -0.502 OA
ATOM     21  H   UNL     1     120.468 117.436  96.184  1.00  0.00     0.293 HD
ENDBRANCH  16  20
BRANCH  17  22
ATOM     22  O   UNL     1     122.108 119.092  97.160  1.00  0.00    -0.504 OA
ATOM     23  H   UNL     1     122.920 119.516  96.727  1.00  0.00     0.293 HD
ENDBRANCH  17  22
ENDBRANCH   1  12
BRANCH   2  24
ATOM     24  O   UNL     1     125.965 117.601 100.205  1.00  0.00    -0.502 OA
ATOM     25  H   UNL     1     126.210 116.761  99.694  1.00  0.00     0.293 HD
ENDBRANCH   2  24
BRANCH   6  26
ATOM     26  O   UNL     1     127.261 117.758 105.369  1.00  0.00    -0.507 OA
ATOM     27  H   UNL     1     127.841 118.576 105.479  1.00  0.00     0.293 HD
ENDBRANCH   6  26
BRANCH   8  28
ATOM     28  O   UNL     1     122.907 117.925 107.347  1.00  0.00    -0.508 OA
ATOM     29  H   UNL     1     122.372 117.135 107.690  1.00  0.00     0.293 HD
ENDBRANCH   8  28
TORSDOF 7
ENDMDL
MODEL 6
REMARK VINA RESULT:    -6.371      3.353      6.576
REMARK INTER + INTRA:          -7.900
REMARK INTER:                  -7.759
REMARK INTRA:                  -0.141
REMARK UNBOUND:                -0.040
REMARK SMILES O=c1c(O)c(-c2cc(O)c(O)c(O)c2)oc2cc(O)cc(O)c12
REMARK SMILES IDX 5 1 3 2 2 3 1 4 23 5 21 6 20 7 18 8 17 9 16 10 15 11 6 12
REMARK SMILES IDX 7 13 8 14 14 15 10 16 12 17 9 18 11 20 13 22 4 24 22 26
REMARK SMILES IDX 19 28
REMARK H PARENT 9 19 11 21 13 23 4 25 22 27 19 29
REMARK Flexibility Score: inf
ROOT
ATOM      1  C   UNL     1     123.535 117.138 101.331  1.00  0.00     0.180 A 
ATOM      2  C   UNL     1     123.268 117.549 102.648  1.00  0.00     0.208 A 
ATOM      3  C   UNL     1     124.311 117.540 103.589  1.00  0.00     0.238 A 
ATOM      4  O   UNL     1     124.052 117.859 104.779  1.00  0.00    -0.285 OA
ATOM      5  C   UNL     1     125.609 117.137 103.197  1.00  0.00     0.111 A 
ATOM      6  C   UNL     1     126.748 117.129 104.056  1.00  0.00     0.134 A 
ATOM      7  C   UNL     1     127.956 116.585 103.598  1.00  0.00     0.093 A 
ATOM      8  C   UNL     1     128.083 116.112 102.292  1.00  0.00     0.123 A 
ATOM      9  C   UNL     1     126.992 116.172 101.425  1.00  0.00     0.094 A 
ATOM     10  C   UNL     1     125.763 116.673 101.864  1.00  0.00     0.146 A 
ATOM     11  O   UNL     1     124.748 116.702 101.011  1.00  0.00    -0.452 OA
ENDROOT
BRANCH   1  12
ATOM     12  C   UNL     1     122.494 117.143 100.278  1.00  0.00     0.029 A 
ATOM     13  C   UNL     1     122.649 117.974  99.157  1.00  0.00     0.062 A 
ATOM     14  C   UNL     1     121.669 118.014  98.156  1.00  0.00     0.162 A 
ATOM     15  C   UNL     1     121.324 116.375 100.401  1.00  0.00     0.062 A 
ATOM     16  C   UNL     1     120.511 117.228  98.278  1.00  0.00     0.200 A 
ATOM     17  C   UNL     1     120.340 116.412  99.405  1.00  0.00     0.162 A 
BRANCH  14  18
ATOM     18  O   UNL     1     121.841 118.834  97.042  1.00  0.00    -0.504 OA
ATOM     19  H   UNL     1     122.667 119.409  96.927  1.00  0.00     0.293 HD
ENDBRANCH  14  18
BRANCH  16  20
ATOM     20  O   UNL     1     119.523 117.247  97.295  1.00  0.00    -0.502 OA
ATOM     21  H   UNL     1     118.691 117.821  97.378  1.00  0.00     0.293 HD
ENDBRANCH  16  20
BRANCH  17  22
ATOM     22  O   UNL     1     119.183 115.644  99.529  1.00  0.00    -0.504 OA
ATOM     23  H   UNL     1     118.450 115.889 100.183  1.00  0.00     0.293 HD
ENDBRANCH  17  22
ENDBRANCH   1  12
BRANCH   2  24
ATOM     24  O   UNL     1     121.973 117.923 103.019  1.00  0.00    -0.502 OA
ATOM     25  H   UNL     1     121.736 118.198 103.964  1.00  0.00     0.293 HD
ENDBRANCH   2  24
BRANCH   6  26
ATOM     26  O   UNL     1     126.756 117.661 105.349  1.00  0.00    -0.507 OA
ATOM     27  H   UNL     1     127.243 117.256 106.134  1.00  0.00     0.293 HD
ENDBRANCH   6  26
BRANCH   8  28
ATOM     28  O   UNL     1     129.302 115.594 101.866  1.00  0.00    -0.508 OA
ATOM     29  H   UNL     1     129.514 114.605 101.940  1.00  0.00     0.293 HD
ENDBRANCH   8  28
TORSDOF 7
ENDMDL
MODEL 7
REMARK VINA RESULT:    -6.226      2.571      7.492
REMARK INTER + INTRA:          -7.722
REMARK INTER:                  -7.384
REMARK INTRA:                  -0.338
REMARK UNBOUND:                -0.040
REMARK SMILES O=c1c(O)c(-c2cc(O)c(O)c(O)c2)oc2cc(O)cc(O)c12
REMARK SMILES IDX 5 1 3 2 2 3 1 4 23 5 21 6 20 7 18 8 17 9 16 10 15 11 6 12
REMARK SMILES IDX 7 13 8 14 14 15 10 16 12 17 9 18 11 20 13 22 4 24 22 26
REMARK SMILES IDX 19 28
REMARK H PARENT 9 19 11 21 13 23 4 25 22 27 19 29
REMARK Flexibility Score: inf
ROOT
ATOM      1  C   UNL     1     127.288 115.213 100.752  1.00  0.00     0.180 A 
ATOM      2  C   UNL     1     127.837 115.850 101.878  1.00  0.00     0.208 A 
ATOM      3  C   UNL     1     127.000 116.628 102.695  1.00  0.00     0.238 A 
ATOM      4  O   UNL     1     127.509 117.239 103.672  1.00  0.00    -0.285 OA
ATOM      5  C   UNL     1     125.624 116.745 102.387  1.00  0.00     0.111 A 
ATOM      6  C   UNL     1     124.678 117.473 103.168  1.00  0.00     0.134 A 
ATOM      7  C   UNL     1     123.368 117.631 102.696  1.00  0.00     0.093 A 
ATOM      8  C   UNL     1     122.954 117.031 101.507  1.00  0.00     0.123 A 
ATOM      9  C   UNL     1     123.855 116.267 100.766  1.00  0.00     0.094 A 
ATOM     10  C   UNL     1     125.179 116.123 101.191  1.00  0.00     0.146 A 
ATOM     11  O   UNL     1     126.007 115.396 100.452  1.00  0.00    -0.452 OA
ENDROOT
BRANCH   1  12
ATOM     12  C   UNL     1     128.100 114.357  99.857  1.00  0.00     0.029 A 
ATOM     13  C   UNL     1     128.513 114.856  98.612  1.00  0.00     0.062 A 
ATOM     14  C   UNL     1     129.265 114.060  97.738  1.00  0.00     0.162 A 
ATOM     15  C   UNL     1     128.419 113.034 100.203  1.00  0.00     0.062 A 
ATOM     16  C   UNL     1     129.598 112.743  98.100  1.00  0.00     0.200 A 
ATOM     17  C   UNL     1     129.169 112.231  99.332  1.00  0.00     0.162 A 
BRANCH  14  18
ATOM     18  O   UNL     1     129.682 114.570  96.509  1.00  0.00    -0.504 OA
ATOM     19  H   UNL     1     129.600 114.032  95.655  1.00  0.00     0.293 HD
ENDBRANCH  14  18
BRANCH  16  20
ATOM     20  O   UNL     1     130.347 111.932  97.249  1.00  0.00    -0.502 OA
ATOM     21  H   UNL     1     131.053 112.309  96.627  1.00  0.00     0.293 HD
ENDBRANCH  16  20
BRANCH  17  22
ATOM     22  O   UNL     1     129.489 110.921  99.682  1.00  0.00    -0.504 OA
ATOM     23  H   UNL     1     129.007 110.129  99.274  1.00  0.00     0.293 HD
ENDBRANCH  17  22
ENDBRANCH   1  12
BRANCH   2  24
ATOM     24  O   UNL     1     129.202 115.738 102.153  1.00  0.00    -0.502 OA
ATOM     25  H   UNL     1     129.903 116.271 101.652  1.00  0.00     0.293 HD
ENDBRANCH   2  24
BRANCH   6  26
ATOM     26  O   UNL     1     124.962 118.035 104.417  1.00  0.00    -0.507 OA
ATOM     27  H   UNL     1     125.236 118.994 104.565  1.00  0.00     0.293 HD
ENDBRANCH   6  26
BRANCH   8  28
ATOM     28  O   UNL     1     121.640 117.195 101.077  1.00  0.00    -0.508 OA
ATOM     29  H   UNL     1     120.953 117.682 101.644  1.00  0.00     0.293 HD
ENDBRANCH   8  28
TORSDOF 7
ENDMDL
MODEL 8
REMARK VINA RESULT:    -6.194      5.151      7.815
REMARK INTER + INTRA:          -7.682
REMARK INTER:                  -7.326
REMARK INTRA:                  -0.356
REMARK UNBOUND:                -0.040
REMARK SMILES O=c1c(O)c(-c2cc(O)c(O)c(O)c2)oc2cc(O)cc(O)c12
REMARK SMILES IDX 5 1 3 2 2 3 1 4 23 5 21 6 20 7 18 8 17 9 16 10 15 11 6 12
REMARK SMILES IDX 7 13 8 14 14 15 10 16 12 17 9 18 11 20 13 22 4 24 22 26
REMARK SMILES IDX 19 28
REMARK H PARENT 9 19 11 21 13 23 4 25 22 27 19 29
REMARK Flexibility Score: inf
ROOT
ATOM      1  C   UNL     1     130.860 115.888  96.723  1.00  0.00     0.180 A 
ATOM      2  C   UNL     1     131.393 115.104  95.685  1.00  0.00     0.208 A 
ATOM      3  C   UNL     1     130.646 114.935  94.507  1.00  0.00     0.238 A 
ATOM      4  O   UNL     1     131.105 114.188  93.603  1.00  0.00    -0.285 OA
ATOM      5  C   UNL     1     129.385 115.563  94.377  1.00  0.00     0.111 A 
ATOM      6  C   UNL     1     128.562 115.493  93.213  1.00  0.00     0.134 A 
ATOM      7  C   UNL     1     127.274 116.045  93.243  1.00  0.00     0.093 A 
ATOM      8  C   UNL     1     126.807 116.722  94.370  1.00  0.00     0.123 A 
ATOM      9  C   UNL     1     127.627 116.848  95.491  1.00  0.00     0.094 A 
ATOM     10  C   UNL     1     128.902 116.275  95.505  1.00  0.00     0.146 A 
ATOM     11  O   UNL     1     129.646 116.410  96.596  1.00  0.00    -0.452 OA
ENDROOT
BRANCH   1  12
ATOM     12  C   UNL     1     131.598 116.133  97.983  1.00  0.00     0.029 A 
ATOM     13  C   UNL     1     132.508 117.200  98.054  1.00  0.00     0.062 A 
ATOM     14  C   UNL     1     133.234 117.441  99.227  1.00  0.00     0.162 A 
ATOM     15  C   UNL     1     131.450 115.286  99.094  1.00  0.00     0.062 A 
ATOM     16  C   UNL     1     133.066 116.602 100.341  1.00  0.00     0.200 A 
ATOM     17  C   UNL     1     132.176 115.521 100.269  1.00  0.00     0.162 A 
BRANCH  14  18
ATOM     18  O   UNL     1     134.125 118.512  99.291  1.00  0.00    -0.504 OA
ATOM     19  H   UNL     1     134.405 119.020  98.460  1.00  0.00     0.293 HD
ENDBRANCH  14  18
BRANCH  16  20
ATOM     20  O   UNL     1     133.775 116.822 101.521  1.00  0.00    -0.502 OA
ATOM     21  H   UNL     1     133.326 116.817 102.429  1.00  0.00     0.293 HD
ENDBRANCH  16  20
BRANCH  17  22
ATOM     22  O   UNL     1     132.022 114.682 101.372  1.00  0.00    -0.504 OA
ATOM     23  H   UNL     1     132.741 114.021 101.641  1.00  0.00     0.293 HD
ENDBRANCH  17  22
ENDBRANCH   1  12
BRANCH   2  24
ATOM     24  O   UNL     1     132.631 114.475  95.843  1.00  0.00    -0.502 OA
ATOM     25  H   UNL     1     132.753 113.477  95.722  1.00  0.00     0.293 HD
ENDBRANCH   2  24
BRANCH   6  26
ATOM     26  O   UNL     1     128.966 114.920  92.003  1.00  0.00    -0.507 OA
ATOM     27  H   UNL     1     129.333 113.986  91.905  1.00  0.00     0.293 HD
ENDBRANCH   6  26
BRANCH   8  28
ATOM     28  O   UNL     1     125.528 117.272  94.358  1.00  0.00    -0.508 OA
ATOM     29  H   UNL     1     125.318 118.113  93.833  1.00  0.00     0.293 HD
ENDBRANCH   8  28
TORSDOF 7
ENDMDL
MODEL 9
REMARK VINA RESULT:    -6.175      3.108      4.073
REMARK INTER + INTRA:          -7.659
REMARK INTER:                  -7.583
REMARK INTRA:                  -0.076
REMARK UNBOUND:                -0.040
REMARK SMILES O=c1c(O)c(-c2cc(O)c(O)c(O)c2)oc2cc(O)cc(O)c12
REMARK SMILES IDX 5 1 3 2 2 3 1 4 23 5 21 6 20 7 18 8 17 9 16 10 15 11 6 12
REMARK SMILES IDX 7 13 8 14 14 15 10 16 12 17 9 18 11 20 13 22 4 24 22 26
REMARK SMILES IDX 19 28
REMARK H PARENT 9 19 11 21 13 23 4 25 22 27 19 29
REMARK Flexibility Score: inf
ROOT
ATOM      1  C   UNL     1     126.159 116.037 100.986  1.00  0.00     0.180 A 
ATOM      2  C   UNL     1     126.035 116.610  99.708  1.00  0.00     0.208 A 
ATOM      3  C   UNL     1     126.595 115.943  98.606  1.00  0.00     0.238 A 
ATOM      4  O   UNL     1     126.527 116.488  97.473  1.00  0.00    -0.285 OA
ATOM      5  C   UNL     1     127.256 114.706  98.792  1.00  0.00     0.111 A 
ATOM      6  C   UNL     1     127.824 113.925  97.741  1.00  0.00     0.134 A 
ATOM      7  C   UNL     1     128.569 112.781  98.056  1.00  0.00     0.093 A 
ATOM      8  C   UNL     1     128.711 112.354  99.376  1.00  0.00     0.123 A 
ATOM      9  C   UNL     1     128.108 113.078 100.406  1.00  0.00     0.094 A 
ATOM     10  C   UNL     1     127.390 114.244 100.127  1.00  0.00     0.146 A 
ATOM     11  O   UNL     1     126.842 114.908 101.137  1.00  0.00    -0.452 OA
ENDROOT
BRANCH   1  12
ATOM     12  C   UNL     1     125.575 116.666 102.191  1.00  0.00     0.029 A 
ATOM     13  C   UNL     1     126.368 116.833 103.337  1.00  0.00     0.062 A 
ATOM     14  C   UNL     1     125.834 117.408 104.498  1.00  0.00     0.162 A 
ATOM     15  C   UNL     1     124.224 117.051 102.234  1.00  0.00     0.062 A 
ATOM     16  C   UNL     1     124.487 117.808 104.526  1.00  0.00     0.200 A 
ATOM     17  C   UNL     1     123.683 117.624 103.393  1.00  0.00     0.162 A 
BRANCH  14  18
ATOM     18  O   UNL     1     126.635 117.581 105.626  1.00  0.00    -0.504 OA
ATOM     19  H   UNL     1     127.436 116.985 105.805  1.00  0.00     0.293 HD
ENDBRANCH  14  18
BRANCH  16  20
ATOM     20  O   UNL     1     123.932 118.384 105.668  1.00  0.00    -0.502 OA
ATOM     21  H   UNL     1     123.295 117.878 106.272  1.00  0.00     0.293 HD
ENDBRANCH  16  20
BRANCH  17  22
ATOM     22  O   UNL     1     122.344 118.010 103.429  1.00  0.00    -0.504 OA
ATOM     23  H   UNL     1     122.070 118.982 103.358  1.00  0.00     0.293 HD
ENDBRANCH  17  22
ENDBRANCH   1  12
BRANCH   2  24
ATOM     24  O   UNL     1     125.397 117.842  99.550  1.00  0.00    -0.502 OA
ATOM     25  H   UNL     1     125.123 118.201  98.643  1.00  0.00     0.293 HD
ENDBRANCH   2  24
BRANCH   6  26
ATOM     26  O   UNL     1     127.665 114.210  96.382  1.00  0.00    -0.507 OA
ATOM     27  H   UNL     1     128.349 114.007  95.669  1.00  0.00     0.293 HD
ENDBRANCH   6  26
BRANCH   8  28
ATOM     28  O   UNL     1     129.445 111.204  99.651  1.00  0.00    -0.508 OA
ATOM     29  H   UNL     1     129.451 110.414  99.015  1.00  0.00     0.293 HD
ENDBRANCH   8  28
TORSDOF 7
ENDMDL
