MODEL 1
REMARK VINA RESULT:    -4.889      0.000      0.000
REMARK INTER + INTRA:          -7.235
REMARK INTER:                  -6.604
REMARK INTRA:                  -0.632
REMARK UNBOUND:                -0.632
REMARK SMILES CCCCCCC=CC(=O)[O-]
REMARK SMILES IDX 5 1 6 2 7 3 8 4 9 5 10 6 11 7 4 8 3 9 2 10 1 11
REMARK H PARENT
REMARK Flexibility Score: inf
ROOT
ATOM      1  C   UNL     1      22.882 -22.018  -7.739  1.00  0.00     0.004 C 
ENDROOT
BRANCH   1   2
ATOM      2  C   UNL     1      21.603 -21.371  -8.297  1.00  0.00     0.027 C 
BRANCH   2   3
ATOM      3  C   UNL     1      21.235 -21.961  -9.628  1.00  0.00    -0.025 C 
ATOM      4  C   UNL     1      21.079 -23.279  -9.790  1.00  0.00     0.020 C 
BRANCH   4   5
ATOM      5  C   UNL     1      20.732 -23.870 -11.091  1.00  0.00     0.064 C 
ATOM      6  O   UNL     1      20.760 -23.154 -12.125  1.00  0.00    -0.545 OA
ATOM      7  O   UNL     1      20.377 -25.209 -11.197  1.00  0.00    -0.545 OA
ENDBRANCH   4   5
ENDBRANCH   2   3
ENDBRANCH   1   2
BRANCH   1   8
ATOM      8  C   UNL     1      24.153 -21.501  -8.432  1.00  0.00     0.000 C 
BRANCH   8   9
ATOM      9  C   UNL     1      24.845 -22.583  -9.278  1.00  0.00    -0.000 C 
BRANCH   9  10
ATOM     10  C   UNL     1      25.069 -22.139 -10.731  1.00  0.00    -0.003 C 
ATOM     11  C   UNL     1      24.877 -20.636 -10.925  1.00  0.00     0.004 C 
ENDBRANCH   9  10
ENDBRANCH   8   9
ENDBRANCH   1   8
TORSDOF 6
ENDMDL
MODEL 2
REMARK VINA RESULT:    -4.781      2.601      4.702
REMARK INTER + INTRA:          -7.090
REMARK INTER:                  -6.506
REMARK INTRA:                  -0.584
REMARK UNBOUND:                -0.632
REMARK SMILES CCCCCCC=CC(=O)[O-]
REMARK SMILES IDX 5 1 6 2 7 3 8 4 9 5 10 6 11 7 4 8 3 9 2 10 1 11
REMARK H PARENT
REMARK Flexibility Score: inf
ROOT
ATOM      1  C   UNL     1      22.673 -24.734  -7.897  1.00  0.00     0.004 C 
ENDROOT
BRANCH   1   2
ATOM      2  C   UNL     1      24.004 -25.311  -8.406  1.00  0.00     0.027 C 
BRANCH   2   3
ATOM      3  C   UNL     1      24.451 -24.615  -9.660  1.00  0.00    -0.025 C 
ATOM      4  C   UNL     1      24.458 -23.281  -9.754  1.00  0.00     0.020 C 
BRANCH   4   5
ATOM      5  C   UNL     1      24.880 -22.587 -10.980  1.00  0.00     0.064 C 
ATOM      6  O   UNL     1      24.883 -23.207 -12.074  1.00  0.00    -0.545 OA
ATOM      7  O   UNL     1      25.273 -21.254 -10.949  1.00  0.00    -0.545 OA
ENDBRANCH   4   5
ENDBRANCH   2   3
ENDBRANCH   1   2
BRANCH   1   8
ATOM      8  C   UNL     1      21.471 -25.199  -8.734  1.00  0.00     0.000 C 
BRANCH   8   9
ATOM      9  C   UNL     1      20.774 -24.037  -9.461  1.00  0.00    -0.000 C 
BRANCH   9  10
ATOM     10  C   UNL     1      20.377 -24.397 -10.901  1.00  0.00    -0.003 C 
ATOM     11  C   UNL     1      20.820 -25.803 -11.301  1.00  0.00     0.004 C 
ENDBRANCH   9  10
ENDBRANCH   8   9
ENDBRANCH   1   8
TORSDOF 6
ENDMDL
MODEL 3
REMARK VINA RESULT:    -4.701      2.779      4.818
REMARK INTER + INTRA:          -6.981
REMARK INTER:                  -6.206
REMARK INTRA:                  -0.775
REMARK UNBOUND:                -0.632
REMARK SMILES CCCCCCC=CC(=O)[O-]
REMARK SMILES IDX 5 1 6 2 7 3 8 4 9 5 10 6 11 7 4 8 3 9 2 10 1 11
REMARK H PARENT
REMARK Flexibility Score: inf
ROOT
ATOM      1  C   UNL     1      22.589 -25.423  -9.863  1.00  0.00     0.004 C 
ENDROOT
BRANCH   1   2
ATOM      2  C   UNL     1      24.042 -25.133 -10.271  1.00  0.00     0.027 C 
BRANCH   2   3
ATOM      3  C   UNL     1      24.455 -23.750  -9.856  1.00  0.00    -0.025 C 
ATOM      4  C   UNL     1      24.409 -22.722 -10.709  1.00  0.00     0.020 C 
BRANCH   4   5
ATOM      5  C   UNL     1      24.824 -21.366 -10.320  1.00  0.00     0.064 C 
ATOM      6  O   UNL     1      24.849 -21.050  -9.103  1.00  0.00    -0.545 OA
ATOM      7  O   UNL     1      25.191 -20.427 -11.277  1.00  0.00    -0.545 OA
ENDBRANCH   4   5
ENDBRANCH   2   3
ENDBRANCH   1   2
BRANCH   1   8
ATOM      8  C   UNL     1      21.600 -25.225 -11.023  1.00  0.00     0.000 C 
BRANCH   8   9
ATOM      9  C   UNL     1      20.784 -23.929 -10.887  1.00  0.00    -0.000 C 
BRANCH   9  10
ATOM     10  C   UNL     1      20.709 -23.430  -9.437  1.00  0.00    -0.003 C 
ATOM     11  C   UNL     1      21.055 -21.948  -9.304  1.00  0.00     0.004 C 
ENDBRANCH   9  10
ENDBRANCH   8   9
ENDBRANCH   1   8
TORSDOF 6
ENDMDL
MODEL 4
REMARK VINA RESULT:    -4.688      3.078      4.549
REMARK INTER + INTRA:          -6.964
REMARK INTER:                  -6.210
REMARK INTRA:                  -0.754
REMARK UNBOUND:                -0.632
REMARK SMILES CCCCCCC=CC(=O)[O-]
REMARK SMILES IDX 5 1 6 2 7 3 8 4 9 5 10 6 11 7 4 8 3 9 2 10 1 11
REMARK H PARENT
REMARK Flexibility Score: inf
ROOT
ATOM      1  C   UNL     1      20.707 -24.979 -10.039  1.00  0.00     0.004 C 
ENDROOT
BRANCH   1   2
ATOM      2  C   UNL     1      21.867 -25.759 -10.679  1.00  0.00     0.027 C 
BRANCH   2   3
ATOM      3  C   UNL     1      23.195 -25.189 -10.270  1.00  0.00    -0.025 C 
ATOM      4  C   UNL     1      23.621 -25.250  -9.004  1.00  0.00     0.020 C 
BRANCH   4   5
ATOM      5  C   UNL     1      24.913 -24.684  -8.588  1.00  0.00     0.064 C 
ATOM      6  O   UNL     1      25.729 -25.400  -7.952  1.00  0.00    -0.545 OA
ATOM      7  O   UNL     1      25.248 -23.368  -8.886  1.00  0.00    -0.545 OA
ENDBRANCH   4   5
ENDBRANCH   2   3
ENDBRANCH   1   2
BRANCH   1   8
ATOM      8  C   UNL     1      20.752 -23.479 -10.373  1.00  0.00     0.000 C 
BRANCH   8   9
ATOM      9  C   UNL     1      20.753 -22.594  -9.114  1.00  0.00    -0.000 C 
BRANCH   9  10
ATOM     10  C   UNL     1      22.040 -21.766  -8.979  1.00  0.00    -0.003 C 
ATOM     11  C   UNL     1      22.691 -21.463 -10.327  1.00  0.00     0.004 C 
ENDBRANCH   9  10
ENDBRANCH   8   9
ENDBRANCH   1   8
TORSDOF 6
ENDMDL
MODEL 5
REMARK VINA RESULT:    -4.676      2.690      4.387
REMARK INTER + INTRA:          -6.948
REMARK INTER:                  -6.232
REMARK INTRA:                  -0.717
REMARK UNBOUND:                -0.632
REMARK SMILES CCCCCCC=CC(=O)[O-]
REMARK SMILES IDX 5 1 6 2 7 3 8 4 9 5 10 6 11 7 4 8 3 9 2 10 1 11
REMARK H PARENT
REMARK Flexibility Score: inf
ROOT
ATOM      1  C   UNL     1      20.687 -23.418  -9.607  1.00  0.00     0.004 C 
ENDROOT
BRANCH   1   2
ATOM      2  C   UNL     1      21.222 -22.006  -9.324  1.00  0.00     0.027 C 
BRANCH   2   3
ATOM      3  C   UNL     1      22.440 -21.712 -10.153  1.00  0.00    -0.025 C 
ATOM      4  C   UNL     1      23.644 -21.549  -9.593  1.00  0.00     0.020 C 
BRANCH   4   5
ATOM      5  C   UNL     1      24.841 -21.248 -10.391  1.00  0.00     0.064 C 
ATOM      6  O   UNL     1      25.559 -22.191 -10.815  1.00  0.00    -0.545 OA
ATOM      7  O   UNL     1      25.194 -19.937 -10.688  1.00  0.00    -0.545 OA
ENDBRANCH   4   5
ENDBRANCH   2   3
ENDBRANCH   1   2
BRANCH   1   8
ATOM      8  C   UNL     1      20.746 -23.782 -11.100  1.00  0.00     0.000 C 
BRANCH   8   9
ATOM      9  C   UNL     1      21.535 -25.076 -11.360  1.00  0.00    -0.000 C 
BRANCH   9  10
ATOM     10  C   UNL     1      22.348 -25.526 -10.137  1.00  0.00    -0.003 C 
ATOM     11  C   UNL     1      23.841 -25.233 -10.280  1.00  0.00     0.004 C 
ENDBRANCH   9  10
ENDBRANCH   8   9
ENDBRANCH   1   8
TORSDOF 6
ENDMDL
MODEL 6
REMARK VINA RESULT:    -4.646      2.554      3.526
REMARK INTER + INTRA:          -6.908
REMARK INTER:                  -6.169
REMARK INTRA:                  -0.739
REMARK UNBOUND:                -0.632
REMARK SMILES CCCCCCC=CC(=O)[O-]
REMARK SMILES IDX 5 1 6 2 7 3 8 4 9 5 10 6 11 7 4 8 3 9 2 10 1 11
REMARK H PARENT
REMARK Flexibility Score: inf
ROOT
ATOM      1  C   UNL     1      22.427 -23.763 -11.705  1.00  0.00     0.004 C 
ENDROOT
BRANCH   1   2
ATOM      2  C   UNL     1      21.132 -22.999 -11.383  1.00  0.00     0.027 C 
BRANCH   2   3
ATOM      3  C   UNL     1      21.337 -22.043 -10.242  1.00  0.00    -0.025 C 
ATOM      4  C   UNL     1      21.860 -22.445  -9.079  1.00  0.00     0.020 C 
BRANCH   4   5
ATOM      5  C   UNL     1      22.054 -21.524  -7.950  1.00  0.00     0.064 C 
ATOM      6  O   UNL     1      21.122 -20.747  -7.617  1.00  0.00    -0.545 OA
ATOM      7  O   UNL     1      23.250 -21.498  -7.243  1.00  0.00    -0.545 OA
ENDBRANCH   4   5
ENDBRANCH   2   3
ENDBRANCH   1   2
BRANCH   1   8
ATOM      8  C   UNL     1      23.536 -22.843 -12.239  1.00  0.00     0.000 C 
BRANCH   8   9
ATOM      9  C   UNL     1      24.880 -23.063 -11.524  1.00  0.00    -0.000 C 
BRANCH   9  10
ATOM     10  C   UNL     1      25.236 -21.911 -10.572  1.00  0.00    -0.003 C 
ATOM     11  C   UNL     1      24.642 -20.575 -11.016  1.00  0.00     0.004 C 
ENDBRANCH   9  10
ENDBRANCH   8   9
ENDBRANCH   1   8
TORSDOF 6
ENDMDL
MODEL 7
REMARK VINA RESULT:    -4.636      2.294      3.522
REMARK INTER + INTRA:          -6.894
REMARK INTER:                  -6.178
REMARK INTRA:                  -0.715
REMARK UNBOUND:                -0.632
REMARK SMILES CCCCCCC=CC(=O)[O-]
REMARK SMILES IDX 5 1 6 2 7 3 8 4 9 5 10 6 11 7 4 8 3 9 2 10 1 11
REMARK H PARENT
REMARK Flexibility Score: inf
ROOT
ATOM      1  C   UNL     1      25.154 -22.295 -10.505  1.00  0.00     0.004 C 
ENDROOT
BRANCH   1   2
ATOM      2  C   UNL     1      24.318 -21.005 -10.476  1.00  0.00     0.027 C 
BRANCH   2   3
ATOM      3  C   UNL     1      22.863 -21.308 -10.257  1.00  0.00    -0.025 C 
ATOM      4  C   UNL     1      22.368 -21.512  -9.032  1.00  0.00     0.020 C 
BRANCH   4   5
ATOM      5  C   UNL     1      20.949 -21.822  -8.805  1.00  0.00     0.064 C 
ATOM      6  O   UNL     1      20.495 -22.942  -9.157  1.00  0.00    -0.545 OA
ATOM      7  O   UNL     1      20.101 -20.900  -8.204  1.00  0.00    -0.545 OA
ENDBRANCH   4   5
ENDBRANCH   2   3
ENDBRANCH   1   2
BRANCH   1   8
ATOM      8  C   UNL     1      24.524 -23.385 -11.386  1.00  0.00     0.000 C 
BRANCH   8   9
ATOM      9  C   UNL     1      24.220 -24.674 -10.604  1.00  0.00    -0.000 C 
BRANCH   9  10
ATOM     10  C   UNL     1      24.578 -24.556  -9.115  1.00  0.00    -0.003 C 
ATOM     11  C   UNL     1      23.455 -25.040  -8.198  1.00  0.00     0.004 C 
ENDBRANCH   9  10
ENDBRANCH   8   9
ENDBRANCH   1   8
TORSDOF 6
ENDMDL
MODEL 8
REMARK VINA RESULT:    -4.626      3.160      4.862
REMARK INTER + INTRA:          -6.880
REMARK INTER:                  -6.228
REMARK INTRA:                  -0.652
REMARK UNBOUND:                -0.632
REMARK SMILES CCCCCCC=CC(=O)[O-]
REMARK SMILES IDX 5 1 6 2 7 3 8 4 9 5 10 6 11 7 4 8 3 9 2 10 1 11
REMARK H PARENT
REMARK Flexibility Score: inf
ROOT
ATOM      1  C   UNL     1      22.976 -21.866 -10.634  1.00  0.00     0.004 C 
ENDROOT
BRANCH   1   2
ATOM      2  C   UNL     1      23.812 -23.089 -11.045  1.00  0.00     0.027 C 
BRANCH   2   3
ATOM      3  C   UNL     1      24.488 -23.708  -9.855  1.00  0.00    -0.025 C 
ATOM      4  C   UNL     1      24.002 -24.807  -9.269  1.00  0.00     0.020 C 
BRANCH   4   5
ATOM      5  C   UNL     1      24.645 -25.414  -8.095  1.00  0.00     0.064 C 
ATOM      6  O   UNL     1      25.701 -26.083  -8.242  1.00  0.00    -0.545 OA
ATOM      7  O   UNL     1      24.108 -25.260  -6.822  1.00  0.00    -0.545 OA
ENDBRANCH   4   5
ENDBRANCH   2   3
ENDBRANCH   1   2
BRANCH   1   8
ATOM      8  C   UNL     1      21.481 -22.194 -10.494  1.00  0.00     0.000 C 
BRANCH   8   9
ATOM      9  C   UNL     1      21.036 -23.331 -11.430  1.00  0.00    -0.000 C 
BRANCH   9  10
ATOM     10  C   UNL     1      20.344 -24.477 -10.676  1.00  0.00    -0.003 C 
ATOM     11  C   UNL     1      20.765 -25.855 -11.182  1.00  0.00     0.004 C 
ENDBRANCH   9  10
ENDBRANCH   8   9
ENDBRANCH   1   8
TORSDOF 6
ENDMDL
MODEL 9
REMARK VINA RESULT:    -4.614      1.718      2.948
REMARK INTER + INTRA:          -6.864
REMARK INTER:                  -6.108
REMARK INTRA:                  -0.756
REMARK UNBOUND:                -0.632
REMARK SMILES CCCCCCC=CC(=O)[O-]
REMARK SMILES IDX 5 1 6 2 7 3 8 4 9 5 10 6 11 7 4 8 3 9 2 10 1 11
REMARK H PARENT
REMARK Flexibility Score: inf
ROOT
ATOM      1  C   UNL     1      24.854 -23.757  -8.815  1.00  0.00     0.004 C 
ENDROOT
BRANCH   1   2
ATOM      2  C   UNL     1      24.410 -25.199  -9.108  1.00  0.00     0.027 C 
BRANCH   2   3
ATOM      3  C   UNL     1      23.215 -25.223 -10.018  1.00  0.00    -0.025 C 
ATOM      4  C   UNL     1      21.969 -25.261  -9.533  1.00  0.00     0.020 C 
BRANCH   4   5
ATOM      5  C   UNL     1      20.791 -25.299 -10.412  1.00  0.00     0.064 C 
ATOM      6  O   UNL     1      20.456 -26.383 -10.955  1.00  0.00    -0.545 OA
ATOM      7  O   UNL     1      20.038 -24.155 -10.651  1.00  0.00    -0.545 OA
ENDBRANCH   4   5
ENDBRANCH   2   3
ENDBRANCH   1   2
BRANCH   1   8
ATOM      8  C   UNL     1      24.766 -22.850 -10.053  1.00  0.00     0.000 C 
BRANCH   8   9
ATOM      9  C   UNL     1      24.052 -21.520  -9.760  1.00  0.00    -0.000 C 
BRANCH   9  10
ATOM     10  C   UNL     1      22.570 -21.546 -10.164  1.00  0.00    -0.003 C 
ATOM     11  C   UNL     1      21.630 -21.506  -8.961  1.00  0.00     0.004 C 
ENDBRANCH   9  10
ENDBRANCH   8   9
ENDBRANCH   1   8
TORSDOF 6
ENDMDL
