MODEL 1
REMARK VINA RESULT:    -4.197      0.000      0.000
REMARK INTER + INTRA:          -4.793
REMARK INTER:                  -4.688
REMARK INTRA:                  -0.105
REMARK UNBOUND:                -0.105
REMARK SMILES O=C([O-])c1ccccc1C(=O)[O-]
REMARK SMILES IDX 4 1 9 2 5 3 8 4 6 5 7 6 2 7 1 8 3 9 10 10 11 11 12 12
REMARK H PARENT
REMARK Flexibility Score: inf
ROOT
ATOM      1  C   UNL     1       8.426   0.255  16.764  1.00  0.00     0.006 A 
ATOM      2  C   UNL     1       8.613   0.824  18.056  1.00  0.00     0.006 A 
ATOM      3  C   UNL     1       9.540  -0.264  16.079  1.00  0.00     0.010 A 
ATOM      4  C   UNL     1       9.914   0.912  18.583  1.00  0.00     0.010 A 
ATOM      5  C   UNL     1      10.819  -0.187  16.631  1.00  0.00     0.001 A 
ATOM      6  C   UNL     1      11.006   0.410  17.875  1.00  0.00     0.001 A 
ENDROOT
BRANCH   1   7
ATOM      7  C   UNL     1       7.119   0.242  16.068  1.00  0.00     0.072 C 
ATOM      8  O   UNL     1       6.852   1.096  15.180  1.00  0.00    -0.545 OA
ATOM      9  O   UNL     1       6.194  -0.759  16.341  1.00  0.00    -0.545 OA
ENDBRANCH   1   7
BRANCH   2  10
ATOM     10  C   UNL     1       7.488   1.273  18.910  1.00  0.00     0.072 C 
ATOM     11  O   UNL     1       6.641   0.449  19.346  1.00  0.00    -0.545 OA
ATOM     12  O   UNL     1       7.397   2.605  19.297  1.00  0.00    -0.545 OA
ENDBRANCH   2  10
TORSDOF 2
ENDMDL
MODEL 2
REMARK VINA RESULT:    -4.194      0.055      3.173
REMARK INTER + INTRA:          -4.789
REMARK INTER:                  -4.666
REMARK INTRA:                  -0.122
REMARK UNBOUND:                -0.105
REMARK SMILES O=C([O-])c1ccccc1C(=O)[O-]
REMARK SMILES IDX 4 1 9 2 5 3 8 4 6 5 7 6 2 7 1 8 3 9 10 10 11 11 12 12
REMARK H PARENT
REMARK Flexibility Score: inf
ROOT
ATOM      1  C   UNL     1       8.652   0.854  18.072  1.00  0.00     0.006 A 
ATOM      2  C   UNL     1       8.461   0.277  16.784  1.00  0.00     0.006 A 
ATOM      3  C   UNL     1       9.956   0.955  18.589  1.00  0.00     0.010 A 
ATOM      4  C   UNL     1       9.573  -0.237  16.094  1.00  0.00     0.010 A 
ATOM      5  C   UNL     1      11.048   0.459  17.876  1.00  0.00     0.001 A 
ATOM      6  C   UNL     1      10.855  -0.145  16.636  1.00  0.00     0.001 A 
ENDROOT
BRANCH   1   7
ATOM      7  C   UNL     1       7.531   1.298  18.933  1.00  0.00     0.072 C 
ATOM      8  O   UNL     1       6.704   0.466  19.394  1.00  0.00    -0.545 OA
ATOM      9  O   UNL     1       7.418   2.634  19.298  1.00  0.00    -0.545 OA
ENDBRANCH   1   7
BRANCH   2  10
ATOM     10  C   UNL     1       7.148   0.250  16.099  1.00  0.00     0.072 C 
ATOM     11  O   UNL     1       6.859   1.107  15.223  1.00  0.00    -0.545 OA
ATOM     12  O   UNL     1       6.244  -0.772  16.368  1.00  0.00    -0.545 OA
ENDBRANCH   2  10
TORSDOF 2
ENDMDL
MODEL 3
REMARK VINA RESULT:    -3.482      2.203      3.648
REMARK INTER + INTRA:          -3.994
REMARK INTER:                  -3.818
REMARK INTRA:                  -0.176
REMARK UNBOUND:                -0.105
REMARK SMILES O=C([O-])c1ccccc1C(=O)[O-]
REMARK SMILES IDX 4 1 9 2 5 3 8 4 6 5 7 6 2 7 1 8 3 9 10 10 11 11 12 12
REMARK H PARENT
REMARK Flexibility Score: inf
ROOT
ATOM      1  C   UNL     1       9.865   0.888  18.046  1.00  0.00     0.006 A 
ATOM      2  C   UNL     1       8.462   0.962  17.815  1.00  0.00     0.006 A 
ATOM      3  C   UNL     1      10.402   1.492  19.197  1.00  0.00     0.010 A 
ATOM      4  C   UNL     1       7.660   1.694  18.710  1.00  0.00     0.010 A 
ATOM      5  C   UNL     1       9.584   2.193  20.084  1.00  0.00     0.001 A 
ATOM      6  C   UNL     1       8.218   2.303  19.834  1.00  0.00     0.001 A 
ENDROOT
BRANCH   1   7
ATOM      7  C   UNL     1      10.808   0.260  17.092  1.00  0.00     0.072 C 
ATOM      8  O   UNL     1      11.595   0.964  16.404  1.00  0.00    -0.545 OA
ATOM      9  O   UNL     1      10.883  -1.125  16.995  1.00  0.00    -0.545 OA
ENDBRANCH   1   7
BRANCH   2  10
ATOM     10  C   UNL     1       7.787   0.247  16.708  1.00  0.00     0.072 C 
ATOM     11  O   UNL     1       7.504   0.840  15.633  1.00  0.00    -0.545 OA
ATOM     12  O   UNL     1       7.521  -1.114  16.818  1.00  0.00    -0.545 OA
ENDBRANCH   2  10
TORSDOF 2
ENDMDL
MODEL 4
REMARK VINA RESULT:    -3.452      2.141      3.457
REMARK INTER + INTRA:          -3.960
REMARK INTER:                  -3.884
REMARK INTRA:                  -0.076
REMARK UNBOUND:                -0.105
REMARK SMILES O=C([O-])c1ccccc1C(=O)[O-]
REMARK SMILES IDX 4 1 9 2 5 3 8 4 6 5 7 6 2 7 1 8 3 9 10 10 11 11 12 12
REMARK H PARENT
REMARK Flexibility Score: inf
ROOT
ATOM      1  C   UNL     1       8.406   0.837  17.783  1.00  0.00     0.006 A 
ATOM      2  C   UNL     1       9.819   0.819  17.955  1.00  0.00     0.006 A 
ATOM      3  C   UNL     1       7.612   1.524  18.719  1.00  0.00     0.010 A 
ATOM      4  C   UNL     1      10.377   1.431  19.092  1.00  0.00     0.010 A 
ATOM      5  C   UNL     1       8.189   2.144  19.828  1.00  0.00     0.001 A 
ATOM      6  C   UNL     1       9.568   2.088  20.019  1.00  0.00     0.001 A 
ENDROOT
BRANCH   1   7
ATOM      7  C   UNL     1       7.715   0.106  16.695  1.00  0.00     0.072 C 
ATOM      8  O   UNL     1       7.440  -1.118  16.814  1.00  0.00    -0.545 OA
ATOM      9  O   UNL     1       7.299   0.783  15.555  1.00  0.00    -0.545 OA
ENDBRANCH   1   7
BRANCH   2  10
ATOM     10  C   UNL     1      10.746   0.240  16.955  1.00  0.00     0.072 C 
ATOM     11  O   UNL     1      11.606   0.958  16.381  1.00  0.00    -0.545 OA
ATOM     12  O   UNL     1      10.721  -1.125  16.691  1.00  0.00    -0.545 OA
ENDBRANCH   2  10
TORSDOF 2
ENDMDL
MODEL 5
REMARK VINA RESULT:    -3.409      2.465      4.079
REMARK INTER + INTRA:          -3.913
REMARK INTER:                  -3.803
REMARK INTRA:                  -0.110
REMARK UNBOUND:                -0.105
REMARK SMILES O=C([O-])c1ccccc1C(=O)[O-]
REMARK SMILES IDX 4 1 9 2 5 3 8 4 6 5 7 6 2 7 1 8 3 9 10 10 11 11 12 12
REMARK H PARENT
REMARK Flexibility Score: inf
ROOT
ATOM      1  C   UNL     1       5.719  -0.357  17.522  1.00  0.00     0.006 A 
ATOM      2  C   UNL     1       6.013  -0.062  18.883  1.00  0.00     0.006 A 
ATOM      3  C   UNL     1       4.425  -0.793  17.181  1.00  0.00     0.010 A 
ATOM      4  C   UNL     1       5.023  -0.277  19.859  1.00  0.00     0.010 A 
ATOM      5  C   UNL     1       3.452  -0.978  18.163  1.00  0.00     0.001 A 
ATOM      6  C   UNL     1       3.754  -0.731  19.500  1.00  0.00     0.001 A 
ENDROOT
BRANCH   1   7
ATOM      7  C   UNL     1       6.733  -0.294  16.444  1.00  0.00     0.072 C 
ATOM      8  O   UNL     1       7.760  -1.023  16.480  1.00  0.00    -0.545 OA
ATOM      9  O   UNL     1       6.528   0.526  15.341  1.00  0.00    -0.545 OA
ENDBRANCH   1   7
BRANCH   2  10
ATOM     10  C   UNL     1       7.299   0.529  19.320  1.00  0.00     0.072 C 
ATOM     11  O   UNL     1       8.210  -0.193  19.805  1.00  0.00    -0.545 OA
ATOM     12  O   UNL     1       7.541   1.886  19.134  1.00  0.00    -0.545 OA
ENDBRANCH   2  10
TORSDOF 2
ENDMDL
MODEL 6
REMARK VINA RESULT:    -3.409      2.594      5.146
REMARK INTER + INTRA:          -3.913
REMARK INTER:                  -3.832
REMARK INTRA:                  -0.081
REMARK UNBOUND:                -0.105
REMARK SMILES O=C([O-])c1ccccc1C(=O)[O-]
REMARK SMILES IDX 4 1 9 2 5 3 8 4 6 5 7 6 2 7 1 8 3 9 10 10 11 11 12 12
REMARK H PARENT
REMARK Flexibility Score: inf
ROOT
ATOM      1  C   UNL     1       5.697  -0.153  18.835  1.00  0.00     0.006 A 
ATOM      2  C   UNL     1       5.524  -0.369  17.438  1.00  0.00     0.006 A 
ATOM      3  C   UNL     1       4.606  -0.355  19.699  1.00  0.00     0.010 A 
ATOM      4  C   UNL     1       4.250  -0.715  16.953  1.00  0.00     0.010 A 
ATOM      5  C   UNL     1       3.356  -0.721  19.197  1.00  0.00     0.001 A 
ATOM      6  C   UNL     1       3.176  -0.889  17.826  1.00  0.00     0.001 A 
ENDROOT
BRANCH   1   7
ATOM      7  C   UNL     1       6.962   0.345  19.424  1.00  0.00     0.072 C 
ATOM      8  O   UNL     1       7.804  -0.454  19.914  1.00  0.00    -0.545 OA
ATOM      9  O   UNL     1       7.265   1.701  19.382  1.00  0.00    -0.545 OA
ENDBRANCH   1   7
BRANCH   2  10
ATOM     10  C   UNL     1       6.642  -0.313  16.468  1.00  0.00     0.072 C 
ATOM     11  O   UNL     1       7.649  -1.059  16.600  1.00  0.00    -0.545 OA
ATOM     12  O   UNL     1       6.559   0.518  15.357  1.00  0.00    -0.545 OA
ENDBRANCH   2  10
TORSDOF 2
ENDMDL
MODEL 7
REMARK VINA RESULT:    -3.399      1.958      3.357
REMARK INTER + INTRA:          -3.901
REMARK INTER:                  -3.735
REMARK INTRA:                  -0.166
REMARK UNBOUND:                -0.105
REMARK SMILES O=C([O-])c1ccccc1C(=O)[O-]
REMARK SMILES IDX 4 1 9 2 5 3 8 4 6 5 7 6 2 7 1 8 3 9 10 10 11 11 12 12
REMARK H PARENT
REMARK Flexibility Score: inf
ROOT
ATOM      1  C   UNL     1       7.142   0.158  16.806  1.00  0.00     0.006 A 
ATOM      2  C   UNL     1       7.242   0.370  18.210  1.00  0.00     0.006 A 
ATOM      3  C   UNL     1       5.955  -0.385  16.280  1.00  0.00     0.010 A 
ATOM      4  C   UNL     1       6.179  -0.030  19.040  1.00  0.00     0.010 A 
ATOM      5  C   UNL     1       4.904  -0.753  17.120  1.00  0.00     0.001 A 
ATOM      6  C   UNL     1       5.020  -0.587  18.498  1.00  0.00     0.001 A 
ENDROOT
BRANCH   1   7
ATOM      7  C   UNL     1       8.258   0.418  15.868  1.00  0.00     0.072 C 
ATOM      8  O   UNL     1       8.205   1.379  15.054  1.00  0.00    -0.545 OA
ATOM      9  O   UNL     1       9.409  -0.358  15.921  1.00  0.00    -0.545 OA
ENDBRANCH   1   7
BRANCH   2  10
ATOM     10  C   UNL     1       8.392   1.058  18.842  1.00  0.00     0.072 C 
ATOM     11  O   UNL     1       8.323   2.275  19.157  1.00  0.00    -0.545 OA
ATOM     12  O   UNL     1       9.542   0.343  19.159  1.00  0.00    -0.545 OA
ENDBRANCH   2  10
TORSDOF 2
ENDMDL
MODEL 8
REMARK VINA RESULT:    -3.374      1.017      1.546
REMARK INTER + INTRA:          -3.873
REMARK INTER:                  -3.760
REMARK INTRA:                  -0.113
REMARK UNBOUND:                -0.105
REMARK SMILES O=C([O-])c1ccccc1C(=O)[O-]
REMARK SMILES IDX 4 1 9 2 5 3 8 4 6 5 7 6 2 7 1 8 3 9 10 10 11 11 12 12
REMARK H PARENT
REMARK Flexibility Score: inf
ROOT
ATOM      1  C   UNL     1       9.195   0.700  17.604  1.00  0.00     0.006 A 
ATOM      2  C   UNL     1       9.070   1.437  18.815  1.00  0.00     0.006 A 
ATOM      3  C   UNL     1      10.480   0.431  17.097  1.00  0.00     0.010 A 
ATOM      4  C   UNL     1      10.231   1.934  19.436  1.00  0.00     0.010 A 
ATOM      5  C   UNL     1      11.619   0.914  17.742  1.00  0.00     0.001 A 
ATOM      6  C   UNL     1      11.493   1.673  18.903  1.00  0.00     0.001 A 
ENDROOT
BRANCH   1   7
ATOM      7  C   UNL     1       8.030   0.254  16.805  1.00  0.00     0.072 C 
ATOM      8  O   UNL     1       7.523  -0.885  16.986  1.00  0.00    -0.545 OA
ATOM      9  O   UNL     1       7.440   1.118  15.891  1.00  0.00    -0.545 OA
ENDBRANCH   1   7
BRANCH   2  10
ATOM     10  C   UNL     1       7.773   1.654  19.497  1.00  0.00     0.072 C 
ATOM     11  O   UNL     1       7.101   0.681  19.930  1.00  0.00    -0.545 OA
ATOM     12  O   UNL     1       7.317   2.947  19.730  1.00  0.00    -0.545 OA
ENDBRANCH   2  10
TORSDOF 2
ENDMDL
MODEL 9
REMARK VINA RESULT:    -3.371      1.949      4.351
REMARK INTER + INTRA:          -3.870
REMARK INTER:                  -3.714
REMARK INTRA:                  -0.156
REMARK UNBOUND:                -0.105
REMARK SMILES O=C([O-])c1ccccc1C(=O)[O-]
REMARK SMILES IDX 4 1 9 2 5 3 8 4 6 5 7 6 2 7 1 8 3 9 10 10 11 11 12 12
REMARK H PARENT
REMARK Flexibility Score: inf
ROOT
ATOM      1  C   UNL     1       7.276   0.358  18.257  1.00  0.00     0.006 A 
ATOM      2  C   UNL     1       7.216   0.142  16.851  1.00  0.00     0.006 A 
ATOM      3  C   UNL     1       6.182  -0.022  19.054  1.00  0.00     0.010 A 
ATOM      4  C   UNL     1       6.038  -0.384  16.290  1.00  0.00     0.010 A 
ATOM      5  C   UNL     1       5.032  -0.564  18.479  1.00  0.00     0.001 A 
ATOM      6  C   UNL     1       4.957  -0.734  17.098  1.00  0.00     0.001 A 
ENDROOT
BRANCH   1   7
ATOM      7  C   UNL     1       8.415   1.032  18.923  1.00  0.00     0.072 C 
ATOM      8  O   UNL     1       8.365   2.260  19.201  1.00  0.00    -0.545 OA
ATOM      9  O   UNL     1       9.530   0.298  19.310  1.00  0.00    -0.545 OA
ENDBRANCH   1   7
BRANCH   2  10
ATOM     10  C   UNL     1       8.365   0.384  15.947  1.00  0.00     0.072 C 
ATOM     11  O   UNL     1       9.391  -0.344  16.000  1.00  0.00    -0.545 OA
ATOM     12  O   UNL     1       8.292   1.379  14.979  1.00  0.00    -0.545 OA
ENDBRANCH   2  10
TORSDOF 2
ENDMDL
