MODEL 1
REMARK VINA RESULT:    -3.508      0.000      0.000
REMARK INTER + INTRA:          -4.883
REMARK INTER:                  -4.534
REMARK INTRA:                  -0.349
REMARK UNBOUND:                -0.349
REMARK SMILES CCO[C@H]1O[C@H](CO)[C@@H](O)[C@@H](O)[C@@H]1O
REMARK SMILES IDX 4 1 13 2 11 3 9 4 6 5 5 6 3 7 2 8 1 9 14 10 12 12 7 14 8 15
REMARK SMILES IDX 10 17
REMARK H PARENT 14 11 12 13 8 16 10 18
REMARK Flexibility Score: inf
ROOT
ATOM      1  C   UNL     1       9.322  -5.542  -2.410  1.00  0.00     0.281 C 
ATOM      2  C   UNL     1       9.825  -6.881  -1.825  1.00  0.00     0.202 C 
ATOM      3  C   UNL     1      11.071  -6.660  -0.948  1.00  0.00     0.179 C 
ATOM      4  C   UNL     1      12.114  -5.819  -1.710  1.00  0.00     0.177 C 
ATOM      5  C   UNL     1      11.452  -4.541  -2.280  1.00  0.00     0.178 C 
ATOM      6  O   UNL     1      10.357  -4.880  -3.121  1.00  0.00    -0.341 OA
ENDROOT
BRANCH   1   7
ATOM      7  O   UNL     1       8.809  -4.696  -1.388  1.00  0.00    -0.350 OA
BRANCH   7   8
ATOM      8  C   UNL     1       7.427  -4.913  -1.193  1.00  0.00     0.160 C 
ATOM      9  C   UNL     1       6.871  -3.810  -0.305  1.00  0.00     0.035 C 
ENDBRANCH   7   8
ENDBRANCH   1   7
BRANCH   2  10
ATOM     10  O   UNL     1      10.131  -7.753  -2.883  1.00  0.00    -0.385 OA
ATOM     11  H   UNL     1       9.993  -7.244  -3.725  1.00  0.00     0.211 HD
ENDBRANCH   2  10
BRANCH   3  12
ATOM     12  O   UNL     1      10.693  -6.017   0.245  1.00  0.00    -0.387 OA
ATOM     13  H   UNL     1      11.270  -6.381   0.967  1.00  0.00     0.211 HD
ENDBRANCH   3  12
BRANCH   5  14
ATOM     14  C   UNL     1      12.448  -3.722  -3.119  1.00  0.00     0.191 C 
BRANCH  14  15
ATOM     15  O   UNL     1      13.500  -3.234  -2.330  1.00  0.00    -0.394 OA
ATOM     16  H   UNL     1      14.152  -3.977  -2.233  1.00  0.00     0.210 HD
ENDBRANCH  14  15
ENDBRANCH   5  14
BRANCH   4  17
ATOM     17  O   UNL     1      13.173  -5.476  -0.853  1.00  0.00    -0.387 OA
ATOM     18  H   UNL     1      12.772  -4.985  -0.089  1.00  0.00     0.211 HD
ENDBRANCH   4  17
TORSDOF 7
ENDMDL
MODEL 2
REMARK VINA RESULT:    -2.867      2.167      4.413
REMARK INTER + INTRA:          -4.054
REMARK INTER:                  -3.593
REMARK INTRA:                  -0.461
REMARK UNBOUND:                -0.349
REMARK SMILES CCO[C@H]1O[C@H](CO)[C@@H](O)[C@@H](O)[C@@H]1O
REMARK SMILES IDX 4 1 13 2 11 3 9 4 6 5 5 6 3 7 2 8 1 9 14 10 12 12 7 14 8 15
REMARK SMILES IDX 10 17
REMARK H PARENT 14 11 12 13 8 16 10 18
REMARK Flexibility Score: inf
ROOT
ATOM      1  C   UNL     1       8.465  -5.476  -2.897  1.00  0.00     0.281 C 
ATOM      2  C   UNL     1       9.823  -4.948  -2.382  1.00  0.00     0.202 C 
ATOM      3  C   UNL     1       9.743  -4.601  -0.886  1.00  0.00     0.179 C 
ATOM      4  C   UNL     1       8.520  -3.702  -0.614  1.00  0.00     0.177 C 
ATOM      5  C   UNL     1       7.249  -4.334  -1.232  1.00  0.00     0.178 C 
ATOM      6  O   UNL     1       7.426  -4.548  -2.626  1.00  0.00    -0.341 OA
ENDROOT
BRANCH   1   7
ATOM      7  O   UNL     1       8.156  -6.741  -2.324  1.00  0.00    -0.350 OA
BRANCH   7   8
ATOM      8  C   UNL     1       8.823  -7.784  -3.003  1.00  0.00     0.160 C 
ATOM      9  C   UNL     1       9.341  -8.789  -1.984  1.00  0.00     0.035 C 
ENDBRANCH   7   8
ENDBRANCH   1   7
BRANCH   2  10
ATOM     10  O   UNL     1      10.177  -3.807  -3.122  1.00  0.00    -0.385 OA
ATOM     11  H   UNL     1      10.395  -4.116  -4.042  1.00  0.00     0.211 HD
ENDBRANCH   2  10
BRANCH   3  12
ATOM     12  O   UNL     1       9.661  -5.788  -0.135  1.00  0.00    -0.387 OA
ATOM     13  H   UNL     1       9.530  -5.524   0.813  1.00  0.00     0.211 HD
ENDBRANCH   3  12
BRANCH   5  14
ATOM     14  C   UNL     1       6.026  -3.420  -1.051  1.00  0.00     0.191 C 
BRANCH  14  15
ATOM     15  O   UNL     1       5.516  -3.500   0.253  1.00  0.00    -0.394 OA
ATOM     16  H   UNL     1       4.605  -3.104   0.228  1.00  0.00     0.210 HD
ENDBRANCH  14  15
ENDBRANCH   5  14
BRANCH   4  17
ATOM     17  O   UNL     1       8.352  -3.527   0.770  1.00  0.00    -0.387 OA
ATOM     18  H   UNL     1       8.691  -2.619   0.985  1.00  0.00     0.211 HD
ENDBRANCH   4  17
TORSDOF 7
ENDMDL
MODEL 3
REMARK VINA RESULT:    -2.852      2.406      4.359
REMARK INTER + INTRA:          -4.034
REMARK INTER:                  -3.839
REMARK INTRA:                  -0.196
REMARK UNBOUND:                -0.349
REMARK SMILES CCO[C@H]1O[C@H](CO)[C@@H](O)[C@@H](O)[C@@H]1O
REMARK SMILES IDX 4 1 13 2 11 3 9 4 6 5 5 6 3 7 2 8 1 9 14 10 12 12 7 14 8 15
REMARK SMILES IDX 10 17
REMARK H PARENT 14 11 12 13 8 16 10 18
REMARK Flexibility Score: inf
ROOT
ATOM      1  C   UNL     1       7.491  -5.468  -1.249  1.00  0.00     0.281 C 
ATOM      2  C   UNL     1       6.570  -4.379  -0.653  1.00  0.00     0.202 C 
ATOM      3  C   UNL     1       6.474  -3.168  -1.597  1.00  0.00     0.179 C 
ATOM      4  C   UNL     1       7.885  -2.707  -2.014  1.00  0.00     0.177 C 
ATOM      5  C   UNL     1       8.703  -3.911  -2.539  1.00  0.00     0.178 C 
ATOM      6  O   UNL     1       8.771  -4.934  -1.555  1.00  0.00    -0.341 OA
ENDROOT
BRANCH   1   7
ATOM      7  O   UNL     1       6.912  -6.051  -2.409  1.00  0.00    -0.350 OA
BRANCH   7   8
ATOM      8  C   UNL     1       7.217  -7.428  -2.493  1.00  0.00     0.160 C 
ATOM      9  C   UNL     1       7.231  -8.021  -1.092  1.00  0.00     0.035 C 
ENDBRANCH   7   8
ENDBRANCH   1   7
BRANCH   2  10
ATOM     10  O   UNL     1       7.085  -3.979   0.592  1.00  0.00    -0.385 OA
ATOM     11  H   UNL     1       6.308  -3.863   1.201  1.00  0.00     0.211 HD
ENDBRANCH   2  10
BRANCH   3  12
ATOM     12  O   UNL     1       5.713  -3.516  -2.728  1.00  0.00    -0.387 OA
ATOM     13  H   UNL     1       5.302  -2.680  -3.072  1.00  0.00     0.211 HD
ENDBRANCH   3  12
BRANCH   5  14
ATOM     14  C   UNL     1      10.144  -3.500  -2.885  1.00  0.00     0.191 C 
BRANCH  14  15
ATOM     15  O   UNL     1      11.079  -4.310  -2.223  1.00  0.00    -0.394 OA
ATOM     16  H   UNL     1      10.921  -4.192  -1.250  1.00  0.00     0.210 HD
ENDBRANCH  14  15
ENDBRANCH   5  14
BRANCH   4  17
ATOM     17  O   UNL     1       7.792  -1.715  -3.005  1.00  0.00    -0.387 OA
ATOM     18  H   UNL     1       8.589  -1.132  -2.900  1.00  0.00     0.211 HD
ENDBRANCH   4  17
TORSDOF 7
ENDMDL
MODEL 4
REMARK VINA RESULT:    -2.766      2.384      5.141
REMARK INTER + INTRA:          -3.923
REMARK INTER:                  -3.582
REMARK INTRA:                  -0.341
REMARK UNBOUND:                -0.349
REMARK SMILES CCO[C@H]1O[C@H](CO)[C@@H](O)[C@@H](O)[C@@H]1O
REMARK SMILES IDX 4 1 13 2 11 3 9 4 6 5 5 6 3 7 2 8 1 9 14 10 12 12 7 14 8 15
REMARK SMILES IDX 10 17
REMARK H PARENT 14 11 12 13 8 16 10 18
REMARK Flexibility Score: inf
ROOT
ATOM      1  C   UNL     1       9.030  -3.563  -2.974  1.00  0.00     0.281 C 
ATOM      2  C   UNL     1       8.434  -2.348  -2.227  1.00  0.00     0.202 C 
ATOM      3  C   UNL     1       7.838  -2.777  -0.875  1.00  0.00     0.179 C 
ATOM      4  C   UNL     1       6.896  -3.981  -1.067  1.00  0.00     0.177 C 
ATOM      5  C   UNL     1       7.612  -5.092  -1.873  1.00  0.00     0.178 C 
ATOM      6  O   UNL     1       8.060  -4.589  -3.125  1.00  0.00    -0.341 OA
ENDROOT
BRANCH   1   7
ATOM      7  O   UNL     1      10.176  -4.068  -2.300  1.00  0.00    -0.350 OA
BRANCH   7   8
ATOM      8  C   UNL     1      11.364  -3.690  -2.964  1.00  0.00     0.160 C 
ATOM      9  C   UNL     1      12.468  -4.673  -2.606  1.00  0.00     0.035 C 
ENDBRANCH   7   8
ENDBRANCH   1   7
BRANCH   2  10
ATOM     10  O   UNL     1       7.437  -1.766  -3.029  1.00  0.00    -0.385 OA
ATOM     11  H   UNL     1       7.880  -1.465  -3.866  1.00  0.00     0.211 HD
ENDBRANCH   2  10
BRANCH   3  12
ATOM     12  O   UNL     1       8.881  -3.100   0.013  1.00  0.00    -0.387 OA
ATOM     13  H   UNL     1       9.516  -3.681  -0.483  1.00  0.00     0.211 HD
ENDBRANCH   3  12
BRANCH   5  14
ATOM     14  C   UNL     1       6.670  -6.274  -2.155  1.00  0.00     0.191 C 
BRANCH  14  15
ATOM     15  O   UNL     1       6.778  -7.261  -1.165  1.00  0.00    -0.394 OA
ATOM     16  H   UNL     1       6.193  -6.978  -0.415  1.00  0.00     0.210 HD
ENDBRANCH  14  15
ENDBRANCH   5  14
BRANCH   4  17
ATOM     17  O   UNL     1       6.488  -4.475   0.183  1.00  0.00    -0.387 OA
ATOM     18  H   UNL     1       6.127  -5.387   0.026  1.00  0.00     0.211 HD
ENDBRANCH   4  17
TORSDOF 7
ENDMDL
MODEL 5
REMARK VINA RESULT:    -2.758      1.573      3.815
REMARK INTER + INTRA:          -3.913
REMARK INTER:                  -3.677
REMARK INTRA:                  -0.236
REMARK UNBOUND:                -0.349
REMARK SMILES CCO[C@H]1O[C@H](CO)[C@@H](O)[C@@H](O)[C@@H]1O
REMARK SMILES IDX 4 1 13 2 11 3 9 4 6 5 5 6 3 7 2 8 1 9 14 10 12 12 7 14 8 15
REMARK SMILES IDX 10 17
REMARK H PARENT 14 11 12 13 8 16 10 18
REMARK Flexibility Score: inf
ROOT
ATOM      1  C   UNL     1      11.918  -6.667  -1.853  1.00  0.00     0.281 C 
ATOM      2  C   UNL     1      10.544  -6.568  -1.152  1.00  0.00     0.202 C 
ATOM      3  C   UNL     1       9.598  -5.638  -1.932  1.00  0.00     0.179 C 
ATOM      4  C   UNL     1      10.302  -4.300  -2.236  1.00  0.00     0.177 C 
ATOM      5  C   UNL     1      11.682  -4.562  -2.885  1.00  0.00     0.178 C 
ATOM      6  O   UNL     1      12.482  -5.379  -2.042  1.00  0.00    -0.341 OA
ENDROOT
BRANCH   1   7
ATOM      7  O   UNL     1      11.810  -7.344  -3.099  1.00  0.00    -0.350 OA
BRANCH   7   8
ATOM      8  C   UNL     1      12.150  -8.709  -2.968  1.00  0.00     0.160 C 
ATOM      9  C   UNL     1      13.374  -8.833  -2.075  1.00  0.00     0.035 C 
ENDBRANCH   7   8
ENDBRANCH   1   7
BRANCH   2  10
ATOM     10  O   UNL     1      10.732  -6.079   0.152  1.00  0.00    -0.385 OA
ATOM     11  H   UNL     1       9.859  -5.708   0.450  1.00  0.00     0.211 HD
ENDBRANCH   2  10
BRANCH   3  12
ATOM     12  O   UNL     1       9.201  -6.270  -3.124  1.00  0.00    -0.387 OA
ATOM     13  H   UNL     1       9.076  -7.233  -2.916  1.00  0.00     0.211 HD
ENDBRANCH   3  12
BRANCH   5  14
ATOM     14  C   UNL     1      12.446  -3.248  -3.124  1.00  0.00     0.191 C 
BRANCH  14  15
ATOM     15  O   UNL     1      13.599  -3.176  -2.329  1.00  0.00    -0.394 OA
ATOM     16  H   UNL     1      14.144  -2.427  -2.686  1.00  0.00     0.210 HD
ENDBRANCH  14  15
ENDBRANCH   5  14
BRANCH   4  17
ATOM     17  O   UNL     1       9.502  -3.522  -3.090  1.00  0.00    -0.387 OA
ATOM     18  H   UNL     1       9.781  -2.578  -2.960  1.00  0.00     0.211 HD
ENDBRANCH   4  17
TORSDOF 7
ENDMDL
MODEL 6
REMARK VINA RESULT:    -2.733      2.472      4.996
REMARK INTER + INTRA:          -3.880
REMARK INTER:                  -3.665
REMARK INTRA:                  -0.216
REMARK UNBOUND:                -0.349
REMARK SMILES CCO[C@H]1O[C@H](CO)[C@@H](O)[C@@H](O)[C@@H]1O
REMARK SMILES IDX 4 1 13 2 11 3 9 4 6 5 5 6 3 7 2 8 1 9 14 10 12 12 7 14 8 15
REMARK SMILES IDX 10 17
REMARK H PARENT 14 11 12 13 8 16 10 18
REMARK Flexibility Score: inf
ROOT
ATOM      1  C   UNL     1       9.332  -3.659  -1.648  1.00  0.00     0.281 C 
ATOM      2  C   UNL     1       8.535  -4.329  -0.506  1.00  0.00     0.202 C 
ATOM      3  C   UNL     1       7.071  -4.555  -0.921  1.00  0.00     0.179 C 
ATOM      4  C   UNL     1       6.473  -3.254  -1.490  1.00  0.00     0.177 C 
ATOM      5  C   UNL     1       7.404  -2.675  -2.583  1.00  0.00     0.178 C 
ATOM      6  O   UNL     1       8.707  -2.453  -2.060  1.00  0.00    -0.341 OA
ENDROOT
BRANCH   1   7
ATOM      7  O   UNL     1       9.478  -4.539  -2.756  1.00  0.00    -0.350 OA
BRANCH   7   8
ATOM      8  C   UNL     1      10.797  -5.037  -2.840  1.00  0.00     0.160 C 
ATOM      9  C   UNL     1      10.795  -6.515  -2.483  1.00  0.00     0.035 C 
ENDBRANCH   7   8
ENDBRANCH   1   7
BRANCH   2  10
ATOM     10  O   UNL     1       8.591  -3.505   0.631  1.00  0.00    -0.385 OA
ATOM     11  H   UNL     1       8.243  -4.041   1.393  1.00  0.00     0.211 HD
ENDBRANCH   2  10
BRANCH   3  12
ATOM     12  O   UNL     1       7.010  -5.587  -1.875  1.00  0.00    -0.387 OA
ATOM     13  H   UNL     1       7.732  -5.415  -2.536  1.00  0.00     0.211 HD
ENDBRANCH   3  12
BRANCH   5  14
ATOM     14  C   UNL     1       6.878  -1.331  -3.112  1.00  0.00     0.191 C 
BRANCH  14  15
ATOM     15  O   UNL     1       7.375  -0.256  -2.361  1.00  0.00    -0.394 OA
ATOM     16  H   UNL     1       6.590   0.188  -1.944  1.00  0.00     0.210 HD
ENDBRANCH  14  15
ENDBRANCH   5  14
BRANCH   4  17
ATOM     17  O   UNL     1       5.197  -3.505  -2.023  1.00  0.00    -0.387 OA
ATOM     18  H   UNL     1       4.714  -4.059  -1.355  1.00  0.00     0.211 HD
ENDBRANCH   4  17
TORSDOF 7
ENDMDL
