MODEL 1
REMARK VINA RESULT:     6.979      0.000      0.000
REMARK INTER + INTRA:           7.706
REMARK INTER:                   7.999
REMARK INTRA:                  -0.293
REMARK UNBOUND:                -0.293
REMARK SMILES O=C1C[C@@H](c2ccc(O)cc2)Oc2cc(O)cc(O)c21
REMARK SMILES IDX 3 1 4 2 12 3 13 4 14 5 15 6 17 7 18 8 20 9 2 10 1 11 5 12
REMARK SMILES IDX 6 13 11 14 7 15 10 16 8 17 9 18 19 20 16 22
REMARK H PARENT 9 19 19 21 16 23
REMARK Flexibility Score: inf
ROOT
ATOM      1  C   UNL     1     133.235 160.501 173.033  1.00  0.00     0.131 C 
ATOM      2  C   UNL     1     134.273 159.424 173.381  1.00  0.00     0.211 C 
ATOM      3  O   UNL     1     135.515 160.025 173.761  1.00  0.00    -0.484 OA
ATOM      4  C   UNL     1     135.583 161.185 174.544  1.00  0.00     0.138 A 
ATOM      5  C   UNL     1     136.808 161.552 175.104  1.00  0.00     0.093 A 
ATOM      6  C   UNL     1     136.905 162.697 175.902  1.00  0.00     0.123 A 
ATOM      7  C   UNL     1     135.778 163.491 176.115  1.00  0.00     0.093 A 
ATOM      8  C   UNL     1     134.548 163.165 175.529  1.00  0.00     0.133 A 
ATOM      9  C   UNL     1     134.434 161.977 174.758  1.00  0.00     0.102 A 
ATOM     10  C   UNL     1     133.167 161.497 174.152  1.00  0.00     0.174 C 
ATOM     11  O   UNL     1     132.044 161.861 174.587  1.00  0.00    -0.294 OA
ENDROOT
BRANCH   2  12
ATOM     12  C   UNL     1     134.486 158.492 172.213  1.00  0.00    -0.007 A 
ATOM     13  C   UNL     1     134.065 157.153 172.289  1.00  0.00     0.011 A 
ATOM     14  C   UNL     1     135.057 158.963 171.016  1.00  0.00     0.011 A 
ATOM     15  C   UNL     1     134.234 156.295 171.199  1.00  0.00     0.046 A 
ATOM     16  C   UNL     1     135.224 158.103 169.927  1.00  0.00     0.046 A 
ATOM     17  C   UNL     1     134.815 156.766 170.016  1.00  0.00     0.115 A 
BRANCH  17  18
ATOM     18  O   UNL     1     134.977 155.899 168.937  1.00  0.00    -0.508 OA
ATOM     19  H   UNL     1     134.237 155.754 168.260  1.00  0.00     0.293 HD
ENDBRANCH  17  18
ENDBRANCH   2  12
BRANCH   8  20
ATOM     20  O   UNL     1     133.492 164.060 175.713  1.00  0.00    -0.507 OA
ATOM     21  H   UNL     1     132.779 164.242 175.021  1.00  0.00     0.293 HD
ENDBRANCH   8  20
BRANCH   6  22
ATOM     22  O   UNL     1     138.120 163.057 176.481  1.00  0.00    -0.508 OA
ATOM     23  H   UNL     1     138.218 163.164 177.485  1.00  0.00     0.293 HD
ENDBRANCH   6  22
TORSDOF 4
ENDMDL
MODEL 2
REMARK VINA RESULT:     9.145      5.122      7.235
REMARK INTER + INTRA:          10.189
REMARK INTER:                  10.509
REMARK INTRA:                  -0.320
REMARK UNBOUND:                -0.293
REMARK SMILES O=C1C[C@@H](c2ccc(O)cc2)Oc2cc(O)cc(O)c21
REMARK SMILES IDX 3 1 4 2 12 3 13 4 14 5 15 6 17 7 18 8 20 9 2 10 1 11 5 12
REMARK SMILES IDX 6 13 11 14 7 15 10 16 8 17 9 18 19 20 16 22
REMARK H PARENT 9 19 19 21 16 23
REMARK Flexibility Score: inf
ROOT
ATOM      1  C   UNL     1     134.292 154.414 170.611  1.00  0.00     0.131 C 
ATOM      2  C   UNL     1     132.998 155.186 170.318  1.00  0.00     0.211 C 
ATOM      3  O   UNL     1     133.209 156.595 170.454  1.00  0.00    -0.484 OA
ATOM      4  C   UNL     1     134.383 157.227 170.022  1.00  0.00     0.138 A 
ATOM      5  C   UNL     1     134.407 158.620 169.930  1.00  0.00     0.093 A 
ATOM      6  C   UNL     1     135.559 159.278 169.489  1.00  0.00     0.123 A 
ATOM      7  C   UNL     1     136.699 158.541 169.167  1.00  0.00     0.093 A 
ATOM      8  C   UNL     1     136.711 157.146 169.292  1.00  0.00     0.133 A 
ATOM      9  C   UNL     1     135.528 156.470 169.692  1.00  0.00     0.102 A 
ATOM     10  C   UNL     1     135.406 154.994 169.789  1.00  0.00     0.174 C 
ATOM     11  O   UNL     1     136.174 154.221 169.159  1.00  0.00    -0.294 OA
ENDROOT
BRANCH   2  12
ATOM     12  C   UNL     1     131.890 154.738 171.241  1.00  0.00    -0.007 A 
ATOM     13  C   UNL     1     131.789 153.390 171.624  1.00  0.00     0.011 A 
ATOM     14  C   UNL     1     130.981 155.671 171.772  1.00  0.00     0.011 A 
ATOM     15  C   UNL     1     130.783 152.978 172.503  1.00  0.00     0.046 A 
ATOM     16  C   UNL     1     129.976 155.256 172.651  1.00  0.00     0.046 A 
ATOM     17  C   UNL     1     129.873 153.908 173.016  1.00  0.00     0.115 A 
BRANCH  17  18
ATOM     18  O   UNL     1     128.875 153.482 173.891  1.00  0.00    -0.508 OA
ATOM     19  H   UNL     1     128.007 153.084 173.550  1.00  0.00     0.293 HD
ENDBRANCH  17  18
ENDBRANCH   2  12
BRANCH   8  20
ATOM     20  O   UNL     1     137.918 156.490 169.041  1.00  0.00    -0.507 OA
ATOM     21  H   UNL     1     138.252 155.699 169.573  1.00  0.00     0.293 HD
ENDBRANCH   8  20
BRANCH   6  22
ATOM     22  O   UNL     1     135.583 160.667 169.374  1.00  0.00    -0.508 OA
ATOM     23  H   UNL     1     134.751 161.226 169.525  1.00  0.00     0.293 HD
ENDBRANCH   6  22
TORSDOF 4
ENDMDL
