MODEL 1
REMARK VINA RESULT:    -3.986      0.000      0.000
REMARK INTER + INTRA:          -6.266
REMARK INTER:                  -5.384
REMARK INTRA:                  -0.882
REMARK UNBOUND:                -0.882
REMARK SMILES CCCCCCC=CC(=O)[O-]
REMARK SMILES IDX 5 1 6 2 7 3 8 4 9 5 10 6 11 7 4 8 3 9 2 10 1 11
REMARK H PARENT
REMARK Flexibility Score: inf
ROOT
ATOM      1  C   UNL     1     -20.887  16.714 -22.373  1.00  0.00     0.004 C 
ENDROOT
BRANCH   1   2
ATOM      2  C   UNL     1     -20.322  16.595 -23.796  1.00  0.00     0.027 C 
BRANCH   2   3
ATOM      3  C   UNL     1     -19.979  17.946 -24.362  1.00  0.00    -0.025 C 
ATOM      4  C   UNL     1     -20.588  18.547 -25.397  1.00  0.00     0.020 C 
BRANCH   4   5
ATOM      5  C   UNL     1     -21.740  18.029 -26.164  1.00  0.00     0.064 C 
ATOM      6  O   UNL     1     -21.591  17.771 -27.386  1.00  0.00    -0.545 OA
ATOM      7  O   UNL     1     -22.990  17.841 -25.589  1.00  0.00    -0.545 OA
ENDBRANCH   4   5
ENDBRANCH   2   3
ENDBRANCH   1   2
BRANCH   1   8
ATOM      8  C   UNL     1     -22.365  16.299 -22.334  1.00  0.00     0.000 C 
BRANCH   8   9
ATOM      9  C   UNL     1     -23.304  17.480 -22.039  1.00  0.00    -0.000 C 
BRANCH   9  10
ATOM     10  C   UNL     1     -22.544  18.780 -21.739  1.00  0.00    -0.003 C 
ATOM     11  C   UNL     1     -22.944  19.887 -22.710  1.00  0.00     0.004 C 
ENDBRANCH   9  10
ENDBRANCH   8   9
ENDBRANCH   1   8
TORSDOF 6
ENDMDL
MODEL 2
REMARK VINA RESULT:    -3.856      1.158      2.430
REMARK INTER + INTRA:          -6.091
REMARK INTER:                  -5.135
REMARK INTRA:                  -0.956
REMARK UNBOUND:                -0.882
REMARK SMILES CCCCCCC=CC(=O)[O-]
REMARK SMILES IDX 5 1 6 2 7 3 8 4 9 5 10 6 11 7 4 8 3 9 2 10 1 11
REMARK H PARENT
REMARK Flexibility Score: inf
ROOT
ATOM      1  C   UNL     1     -22.984  19.268 -23.259  1.00  0.00     0.004 C 
ENDROOT
BRANCH   1   2
ATOM      2  C   UNL     1     -22.595  19.798 -24.647  1.00  0.00     0.027 C 
BRANCH   2   3
ATOM      3  C   UNL     1     -21.131  19.589 -24.921  1.00  0.00    -0.025 C 
ATOM      4  C   UNL     1     -20.601  18.627 -25.694  1.00  0.00     0.020 C 
BRANCH   4   5
ATOM      5  C   UNL     1     -21.343  17.609 -26.466  1.00  0.00     0.064 C 
ATOM      6  O   UNL     1     -21.672  17.867 -27.653  1.00  0.00    -0.545 OA
ATOM      7  O   UNL     1     -21.713  16.387 -25.920  1.00  0.00    -0.545 OA
ENDBRANCH   4   5
ENDBRANCH   2   3
ENDBRANCH   1   2
BRANCH   1   8
ATOM      8  C   UNL     1     -23.726  17.929 -23.372  1.00  0.00     0.000 C 
BRANCH   8   9
ATOM      9  C   UNL     1     -22.958  16.768 -22.719  1.00  0.00    -0.000 C 
BRANCH   9  10
ATOM     10  C   UNL     1     -21.648  17.224 -22.060  1.00  0.00    -0.003 C 
ATOM     11  C   UNL     1     -20.465  16.404 -22.567  1.00  0.00     0.004 C 
ENDBRANCH   9  10
ENDBRANCH   8   9
ENDBRANCH   1   8
TORSDOF 6
ENDMDL
MODEL 3
REMARK VINA RESULT:    -3.803      2.206      4.715
REMARK INTER + INTRA:          -6.019
REMARK INTER:                  -5.484
REMARK INTRA:                  -0.536
REMARK UNBOUND:                -0.882
REMARK SMILES CCCCCCC=CC(=O)[O-]
REMARK SMILES IDX 5 1 6 2 7 3 8 4 9 5 10 6 11 7 4 8 3 9 2 10 1 11
REMARK H PARENT
REMARK Flexibility Score: inf
ROOT
ATOM      1  C   UNL     1     -21.358  19.821 -25.035  1.00  0.00     0.004 C 
ENDROOT
BRANCH   1   2
ATOM      2  C   UNL     1     -22.753  19.471 -24.497  1.00  0.00     0.027 C 
BRANCH   2   3
ATOM      3  C   UNL     1     -22.848  19.729 -23.018  1.00  0.00    -0.025 C 
ATOM      4  C   UNL     1     -22.681  18.820 -22.044  1.00  0.00     0.020 C 
BRANCH   4   5
ATOM      5  C   UNL     1     -22.329  17.395 -22.219  1.00  0.00     0.064 C 
ATOM      6  O   UNL     1     -21.114  17.066 -22.228  1.00  0.00    -0.545 OA
ATOM      7  O   UNL     1     -23.290  16.409 -22.402  1.00  0.00    -0.545 OA
ENDBRANCH   4   5
ENDBRANCH   2   3
ENDBRANCH   1   2
BRANCH   1   8
ATOM      8  C   UNL     1     -20.599  18.555 -25.455  1.00  0.00     0.000 C 
BRANCH   8   9
ATOM      9  C   UNL     1     -21.432  17.640 -26.368  1.00  0.00    -0.000 C 
BRANCH   9  10
ATOM     10  C   UNL     1     -21.311  18.018 -27.852  1.00  0.00    -0.003 C 
ATOM     11  C   UNL     1     -20.160  17.269 -28.517  1.00  0.00     0.004 C 
ENDBRANCH   9  10
ENDBRANCH   8   9
ENDBRANCH   1   8
TORSDOF 6
ENDMDL
MODEL 4
REMARK VINA RESULT:    -3.785      1.317      2.805
REMARK INTER + INTRA:          -5.994
REMARK INTER:                  -5.224
REMARK INTRA:                  -0.770
REMARK UNBOUND:                -0.882
REMARK SMILES CCCCCCC=CC(=O)[O-]
REMARK SMILES IDX 5 1 6 2 7 3 8 4 9 5 10 6 11 7 4 8 3 9 2 10 1 11
REMARK H PARENT
REMARK Flexibility Score: inf
ROOT
ATOM      1  C   UNL     1     -22.495  18.566 -22.306  1.00  0.00     0.004 C 
ENDROOT
BRANCH   1   2
ATOM      2  C   UNL     1     -22.956  19.135 -23.657  1.00  0.00     0.027 C 
BRANCH   2   3
ATOM      3  C   UNL     1     -23.271  18.036 -24.633  1.00  0.00    -0.025 C 
ATOM      4  C   UNL     1     -22.550  17.711 -25.719  1.00  0.00     0.020 C 
BRANCH   4   5
ATOM      5  C   UNL     1     -21.282  18.335 -26.153  1.00  0.00     0.064 C 
ATOM      6  O   UNL     1     -21.169  18.714 -27.348  1.00  0.00    -0.545 OA
ATOM      7  O   UNL     1     -20.201  18.494 -25.296  1.00  0.00    -0.545 OA
ENDBRANCH   4   5
ENDBRANCH   2   3
ENDBRANCH   1   2
BRANCH   1   8
ATOM      8  C   UNL     1     -23.037  17.146 -22.097  1.00  0.00     0.000 C 
BRANCH   8   9
ATOM      9  C   UNL     1     -21.943  16.149 -21.683  1.00  0.00    -0.000 C 
BRANCH   9  10
ATOM     10  C   UNL     1     -20.638  16.343 -22.469  1.00  0.00    -0.003 C 
ATOM     11  C   UNL     1     -20.564  15.388 -23.656  1.00  0.00     0.004 C 
ENDBRANCH   9  10
ENDBRANCH   8   9
ENDBRANCH   1   8
TORSDOF 6
ENDMDL
MODEL 5
REMARK VINA RESULT:    -3.783      2.506      3.131
REMARK INTER + INTRA:          -5.992
REMARK INTER:                  -5.207
REMARK INTRA:                  -0.785
REMARK UNBOUND:                -0.882
REMARK SMILES CCCCCCC=CC(=O)[O-]
REMARK SMILES IDX 5 1 6 2 7 3 8 4 9 5 10 6 11 7 4 8 3 9 2 10 1 11
REMARK H PARENT
REMARK Flexibility Score: inf
ROOT
ATOM      1  C   UNL     1     -23.288  18.147 -24.204  1.00  0.00     0.004 C 
ENDROOT
BRANCH   1   2
ATOM      2  C   UNL     1     -22.284  17.152 -24.805  1.00  0.00     0.027 C 
BRANCH   2   3
ATOM      3  C   UNL     1     -20.877  17.476 -24.386  1.00  0.00    -0.025 C 
ATOM      4  C   UNL     1     -20.182  16.870 -23.409  1.00  0.00     0.020 C 
BRANCH   4   5
ATOM      5  C   UNL     1     -20.639  15.737 -22.577  1.00  0.00     0.064 C 
ATOM      6  O   UNL     1     -20.418  14.564 -22.973  1.00  0.00    -0.545 OA
ATOM      7  O   UNL     1     -21.327  15.921 -21.384  1.00  0.00    -0.545 OA
ENDBRANCH   4   5
ENDBRANCH   2   3
ENDBRANCH   1   2
BRANCH   1   8
ATOM      8  C   UNL     1     -24.127  17.482 -23.105  1.00  0.00     0.000 C 
BRANCH   8   9
ATOM      9  C   UNL     1     -24.011  18.203 -21.752  1.00  0.00    -0.000 C 
BRANCH   9  10
ATOM     10  C   UNL     1     -22.786  19.127 -21.678  1.00  0.00    -0.003 C 
ATOM     11  C   UNL     1     -23.188  20.539 -21.264  1.00  0.00     0.004 C 
ENDBRANCH   9  10
ENDBRANCH   8   9
ENDBRANCH   1   8
TORSDOF 6
ENDMDL
MODEL 6
REMARK VINA RESULT:    -3.755      2.228      3.783
REMARK INTER + INTRA:          -5.955
REMARK INTER:                  -5.077
REMARK INTRA:                  -0.878
REMARK UNBOUND:                -0.882
REMARK SMILES CCCCCCC=CC(=O)[O-]
REMARK SMILES IDX 5 1 6 2 7 3 8 4 9 5 10 6 11 7 4 8 3 9 2 10 1 11
REMARK H PARENT
REMARK Flexibility Score: inf
ROOT
ATOM      1  C   UNL     1     -21.215  16.906 -25.036  1.00  0.00     0.004 C 
ENDROOT
BRANCH   1   2
ATOM      2  C   UNL     1     -20.703  15.938 -23.960  1.00  0.00     0.027 C 
BRANCH   2   3
ATOM      3  C   UNL     1     -20.585  16.619 -22.624  1.00  0.00    -0.025 C 
ATOM      4  C   UNL     1     -21.547  16.701 -21.690  1.00  0.00     0.020 C 
BRANCH   4   5
ATOM      5  C   UNL     1     -22.898  16.107 -21.763  1.00  0.00     0.064 C 
ATOM      6  O   UNL     1     -23.102  14.991 -21.218  1.00  0.00    -0.545 OA
ATOM      7  O   UNL     1     -23.946  16.723 -22.435  1.00  0.00    -0.545 OA
ENDBRANCH   4   5
ENDBRANCH   2   3
ENDBRANCH   1   2
BRANCH   1   8
ATOM      8  C   UNL     1     -20.421  18.220 -25.013  1.00  0.00     0.000 C 
BRANCH   8   9
ATOM      9  C   UNL     1     -21.310  19.454 -25.240  1.00  0.00    -0.000 C 
BRANCH   9  10
ATOM     10  C   UNL     1     -22.712  19.292 -24.635  1.00  0.00    -0.003 C 
ATOM     11  C   UNL     1     -22.793  19.941 -23.256  1.00  0.00     0.004 C 
ENDBRANCH   9  10
ENDBRANCH   8   9
ENDBRANCH   1   8
TORSDOF 6
ENDMDL
MODEL 7
REMARK VINA RESULT:    -3.706      3.531      4.218
REMARK INTER + INTRA:          -5.888
REMARK INTER:                  -5.316
REMARK INTRA:                  -0.571
REMARK UNBOUND:                -0.882
REMARK SMILES CCCCCCC=CC(=O)[O-]
REMARK SMILES IDX 5 1 6 2 7 3 8 4 9 5 10 6 11 7 4 8 3 9 2 10 1 11
REMARK H PARENT
REMARK Flexibility Score: inf
ROOT
ATOM      1  C   UNL     1     -21.551  18.980 -24.978  1.00  0.00     0.004 C 
ENDROOT
BRANCH   1   2
ATOM      2  C   UNL     1     -21.565  20.344 -25.684  1.00  0.00     0.027 C 
BRANCH   2   3
ATOM      3  C   UNL     1     -22.351  21.357 -24.898  1.00  0.00    -0.025 C 
ATOM      4  C   UNL     1     -22.051  22.659 -24.764  1.00  0.00     0.020 C 
BRANCH   4   5
ATOM      5  C   UNL     1     -20.919  23.371 -25.390  1.00  0.00     0.064 C 
ATOM      6  O   UNL     1     -20.932  23.560 -26.634  1.00  0.00    -0.545 OA
ATOM      7  O   UNL     1     -19.825  23.817 -24.659  1.00  0.00    -0.545 OA
ENDBRANCH   4   5
ENDBRANCH   2   3
ENDBRANCH   1   2
BRANCH   1   8
ATOM      8  C   UNL     1     -22.951  18.350 -24.974  1.00  0.00     0.000 C 
BRANCH   8   9
ATOM      9  C   UNL     1     -23.466  18.060 -23.555  1.00  0.00    -0.000 C 
BRANCH   9  10
ATOM     10  C   UNL     1     -22.421  18.364 -22.472  1.00  0.00    -0.003 C 
ATOM     11  C   UNL     1     -22.858  19.539 -21.602  1.00  0.00     0.004 C 
ENDBRANCH   9  10
ENDBRANCH   8   9
ENDBRANCH   1   8
TORSDOF 6
ENDMDL
MODEL 8
REMARK VINA RESULT:    -3.699      1.897      4.190
REMARK INTER + INTRA:          -5.878
REMARK INTER:                  -5.202
REMARK INTRA:                  -0.676
REMARK UNBOUND:                -0.882
REMARK SMILES CCCCCCC=CC(=O)[O-]
REMARK SMILES IDX 5 1 6 2 7 3 8 4 9 5 10 6 11 7 4 8 3 9 2 10 1 11
REMARK H PARENT
REMARK Flexibility Score: inf
ROOT
ATOM      1  C   UNL     1     -20.644  16.495 -23.824  1.00  0.00     0.004 C 
ENDROOT
BRANCH   1   2
ATOM      2  C   UNL     1     -21.340  16.759 -22.481  1.00  0.00     0.027 C 
BRANCH   2   3
ATOM      3  C   UNL     1     -22.828  16.891 -22.654  1.00  0.00    -0.025 C 
ATOM      4  C   UNL     1     -23.538  18.028 -22.564  1.00  0.00     0.020 C 
BRANCH   4   5
ATOM      5  C   UNL     1     -23.002  19.384 -22.322  1.00  0.00     0.064 C 
ATOM      6  O   UNL     1     -22.624  19.689 -21.161  1.00  0.00    -0.545 OA
ATOM      7  O   UNL     1     -22.924  20.342 -23.324  1.00  0.00    -0.545 OA
ENDBRANCH   4   5
ENDBRANCH   2   3
ENDBRANCH   1   2
BRANCH   1   8
ATOM      8  C   UNL     1     -19.854  17.729 -24.284  1.00  0.00     0.000 C 
BRANCH   8   9
ATOM      9  C   UNL     1     -20.624  18.579 -25.308  1.00  0.00    -0.000 C 
BRANCH   9  10
ATOM     10  C   UNL     1     -21.510  17.731 -26.232  1.00  0.00    -0.003 C 
ATOM     11  C   UNL     1     -21.081  17.877 -27.689  1.00  0.00     0.004 C 
ENDBRANCH   9  10
ENDBRANCH   8   9
ENDBRANCH   1   8
TORSDOF 6
ENDMDL
MODEL 9
REMARK VINA RESULT:    -3.657      2.305      4.303
REMARK INTER + INTRA:          -5.822
REMARK INTER:                  -5.167
REMARK INTRA:                  -0.655
REMARK UNBOUND:                -0.882
REMARK SMILES CCCCCCC=CC(=O)[O-]
REMARK SMILES IDX 5 1 6 2 7 3 8 4 9 5 10 6 11 7 4 8 3 9 2 10 1 11
REMARK H PARENT
REMARK Flexibility Score: inf
ROOT
ATOM      1  C   UNL     1     -23.250  18.199 -24.655  1.00  0.00     0.004 C 
ENDROOT
BRANCH   1   2
ATOM      2  C   UNL     1     -23.524  17.673 -23.239  1.00  0.00     0.027 C 
BRANCH   2   3
ATOM      3  C   UNL     1     -22.368  17.953 -22.319  1.00  0.00    -0.025 C 
ATOM      4  C   UNL     1     -21.376  17.099 -22.012  1.00  0.00     0.020 C 
BRANCH   4   5
ATOM      5  C   UNL     1     -21.195  15.733 -22.545  1.00  0.00     0.064 C 
ATOM      6  O   UNL     1     -20.646  15.586 -23.668  1.00  0.00    -0.545 OA
ATOM      7  O   UNL     1     -21.632  14.605 -21.862  1.00  0.00    -0.545 OA
ENDBRANCH   4   5
ENDBRANCH   2   3
ENDBRANCH   1   2
BRANCH   1   8
ATOM      8  C   UNL     1     -22.489  19.531 -24.606  1.00  0.00     0.000 C 
BRANCH   8   9
ATOM      9  C   UNL     1     -21.379  19.619 -25.667  1.00  0.00    -0.000 C 
BRANCH   9  10
ATOM     10  C   UNL     1     -20.889  18.238 -26.125  1.00  0.00    -0.003 C 
ATOM     11  C   UNL     1     -21.022  18.082 -27.637  1.00  0.00     0.004 C 
ENDBRANCH   9  10
ENDBRANCH   8   9
ENDBRANCH   1   8
TORSDOF 6
ENDMDL
