MODEL 1
REMARK VINA RESULT:    -3.346      0.000      0.000
REMARK INTER + INTRA:          -3.705
REMARK INTER:                  -3.541
REMARK INTRA:                  -0.164
REMARK UNBOUND:                -0.164
REMARK SMILES C=C(C)[C@@H]1CC=C(C)CC1
REMARK SMILES IDX 8 1 7 2 6 3 5 4 4 5 10 6 9 7 2 8 1 9 3 10
REMARK H PARENT
REMARK Flexibility Score: inf
ROOT
ATOM      1  C   UNL     1      20.748   8.298  -6.191  1.00  0.00     0.039 C 
ATOM      2  C   UNL     1      20.503   9.535  -7.009  1.00  0.00    -0.077 C 
ATOM      3  C   UNL     1      19.292  10.117  -7.009  1.00  0.00    -0.027 C 
ATOM      4  C   UNL     1      19.054  11.326  -7.871  1.00  0.00     0.035 C 
ATOM      5  C   UNL     1      19.629  11.098  -9.289  1.00  0.00     0.018 C 
ATOM      6  C   UNL     1      21.041  10.424  -9.290  1.00  0.00     0.013 C 
ATOM      7  C   UNL     1      21.586  10.125  -7.881  1.00  0.00     0.031 C 
ENDROOT
BRANCH   5   8
ATOM      8  C   UNL     1      19.631  12.403 -10.074  1.00  0.00    -0.077 C 
ATOM      9  C   UNL     1      18.513  13.139 -10.172  1.00  0.00     0.008 C 
ATOM     10  C   UNL     1      20.892  12.905 -10.732  1.00  0.00     0.039 C 
ENDBRANCH   5   8
TORSDOF 1
ENDMDL
MODEL 2
REMARK VINA RESULT:    -3.080      0.860      2.045
REMARK INTER + INTRA:          -3.424
REMARK INTER:                  -3.257
REMARK INTRA:                  -0.166
REMARK UNBOUND:                -0.164
REMARK SMILES C=C(C)[C@@H]1CC=C(C)CC1
REMARK SMILES IDX 8 1 7 2 6 3 5 4 4 5 10 6 9 7 2 8 1 9 3 10
REMARK H PARENT
REMARK Flexibility Score: inf
ROOT
ATOM      1  C   UNL     1      20.876   8.887  -6.221  1.00  0.00     0.039 C 
ATOM      2  C   UNL     1      20.326   9.621  -7.412  1.00  0.00    -0.077 C 
ATOM      3  C   UNL     1      21.149  10.043  -8.386  1.00  0.00    -0.027 C 
ATOM      4  C   UNL     1      20.586  10.817  -9.545  1.00  0.00     0.035 C 
ATOM      5  C   UNL     1      19.615  11.911  -9.041  1.00  0.00     0.018 C 
ATOM      6  C   UNL     1      18.652  11.420  -7.909  1.00  0.00     0.013 C 
ATOM      7  C   UNL     1      18.854   9.944  -7.523  1.00  0.00     0.031 C 
ENDROOT
BRANCH   5   8
ATOM      8  C   UNL     1      18.844  12.513 -10.209  1.00  0.00    -0.077 C 
ATOM      9  C   UNL     1      19.237  13.675 -10.755  1.00  0.00     0.008 C 
ATOM     10  C   UNL     1      17.646  11.805 -10.789  1.00  0.00     0.039 C 
ENDBRANCH   5   8
TORSDOF 1
ENDMDL
MODEL 3
REMARK VINA RESULT:    -3.055      1.008      4.532
REMARK INTER + INTRA:          -3.398
REMARK INTER:                  -3.231
REMARK INTRA:                  -0.166
REMARK UNBOUND:                -0.164
REMARK SMILES C=C(C)[C@@H]1CC=C(C)CC1
REMARK SMILES IDX 8 1 7 2 6 3 5 4 4 5 10 6 9 7 2 8 1 9 3 10
REMARK H PARENT
REMARK Flexibility Score: inf
ROOT
ATOM      1  C   UNL     1      18.545  12.491 -10.687  1.00  0.00     0.039 C 
ATOM      2  C   UNL     1      19.257  11.869  -9.518  1.00  0.00    -0.077 C 
ATOM      3  C   UNL     1      20.356  11.122  -9.716  1.00  0.00    -0.027 C 
ATOM      4  C   UNL     1      21.026  10.469  -8.538  1.00  0.00     0.035 C 
ATOM      5  C   UNL     1      19.975   9.793  -7.627  1.00  0.00     0.018 C 
ATOM      6  C   UNL     1      18.696  10.664  -7.393  1.00  0.00     0.013 C 
ATOM      7  C   UNL     1      18.736  12.027  -8.109  1.00  0.00     0.031 C 
ENDROOT
BRANCH   5   8
ATOM      8  C   UNL     1      20.611   9.368  -6.310  1.00  0.00    -0.077 C 
ATOM      9  C   UNL     1      21.008   8.099  -6.125  1.00  0.00     0.008 C 
ATOM     10  C   UNL     1      20.832  10.369  -5.203  1.00  0.00     0.039 C 
ENDBRANCH   5   8
TORSDOF 1
ENDMDL
MODEL 4
REMARK VINA RESULT:    -3.035     12.149     13.692
REMARK INTER + INTRA:          -3.376
REMARK INTER:                  -3.205
REMARK INTRA:                  -0.171
REMARK UNBOUND:                -0.164
REMARK SMILES C=C(C)[C@@H]1CC=C(C)CC1
REMARK SMILES IDX 8 1 7 2 6 3 5 4 4 5 10 6 9 7 2 8 1 9 3 10
REMARK H PARENT
REMARK Flexibility Score: inf
ROOT
ATOM      1  C   UNL     1      17.269  -3.125  -6.377  1.00  0.00     0.039 C 
ATOM      2  C   UNL     1      18.632  -3.057  -7.007  1.00  0.00    -0.077 C 
ATOM      3  C   UNL     1      19.734  -3.122  -6.241  1.00  0.00    -0.027 C 
ATOM      4  C   UNL     1      21.088  -3.005  -6.885  1.00  0.00     0.035 C 
ATOM      5  C   UNL     1      21.105  -1.831  -7.893  1.00  0.00     0.018 C 
ATOM      6  C   UNL     1      19.824  -1.756  -8.788  1.00  0.00     0.013 C 
ATOM      7  C   UNL     1      18.799  -2.868  -8.496  1.00  0.00     0.031 C 
ENDROOT
BRANCH   5   8
ATOM      8  C   UNL     1      22.373  -1.875  -8.735  1.00  0.00    -0.077 C 
ATOM      9  C   UNL     1      22.887  -3.051  -9.130  1.00  0.00     0.008 C 
ATOM     10  C   UNL     1      23.059  -0.601  -9.163  1.00  0.00     0.039 C 
ENDBRANCH   5   8
TORSDOF 1
ENDMDL
MODEL 5
REMARK VINA RESULT:    -2.917     11.878     12.793
REMARK INTER + INTRA:          -3.251
REMARK INTER:                  -3.086
REMARK INTRA:                  -0.166
REMARK UNBOUND:                -0.164
REMARK SMILES C=C(C)[C@@H]1CC=C(C)CC1
REMARK SMILES IDX 8 1 7 2 6 3 5 4 4 5 10 6 9 7 2 8 1 9 3 10
REMARK H PARENT
REMARK Flexibility Score: inf
ROOT
ATOM      1  C   UNL     1      23.125  -1.251  -5.881  1.00  0.00     0.039 C 
ATOM      2  C   UNL     1      22.308  -1.476  -7.123  1.00  0.00    -0.077 C 
ATOM      3  C   UNL     1      22.314  -0.565  -8.110  1.00  0.00    -0.027 C 
ATOM      4  C   UNL     1      21.453  -0.785  -9.323  1.00  0.00     0.035 C 
ATOM      5  C   UNL     1      20.032  -1.231  -8.902  1.00  0.00     0.018 C 
ATOM      6  C   UNL     1      20.025  -2.295  -7.755  1.00  0.00     0.013 C 
ATOM      7  C   UNL     1      21.431  -2.697  -7.274  1.00  0.00     0.031 C 
ENDROOT
BRANCH   5   8
ATOM      8  C   UNL     1      19.247  -1.710 -10.115  1.00  0.00    -0.077 C 
ATOM      9  C   UNL     1      19.358  -2.980 -10.539  1.00  0.00     0.008 C 
ATOM     10  C   UNL     1      18.310  -0.780 -10.844  1.00  0.00     0.039 C 
ENDBRANCH   5   8
TORSDOF 1
ENDMDL
MODEL 6
REMARK VINA RESULT:    -2.794      9.644     12.380
REMARK INTER + INTRA:          -3.121
REMARK INTER:                  -2.960
REMARK INTRA:                  -0.161
REMARK UNBOUND:                -0.164
REMARK SMILES C=C(C)[C@@H]1CC=C(C)CC1
REMARK SMILES IDX 8 1 7 2 6 3 5 4 4 5 10 6 9 7 2 8 1 9 3 10
REMARK H PARENT
REMARK Flexibility Score: inf
ROOT
ATOM      1  C   UNL     1      20.485   2.315 -11.106  1.00  0.00     0.039 C 
ATOM      2  C   UNL     1      20.380   1.227 -10.073  1.00  0.00    -0.077 C 
ATOM      3  C   UNL     1      21.471   0.529  -9.713  1.00  0.00    -0.027 C 
ATOM      4  C   UNL     1      21.336  -0.587  -8.715  1.00  0.00     0.035 C 
ATOM      5  C   UNL     1      20.121  -1.478  -9.063  1.00  0.00     0.018 C 
ATOM      6  C   UNL     1      18.849  -0.667  -9.480  1.00  0.00     0.013 C 
ATOM      7  C   UNL     1      19.052   0.859  -9.454  1.00  0.00     0.031 C 
ENDROOT
BRANCH   5   8
ATOM      8  C   UNL     1      19.823  -2.438  -7.919  1.00  0.00    -0.077 C 
ATOM      9  C   UNL     1      20.742  -2.668  -6.968  1.00  0.00     0.008 C 
ATOM     10  C   UNL     1      18.483  -3.123  -7.817  1.00  0.00     0.039 C 
ENDBRANCH   5   8
TORSDOF 1
ENDMDL
MODEL 7
REMARK VINA RESULT:    -2.763     10.033     12.198
REMARK INTER + INTRA:          -3.088
REMARK INTER:                  -2.925
REMARK INTRA:                  -0.163
REMARK UNBOUND:                -0.164
REMARK SMILES C=C(C)[C@@H]1CC=C(C)CC1
REMARK SMILES IDX 8 1 7 2 6 3 5 4 4 5 10 6 9 7 2 8 1 9 3 10
REMARK H PARENT
REMARK Flexibility Score: inf
ROOT
ATOM      1  C   UNL     1      23.084  -3.125  -6.978  1.00  0.00     0.039 C 
ATOM      2  C   UNL     1      21.951  -2.264  -7.462  1.00  0.00    -0.077 C 
ATOM      3  C   UNL     1      20.721  -2.785  -7.606  1.00  0.00    -0.027 C 
ATOM      4  C   UNL     1      19.611  -1.920  -8.138  1.00  0.00     0.035 C 
ATOM      5  C   UNL     1      20.093  -1.125  -9.374  1.00  0.00     0.018 C 
ATOM      6  C   UNL     1      21.524  -0.516  -9.207  1.00  0.00     0.013 C 
ATOM      7  C   UNL     1      22.171  -0.819  -7.843  1.00  0.00     0.031 C 
ENDROOT
BRANCH   5   8
ATOM      8  C   UNL     1      19.071  -0.060  -9.749  1.00  0.00    -0.077 C 
ATOM      9  C   UNL     1      17.847  -0.412 -10.174  1.00  0.00     0.008 C 
ATOM     10  C   UNL     1      19.405   1.405  -9.625  1.00  0.00     0.039 C 
ENDBRANCH   5   8
TORSDOF 1
ENDMDL
MODEL 8
REMARK VINA RESULT:    -2.675      9.260     11.558
REMARK INTER + INTRA:          -2.995
REMARK INTER:                  -2.824
REMARK INTRA:                  -0.171
REMARK UNBOUND:                -0.164
REMARK SMILES C=C(C)[C@@H]1CC=C(C)CC1
REMARK SMILES IDX 8 1 7 2 6 3 5 4 4 5 10 6 9 7 2 8 1 9 3 10
REMARK H PARENT
REMARK Flexibility Score: inf
ROOT
ATOM      1  C   UNL     1      17.120   2.923 -10.741  1.00  0.00     0.039 C 
ATOM      2  C   UNL     1      18.036   1.738 -10.607  1.00  0.00    -0.077 C 
ATOM      3  C   UNL     1      17.539   0.533 -10.281  1.00  0.00    -0.027 C 
ATOM      4  C   UNL     1      18.477  -0.629 -10.105  1.00  0.00     0.035 C 
ATOM      5  C   UNL     1      19.697  -0.212  -9.249  1.00  0.00     0.018 C 
ATOM      6  C   UNL     1      20.279   1.190  -9.631  1.00  0.00     0.013 C 
ATOM      7  C   UNL     1      19.529   1.877 -10.787  1.00  0.00     0.031 C 
ENDROOT
BRANCH   5   8
ATOM      8  C   UNL     1      20.768  -1.293  -9.293  1.00  0.00    -0.077 C 
ATOM      9  C   UNL     1      21.352  -1.625 -10.455  1.00  0.00     0.008 C 
ATOM     10  C   UNL     1      21.211  -1.990  -8.031  1.00  0.00     0.039 C 
ENDBRANCH   5   8
TORSDOF 1
ENDMDL
MODEL 9
REMARK VINA RESULT:    -2.645      2.956      4.347
REMARK INTER + INTRA:          -2.963
REMARK INTER:                  -2.795
REMARK INTRA:                  -0.168
REMARK UNBOUND:                -0.164
REMARK SMILES C=C(C)[C@@H]1CC=C(C)CC1
REMARK SMILES IDX 8 1 7 2 6 3 5 4 4 5 10 6 9 7 2 8 1 9 3 10
REMARK H PARENT
REMARK Flexibility Score: inf
ROOT
ATOM      1  C   UNL     1      16.847  11.107 -11.054  1.00  0.00     0.039 C 
ATOM      2  C   UNL     1      17.725  12.256 -10.643  1.00  0.00    -0.077 C 
ATOM      3  C   UNL     1      17.487  13.491 -11.114  1.00  0.00    -0.027 C 
ATOM      4  C   UNL     1      18.406  14.617 -10.729  1.00  0.00     0.035 C 
ATOM      5  C   UNL     1      19.884  14.178 -10.866  1.00  0.00     0.018 C 
ATOM      6  C   UNL     1      20.163  12.741 -10.315  1.00  0.00     0.013 C 
ATOM      7  C   UNL     1      18.916  12.046  -9.736  1.00  0.00     0.031 C 
ENDROOT
BRANCH   5   8
ATOM      8  C   UNL     1      20.804  15.210 -10.229  1.00  0.00    -0.077 C 
ATOM      9  C   UNL     1      20.354  16.007  -9.246  1.00  0.00     0.008 C 
ATOM     10  C   UNL     1      22.241  15.338 -10.669  1.00  0.00     0.039 C 
ENDBRANCH   5   8
TORSDOF 1
ENDMDL
