MODEL 1
REMARK VINA RESULT:    -4.953      0.000      0.000
REMARK INTER + INTRA:          -5.754
REMARK INTER:                  -5.532
REMARK INTRA:                  -0.222
REMARK UNBOUND:                -0.222
REMARK SMILES O=C([O-])c1ccccc1C(=O)[O-]
REMARK SMILES IDX 4 1 9 2 5 3 8 4 6 5 7 6 2 7 1 8 3 9 10 10 11 11 12 12
REMARK H PARENT
REMARK Flexibility Score: inf
ROOT
ATOM      1  C   UNL     1     -10.271  -6.556 -20.091  1.00  0.00     0.006 A 
ATOM      2  C   UNL     1      -9.873  -6.621 -18.728  1.00  0.00     0.006 A 
ATOM      3  C   UNL     1     -11.523  -5.997 -20.413  1.00  0.00     0.010 A 
ATOM      4  C   UNL     1     -10.766  -6.182 -17.732  1.00  0.00     0.010 A 
ATOM      5  C   UNL     1     -12.384  -5.548 -19.410  1.00  0.00     0.001 A 
ATOM      6  C   UNL     1     -12.010  -5.651 -18.073  1.00  0.00     0.001 A 
ENDROOT
BRANCH   1   7
ATOM      7  C   UNL     1      -9.455  -7.123 -21.189  1.00  0.00     0.072 C 
ATOM      8  O   UNL     1      -9.641  -8.309 -21.570  1.00  0.00    -0.545 OA
ATOM      9  O   UNL     1      -8.433  -6.381 -21.768  1.00  0.00    -0.545 OA
ENDBRANCH   1   7
BRANCH   2  10
ATOM     10  C   UNL     1      -8.523  -7.062 -18.311  1.00  0.00     0.072 C 
ATOM     11  O   UNL     1      -8.349  -8.220 -17.847  1.00  0.00    -0.545 OA
ATOM     12  O   UNL     1      -7.443  -6.189 -18.364  1.00  0.00    -0.545 OA
ENDBRANCH   2  10
TORSDOF 2
ENDMDL
MODEL 2
REMARK VINA RESULT:    -4.950      0.063      2.860
REMARK INTER + INTRA:          -5.751
REMARK INTER:                  -5.525
REMARK INTRA:                  -0.226
REMARK UNBOUND:                -0.222
REMARK SMILES O=C([O-])c1ccccc1C(=O)[O-]
REMARK SMILES IDX 4 1 9 2 5 3 8 4 6 5 7 6 2 7 1 8 3 9 10 10 11 11 12 12
REMARK H PARENT
REMARK Flexibility Score: inf
ROOT
ATOM      1  C   UNL     1      -9.870  -6.649 -18.707  1.00  0.00     0.006 A 
ATOM      2  C   UNL     1     -10.275  -6.551 -20.067  1.00  0.00     0.006 A 
ATOM      3  C   UNL     1     -10.746  -6.206 -17.698  1.00  0.00     0.010 A 
ATOM      4  C   UNL     1     -11.515  -5.957 -20.370  1.00  0.00     0.010 A 
ATOM      5  C   UNL     1     -11.980  -5.639 -18.022  1.00  0.00     0.001 A 
ATOM      6  C   UNL     1     -12.358  -5.505 -19.355  1.00  0.00     0.001 A 
ENDROOT
BRANCH   1   7
ATOM      7  C   UNL     1      -8.528  -7.130 -18.307  1.00  0.00     0.072 C 
ATOM      8  O   UNL     1      -8.374  -8.314 -17.903  1.00  0.00    -0.545 OA
ATOM      9  O   UNL     1      -7.437  -6.270 -18.308  1.00  0.00    -0.545 OA
ENDBRANCH   1   7
BRANCH   2  10
ATOM     10  C   UNL     1      -9.480  -7.119 -21.179  1.00  0.00     0.072 C 
ATOM     11  O   UNL     1      -9.672  -8.306 -21.554  1.00  0.00    -0.545 OA
ATOM     12  O   UNL     1      -8.471  -6.377 -21.781  1.00  0.00    -0.545 OA
ENDBRANCH   2  10
TORSDOF 2
ENDMDL
MODEL 3
REMARK VINA RESULT:    -4.532      2.056      3.611
REMARK INTER + INTRA:          -5.283
REMARK INTER:                  -5.125
REMARK INTRA:                  -0.158
REMARK UNBOUND:                -0.222
REMARK SMILES O=C([O-])c1ccccc1C(=O)[O-]
REMARK SMILES IDX 4 1 9 2 5 3 8 4 6 5 7 6 2 7 1 8 3 9 10 10 11 11 12 12
REMARK H PARENT
REMARK Flexibility Score: inf
ROOT
ATOM      1  C   UNL     1      -8.506  -6.881 -19.489  1.00  0.00     0.006 A 
ATOM      2  C   UNL     1      -9.924  -6.986 -19.475  1.00  0.00     0.006 A 
ATOM      3  C   UNL     1      -7.842  -6.746 -20.723  1.00  0.00     0.010 A 
ATOM      4  C   UNL     1     -10.621  -7.014 -20.698  1.00  0.00     0.010 A 
ATOM      5  C   UNL     1      -8.555  -6.755 -21.923  1.00  0.00     0.001 A 
ATOM      6  C   UNL     1      -9.940  -6.901 -21.910  1.00  0.00     0.001 A 
ENDROOT
BRANCH   1   7
ATOM      7  C   UNL     1      -7.686  -6.984 -18.260  1.00  0.00     0.072 C 
ATOM      8  O   UNL     1      -7.022  -5.992 -17.857  1.00  0.00    -0.545 OA
ATOM      9  O   UNL     1      -7.585  -8.188 -17.574  1.00  0.00    -0.545 OA
ENDBRANCH   1   7
BRANCH   2  10
ATOM     10  C   UNL     1     -10.712  -6.990 -18.221  1.00  0.00     0.072 C 
ATOM     11  O   UNL     1     -11.338  -8.025 -17.869  1.00  0.00    -0.545 OA
ATOM     12  O   UNL     1     -10.826  -5.839 -17.451  1.00  0.00    -0.545 OA
ENDBRANCH   2  10
TORSDOF 2
ENDMDL
MODEL 4
REMARK VINA RESULT:    -4.465      2.129      3.272
REMARK INTER + INTRA:          -5.208
REMARK INTER:                  -5.073
REMARK INTRA:                  -0.136
REMARK UNBOUND:                -0.222
REMARK SMILES O=C([O-])c1ccccc1C(=O)[O-]
REMARK SMILES IDX 4 1 9 2 5 3 8 4 6 5 7 6 2 7 1 8 3 9 10 10 11 11 12 12
REMARK H PARENT
REMARK Flexibility Score: inf
ROOT
ATOM      1  C   UNL     1      -9.908  -7.244 -19.492  1.00  0.00     0.006 A 
ATOM      2  C   UNL     1      -8.518  -6.950 -19.533  1.00  0.00     0.006 A 
ATOM      3  C   UNL     1     -10.632  -7.303 -20.698  1.00  0.00     0.010 A 
ATOM      4  C   UNL     1      -7.915  -6.664 -20.773  1.00  0.00     0.010 A 
ATOM      5  C   UNL     1     -10.009  -7.036 -21.919  1.00  0.00     0.001 A 
ATOM      6  C   UNL     1      -8.657  -6.706 -21.954  1.00  0.00     0.001 A 
ENDROOT
BRANCH   1   7
ATOM      7  C   UNL     1     -10.650  -7.419 -18.222  1.00  0.00     0.072 C 
ATOM      8  O   UNL     1     -11.130  -8.544 -17.919  1.00  0.00    -0.545 OA
ATOM      9  O   UNL     1     -10.883  -6.336 -17.383  1.00  0.00    -0.545 OA
ENDBRANCH   1   7
BRANCH   2  10
ATOM     10  C   UNL     1      -7.654  -7.007 -18.332  1.00  0.00     0.072 C 
ATOM     11  O   UNL     1      -7.066  -5.969 -17.925  1.00  0.00    -0.545 OA
ATOM     12  O   UNL     1      -7.428  -8.211 -17.676  1.00  0.00    -0.545 OA
ENDBRANCH   2  10
TORSDOF 2
ENDMDL
MODEL 5
REMARK VINA RESULT:    -4.219      2.168      3.326
REMARK INTER + INTRA:          -4.934
REMARK INTER:                  -4.778
REMARK INTRA:                  -0.156
REMARK UNBOUND:                -0.222
REMARK SMILES O=C([O-])c1ccccc1C(=O)[O-]
REMARK SMILES IDX 4 1 9 2 5 3 8 4 6 5 7 6 2 7 1 8 3 9 10 10 11 11 12 12
REMARK H PARENT
REMARK Flexibility Score: inf
ROOT
ATOM      1  C   UNL     1     -10.118  -6.839 -20.543  1.00  0.00     0.006 A 
ATOM      2  C   UNL     1      -9.670  -6.948 -19.198  1.00  0.00     0.006 A 
ATOM      3  C   UNL     1      -9.178  -6.582 -21.559  1.00  0.00     0.010 A 
ATOM      4  C   UNL     1      -8.308  -6.733 -18.911  1.00  0.00     0.010 A 
ATOM      5  C   UNL     1      -7.830  -6.393 -21.253  1.00  0.00     0.001 A 
ATOM      6  C   UNL     1      -7.398  -6.458 -19.931  1.00  0.00     0.001 A 
ENDROOT
BRANCH   1   7
ATOM      7  C   UNL     1     -11.550  -6.911 -20.915  1.00  0.00     0.072 C 
ATOM      8  O   UNL     1     -12.340  -5.992 -20.572  1.00  0.00    -0.545 OA
ATOM      9  O   UNL     1     -12.052  -8.018 -21.588  1.00  0.00    -0.545 OA
ENDBRANCH   1   7
BRANCH   2  10
ATOM     10  C   UNL     1     -10.563  -7.354 -18.089  1.00  0.00     0.072 C 
ATOM     11  O   UNL     1     -10.963  -6.501 -17.252  1.00  0.00    -0.545 OA
ATOM     12  O   UNL     1     -10.920  -8.686 -17.916  1.00  0.00    -0.545 OA
ENDBRANCH   2  10
TORSDOF 2
ENDMDL
MODEL 6
REMARK VINA RESULT:    -4.187      2.282      4.394
REMARK INTER + INTRA:          -4.898
REMARK INTER:                  -4.683
REMARK INTRA:                  -0.215
REMARK UNBOUND:                -0.222
REMARK SMILES O=C([O-])c1ccccc1C(=O)[O-]
REMARK SMILES IDX 4 1 9 2 5 3 8 4 6 5 7 6 2 7 1 8 3 9 10 10 11 11 12 12
REMARK H PARENT
REMARK Flexibility Score: inf
ROOT
ATOM      1  C   UNL     1      -8.019  -8.678 -18.123  1.00  0.00     0.006 A 
ATOM      2  C   UNL     1      -8.285  -7.292 -18.298  1.00  0.00     0.006 A 
ATOM      3  C   UNL     1      -6.760  -9.076 -17.635  1.00  0.00     0.010 A 
ATOM      4  C   UNL     1      -7.262  -6.360 -18.039  1.00  0.00     0.010 A 
ATOM      5  C   UNL     1      -5.767  -8.133 -17.366  1.00  0.00     0.001 A 
ATOM      6  C   UNL     1      -6.014  -6.779 -17.578  1.00  0.00     0.001 A 
ENDROOT
BRANCH   1   7
ATOM      7  C   UNL     1      -8.987  -9.731 -18.503  1.00  0.00     0.072 C 
ATOM      8  O   UNL     1      -9.625 -10.357 -17.615  1.00  0.00    -0.545 OA
ATOM      9  O   UNL     1      -9.158 -10.089 -19.835  1.00  0.00    -0.545 OA
ENDBRANCH   1   7
BRANCH   2  10
ATOM     10  C   UNL     1      -9.623  -6.777 -18.670  1.00  0.00     0.072 C 
ATOM     11  O   UNL     1     -10.442  -6.435 -17.776  1.00  0.00    -0.545 OA
ATOM     12  O   UNL     1     -10.018  -6.725 -20.002  1.00  0.00    -0.545 OA
ENDBRANCH   2  10
TORSDOF 2
ENDMDL
MODEL 7
REMARK VINA RESULT:    -4.171      2.248      4.240
REMARK INTER + INTRA:          -4.880
REMARK INTER:                  -4.704
REMARK INTRA:                  -0.176
REMARK UNBOUND:                -0.222
REMARK SMILES O=C([O-])c1ccccc1C(=O)[O-]
REMARK SMILES IDX 4 1 9 2 5 3 8 4 6 5 7 6 2 7 1 8 3 9 10 10 11 11 12 12
REMARK H PARENT
REMARK Flexibility Score: inf
ROOT
ATOM      1  C   UNL     1      -9.694  -7.044 -19.382  1.00  0.00     0.006 A 
ATOM      2  C   UNL     1     -10.324  -6.997 -20.656  1.00  0.00     0.006 A 
ATOM      3  C   UNL     1      -8.327  -6.725 -19.282  1.00  0.00     0.010 A 
ATOM      4  C   UNL     1      -9.549  -6.694 -21.792  1.00  0.00     0.010 A 
ATOM      5  C   UNL     1      -7.583  -6.406 -20.419  1.00  0.00     0.001 A 
ATOM      6  C   UNL     1      -8.190  -6.401 -21.672  1.00  0.00     0.001 A 
ENDROOT
BRANCH   1   7
ATOM      7  C   UNL     1     -10.400  -7.490 -18.159  1.00  0.00     0.072 C 
ATOM      8  O   UNL     1     -10.591  -8.718 -17.950  1.00  0.00    -0.545 OA
ATOM      9  O   UNL     1     -10.917  -6.564 -17.262  1.00  0.00    -0.545 OA
ENDBRANCH   1   7
BRANCH   2  10
ATOM     10  C   UNL     1     -11.782  -7.181 -20.833  1.00  0.00     0.072 C 
ATOM     11  O   UNL     1     -12.224  -8.177 -21.465  1.00  0.00    -0.545 OA
ATOM     12  O   UNL     1     -12.679  -6.229 -20.363  1.00  0.00    -0.545 OA
ENDBRANCH   2  10
TORSDOF 2
ENDMDL
MODEL 8
REMARK VINA RESULT:    -4.160      2.277      4.263
REMARK INTER + INTRA:          -4.868
REMARK INTER:                  -4.650
REMARK INTRA:                  -0.218
REMARK UNBOUND:                -0.222
REMARK SMILES O=C([O-])c1ccccc1C(=O)[O-]
REMARK SMILES IDX 4 1 9 2 5 3 8 4 6 5 7 6 2 7 1 8 3 9 10 10 11 11 12 12
REMARK H PARENT
REMARK Flexibility Score: inf
ROOT
ATOM      1  C   UNL     1      -8.273  -7.312 -18.334  1.00  0.00     0.006 A 
ATOM      2  C   UNL     1      -8.032  -8.695 -18.115  1.00  0.00     0.006 A 
ATOM      3  C   UNL     1      -7.247  -6.386 -18.062  1.00  0.00     0.010 A 
ATOM      4  C   UNL     1      -6.796  -9.098 -17.573  1.00  0.00     0.010 A 
ATOM      5  C   UNL     1      -6.022  -6.810 -17.545  1.00  0.00     0.001 A 
ATOM      6  C   UNL     1      -5.801  -8.161 -17.291  1.00  0.00     0.001 A 
ENDROOT
BRANCH   1   7
ATOM      7  C   UNL     1      -9.589  -6.789 -18.767  1.00  0.00     0.072 C 
ATOM      8  O   UNL     1     -10.439  -6.424 -17.911  1.00  0.00    -0.545 OA
ATOM      9  O   UNL     1      -9.930  -6.757 -20.114  1.00  0.00    -0.545 OA
ENDBRANCH   1   7
BRANCH   2  10
ATOM     10  C   UNL     1      -9.000  -9.746 -18.504  1.00  0.00     0.072 C 
ATOM     11  O   UNL     1      -9.691 -10.328 -17.626  1.00  0.00    -0.545 OA
ATOM     12  O   UNL     1      -9.115 -10.150 -19.829  1.00  0.00    -0.545 OA
ENDBRANCH   2  10
TORSDOF 2
ENDMDL
MODEL 9
REMARK VINA RESULT:    -4.040      3.057      3.879
REMARK INTER + INTRA:          -4.734
REMARK INTER:                  -4.531
REMARK INTRA:                  -0.203
REMARK UNBOUND:                -0.222
REMARK SMILES O=C([O-])c1ccccc1C(=O)[O-]
REMARK SMILES IDX 4 1 9 2 5 3 8 4 6 5 7 6 2 7 1 8 3 9 10 10 11 11 12 12
REMARK H PARENT
REMARK Flexibility Score: inf
ROOT
ATOM      1  C   UNL     1      -7.867  -7.577 -19.733  1.00  0.00     0.006 A 
ATOM      2  C   UNL     1      -8.912  -8.527 -19.898  1.00  0.00     0.006 A 
ATOM      3  C   UNL     1      -7.759  -6.513 -20.648  1.00  0.00     0.010 A 
ATOM      4  C   UNL     1      -9.771  -8.413 -21.007  1.00  0.00     0.010 A 
ATOM      5  C   UNL     1      -8.636  -6.408 -21.729  1.00  0.00     0.001 A 
ATOM      6  C   UNL     1      -9.632  -7.363 -21.914  1.00  0.00     0.001 A 
ENDROOT
BRANCH   1   7
ATOM      7  C   UNL     1      -6.835  -7.700 -18.678  1.00  0.00     0.072 C 
ATOM      8  O   UNL     1      -6.847  -6.924 -17.686  1.00  0.00    -0.545 OA
ATOM      9  O   UNL     1      -5.805  -8.625 -18.799  1.00  0.00    -0.545 OA
ENDBRANCH   1   7
BRANCH   2  10
ATOM     10  C   UNL     1      -9.184  -9.593 -18.907  1.00  0.00     0.072 C 
ATOM     11  O   UNL     1     -10.046  -9.415 -18.006  1.00  0.00    -0.545 OA
ATOM     12  O   UNL     1      -8.453 -10.775 -18.916  1.00  0.00    -0.545 OA
ENDBRANCH   2  10
TORSDOF 2
ENDMDL
