MODEL 1
REMARK VINA RESULT:    -5.290      0.000      0.000
REMARK INTER + INTRA:          -5.290
REMARK INTER:                  -5.290
REMARK INTRA:                   0.000
REMARK UNBOUND:                 0.000
REMARK SMILES C=C1CCC[C@]2(C)CC(=O)C(=C(C)C)C[C@H]12
REMARK SMILES IDX 13 1 12 2 11 3 15 4 16 5 2 6 1 7 3 8 4 9 5 10 6 11 8 12 9 13
REMARK SMILES IDX 10 14 7 15 14 16
REMARK H PARENT
REMARK Flexibility Score: inf
ROOT
ATOM      1  C   UNL     1      -4.850  31.169  59.654  1.00  0.00     0.039 C 
ATOM      2  C   UNL     1      -5.503  30.253  58.646  1.00  0.00    -0.070 C 
ATOM      3  C   UNL     1      -6.617  30.636  57.956  1.00  0.00    -0.006 C 
ATOM      4  C   UNL     1      -7.264  31.990  58.160  1.00  0.00     0.047 C 
ATOM      5  C   UNL     1      -7.884  32.578  56.865  1.00  0.00     0.025 C 
ATOM      6  C   UNL     1      -8.707  33.803  57.232  1.00  0.00    -0.073 C 
ATOM      7  C   UNL     1      -8.192  35.035  57.097  1.00  0.00     0.008 C 
ATOM      8  C   UNL     1     -10.051  33.603  57.899  1.00  0.00     0.031 C 
ATOM      9  C   UNL     1     -10.888  32.537  57.180  1.00  0.00     0.005 C 
ATOM     10  C   UNL     1     -10.081  31.265  56.858  1.00  0.00     0.008 C 
ATOM     11  C   UNL     1      -8.769  31.563  56.072  1.00  0.00    -0.018 C 
ATOM     12  C   UNL     1      -7.987  30.246  55.822  1.00  0.00     0.088 C 
ATOM     13  C   UNL     1      -7.350  29.711  57.064  1.00  0.00     0.159 C 
ATOM     14  O   UNL     1      -7.451  28.483  57.330  1.00  0.00    -0.295 OA
ATOM     15  C   UNL     1      -9.114  32.152  54.677  1.00  0.00     0.012 C 
ATOM     16  C   UNL     1      -4.850  28.912  58.404  1.00  0.00     0.039 C 
ENDROOT
TORSDOF 0
ENDMDL
MODEL 2
REMARK VINA RESULT:    -4.916      2.729      5.043
REMARK INTER + INTRA:          -4.916
REMARK INTER:                  -4.916
REMARK INTRA:                   0.000
REMARK UNBOUND:                 0.000
REMARK SMILES C=C1CCC[C@]2(C)CC(=O)C(=C(C)C)C[C@H]12
REMARK SMILES IDX 13 1 12 2 11 3 15 4 16 5 2 6 1 7 3 8 4 9 5 10 6 11 8 12 9 13
REMARK SMILES IDX 10 14 7 15 14 16
REMARK H PARENT
REMARK Flexibility Score: inf
ROOT
ATOM      1  C   UNL     1      -4.725  29.104  58.568  1.00  0.00     0.039 C 
ATOM      2  C   UNL     1      -5.950  29.907  58.199  1.00  0.00    -0.070 C 
ATOM      3  C   UNL     1      -6.824  29.471  57.247  1.00  0.00    -0.006 C 
ATOM      4  C   UNL     1      -6.621  28.167  56.504  1.00  0.00     0.047 C 
ATOM      5  C   UNL     1      -7.948  27.443  56.155  1.00  0.00     0.025 C 
ATOM      6  C   UNL     1      -7.640  26.291  55.211  1.00  0.00    -0.073 C 
ATOM      7  C   UNL     1      -7.518  25.039  55.681  1.00  0.00     0.008 C 
ATOM      8  C   UNL     1      -7.318  26.601  53.765  1.00  0.00     0.031 C 
ATOM      9  C   UNL     1      -8.322  27.593  53.161  1.00  0.00     0.005 C 
ATOM     10  C   UNL     1      -8.594  28.797  54.081  1.00  0.00     0.008 C 
ATOM     11  C   UNL     1      -9.028  28.375  55.518  1.00  0.00    -0.018 C 
ATOM     12  C   UNL     1      -9.241  29.634  56.401  1.00  0.00     0.088 C 
ATOM     13  C   UNL     1      -7.957  30.299  56.775  1.00  0.00     0.159 C 
ATOM     14  O   UNL     1      -7.858  31.552  56.679  1.00  0.00    -0.295 OA
ATOM     15  C   UNL     1     -10.389  27.632  55.459  1.00  0.00     0.012 C 
ATOM     16  C   UNL     1      -6.187  31.194  58.956  1.00  0.00     0.039 C 
ENDROOT
TORSDOF 0
ENDMDL
MODEL 3
REMARK VINA RESULT:    -4.763     14.350     16.672
REMARK INTER + INTRA:          -4.763
REMARK INTER:                  -4.763
REMARK INTRA:                   0.000
REMARK UNBOUND:                 0.000
REMARK SMILES C=C1CCC[C@]2(C)CC(=O)C(=C(C)C)C[C@H]12
REMARK SMILES IDX 13 1 12 2 11 3 15 4 16 5 2 6 1 7 3 8 4 9 5 10 6 11 8 12 9 13
REMARK SMILES IDX 10 14 7 15 14 16
REMARK H PARENT
REMARK Flexibility Score: inf
ROOT
ATOM      1  C   UNL     1      -7.004  40.124  43.769  1.00  0.00     0.039 C 
ATOM      2  C   UNL     1      -6.884  38.651  44.085  1.00  0.00    -0.070 C 
ATOM      3  C   UNL     1      -5.951  37.868  43.473  1.00  0.00    -0.006 C 
ATOM      4  C   UNL     1      -4.987  38.419  42.442  1.00  0.00     0.047 C 
ATOM      5  C   UNL     1      -3.590  37.745  42.482  1.00  0.00     0.025 C 
ATOM      6  C   UNL     1      -2.798  38.196  41.265  1.00  0.00    -0.073 C 
ATOM      7  C   UNL     1      -1.904  39.192  41.365  1.00  0.00     0.008 C 
ATOM      8  C   UNL     1      -3.147  37.612  39.913  1.00  0.00     0.031 C 
ATOM      9  C   UNL     1      -3.295  36.086  39.975  1.00  0.00     0.005 C 
ATOM     10  C   UNL     1      -4.149  35.620  41.169  1.00  0.00     0.008 C 
ATOM     11  C   UNL     1      -3.644  36.184  42.531  1.00  0.00    -0.018 C 
ATOM     12  C   UNL     1      -4.574  35.712  43.680  1.00  0.00     0.088 C 
ATOM     13  C   UNL     1      -5.900  36.401  43.667  1.00  0.00     0.159 C 
ATOM     14  O   UNL     1      -6.951  35.722  43.818  1.00  0.00    -0.295 OA
ATOM     15  C   UNL     1      -2.229  35.624  42.840  1.00  0.00     0.012 C 
ATOM     16  C   UNL     1      -7.815  38.093  45.137  1.00  0.00     0.039 C 
ENDROOT
TORSDOF 0
ENDMDL
MODEL 4
REMARK VINA RESULT:    -4.733      1.848      3.853
REMARK INTER + INTRA:          -4.733
REMARK INTER:                  -4.733
REMARK INTRA:                   0.000
REMARK UNBOUND:                 0.000
REMARK SMILES C=C1CCC[C@]2(C)CC(=O)C(=C(C)C)C[C@H]12
REMARK SMILES IDX 13 1 12 2 11 3 15 4 16 5 2 6 1 7 3 8 4 9 5 10 6 11 8 12 9 13
REMARK SMILES IDX 10 14 7 15 14 16
REMARK H PARENT
REMARK Flexibility Score: inf
ROOT
ATOM      1  C   UNL     1      -4.973  28.896  58.293  1.00  0.00     0.039 C 
ATOM      2  C   UNL     1      -5.839  30.124  58.448  1.00  0.00    -0.070 C 
ATOM      3  C   UNL     1      -6.926  30.332  57.651  1.00  0.00    -0.006 C 
ATOM      4  C   UNL     1      -7.327  29.354  56.566  1.00  0.00     0.047 C 
ATOM      5  C   UNL     1      -8.862  29.252  56.364  1.00  0.00     0.025 C 
ATOM      6  C   UNL     1      -9.135  28.442  55.107  1.00  0.00    -0.073 C 
ATOM      7  C   UNL     1      -9.437  27.137  55.189  1.00  0.00     0.008 C 
ATOM      8  C   UNL     1      -8.905  29.092  53.759  1.00  0.00     0.031 C 
ATOM      9  C   UNL     1      -9.527  30.494  53.692  1.00  0.00     0.005 C 
ATOM     10  C   UNL     1      -9.205  31.346  54.933  1.00  0.00     0.008 C 
ATOM     11  C   UNL     1      -9.580  30.637  56.269  1.00  0.00    -0.018 C 
ATOM     12  C   UNL     1      -9.188  31.531  57.475  1.00  0.00     0.088 C 
ATOM     13  C   UNL     1      -7.711  31.586  57.695  1.00  0.00     0.159 C 
ATOM     14  O   UNL     1      -7.159  32.698  57.911  1.00  0.00    -0.295 OA
ATOM     15  C   UNL     1     -11.117  30.432  56.342  1.00  0.00     0.012 C 
ATOM     16  C   UNL     1      -5.474  31.093  59.550  1.00  0.00     0.039 C 
ENDROOT
TORSDOF 0
ENDMDL
MODEL 5
REMARK VINA RESULT:    -4.650     13.145     14.581
REMARK INTER + INTRA:          -4.650
REMARK INTER:                  -4.650
REMARK INTRA:                   0.000
REMARK UNBOUND:                 0.000
REMARK SMILES C=C1CCC[C@]2(C)CC(=O)C(=C(C)C)C[C@H]12
REMARK SMILES IDX 13 1 12 2 11 3 15 4 16 5 2 6 1 7 3 8 4 9 5 10 6 11 8 12 9 13
REMARK SMILES IDX 10 14 7 15 14 16
REMARK H PARENT
REMARK Flexibility Score: inf
ROOT
ATOM      1  C   UNL     1      -8.832  37.977  45.489  1.00  0.00     0.039 C 
ATOM      2  C   UNL     1      -7.376  37.995  45.084  1.00  0.00    -0.070 C 
ATOM      3  C   UNL     1      -6.750  36.869  44.636  1.00  0.00    -0.006 C 
ATOM      4  C   UNL     1      -7.468  35.540  44.523  1.00  0.00     0.047 C 
ATOM      5  C   UNL     1      -6.984  34.678  43.328  1.00  0.00     0.025 C 
ATOM      6  C   UNL     1      -7.587  33.288  43.454  1.00  0.00    -0.073 C 
ATOM      7  C   UNL     1      -8.689  32.958  42.762  1.00  0.00     0.008 C 
ATOM      8  C   UNL     1      -7.020  32.340  44.489  1.00  0.00     0.031 C 
ATOM      9  C   UNL     1      -5.486  32.305  44.445  1.00  0.00     0.005 C 
ATOM     10  C   UNL     1      -4.861  33.711  44.380  1.00  0.00     0.008 C 
ATOM     11  C   UNL     1      -5.429  34.573  43.212  1.00  0.00    -0.018 C 
ATOM     12  C   UNL     1      -4.790  35.987  43.234  1.00  0.00     0.088 C 
ATOM     13  C   UNL     1      -5.297  36.830  44.360  1.00  0.00     0.159 C 
ATOM     14  O   UNL     1      -4.478  37.489  45.055  1.00  0.00    -0.295 OA
ATOM     15  C   UNL     1      -5.050  33.929  41.851  1.00  0.00     0.012 C 
ATOM     16  C   UNL     1      -6.655  39.321  45.157  1.00  0.00     0.039 C 
ENDROOT
TORSDOF 0
ENDMDL
MODEL 6
REMARK VINA RESULT:    -4.642     12.557     14.226
REMARK INTER + INTRA:          -4.642
REMARK INTER:                  -4.642
REMARK INTRA:                   0.000
REMARK UNBOUND:                 0.000
REMARK SMILES C=C1CCC[C@]2(C)CC(=O)C(=C(C)C)C[C@H]12
REMARK SMILES IDX 13 1 12 2 11 3 15 4 16 5 2 6 1 7 3 8 4 9 5 10 6 11 8 12 9 13
REMARK SMILES IDX 10 14 7 15 14 16
REMARK H PARENT
REMARK Flexibility Score: inf
ROOT
ATOM      1  C   UNL     1      -4.205  35.166  41.728  1.00  0.00     0.039 C 
ATOM      2  C   UNL     1      -5.121  34.626  42.801  1.00  0.00    -0.070 C 
ATOM      3  C   UNL     1      -5.730  35.454  43.698  1.00  0.00    -0.006 C 
ATOM      4  C   UNL     1      -5.524  36.955  43.676  1.00  0.00     0.047 C 
ATOM      5  C   UNL     1      -6.784  37.756  44.097  1.00  0.00     0.025 C 
ATOM      6  C   UNL     1      -6.397  39.216  44.273  1.00  0.00    -0.073 C 
ATOM      7  C   UNL     1      -6.620  40.104  43.292  1.00  0.00     0.008 C 
ATOM      8  C   UNL     1      -5.614  39.616  45.506  1.00  0.00     0.031 C 
ATOM      9  C   UNL     1      -6.222  39.019  46.783  1.00  0.00     0.005 C 
ATOM     10  C   UNL     1      -6.561  37.524  46.636  1.00  0.00     0.008 C 
ATOM     11  C   UNL     1      -7.464  37.227  45.400  1.00  0.00    -0.018 C 
ATOM     12  C   UNL     1      -7.728  35.702  45.289  1.00  0.00     0.088 C 
ATOM     13  C   UNL     1      -6.524  34.940  44.836  1.00  0.00     0.159 C 
ATOM     14  O   UNL     1      -6.204  33.877  45.432  1.00  0.00    -0.295 OA
ATOM     15  C   UNL     1      -8.846  37.910  45.582  1.00  0.00     0.012 C 
ATOM     16  C   UNL     1      -5.365  33.135  42.815  1.00  0.00     0.039 C 
ENDROOT
TORSDOF 0
ENDMDL
MODEL 7
REMARK VINA RESULT:    -4.618     14.054     15.633
REMARK INTER + INTRA:          -4.618
REMARK INTER:                  -4.618
REMARK INTRA:                   0.000
REMARK UNBOUND:                 0.000
REMARK SMILES C=C1CCC[C@]2(C)CC(=O)C(=C(C)C)C[C@H]12
REMARK SMILES IDX 13 1 12 2 11 3 15 4 16 5 2 6 1 7 3 8 4 9 5 10 6 11 8 12 9 13
REMARK SMILES IDX 10 14 7 15 14 16
REMARK H PARENT
REMARK Flexibility Score: inf
ROOT
ATOM      1  C   UNL     1       0.439  27.477  40.997  1.00  0.00     0.039 C 
ATOM      2  C   UNL     1       0.848  28.727  41.742  1.00  0.00    -0.070 C 
ATOM      3  C   UNL     1       0.108  29.208  42.782  1.00  0.00    -0.006 C 
ATOM      4  C   UNL     1      -1.163  28.527  43.249  1.00  0.00     0.047 C 
ATOM      5  C   UNL     1      -1.388  28.627  44.780  1.00  0.00     0.025 C 
ATOM      6  C   UNL     1      -2.790  28.132  45.099  1.00  0.00    -0.073 C 
ATOM      7  C   UNL     1      -2.988  26.877  45.531  1.00  0.00     0.008 C 
ATOM      8  C   UNL     1      -3.968  29.025  44.771  1.00  0.00     0.031 C 
ATOM      9  C   UNL     1      -3.739  30.465  45.249  1.00  0.00     0.005 C 
ATOM     10  C   UNL     1      -2.343  31.000  44.877  1.00  0.00     0.008 C 
ATOM     11  C   UNL     1      -1.190  30.066  45.355  1.00  0.00    -0.018 C 
ATOM     12  C   UNL     1       0.180  30.641  44.909  1.00  0.00     0.088 C 
ATOM     13  C   UNL     1       0.413  30.498  43.440  1.00  0.00     0.159 C 
ATOM     14  O   UNL     1       0.863  31.477  42.786  1.00  0.00    -0.295 OA
ATOM     15  C   UNL     1      -1.169  30.009  46.907  1.00  0.00     0.012 C 
ATOM     16  C   UNL     1       2.131  29.399  41.312  1.00  0.00     0.039 C 
ENDROOT
TORSDOF 0
ENDMDL
MODEL 8
REMARK VINA RESULT:    -4.616     13.324     15.452
REMARK INTER + INTRA:          -4.616
REMARK INTER:                  -4.616
REMARK INTRA:                   0.000
REMARK UNBOUND:                 0.000
REMARK SMILES C=C1CCC[C@]2(C)CC(=O)C(=C(C)C)C[C@H]12
REMARK SMILES IDX 13 1 12 2 11 3 15 4 16 5 2 6 1 7 3 8 4 9 5 10 6 11 8 12 9 13
REMARK SMILES IDX 10 14 7 15 14 16
REMARK H PARENT
REMARK Flexibility Score: inf
ROOT
ATOM      1  C   UNL     1      -5.081  33.602  42.503  1.00  0.00     0.039 C 
ATOM      2  C   UNL     1      -4.448  34.897  42.051  1.00  0.00    -0.070 C 
ATOM      3  C   UNL     1      -4.794  36.091  42.614  1.00  0.00    -0.006 C 
ATOM      4  C   UNL     1      -5.829  36.191  43.715  1.00  0.00     0.047 C 
ATOM      5  C   UNL     1      -5.524  37.308  44.748  1.00  0.00     0.025 C 
ATOM      6  C   UNL     1      -6.733  37.479  45.653  1.00  0.00    -0.073 C 
ATOM      7  C   UNL     1      -6.770  36.892  46.859  1.00  0.00     0.008 C 
ATOM      8  C   UNL     1      -7.956  38.186  45.107  1.00  0.00     0.031 C 
ATOM      9  C   UNL     1      -7.583  39.489  44.387  1.00  0.00     0.005 C 
ATOM     10  C   UNL     1      -6.397  39.314  43.419  1.00  0.00     0.008 C 
ATOM     11  C   UNL     1      -5.147  38.681  44.102  1.00  0.00    -0.018 C 
ATOM     12  C   UNL     1      -4.011  38.493  43.062  1.00  0.00     0.088 C 
ATOM     13  C   UNL     1      -4.288  37.383  42.100  1.00  0.00     0.159 C 
ATOM     14  O   UNL     1      -4.089  37.568  40.869  1.00  0.00    -0.295 OA
ATOM     15  C   UNL     1      -4.603  39.639  45.195  1.00  0.00     0.012 C 
ATOM     16  C   UNL     1      -3.388  34.811  40.977  1.00  0.00     0.039 C 
ENDROOT
TORSDOF 0
ENDMDL
MODEL 9
REMARK VINA RESULT:    -4.522     13.674     15.088
REMARK INTER + INTRA:          -4.522
REMARK INTER:                  -4.522
REMARK INTRA:                   0.000
REMARK UNBOUND:                 0.000
REMARK SMILES C=C1CCC[C@]2(C)CC(=O)C(=C(C)C)C[C@H]12
REMARK SMILES IDX 13 1 12 2 11 3 15 4 16 5 2 6 1 7 3 8 4 9 5 10 6 11 8 12 9 13
REMARK SMILES IDX 10 14 7 15 14 16
REMARK H PARENT
REMARK Flexibility Score: inf
ROOT
ATOM      1  C   UNL     1      -5.715  33.469  42.942  1.00  0.00     0.039 C 
ATOM      2  C   UNL     1      -6.765  34.323  43.614  1.00  0.00    -0.070 C 
ATOM      3  C   UNL     1      -6.540  35.641  43.886  1.00  0.00    -0.006 C 
ATOM      4  C   UNL     1      -5.232  36.323  43.539  1.00  0.00     0.047 C 
ATOM      5  C   UNL     1      -5.403  37.810  43.129  1.00  0.00     0.025 C 
ATOM      6  C   UNL     1      -4.028  38.451  43.041  1.00  0.00    -0.073 C 
ATOM      7  C   UNL     1      -3.412  38.585  41.856  1.00  0.00     0.008 C 
ATOM      8  C   UNL     1      -3.300  38.790  44.325  1.00  0.00     0.031 C 
ATOM      9  C   UNL     1      -4.216  39.515  45.321  1.00  0.00     0.005 C 
ATOM     10  C   UNL     1      -5.592  38.837  45.465  1.00  0.00     0.008 C 
ATOM     11  C   UNL     1      -6.312  38.633  44.098  1.00  0.00    -0.018 C 
ATOM     12  C   UNL     1      -7.666  37.907  44.313  1.00  0.00     0.088 C 
ATOM     13  C   UNL     1      -7.497  36.463  44.660  1.00  0.00     0.159 C 
ATOM     14  O   UNL     1      -8.170  35.972  45.605  1.00  0.00    -0.295 OA
ATOM     15  C   UNL     1      -6.637  40.011  43.462  1.00  0.00     0.012 C 
ATOM     16  C   UNL     1      -8.088  33.667  43.935  1.00  0.00     0.039 C 
ENDROOT
TORSDOF 0
ENDMDL
