MODEL 1
REMARK VINA RESULT:    -0.427      0.000      0.000
REMARK INTER + INTRA:          -0.160
REMARK INTER:                  -0.452
REMARK INTRA:                   0.292
REMARK UNBOUND:                 0.292
REMARK SMILES CC(C)[C@H]1CC[C@@H](C)[C@H]2C=C[C@@H](C)C[C@H]21
REMARK SMILES IDX 8 1 7 2 6 3 5 4 4 5 15 6 9 7 10 8 11 9 12 10 14 11 13 12
REMARK SMILES IDX 2 13 1 14 3 15
REMARK H PARENT
REMARK Flexibility Score: inf
ROOT
ATOM      1  C   UNL     1       2.654   4.875  13.100  1.00  0.00     0.008 C 
ATOM      2  C   UNL     1       3.894   5.560  12.502  1.00  0.00    -0.007 C 
ATOM      3  C   UNL     1       5.184   5.006  13.120  1.00  0.00     0.004 C 
ATOM      4  C   UNL     1       6.401   5.601  12.411  1.00  0.00     0.004 C 
ATOM      5  C   UNL     1       6.488   7.132  12.603  1.00  0.00    -0.005 C 
ATOM      6  C   UNL     1       5.154   7.810  12.098  1.00  0.00    -0.000 C 
ATOM      7  C   UNL     1       3.826   7.113  12.546  1.00  0.00     0.018 C 
ATOM      8  C   UNL     1       3.309   7.724  13.825  1.00  0.00    -0.027 C 
ATOM      9  C   UNL     1       3.259   9.059  13.923  1.00  0.00    -0.028 C 
ATOM     10  C   UNL     1       3.755   9.908  12.773  1.00  0.00     0.008 C 
ATOM     11  C   UNL     1       5.109   9.368  12.244  1.00  0.00     0.012 C 
ATOM     12  C   UNL     1       3.871  11.377  13.189  1.00  0.00     0.012 C 
ENDROOT
BRANCH   5  13
ATOM     13  C   UNL     1       7.127   7.492  14.010  1.00  0.00    -0.014 C 
ATOM     14  C   UNL     1       6.376   8.493  14.897  1.00  0.00     0.007 C 
ATOM     15  C   UNL     1       8.613   7.886  13.898  1.00  0.00     0.007 C 
ENDBRANCH   5  13
TORSDOF 1
ENDMDL
MODEL 2
REMARK VINA RESULT:    -0.185      1.032      3.838
REMARK INTER + INTRA:           0.096
REMARK INTER:                  -0.031
REMARK INTRA:                   0.128
REMARK UNBOUND:                 0.292
REMARK SMILES CC(C)[C@H]1CC[C@@H](C)[C@H]2C=C[C@@H](C)C[C@H]21
REMARK SMILES IDX 8 1 7 2 6 3 5 4 4 5 15 6 9 7 10 8 11 9 12 10 14 11 13 12
REMARK SMILES IDX 2 13 1 14 3 15
REMARK H PARENT
REMARK Flexibility Score: inf
ROOT
ATOM      1  C   UNL     1       3.960   4.875  12.003  1.00  0.00     0.008 C 
ATOM      2  C   UNL     1       3.993   5.951  13.099  1.00  0.00    -0.007 C 
ATOM      3  C   UNL     1       3.006   7.084  12.793  1.00  0.00     0.004 C 
ATOM      4  C   UNL     1       2.957   8.067  13.963  1.00  0.00     0.004 C 
ATOM      5  C   UNL     1       4.317   8.768  14.183  1.00  0.00    -0.005 C 
ATOM      6  C   UNL     1       5.445   7.686  14.403  1.00  0.00    -0.000 C 
ATOM      7  C   UNL     1       5.425   6.472  13.414  1.00  0.00     0.018 C 
ATOM      8  C   UNL     1       6.316   6.739  12.225  1.00  0.00    -0.027 C 
ATOM      9  C   UNL     1       7.548   7.216  12.442  1.00  0.00    -0.028 C 
ATOM     10  C   UNL     1       7.993   7.510  13.859  1.00  0.00     0.008 C 
ATOM     11  C   UNL     1       6.881   8.267  14.630  1.00  0.00     0.012 C 
ATOM     12  C   UNL     1       9.305   8.298  13.867  1.00  0.00     0.012 C 
ENDROOT
BRANCH   5  13
ATOM     13  C   UNL     1       4.502   9.976  13.172  1.00  0.00    -0.014 C 
ATOM     14  C   UNL     1       3.938  11.342  13.584  1.00  0.00     0.007 C 
ATOM     15  C   UNL     1       4.053   9.622  11.741  1.00  0.00     0.007 C 
ENDBRANCH   5  13
TORSDOF 1
ENDMDL
MODEL 3
REMARK VINA RESULT:     2.427      1.118      3.632
REMARK INTER + INTRA:           2.860
REMARK INTER:                   2.681
REMARK INTRA:                   0.179
REMARK UNBOUND:                 0.292
REMARK SMILES CC(C)[C@H]1CC[C@@H](C)[C@H]2C=C[C@@H](C)C[C@H]21
REMARK SMILES IDX 8 1 7 2 6 3 5 4 4 5 15 6 9 7 10 8 11 9 12 10 14 11 13 12
REMARK SMILES IDX 2 13 1 14 3 15
REMARK H PARENT
REMARK Flexibility Score: inf
ROOT
ATOM      1  C   UNL     1       8.337   8.540  14.253  1.00  0.00     0.008 C 
ATOM      2  C   UNL     1       7.185   7.541  14.445  1.00  0.00    -0.007 C 
ATOM      3  C   UNL     1       7.344   6.329  13.519  1.00  0.00     0.004 C 
ATOM      4  C   UNL     1       6.265   5.290  13.828  1.00  0.00     0.004 C 
ATOM      5  C   UNL     1       4.846   5.830  13.542  1.00  0.00    -0.005 C 
ATOM      6  C   UNL     1       4.604   7.155  14.366  1.00  0.00    -0.000 C 
ATOM      7  C   UNL     1       5.776   8.193  14.344  1.00  0.00     0.018 C 
ATOM      8  C   UNL     1       5.580   9.194  13.231  1.00  0.00    -0.027 C 
ATOM      9  C   UNL     1       4.376   9.761  13.084  1.00  0.00    -0.028 C 
ATOM     10  C   UNL     1       3.245   9.356  14.005  1.00  0.00     0.008 C 
ATOM     11  C   UNL     1       3.199   7.813  14.159  1.00  0.00     0.012 C 
ATOM     12  C   UNL     1       1.907   9.901  13.500  1.00  0.00     0.012 C 
ENDROOT
BRANCH   5  13
ATOM     13  C   UNL     1       4.502   5.733  11.996  1.00  0.00    -0.014 C 
ATOM     14  C   UNL     1       4.436   7.041  11.199  1.00  0.00     0.007 C 
ATOM     15  C   UNL     1       3.250   4.876  11.724  1.00  0.00     0.007 C 
ENDBRANCH   5  13
TORSDOF 1
ENDMDL
