MODEL 1
REMARK VINA RESULT:    -4.139      0.000      0.000
REMARK INTER + INTRA:          -5.458
REMARK INTER:                  -4.986
REMARK INTRA:                  -0.472
REMARK UNBOUND:                -0.472
REMARK SMILES NC(=O)C[C@@H]([NH3+])C(=O)[O-]
REMARK SMILES IDX 4 1 5 2 6 3 7 7 8 8 9 9 2 10 3 11 1 12
REMARK H PARENT 6 4 6 5 6 6 1 13 1 14
REMARK Flexibility Score: inf
ROOT
ATOM      1  C   UNL     1     -13.283 -33.616  -7.153  1.00  0.00     0.171 C 
ENDROOT
BRANCH   1   2
ATOM      2  C   UNL     1     -14.634 -32.956  -7.495  1.00  0.00     0.237 C 
BRANCH   2   3
ATOM      3  N   UNL     1     -14.854 -31.773  -6.655  1.00  0.00    -0.350 N 
ATOM      4  H   UNL     1     -14.736 -32.027  -5.646  1.00  0.00     0.345 HD
ATOM      5  H   UNL     1     -14.149 -31.037  -6.891  1.00  0.00     0.345 HD
ATOM      6  H   UNL     1     -15.814 -31.387  -6.803  1.00  0.00     0.345 HD
ENDBRANCH   2   3
BRANCH   2   7
ATOM      7  C   UNL     1     -14.692 -32.573  -8.952  1.00  0.00     0.100 C 
ATOM      8  O   UNL     1     -15.804 -32.410  -9.520  1.00  0.00    -0.544 OA
ATOM      9  O   UNL     1     -13.520 -32.410  -9.681  1.00  0.00    -0.544 OA
ENDBRANCH   2   7
ENDBRANCH   1   2
BRANCH   1  10
ATOM     10  C   UNL     1     -12.350 -32.651  -6.481  1.00  0.00     0.223 C 
ATOM     11  O   UNL     1     -12.408 -32.490  -5.232  1.00  0.00    -0.275 OA
ATOM     12  N   UNL     1     -11.370 -31.941  -7.240  1.00  0.00    -0.369 N 
ATOM     13  H   UNL     1     -11.295 -32.075  -8.272  1.00  0.00     0.159 HD
ATOM     14  H   UNL     1     -10.714 -31.281  -6.766  1.00  0.00     0.159 HD
ENDBRANCH   1  10
TORSDOF 4
ENDMDL
MODEL 2
REMARK VINA RESULT:    -4.114      1.992      2.661
REMARK INTER + INTRA:          -5.427
REMARK INTER:                  -4.939
REMARK INTRA:                  -0.488
REMARK UNBOUND:                -0.472
REMARK SMILES NC(=O)C[C@@H]([NH3+])C(=O)[O-]
REMARK SMILES IDX 4 1 5 2 6 3 7 7 8 8 9 9 2 10 3 11 1 12
REMARK H PARENT 6 4 6 5 6 6 1 13 1 14
REMARK Flexibility Score: inf
ROOT
ATOM      1  C   UNL     1     -13.592 -32.642  -7.363  1.00  0.00     0.171 C 
ENDROOT
BRANCH   1   2
ATOM      2  C   UNL     1     -12.529 -32.404  -8.454  1.00  0.00     0.237 C 
BRANCH   2   3
ATOM      3  N   UNL     1     -11.194 -32.293  -7.854  1.00  0.00    -0.350 N 
ATOM      4  H   UNL     1     -10.676 -31.493  -8.287  1.00  0.00     0.345 HD
ATOM      5  H   UNL     1     -11.283 -32.107  -6.829  1.00  0.00     0.345 HD
ATOM      6  H   UNL     1     -10.650 -33.173  -7.996  1.00  0.00     0.345 HD
ENDBRANCH   2   3
BRANCH   2   7
ATOM      7  C   UNL     1     -12.546 -33.515  -9.474  1.00  0.00     0.100 C 
ATOM      8  O   UNL     1     -11.859 -33.420 -10.525  1.00  0.00    -0.544 OA
ATOM      9  O   UNL     1     -13.330 -34.644  -9.267  1.00  0.00    -0.544 OA
ENDBRANCH   2   7
ENDBRANCH   1   2
BRANCH   1  10
ATOM     10  C   UNL     1     -13.011 -33.338  -6.167  1.00  0.00     0.223 C 
ATOM     11  O   UNL     1     -12.491 -32.660  -5.240  1.00  0.00    -0.275 OA
ATOM     12  N   UNL     1     -13.076 -34.760  -6.050  1.00  0.00    -0.369 N 
ATOM     13  H   UNL     1     -13.520 -35.336  -6.799  1.00  0.00     0.159 HD
ATOM     14  H   UNL     1     -12.684 -35.238  -5.210  1.00  0.00     0.159 HD
ENDBRANCH   1  10
TORSDOF 4
ENDMDL
MODEL 3
REMARK VINA RESULT:    -4.082      1.915      2.333
REMARK INTER + INTRA:          -5.389
REMARK INTER:                  -4.907
REMARK INTRA:                  -0.483
REMARK UNBOUND:                -0.472
REMARK SMILES NC(=O)C[C@@H]([NH3+])C(=O)[O-]
REMARK SMILES IDX 4 1 5 2 6 3 7 7 8 8 9 9 2 10 3 11 1 12
REMARK H PARENT 6 4 6 5 6 6 1 13 1 14
REMARK Flexibility Score: inf
ROOT
ATOM      1  C   UNL     1     -12.750 -33.011  -7.656  1.00  0.00     0.171 C 
ENDROOT
BRANCH   1   2
ATOM      2  C   UNL     1     -13.208 -34.466  -7.880  1.00  0.00     0.237 C 
BRANCH   2   3
ATOM      3  N   UNL     1     -13.596 -35.084  -6.607  1.00  0.00    -0.350 N 
ATOM      4  H   UNL     1     -13.580 -34.366  -5.845  1.00  0.00     0.345 HD
ATOM      5  H   UNL     1     -14.569 -35.461  -6.679  1.00  0.00     0.345 HD
ATOM      6  H   UNL     1     -12.945 -35.863  -6.359  1.00  0.00     0.345 HD
ENDBRANCH   2   3
BRANCH   2   7
ATOM      7  C   UNL     1     -14.358 -34.524  -8.853  1.00  0.00     0.100 C 
ATOM      8  O   UNL     1     -14.714 -35.626  -9.347  1.00  0.00    -0.544 OA
ATOM      9  O   UNL     1     -15.024 -33.361  -9.222  1.00  0.00    -0.544 OA
ENDBRANCH   2   7
ENDBRANCH   1   2
BRANCH   1  10
ATOM     10  C   UNL     1     -13.330 -32.436  -6.396  1.00  0.00     0.223 C 
ATOM     11  O   UNL     1     -12.677 -32.501  -5.320  1.00  0.00    -0.275 OA
ATOM     12  N   UNL     1     -14.599 -31.781  -6.414  1.00  0.00    -0.369 N 
ATOM     13  H   UNL     1     -15.145 -31.702  -7.300  1.00  0.00     0.159 HD
ATOM     14  H   UNL     1     -14.993 -31.370  -5.539  1.00  0.00     0.159 HD
ENDBRANCH   1  10
TORSDOF 4
ENDMDL
MODEL 4
REMARK VINA RESULT:    -3.874      1.843      3.559
REMARK INTER + INTRA:          -5.139
REMARK INTER:                  -4.928
REMARK INTRA:                  -0.211
REMARK UNBOUND:                -0.472
REMARK SMILES NC(=O)C[C@@H]([NH3+])C(=O)[O-]
REMARK SMILES IDX 4 1 5 2 6 3 7 7 8 8 9 9 2 10 3 11 1 12
REMARK H PARENT 6 4 6 5 6 6 1 13 1 14
REMARK Flexibility Score: inf
ROOT
ATOM      1  C   UNL     1     -12.612 -32.822  -8.896  1.00  0.00     0.171 C 
ENDROOT
BRANCH   1   2
ATOM      2  C   UNL     1     -11.902 -33.032  -7.544  1.00  0.00     0.237 C 
BRANCH   2   3
ATOM      3  N   UNL     1     -11.511 -31.742  -6.964  1.00  0.00    -0.350 N 
ATOM      4  H   UNL     1     -12.364 -31.170  -6.763  1.00  0.00     0.345 HD
ATOM      5  H   UNL     1     -11.005 -31.900  -6.062  1.00  0.00     0.345 HD
ATOM      6  H   UNL     1     -10.889 -31.216  -7.618  1.00  0.00     0.345 HD
ENDBRANCH   2   3
BRANCH   2   7
ATOM      7  C   UNL     1     -12.788 -33.783  -6.582  1.00  0.00     0.100 C 
ATOM      8  O   UNL     1     -13.060 -34.996  -6.787  1.00  0.00    -0.544 OA
ATOM      9  O   UNL     1     -13.322 -33.140  -5.471  1.00  0.00    -0.544 OA
ENDBRANCH   2   7
ENDBRANCH   1   2
BRANCH   1  10
ATOM     10  C   UNL     1     -14.042 -32.400  -8.711  1.00  0.00     0.223 C 
ATOM     11  O   UNL     1     -14.306 -31.352  -8.063  1.00  0.00    -0.275 OA
ATOM     12  N   UNL     1     -15.103 -33.156  -9.296  1.00  0.00    -0.369 N 
ATOM     13  H   UNL     1     -14.902 -34.015  -9.852  1.00  0.00     0.159 HD
ATOM     14  H   UNL     1     -16.094 -32.851  -9.177  1.00  0.00     0.159 HD
ENDBRANCH   1  10
TORSDOF 4
ENDMDL
MODEL 5
REMARK VINA RESULT:    -3.852      2.282      2.540
REMARK INTER + INTRA:          -5.112
REMARK INTER:                  -4.718
REMARK INTRA:                  -0.394
REMARK UNBOUND:                -0.472
REMARK SMILES NC(=O)C[C@@H]([NH3+])C(=O)[O-]
REMARK SMILES IDX 4 1 5 2 6 3 7 7 8 8 9 9 2 10 3 11 1 12
REMARK H PARENT 6 4 6 5 6 6 1 13 1 14
REMARK Flexibility Score: inf
ROOT
ATOM      1  C   UNL     1     -13.906 -32.095  -7.315  1.00  0.00     0.171 C 
ENDROOT
BRANCH   1   2
ATOM      2  C   UNL     1     -14.419 -32.988  -8.464  1.00  0.00     0.237 C 
BRANCH   2   3
ATOM      3  N   UNL     1     -13.897 -32.517  -9.752  1.00  0.00    -0.350 N 
ATOM      4  H   UNL     1     -14.466 -31.706 -10.090  1.00  0.00     0.345 HD
ATOM      5  H   UNL     1     -12.909 -32.195  -9.636  1.00  0.00     0.345 HD
ATOM      6  H   UNL     1     -13.927 -33.280 -10.465  1.00  0.00     0.345 HD
ENDBRANCH   2   3
BRANCH   2   7
ATOM      7  C   UNL     1     -14.026 -34.427  -8.243  1.00  0.00     0.100 C 
ATOM      8  O   UNL     1     -13.510 -35.093  -9.179  1.00  0.00    -0.544 OA
ATOM      9  O   UNL     1     -14.244 -35.032  -7.010  1.00  0.00    -0.544 OA
ENDBRANCH   2   7
ENDBRANCH   1   2
BRANCH   1  10
ATOM     10  C   UNL     1     -12.449 -32.329  -7.042  1.00  0.00     0.223 C 
ATOM     11  O   UNL     1     -11.585 -31.920  -7.863  1.00  0.00    -0.275 OA
ATOM     12  N   UNL     1     -12.031 -32.976  -5.839  1.00  0.00    -0.369 N 
ATOM     13  H   UNL     1     -12.731 -33.305  -5.139  1.00  0.00     0.159 HD
ATOM     14  H   UNL     1     -11.015 -33.124  -5.646  1.00  0.00     0.159 HD
ENDBRANCH   1  10
TORSDOF 4
ENDMDL
MODEL 6
REMARK VINA RESULT:    -3.816      2.268      4.024
REMARK INTER + INTRA:          -5.068
REMARK INTER:                  -4.789
REMARK INTRA:                  -0.280
REMARK UNBOUND:                -0.472
REMARK SMILES NC(=O)C[C@@H]([NH3+])C(=O)[O-]
REMARK SMILES IDX 4 1 5 2 6 3 7 7 8 8 9 9 2 10 3 11 1 12
REMARK H PARENT 6 4 6 5 6 6 1 13 1 14
REMARK Flexibility Score: inf
ROOT
ATOM      1  C   UNL     1     -12.867 -32.753  -8.799  1.00  0.00     0.171 C 
ENDROOT
BRANCH   1   2
ATOM      2  C   UNL     1     -11.881 -33.023  -7.644  1.00  0.00     0.237 C 
BRANCH   2   3
ATOM      3  N   UNL     1     -11.162 -31.795  -7.286  1.00  0.00    -0.350 N 
ATOM      4  H   UNL     1     -10.800 -31.869  -6.307  1.00  0.00     0.345 HD
ATOM      5  H   UNL     1     -10.345 -31.665  -7.927  1.00  0.00     0.345 HD
ATOM      6  H   UNL     1     -11.790 -30.963  -7.360  1.00  0.00     0.345 HD
ENDBRANCH   2   3
BRANCH   2   7
ATOM      7  C   UNL     1     -12.601 -33.570  -6.438  1.00  0.00     0.100 C 
ATOM      8  O   UNL     1     -12.819 -32.831  -5.442  1.00  0.00    -0.544 OA
ATOM      9  O   UNL     1     -13.019 -34.896  -6.411  1.00  0.00    -0.544 OA
ENDBRANCH   2   7
ENDBRANCH   1   2
BRANCH   1  10
ATOM     10  C   UNL     1     -12.921 -33.904  -9.761  1.00  0.00     0.223 C 
ATOM     11  O   UNL     1     -12.222 -33.876 -10.809  1.00  0.00    -0.275 OA
ATOM     12  N   UNL     1     -13.727 -35.049  -9.480  1.00  0.00    -0.369 N 
ATOM     13  H   UNL     1     -14.298 -35.097  -8.607  1.00  0.00     0.159 HD
ATOM     14  H   UNL     1     -13.750 -35.853 -10.145  1.00  0.00     0.159 HD
ENDBRANCH   1  10
TORSDOF 4
ENDMDL
MODEL 7
REMARK VINA RESULT:    -3.799      1.549      2.210
REMARK INTER + INTRA:          -5.048
REMARK INTER:                  -4.542
REMARK INTRA:                  -0.505
REMARK UNBOUND:                -0.472
REMARK SMILES NC(=O)C[C@@H]([NH3+])C(=O)[O-]
REMARK SMILES IDX 4 1 5 2 6 3 7 7 8 8 9 9 2 10 3 11 1 12
REMARK H PARENT 6 4 6 5 6 6 1 13 1 14
REMARK Flexibility Score: inf
ROOT
ATOM      1  C   UNL     1     -12.410 -32.261  -7.760  1.00  0.00     0.171 C 
ENDROOT
BRANCH   1   2
ATOM      2  C   UNL     1     -12.775 -33.313  -8.827  1.00  0.00     0.237 C 
BRANCH   2   3
ATOM      3  N   UNL     1     -13.256 -34.544  -8.189  1.00  0.00    -0.350 N 
ATOM      4  H   UNL     1     -12.550 -34.883  -7.495  1.00  0.00     0.345 HD
ATOM      5  H   UNL     1     -14.148 -34.351  -7.679  1.00  0.00     0.345 HD
ATOM      6  H   UNL     1     -13.424 -35.289  -8.903  1.00  0.00     0.345 HD
ENDBRANCH   2   3
BRANCH   2   7
ATOM      7  C   UNL     1     -13.820 -32.779  -9.773  1.00  0.00     0.100 C 
ATOM      8  O   UNL     1     -13.558 -32.649 -10.998  1.00  0.00    -0.544 OA
ATOM      9  O   UNL     1     -15.075 -32.414  -9.299  1.00  0.00    -0.544 OA
ENDBRANCH   2   7
ENDBRANCH   1   2
BRANCH   1  10
ATOM     10  C   UNL     1     -13.157 -32.490  -6.478  1.00  0.00     0.223 C 
ATOM     11  O   UNL     1     -12.616 -33.145  -5.548  1.00  0.00    -0.275 OA
ATOM     12  N   UNL     1     -14.461 -31.939  -6.289  1.00  0.00    -0.369 N 
ATOM     13  H   UNL     1     -14.917 -31.378  -7.042  1.00  0.00     0.159 HD
ATOM     14  H   UNL     1     -14.971 -32.089  -5.391  1.00  0.00     0.159 HD
ENDBRANCH   1  10
TORSDOF 4
ENDMDL
MODEL 8
REMARK VINA RESULT:    -3.795      2.420      3.854
REMARK INTER + INTRA:          -5.044
REMARK INTER:                  -4.763
REMARK INTRA:                  -0.281
REMARK UNBOUND:                -0.472
REMARK SMILES NC(=O)C[C@@H]([NH3+])C(=O)[O-]
REMARK SMILES IDX 4 1 5 2 6 3 7 7 8 8 9 9 2 10 3 11 1 12
REMARK H PARENT 6 4 6 5 6 6 1 13 1 14
REMARK Flexibility Score: inf
ROOT
ATOM      1  C   UNL     1     -13.468 -34.316  -8.423  1.00  0.00     0.171 C 
ENDROOT
BRANCH   1   2
ATOM      2  C   UNL     1     -13.940 -34.208  -6.959  1.00  0.00     0.237 C 
BRANCH   2   3
ATOM      3  N   UNL     1     -13.070 -34.996  -6.080  1.00  0.00    -0.350 N 
ATOM      4  H   UNL     1     -13.347 -34.849  -5.081  1.00  0.00     0.345 HD
ATOM      5  H   UNL     1     -13.174 -36.013  -6.300  1.00  0.00     0.345 HD
ATOM      6  H   UNL     1     -12.069 -34.720  -6.204  1.00  0.00     0.345 HD
ENDBRANCH   2   3
BRANCH   2   7
ATOM      7  C   UNL     1     -13.965 -32.770  -6.507  1.00  0.00     0.100 C 
ATOM      8  O   UNL     1     -13.055 -32.326  -5.757  1.00  0.00    -0.544 OA
ATOM      9  O   UNL     1     -14.997 -31.927  -6.903  1.00  0.00    -0.544 OA
ENDBRANCH   2   7
ENDBRANCH   1   2
BRANCH   1  10
ATOM     10  C   UNL     1     -14.627 -34.396  -9.374  1.00  0.00     0.223 C 
ATOM     11  O   UNL     1     -15.033 -35.521  -9.772  1.00  0.00    -0.275 OA
ATOM     12  N   UNL     1     -15.300 -33.211  -9.801  1.00  0.00    -0.369 N 
ATOM     13  H   UNL     1     -14.989 -32.272  -9.467  1.00  0.00     0.159 HD
ATOM     14  H   UNL     1     -16.115 -33.272 -10.450  1.00  0.00     0.159 HD
ENDBRANCH   1  10
TORSDOF 4
ENDMDL
MODEL 9
REMARK VINA RESULT:    -3.691      1.952      2.037
REMARK INTER + INTRA:          -4.919
REMARK INTER:                  -4.442
REMARK INTRA:                  -0.477
REMARK UNBOUND:                -0.472
REMARK SMILES NC(=O)C[C@@H]([NH3+])C(=O)[O-]
REMARK SMILES IDX 4 1 5 2 6 3 7 7 8 8 9 9 2 10 3 11 1 12
REMARK H PARENT 6 4 6 5 6 6 1 13 1 14
REMARK Flexibility Score: inf
ROOT
ATOM      1  C   UNL     1     -13.609 -34.473  -7.288  1.00  0.00     0.171 C 
ENDROOT
BRANCH   1   2
ATOM      2  C   UNL     1     -14.156 -34.059  -8.669  1.00  0.00     0.237 C 
BRANCH   2   3
ATOM      3  N   UNL     1     -14.808 -32.747  -8.590  1.00  0.00    -0.350 N 
ATOM      4  H   UNL     1     -14.233 -32.100  -8.001  1.00  0.00     0.345 HD
ATOM      5  H   UNL     1     -14.887 -32.333  -9.547  1.00  0.00     0.345 HD
ATOM      6  H   UNL     1     -15.763 -32.833  -8.174  1.00  0.00     0.345 HD
ENDBRANCH   2   3
BRANCH   2   7
ATOM      7  C   UNL     1     -13.053 -34.026  -9.697  1.00  0.00     0.100 C 
ATOM      8  O   UNL     1     -13.100 -34.785 -10.700  1.00  0.00    -0.544 OA
ATOM      9  O   UNL     1     -11.972 -33.167  -9.538  1.00  0.00    -0.544 OA
ENDBRANCH   2   7
ENDBRANCH   1   2
BRANCH   1  10
ATOM     10  C   UNL     1     -13.243 -33.278  -6.457  1.00  0.00     0.223 C 
ATOM     11  O   UNL     1     -14.130 -32.691  -5.781  1.00  0.00    -0.275 OA
ATOM     12  N   UNL     1     -11.891 -32.823  -6.393  1.00  0.00    -0.369 N 
ATOM     13  H   UNL     1     -11.139 -33.309  -6.931  1.00  0.00     0.159 HD
ATOM     14  H   UNL     1     -11.638 -32.001  -5.802  1.00  0.00     0.159 HD
ENDBRANCH   1  10
TORSDOF 4
ENDMDL
