MODEL 1
REMARK VINA RESULT:    -4.161      0.000      0.000
REMARK INTER + INTRA:          -5.091
REMARK INTER:                  -5.012
REMARK INTRA:                  -0.078
REMARK UNBOUND:                -0.078
REMARK SMILES CC[C@@H](C)[C@@H]([NH3+])C(=O)[O-]
REMARK SMILES IDX 3 1 4 2 5 3 6 4 7 8 8 9 9 10 2 11 1 12
REMARK H PARENT 6 5 6 6 6 7
REMARK Flexibility Score: inf
ROOT
ATOM      1  C   UNL     1      10.995  14.638  21.876  1.00  0.00     0.050 C 
ATOM      2  C   UNL     1      10.486  13.299  22.437  1.00  0.00     0.014 C 
ENDROOT
BRANCH   1   3
ATOM      3  C   UNL     1      10.135  15.130  20.669  1.00  0.00     0.230 C 
BRANCH   3   4
ATOM      4  N   UNL     1       9.826  16.566  20.720  1.00  0.00    -0.350 N 
ATOM      5  H   UNL     1       8.858  16.723  20.359  1.00  0.00     0.345 HD
ATOM      6  H   UNL     1      10.490  17.118  20.131  1.00  0.00     0.345 HD
ATOM      7  H   UNL     1       9.856  16.911  21.706  1.00  0.00     0.345 HD
ENDBRANCH   3   4
BRANCH   3   8
ATOM      8  C   UNL     1      10.785  14.763  19.356  1.00  0.00     0.099 C 
ATOM      9  O   UNL     1      11.308  15.645  18.622  1.00  0.00    -0.544 OA
ATOM     10  O   UNL     1      10.853  13.430  18.972  1.00  0.00    -0.544 OA
ENDBRANCH   3   8
ENDBRANCH   1   3
BRANCH   1  11
ATOM     11  C   UNL     1      11.248  15.706  22.980  1.00  0.00     0.006 C 
ATOM     12  C   UNL     1      10.563  15.443  24.327  1.00  0.00     0.004 C 
ENDBRANCH   1  11
TORSDOF 4
ENDMDL
MODEL 2
REMARK VINA RESULT:    -4.116      1.654      2.127
REMARK INTER + INTRA:          -5.037
REMARK INTER:                  -4.966
REMARK INTRA:                  -0.070
REMARK UNBOUND:                -0.078
REMARK SMILES CC[C@@H](C)[C@@H]([NH3+])C(=O)[O-]
REMARK SMILES IDX 3 1 4 2 5 3 6 4 7 8 8 9 9 10 2 11 1 12
REMARK H PARENT 6 5 6 6 6 7
REMARK Flexibility Score: inf
ROOT
ATOM      1  C   UNL     1      10.434  15.581  22.280  1.00  0.00     0.050 C 
ATOM      2  C   UNL     1      11.040  16.994  22.204  1.00  0.00     0.014 C 
ENDROOT
BRANCH   1   3
ATOM      3  C   UNL     1      10.887  14.687  21.083  1.00  0.00     0.230 C 
BRANCH   3   4
ATOM      4  N   UNL     1      10.651  13.253  21.303  1.00  0.00    -0.350 N 
ATOM      5  H   UNL     1      11.442  12.854  21.858  1.00  0.00     0.345 HD
ATOM      6  H   UNL     1      10.590  12.735  20.398  1.00  0.00     0.345 HD
ATOM      7  H   UNL     1       9.773  13.108  21.854  1.00  0.00     0.345 HD
ENDBRANCH   3   4
BRANCH   3   8
ATOM      8  C   UNL     1      10.251  15.147  19.793  1.00  0.00     0.099 C 
ATOM      9  O   UNL     1       9.046  15.514  19.758  1.00  0.00    -0.544 OA
ATOM     10  O   UNL     1      11.017  15.213  18.635  1.00  0.00    -0.544 OA
ENDBRANCH   3   8
ENDBRANCH   1   3
BRANCH   1  11
ATOM     11  C   UNL     1      10.589  14.925  23.684  1.00  0.00     0.006 C 
ATOM     12  C   UNL     1      10.666  15.899  24.867  1.00  0.00     0.004 C 
ENDBRANCH   1  11
TORSDOF 4
ENDMDL
MODEL 3
REMARK VINA RESULT:    -3.996      1.300      1.708
REMARK INTER + INTRA:          -4.892
REMARK INTER:                  -4.786
REMARK INTRA:                  -0.106
REMARK UNBOUND:                -0.078
REMARK SMILES CC[C@@H](C)[C@@H]([NH3+])C(=O)[O-]
REMARK SMILES IDX 3 1 4 2 5 3 6 4 7 8 8 9 9 10 2 11 1 12
REMARK H PARENT 6 5 6 6 6 7
REMARK Flexibility Score: inf
ROOT
ATOM      1  C   UNL     1       9.646  14.571  22.329  1.00  0.00     0.050 C 
ATOM      2  C   UNL     1       8.352  15.039  23.017  1.00  0.00     0.014 C 
ENDROOT
BRANCH   1   3
ATOM      3  C   UNL     1       9.716  15.035  20.840  1.00  0.00     0.230 C 
BRANCH   3   4
ATOM      4  N   UNL     1      10.452  16.293  20.655  1.00  0.00    -0.350 N 
ATOM      5  H   UNL     1      10.554  16.486  19.632  1.00  0.00     0.345 HD
ATOM      6  H   UNL     1      11.408  16.240  21.076  1.00  0.00     0.345 HD
ATOM      7  H   UNL     1       9.923  17.090  21.076  1.00  0.00     0.345 HD
ENDBRANCH   3   4
BRANCH   3   8
ATOM      8  C   UNL     1      10.280  13.944  19.960  1.00  0.00     0.099 C 
ATOM      9  O   UNL     1      10.122  12.728  20.251  1.00  0.00    -0.544 OA
ATOM     10  O   UNL     1      10.941  14.283  18.786  1.00  0.00    -0.544 OA
ENDBRANCH   3   8
ENDBRANCH   1   3
BRANCH   1  11
ATOM     11  C   UNL     1      10.924  14.864  23.168  1.00  0.00     0.006 C 
ATOM     12  C   UNL     1      10.729  15.792  24.374  1.00  0.00     0.004 C 
ENDBRANCH   1  11
TORSDOF 4
ENDMDL
MODEL 4
REMARK VINA RESULT:    -3.933      1.999      2.263
REMARK INTER + INTRA:          -4.816
REMARK INTER:                  -4.774
REMARK INTRA:                  -0.042
REMARK UNBOUND:                -0.078
REMARK SMILES CC[C@@H](C)[C@@H]([NH3+])C(=O)[O-]
REMARK SMILES IDX 3 1 4 2 5 3 6 4 7 8 8 9 9 10 2 11 1 12
REMARK H PARENT 6 5 6 6 6 7
REMARK Flexibility Score: inf
ROOT
ATOM      1  C   UNL     1      10.474  15.547  22.175  1.00  0.00     0.050 C 
ATOM      2  C   UNL     1       9.109  15.499  22.884  1.00  0.00     0.014 C 
ENDROOT
BRANCH   1   3
ATOM      3  C   UNL     1      10.568  14.505  21.017  1.00  0.00     0.230 C 
BRANCH   3   4
ATOM      4  N   UNL     1       9.820  13.267  21.283  1.00  0.00    -0.350 N 
ATOM      5  H   UNL     1       9.996  12.585  20.510  1.00  0.00     0.345 HD
ATOM      6  H   UNL     1       8.792  13.448  21.334  1.00  0.00     0.345 HD
ATOM      7  H   UNL     1      10.148  12.828  22.173  1.00  0.00     0.345 HD
ENDBRANCH   3   4
BRANCH   3   8
ATOM      8  C   UNL     1      10.146  15.117  19.702  1.00  0.00     0.099 C 
ATOM      9  O   UNL     1       8.975  15.552  19.534  1.00  0.00    -0.544 OA
ATOM     10  O   UNL     1      11.075  15.249  18.677  1.00  0.00    -0.544 OA
ENDBRANCH   3   8
ENDBRANCH   1   3
BRANCH   1  11
ATOM     11  C   UNL     1      10.913  16.991  21.794  1.00  0.00     0.006 C 
ATOM     12  C   UNL     1       9.887  18.095  22.081  1.00  0.00     0.004 C 
ENDBRANCH   1  11
TORSDOF 4
ENDMDL
MODEL 5
REMARK VINA RESULT:    -3.790      2.439      3.740
REMARK INTER + INTRA:          -4.644
REMARK INTER:                  -4.521
REMARK INTRA:                  -0.124
REMARK UNBOUND:                -0.078
REMARK SMILES CC[C@@H](C)[C@@H]([NH3+])C(=O)[O-]
REMARK SMILES IDX 3 1 4 2 5 3 6 4 7 8 8 9 9 10 2 11 1 12
REMARK H PARENT 6 5 6 6 6 7
REMARK Flexibility Score: inf
ROOT
ATOM      1  C   UNL     1      10.522  14.861  22.084  1.00  0.00     0.050 C 
ATOM      2  C   UNL     1      11.132  16.041  22.859  1.00  0.00     0.014 C 
ENDROOT
BRANCH   1   3
ATOM      3  C   UNL     1       9.513  14.049  22.955  1.00  0.00     0.230 C 
BRANCH   3   4
ATOM      4  N   UNL     1       8.116  14.466  22.773  1.00  0.00    -0.350 N 
ATOM      5  H   UNL     1       7.810  15.021  23.605  1.00  0.00     0.345 HD
ATOM      6  H   UNL     1       7.482  13.641  22.678  1.00  0.00     0.345 HD
ATOM      7  H   UNL     1       8.026  15.081  21.933  1.00  0.00     0.345 HD
ENDBRANCH   3   4
BRANCH   3   8
ATOM      8  C   UNL     1       9.668  12.564  22.721  1.00  0.00     0.099 C 
ATOM      9  O   UNL     1      10.693  12.100  22.153  1.00  0.00    -0.544 OA
ATOM     10  O   UNL     1       8.689  11.691  23.179  1.00  0.00    -0.544 OA
ENDBRANCH   3   8
ENDBRANCH   1   3
BRANCH   1  11
ATOM     11  C   UNL     1       9.995  15.262  20.675  1.00  0.00     0.006 C 
ATOM     12  C   UNL     1      10.880  14.847  19.492  1.00  0.00     0.004 C 
ENDBRANCH   1  11
TORSDOF 4
ENDMDL
MODEL 6
REMARK VINA RESULT:    -3.755      1.918      2.709
REMARK INTER + INTRA:          -4.602
REMARK INTER:                  -4.454
REMARK INTRA:                  -0.148
REMARK UNBOUND:                -0.078
REMARK SMILES CC[C@@H](C)[C@@H]([NH3+])C(=O)[O-]
REMARK SMILES IDX 3 1 4 2 5 3 6 4 7 8 8 9 9 10 2 11 1 12
REMARK H PARENT 6 5 6 6 6 7
REMARK Flexibility Score: inf
ROOT
ATOM      1  C   UNL     1       9.493  13.975  22.585  1.00  0.00     0.050 C 
ATOM      2  C   UNL     1       8.605  15.164  22.992  1.00  0.00     0.014 C 
ENDROOT
BRANCH   1   3
ATOM      3  C   UNL     1      10.630  14.405  21.604  1.00  0.00     0.230 C 
BRANCH   3   4
ATOM      4  N   UNL     1      11.978  14.248  22.168  1.00  0.00    -0.350 N 
ATOM      5  H   UNL     1      12.229  13.233  22.185  1.00  0.00     0.345 HD
ATOM      6  H   UNL     1      12.025  14.614  23.147  1.00  0.00     0.345 HD
ATOM      7  H   UNL     1      12.682  14.739  21.572  1.00  0.00     0.345 HD
ENDBRANCH   3   4
BRANCH   3   8
ATOM      8  C   UNL     1      10.509  13.680  20.285  1.00  0.00     0.099 C 
ATOM      9  O   UNL     1      10.072  12.499  20.231  1.00  0.00    -0.544 OA
ATOM     10  O   UNL     1      10.838  14.339  19.106  1.00  0.00    -0.544 OA
ENDBRANCH   3   8
ENDBRANCH   1   3
BRANCH   1  11
ATOM     11  C   UNL     1       9.963  13.120  23.798  1.00  0.00     0.006 C 
ATOM     12  C   UNL     1       9.547  11.643  23.770  1.00  0.00     0.004 C 
ENDBRANCH   1  11
TORSDOF 4
ENDMDL
MODEL 7
REMARK VINA RESULT:    -3.613      3.077      3.725
REMARK INTER + INTRA:          -4.431
REMARK INTER:                  -4.346
REMARK INTRA:                  -0.085
REMARK UNBOUND:                -0.078
REMARK SMILES CC[C@@H](C)[C@@H]([NH3+])C(=O)[O-]
REMARK SMILES IDX 3 1 4 2 5 3 6 4 7 8 8 9 9 10 2 11 1 12
REMARK H PARENT 6 5 6 6 6 7
REMARK Flexibility Score: inf
ROOT
ATOM      1  C   UNL     1       9.731  14.902  21.712  1.00  0.00     0.050 C 
ATOM      2  C   UNL     1       9.681  15.117  20.189  1.00  0.00     0.014 C 
ENDROOT
BRANCH   1   3
ATOM      3  C   UNL     1      10.504  13.599  22.092  1.00  0.00     0.230 C 
BRANCH   3   4
ATOM      4  N   UNL     1      11.921  13.830  22.402  1.00  0.00    -0.350 N 
ATOM      5  H   UNL     1      12.368  14.349  21.612  1.00  0.00     0.345 HD
ATOM      6  H   UNL     1      12.433  12.928  22.534  1.00  0.00     0.345 HD
ATOM      7  H   UNL     1      12.015  14.420  23.261  1.00  0.00     0.345 HD
ENDBRANCH   3   4
BRANCH   3   8
ATOM      8  C   UNL     1       9.815  12.872  23.223  1.00  0.00     0.099 C 
ATOM      9  O   UNL     1       9.967  13.240  24.419  1.00  0.00    -0.544 OA
ATOM     10  O   UNL     1       8.962  11.812  22.940  1.00  0.00    -0.544 OA
ENDBRANCH   3   8
ENDBRANCH   1   3
BRANCH   1  11
ATOM     11  C   UNL     1      10.168  16.175  22.495  1.00  0.00     0.006 C 
ATOM     12  C   UNL     1      10.748  17.311  21.643  1.00  0.00     0.004 C 
ENDBRANCH   1  11
TORSDOF 4
ENDMDL
MODEL 8
REMARK VINA RESULT:    -3.473      3.311      4.389
REMARK INTER + INTRA:          -4.262
REMARK INTER:                  -4.244
REMARK INTRA:                  -0.018
REMARK UNBOUND:                -0.078
REMARK SMILES CC[C@@H](C)[C@@H]([NH3+])C(=O)[O-]
REMARK SMILES IDX 3 1 4 2 5 3 6 4 7 8 8 9 9 10 2 11 1 12
REMARK H PARENT 6 5 6 6 6 7
REMARK Flexibility Score: inf
ROOT
ATOM      1  C   UNL     1      10.910  15.741  21.678  1.00  0.00     0.050 C 
ATOM      2  C   UNL     1       9.764  16.768  21.705  1.00  0.00     0.014 C 
ENDROOT
BRANCH   1   3
ATOM      3  C   UNL     1      10.729  14.635  22.766  1.00  0.00     0.230 C 
BRANCH   3   4
ATOM      4  N   UNL     1      11.774  13.602  22.728  1.00  0.00    -0.350 N 
ATOM      5  H   UNL     1      12.442  13.759  23.517  1.00  0.00     0.345 HD
ATOM      6  H   UNL     1      12.310  13.637  21.831  1.00  0.00     0.345 HD
ATOM      7  H   UNL     1      11.353  12.654  22.853  1.00  0.00     0.345 HD
ENDBRANCH   3   4
BRANCH   3   8
ATOM      8  C   UNL     1      10.621  15.244  24.144  1.00  0.00     0.099 C 
ATOM      9  O   UNL     1       9.831  14.769  25.003  1.00  0.00    -0.544 OA
ATOM     10  O   UNL     1      11.438  16.314  24.488  1.00  0.00    -0.544 OA
ENDBRANCH   3   8
ENDBRANCH   1   3
BRANCH   1  11
ATOM     11  C   UNL     1      11.220  15.209  20.248  1.00  0.00     0.006 C 
ATOM     12  C   UNL     1      10.102  14.392  19.587  1.00  0.00     0.004 C 
ENDBRANCH   1  11
TORSDOF 4
ENDMDL
MODEL 9
REMARK VINA RESULT:    -3.413      2.975      3.968
REMARK INTER + INTRA:          -4.190
REMARK INTER:                  -4.095
REMARK INTRA:                  -0.095
REMARK UNBOUND:                -0.078
REMARK SMILES CC[C@@H](C)[C@@H]([NH3+])C(=O)[O-]
REMARK SMILES IDX 3 1 4 2 5 3 6 4 7 8 8 9 9 10 2 11 1 12
REMARK H PARENT 6 5 6 6 6 7
REMARK Flexibility Score: inf
ROOT
ATOM      1  C   UNL     1      10.064  15.156  21.852  1.00  0.00     0.050 C 
ATOM      2  C   UNL     1      10.865  13.948  22.369  1.00  0.00     0.014 C 
ENDROOT
BRANCH   1   3
ATOM      3  C   UNL     1      10.726  16.511  22.253  1.00  0.00     0.230 C 
BRANCH   3   4
ATOM      4  N   UNL     1      10.974  17.402  21.110  1.00  0.00    -0.350 N 
ATOM      5  H   UNL     1      10.082  17.542  20.582  1.00  0.00     0.345 HD
ATOM      6  H   UNL     1      11.681  16.994  20.457  1.00  0.00     0.345 HD
ATOM      7  H   UNL     1      11.296  18.339  21.441  1.00  0.00     0.345 HD
ENDBRANCH   3   4
BRANCH   3   8
ATOM      8  C   UNL     1       9.919  17.214  23.320  1.00  0.00     0.099 C 
ATOM      9  O   UNL     1      10.480  17.730  24.323  1.00  0.00    -0.544 OA
ATOM     10  O   UNL     1       8.543  17.335  23.171  1.00  0.00    -0.544 OA
ENDBRANCH   3   8
ENDBRANCH   1   3
BRANCH   1  11
ATOM     11  C   UNL     1       9.679  15.034  20.348  1.00  0.00     0.006 C 
ATOM     12  C   UNL     1      10.588  14.134  19.501  1.00  0.00     0.004 C 
ENDBRANCH   1  11
TORSDOF 4
ENDMDL
