MODEL 1
REMARK VINA RESULT:     3.233      0.000      0.000
REMARK INTER + INTRA:           4.945
REMARK INTER:                   5.500
REMARK INTRA:                  -0.555
REMARK UNBOUND:                -0.555
REMARK SMILES CCCCCCCCCCCCCC(=O)[O-]
REMARK SMILES IDX 8 1 9 2 10 3 11 4 12 5 13 6 14 7 15 8 16 9 7 10 6 11 5 12
REMARK SMILES IDX 4 13 3 14 2 15 1 16
REMARK H PARENT
REMARK Flexibility Score: inf
ROOT
ATOM      1  C   UNL     1      21.666 -20.970  25.962  1.00  0.00     0.000 C 
ENDROOT
BRANCH   1   2
ATOM      2  C   UNL     1      20.980 -19.652  26.353  1.00  0.00     0.000 C 
BRANCH   2   3
ATOM      3  C   UNL     1      19.475 -19.827  26.622  1.00  0.00     0.000 C 
BRANCH   3   4
ATOM      4  C   UNL     1      18.602 -19.049  25.624  1.00  0.00     0.000 C 
BRANCH   4   5
ATOM      5  C   UNL     1      17.296 -18.541  26.253  1.00  0.00     0.006 C 
BRANCH   5   6
ATOM      6  C   UNL     1      16.945 -19.343  27.509  1.00  0.00     0.053 C 
BRANCH   6   7
ATOM      7  C   UNL     1      16.828 -18.437  28.694  1.00  0.00     0.041 C 
ATOM      8  O   UNL     1      16.075 -17.429  28.648  1.00  0.00    -0.550 OA
ATOM      9  O   UNL     1      17.587 -18.679  29.831  1.00  0.00    -0.550 OA
ENDBRANCH   6   7
ENDBRANCH   5   6
ENDBRANCH   4   5
ENDBRANCH   3   4
ENDBRANCH   2   3
ENDBRANCH   1   2
BRANCH   1  10
ATOM     10  C   UNL     1      21.905 -21.087  24.449  1.00  0.00     0.000 C 
BRANCH  10  11
ATOM     11  C   UNL     1      23.314 -20.602  24.076  1.00  0.00    -0.000 C 
BRANCH  11  12
ATOM     12  C   UNL     1      24.160 -21.697  23.407  1.00  0.00    -0.000 C 
BRANCH  12  13
ATOM     13  C   UNL     1      25.040 -22.460  24.408  1.00  0.00    -0.000 C 
BRANCH  13  14
ATOM     14  C   UNL     1      25.069 -21.747  25.769  1.00  0.00    -0.000 C 
BRANCH  14  15
ATOM     15  C   UNL     1      25.938 -22.481  26.802  1.00  0.00    -0.003 C 
ATOM     16  C   UNL     1      27.157 -23.159  26.176  1.00  0.00     0.004 C 
ENDBRANCH  14  15
ENDBRANCH  13  14
ENDBRANCH  12  13
ENDBRANCH  11  12
ENDBRANCH  10  11
ENDBRANCH   1  10
TORSDOF 12
ENDMDL
MODEL 2
REMARK VINA RESULT:     6.013      2.290      2.736
REMARK INTER + INTRA:           9.676
REMARK INTER:                   9.658
REMARK INTRA:                   0.018
REMARK UNBOUND:                -0.555
REMARK SMILES CCCCCCCCCCCCCC(=O)[O-]
REMARK SMILES IDX 8 1 9 2 10 3 11 4 12 5 13 6 14 7 15 8 16 9 7 10 6 11 5 12
REMARK SMILES IDX 4 13 3 14 2 15 1 16
REMARK H PARENT
REMARK Flexibility Score: inf
ROOT
ATOM      1  C   UNL     1      21.537 -20.285  26.133  1.00  0.00     0.000 C 
ENDROOT
BRANCH   1   2
ATOM      2  C   UNL     1      20.000 -20.278  26.140  1.00  0.00     0.000 C 
BRANCH   2   3
ATOM      3  C   UNL     1      19.418 -19.222  27.097  1.00  0.00     0.000 C 
BRANCH   3   4
ATOM      4  C   UNL     1      17.944 -19.486  27.443  1.00  0.00     0.000 C 
BRANCH   4   5
ATOM      5  C   UNL     1      16.994 -19.130  26.290  1.00  0.00     0.006 C 
BRANCH   5   6
ATOM      6  C   UNL     1      17.760 -18.501  25.123  1.00  0.00     0.053 C 
BRANCH   6   7
ATOM      7  C   UNL     1      17.495 -19.252  23.857  1.00  0.00     0.041 C 
ATOM      8  O   UNL     1      16.355 -19.737  23.635  1.00  0.00    -0.550 OA
ATOM      9  O   UNL     1      18.521 -19.459  22.943  1.00  0.00    -0.550 OA
ENDBRANCH   6   7
ENDBRANCH   5   6
ENDBRANCH   4   5
ENDBRANCH   3   4
ENDBRANCH   2   3
ENDBRANCH   1   2
BRANCH   1  10
ATOM     10  C   UNL     1      22.120 -21.345  25.187  1.00  0.00     0.000 C 
BRANCH  10  11
ATOM     11  C   UNL     1      22.660 -20.698  23.903  1.00  0.00    -0.000 C 
BRANCH  11  12
ATOM     12  C   UNL     1      24.013 -21.281  23.468  1.00  0.00    -0.000 C 
BRANCH  12  13
ATOM     13  C   UNL     1      24.573 -22.296  24.476  1.00  0.00    -0.000 C 
BRANCH  13  14
ATOM     14  C   UNL     1      25.389 -21.590  25.570  1.00  0.00    -0.000 C 
BRANCH  14  15
ATOM     15  C   UNL     1      25.838 -22.549  26.684  1.00  0.00    -0.003 C 
ATOM     16  C   UNL     1      27.150 -23.262  26.357  1.00  0.00     0.004 C 
ENDBRANCH  14  15
ENDBRANCH  13  14
ENDBRANCH  12  13
ENDBRANCH  11  12
ENDBRANCH  10  11
ENDBRANCH   1  10
TORSDOF 12
ENDMDL
MODEL 3
REMARK VINA RESULT:     6.157     12.969     15.325
REMARK INTER + INTRA:           9.921
REMARK INTER:                  10.349
REMARK INTRA:                  -0.427
REMARK UNBOUND:                -0.555
REMARK SMILES CCCCCCCCCCCCCC(=O)[O-]
REMARK SMILES IDX 8 1 9 2 10 3 11 4 12 5 13 6 14 7 15 8 16 9 7 10 6 11 5 12
REMARK SMILES IDX 4 13 3 14 2 15 1 16
REMARK H PARENT
REMARK Flexibility Score: inf
ROOT
ATOM      1  C   UNL     1      25.471 -21.057  14.567  1.00  0.00     0.000 C 
ENDROOT
BRANCH   1   2
ATOM      2  C   UNL     1      25.198 -22.569  14.613  1.00  0.00     0.000 C 
BRANCH   2   3
ATOM      3  C   UNL     1      26.414 -23.374  15.103  1.00  0.00     0.000 C 
BRANCH   3   4
ATOM      4  C   UNL     1      27.035 -24.240  13.995  1.00  0.00     0.000 C 
BRANCH   4   5
ATOM      5  C   UNL     1      28.360 -24.888  14.424  1.00  0.00     0.006 C 
BRANCH   5   6
ATOM      6  C   UNL     1      29.270 -25.125  13.216  1.00  0.00     0.053 C 
BRANCH   6   7
ATOM      7  C   UNL     1      30.692 -24.815  13.563  1.00  0.00     0.041 C 
ATOM      8  O   UNL     1      31.053 -24.759  14.768  1.00  0.00    -0.550 OA
ATOM      9  O   UNL     1      31.609 -24.540  12.557  1.00  0.00    -0.550 OA
ENDBRANCH   6   7
ENDBRANCH   5   6
ENDBRANCH   4   5
ENDBRANCH   3   4
ENDBRANCH   2   3
ENDBRANCH   1   2
BRANCH   1  10
ATOM     10  C   UNL     1      24.987 -20.329  15.830  1.00  0.00     0.000 C 
BRANCH  10  11
ATOM     11  C   UNL     1      25.122 -18.808  15.671  1.00  0.00    -0.000 C 
BRANCH  11  12
ATOM     12  C   UNL     1      26.464 -18.393  15.047  1.00  0.00    -0.000 C 
BRANCH  12  13
ATOM     13  C   UNL     1      26.936 -17.010  15.522  1.00  0.00    -0.000 C 
BRANCH  13  14
ATOM     14  C   UNL     1      27.875 -16.367  14.490  1.00  0.00    -0.000 C 
BRANCH  14  15
ATOM     15  C   UNL     1      29.008 -15.561  15.145  1.00  0.00    -0.003 C 
ATOM     16  C   UNL     1      28.942 -15.579  16.672  1.00  0.00     0.004 C 
ENDBRANCH  14  15
ENDBRANCH  13  14
ENDBRANCH  12  13
ENDBRANCH  11  12
ENDBRANCH  10  11
ENDBRANCH   1  10
TORSDOF 12
ENDMDL
