MODEL 1
REMARK VINA RESULT:    -2.657      0.000      0.000
REMARK INTER + INTRA:          -3.216
REMARK INTER:                  -3.123
REMARK INTRA:                  -0.093
REMARK UNBOUND:                -0.093
REMARK SMILES CCCCC(=O)[O-]
REMARK SMILES IDX 4 1 5 2 6 3 7 4 3 5 2 6 1 7
REMARK H PARENT
REMARK Flexibility Score: inf
ROOT
ATOM      1  C   UNL     1      35.115   5.201 -33.187  1.00  0.00     0.053 C 
ENDROOT
BRANCH   1   2
ATOM      2  C   UNL     1      33.897   4.333 -33.271  1.00  0.00     0.041 C 
ATOM      3  O   UNL     1      33.998   3.134 -33.641  1.00  0.00    -0.550 OA
ATOM      4  O   UNL     1      32.656   4.840 -32.909  1.00  0.00    -0.550 OA
ENDBRANCH   1   2
BRANCH   1   5
ATOM      5  C   UNL     1      35.528   5.465 -31.733  1.00  0.00     0.006 C 
BRANCH   5   6
ATOM      6  C   UNL     1      35.769   6.956 -31.459  1.00  0.00    -0.003 C 
ATOM      7  C   UNL     1      34.460   7.738 -31.479  1.00  0.00     0.004 C 
ENDBRANCH   5   6
ENDBRANCH   1   5
TORSDOF 3
ENDMDL
MODEL 2
REMARK VINA RESULT:    -2.641      1.355      1.744
REMARK INTER + INTRA:          -3.197
REMARK INTER:                  -3.144
REMARK INTRA:                  -0.053
REMARK UNBOUND:                -0.093
REMARK SMILES CCCCC(=O)[O-]
REMARK SMILES IDX 4 1 5 2 6 3 7 4 3 5 2 6 1 7
REMARK H PARENT
REMARK Flexibility Score: inf
ROOT
ATOM      1  C   UNL     1      34.969   5.122 -31.566  1.00  0.00     0.053 C 
ENDROOT
BRANCH   1   2
ATOM      2  C   UNL     1      34.962   4.837 -33.037  1.00  0.00     0.041 C 
ATOM      3  O   UNL     1      34.151   4.003 -33.517  1.00  0.00    -0.550 OA
ATOM      4  O   UNL     1      35.830   5.519 -33.881  1.00  0.00    -0.550 OA
ENDBRANCH   1   2
BRANCH   1   5
ATOM      5  C   UNL     1      35.628   6.471 -31.249  1.00  0.00     0.006 C 
BRANCH   5   6
ATOM      6  C   UNL     1      34.664   7.649 -31.449  1.00  0.00    -0.003 C 
ATOM      7  C   UNL     1      33.482   7.562 -30.490  1.00  0.00     0.004 C 
ENDBRANCH   5   6
ENDBRANCH   1   5
TORSDOF 3
ENDMDL
MODEL 3
REMARK VINA RESULT:    -2.630     15.892     16.224
REMARK INTER + INTRA:          -3.184
REMARK INTER:                  -3.104
REMARK INTRA:                  -0.080
REMARK UNBOUND:                -0.093
REMARK SMILES CCCCC(=O)[O-]
REMARK SMILES IDX 4 1 5 2 6 3 7 4 3 5 2 6 1 7
REMARK H PARENT
REMARK Flexibility Score: inf
ROOT
ATOM      1  C   UNL     1      24.837  -7.741 -28.838  1.00  0.00     0.053 C 
ENDROOT
BRANCH   1   2
ATOM      2  C   UNL     1      24.287  -6.399 -29.212  1.00  0.00     0.041 C 
ATOM      3  O   UNL     1      23.843  -6.198 -30.373  1.00  0.00    -0.550 OA
ATOM      4  O   UNL     1      24.233  -5.381 -28.269  1.00  0.00    -0.550 OA
ENDBRANCH   1   2
BRANCH   1   5
ATOM      5  C   UNL     1      26.355  -7.813 -29.047  1.00  0.00     0.006 C 
BRANCH   5   6
ATOM      6  C   UNL     1      27.107  -8.124 -27.745  1.00  0.00    -0.003 C 
ATOM      7  C   UNL     1      26.160  -8.125 -26.550  1.00  0.00     0.004 C 
ENDBRANCH   5   6
ENDBRANCH   1   5
TORSDOF 3
ENDMDL
MODEL 4
REMARK VINA RESULT:    -2.605      2.353      3.593
REMARK INTER + INTRA:          -3.155
REMARK INTER:                  -3.086
REMARK INTRA:                  -0.068
REMARK UNBOUND:                -0.093
REMARK SMILES CCCCC(=O)[O-]
REMARK SMILES IDX 4 1 5 2 6 3 7 4 3 5 2 6 1 7
REMARK H PARENT
REMARK Flexibility Score: inf
ROOT
ATOM      1  C   UNL     1      35.751   5.869 -32.103  1.00  0.00     0.053 C 
ENDROOT
BRANCH   1   2
ATOM      2  C   UNL     1      34.860   6.711 -31.243  1.00  0.00     0.041 C 
ATOM      3  O   UNL     1      34.492   6.295 -30.113  1.00  0.00    -0.550 OA
ATOM      4  O   UNL     1      34.462   7.970 -31.675  1.00  0.00    -0.550 OA
ENDBRANCH   1   2
BRANCH   1   5
ATOM      5  C   UNL     1      35.026   5.375 -33.363  1.00  0.00     0.006 C 
BRANCH   5   6
ATOM      6  C   UNL     1      33.738   4.610 -33.030  1.00  0.00    -0.003 C 
ATOM      7  C   UNL     1      33.828   3.156 -33.482  1.00  0.00     0.004 C 
ENDBRANCH   5   6
ENDBRANCH   1   5
TORSDOF 3
ENDMDL
MODEL 5
REMARK VINA RESULT:    -2.601     15.147     15.957
REMARK INTER + INTRA:          -3.150
REMARK INTER:                  -3.058
REMARK INTRA:                  -0.093
REMARK UNBOUND:                -0.093
REMARK SMILES CCCCC(=O)[O-]
REMARK SMILES IDX 4 1 5 2 6 3 7 4 3 5 2 6 1 7
REMARK H PARENT
REMARK Flexibility Score: inf
ROOT
ATOM      1  C   UNL     1      24.716  -5.518 -28.764  1.00  0.00     0.053 C 
ENDROOT
BRANCH   1   2
ATOM      2  C   UNL     1      23.932  -5.148 -29.986  1.00  0.00     0.041 C 
ATOM      3  O   UNL     1      23.300  -4.060 -30.027  1.00  0.00    -0.550 OA
ATOM      4  O   UNL     1      23.928  -5.989 -31.091  1.00  0.00    -0.550 OA
ENDBRANCH   1   2
BRANCH   1   5
ATOM      5  C   UNL     1      24.080  -6.697 -28.015  1.00  0.00     0.006 C 
BRANCH   5   6
ATOM      6  C   UNL     1      24.792  -8.024 -28.309  1.00  0.00    -0.003 C 
ATOM      7  C   UNL     1      26.202  -7.786 -28.840  1.00  0.00     0.004 C 
ENDBRANCH   5   6
ENDBRANCH   1   5
TORSDOF 3
ENDMDL
MODEL 6
REMARK VINA RESULT:    -2.577      2.149      3.527
REMARK INTER + INTRA:          -3.121
REMARK INTER:                  -3.034
REMARK INTRA:                  -0.087
REMARK UNBOUND:                -0.093
REMARK SMILES CCCCC(=O)[O-]
REMARK SMILES IDX 4 1 5 2 6 3 7 4 3 5 2 6 1 7
REMARK H PARENT
REMARK Flexibility Score: inf
ROOT
ATOM      1  C   UNL     1      35.477   6.896 -31.314  1.00  0.00     0.053 C 
ENDROOT
BRANCH   1   2
ATOM      2  C   UNL     1      34.108   7.483 -31.159  1.00  0.00     0.041 C 
ATOM      3  O   UNL     1      33.170   6.788 -30.690  1.00  0.00    -0.550 OA
ATOM      4  O   UNL     1      33.877   8.809 -31.502  1.00  0.00    -0.550 OA
ENDBRANCH   1   2
BRANCH   1   5
ATOM      5  C   UNL     1      35.421   5.405 -31.674  1.00  0.00     0.006 C 
BRANCH   5   6
ATOM      6  C   UNL     1      35.079   5.178 -33.154  1.00  0.00    -0.003 C 
ATOM      7  C   UNL     1      34.150   3.981 -33.326  1.00  0.00     0.004 C 
ENDBRANCH   5   6
ENDBRANCH   1   5
TORSDOF 3
ENDMDL
MODEL 7
REMARK VINA RESULT:    -2.542     14.297     15.587
REMARK INTER + INTRA:          -3.081
REMARK INTER:                  -2.980
REMARK INTRA:                  -0.100
REMARK UNBOUND:                -0.093
REMARK SMILES CCCCC(=O)[O-]
REMARK SMILES IDX 4 1 5 2 6 3 7 4 3 5 2 6 1 7
REMARK H PARENT
REMARK Flexibility Score: inf
ROOT
ATOM      1  C   UNL     1      26.946  -7.855 -28.711  1.00  0.00     0.053 C 
ENDROOT
BRANCH   1   2
ATOM      2  C   UNL     1      27.626  -6.652 -29.289  1.00  0.00     0.041 C 
ATOM      3  O   UNL     1      28.866  -6.669 -29.509  1.00  0.00    -0.550 OA
ATOM      4  O   UNL     1      26.885  -5.524 -29.616  1.00  0.00    -0.550 OA
ENDBRANCH   1   2
BRANCH   1   5
ATOM      5  C   UNL     1      25.446  -7.873 -29.036  1.00  0.00     0.006 C 
BRANCH   5   6
ATOM      6  C   UNL     1      24.580  -7.964 -27.772  1.00  0.00    -0.003 C 
ATOM      7  C   UNL     1      24.176  -6.578 -27.280  1.00  0.00     0.004 C 
ENDBRANCH   5   6
ENDBRANCH   1   5
TORSDOF 3
ENDMDL
MODEL 8
REMARK VINA RESULT:    -2.538     15.834     16.302
REMARK INTER + INTRA:          -3.076
REMARK INTER:                  -2.991
REMARK INTRA:                  -0.084
REMARK UNBOUND:                -0.093
REMARK SMILES CCCCC(=O)[O-]
REMARK SMILES IDX 4 1 5 2 6 3 7 4 3 5 2 6 1 7
REMARK H PARENT
REMARK Flexibility Score: inf
ROOT
ATOM      1  C   UNL     1      25.626  -7.945 -27.354  1.00  0.00     0.053 C 
ENDROOT
BRANCH   1   2
ATOM      2  C   UNL     1      27.006  -7.909 -27.934  1.00  0.00     0.041 C 
ATOM      3  O   UNL     1      27.173  -8.009 -29.178  1.00  0.00    -0.550 OA
ATOM      4  O   UNL     1      28.105  -7.730 -27.104  1.00  0.00    -0.550 OA
ENDBRANCH   1   2
BRANCH   1   5
ATOM      5  C   UNL     1      24.547  -7.869 -28.443  1.00  0.00     0.006 C 
BRANCH   5   6
ATOM      6  C   UNL     1      24.110  -6.425 -28.727  1.00  0.00    -0.003 C 
ATOM      7  C   UNL     1      24.052  -6.153 -30.227  1.00  0.00     0.004 C 
ENDBRANCH   5   6
ENDBRANCH   1   5
TORSDOF 3
ENDMDL
MODEL 9
REMARK VINA RESULT:    -2.536     15.601     16.402
REMARK INTER + INTRA:          -3.074
REMARK INTER:                  -2.993
REMARK INTRA:                  -0.081
REMARK UNBOUND:                -0.093
REMARK SMILES CCCCC(=O)[O-]
REMARK SMILES IDX 4 1 5 2 6 3 7 4 3 5 2 6 1 7
REMARK H PARENT
REMARK Flexibility Score: inf
ROOT
ATOM      1  C   UNL     1      24.242  -6.938 -28.585  1.00  0.00     0.053 C 
ENDROOT
BRANCH   1   2
ATOM      2  C   UNL     1      23.914  -5.701 -27.808  1.00  0.00     0.041 C 
ATOM      3  O   UNL     1      23.612  -5.780 -26.588  1.00  0.00    -0.550 OA
ATOM      4  O   UNL     1      23.975  -4.456 -28.423  1.00  0.00    -0.550 OA
ENDBRANCH   1   2
BRANCH   1   5
ATOM      5  C   UNL     1      24.804  -8.046 -27.683  1.00  0.00     0.006 C 
BRANCH   5   6
ATOM      6  C   UNL     1      26.336  -8.010 -27.606  1.00  0.00    -0.003 C 
ATOM      7  C   UNL     1      26.954  -7.854 -28.991  1.00  0.00     0.004 C 
ENDBRANCH   5   6
ENDBRANCH   1   5
TORSDOF 3
ENDMDL
