MODEL 1
REMARK VINA RESULT:    -3.984      0.000      0.000
REMARK INTER + INTRA:          -7.437
REMARK INTER:                  -6.081
REMARK INTRA:                  -1.356
REMARK UNBOUND:                -1.356
REMARK SMILES CC(=O)CCC=C(C)CCC=C(C)CCC=C(C)C
REMARK SMILES IDX 10 1 11 2 12 3 13 4 14 5 15 6 16 7 18 8 17 9 19 10 9 11 7 12
REMARK SMILES IDX 6 13 8 14 5 15 4 16 2 17 3 18 1 19
REMARK H PARENT
REMARK Flexibility Score: inf
ROOT
ATOM      1  C   UNL     1      -7.021  -2.581   5.985  1.00  0.00     0.032 C 
ENDROOT
BRANCH   1   2
ATOM      2  C   UNL     1      -7.801  -1.583   6.803  1.00  0.00    -0.028 C 
ATOM      3  C   UNL     1      -8.875  -0.898   6.348  1.00  0.00    -0.077 C 
ATOM      4  C   UNL     1      -9.443  -1.128   4.967  1.00  0.00     0.039 C 
BRANCH   3   5
ATOM      5  C   UNL     1      -9.533   0.120   7.252  1.00  0.00     0.034 C 
BRANCH   5   6
ATOM      6  C   UNL     1      -9.604  -0.398   8.693  1.00  0.00     0.032 C 
BRANCH   6   7
ATOM      7  C   UNL     1      -8.447   0.125   9.507  1.00  0.00    -0.028 C 
ATOM      8  C   UNL     1      -6.444   0.008  10.928  1.00  0.00     0.039 C 
ATOM      9  C   UNL     1      -7.580  -0.654  10.190  1.00  0.00    -0.080 C 
ATOM     10  C   UNL     1      -7.728  -2.157  10.247  1.00  0.00     0.039 C 
ENDBRANCH   6   7
ENDBRANCH   5   6
ENDBRANCH   3   5
ENDBRANCH   1   2
BRANCH   1  11
ATOM     11  C   UNL     1      -6.850  -3.895   6.756  1.00  0.00     0.034 C 
BRANCH  11  12
ATOM     12  C   UNL     1      -5.532  -3.916   7.499  1.00  0.00    -0.077 C 
ATOM     13  C   UNL     1      -5.223  -2.894   8.327  1.00  0.00    -0.028 C 
ATOM     14  C   UNL     1      -4.585  -5.075   7.293  1.00  0.00     0.039 C 
BRANCH  13  15
ATOM     15  C   UNL     1      -3.933  -2.827   9.111  1.00  0.00     0.035 C 
BRANCH  15  16
ATOM     16  C   UNL     1      -4.155  -3.081  10.607  1.00  0.00     0.079 C 
BRANCH  16  17
ATOM     17  C   UNL     1      -4.376  -4.544  10.896  1.00  0.00     0.130 C 
ATOM     18  O   UNL     1      -3.412  -5.280  11.040  1.00  0.00    -0.300 OA
ATOM     19  C   UNL     1      -5.757  -5.115  11.028  1.00  0.00     0.087 C 
ENDBRANCH  16  17
ENDBRANCH  15  16
ENDBRANCH  13  15
ENDBRANCH  11  12
ENDBRANCH   1  11
TORSDOF 9
ENDMDL
MODEL 2
REMARK VINA RESULT:    -3.465      1.768      4.752
REMARK INTER + INTRA:          -6.644
REMARK INTER:                  -6.121
REMARK INTRA:                  -0.524
REMARK UNBOUND:                -1.356
REMARK SMILES CC(=O)CCC=C(C)CCC=C(C)CCC=C(C)C
REMARK SMILES IDX 10 1 11 2 12 3 13 4 14 5 15 6 16 7 18 8 17 9 19 10 9 11 7 12
REMARK SMILES IDX 6 13 8 14 5 15 4 16 2 17 3 18 1 19
REMARK H PARENT
REMARK Flexibility Score: inf
ROOT
ATOM      1  C   UNL     1      -3.693  -4.774   8.873  1.00  0.00     0.032 C 
ENDROOT
BRANCH   1   2
ATOM      2  C   UNL     1      -4.509  -3.991   7.876  1.00  0.00    -0.028 C 
ATOM      3  C   UNL     1      -5.323  -4.550   6.950  1.00  0.00    -0.077 C 
ATOM      4  C   UNL     1      -5.540  -6.044   6.875  1.00  0.00     0.039 C 
BRANCH   3   5
ATOM      5  C   UNL     1      -6.043  -3.654   5.968  1.00  0.00     0.034 C 
BRANCH   5   6
ATOM      6  C   UNL     1      -6.877  -2.600   6.706  1.00  0.00     0.032 C 
BRANCH   6   7
ATOM      7  C   UNL     1      -8.047  -2.158   5.863  1.00  0.00    -0.028 C 
ATOM      8  C   UNL     1      -9.746  -0.615   4.983  1.00  0.00     0.039 C 
ATOM      9  C   UNL     1      -8.606  -0.928   5.918  1.00  0.00    -0.080 C 
ATOM     10  C   UNL     1      -8.132   0.123   6.894  1.00  0.00     0.039 C 
ENDBRANCH   6   7
ENDBRANCH   5   6
ENDBRANCH   3   5
ENDBRANCH   1   2
BRANCH   1  11
ATOM     11  C   UNL     1      -3.939  -4.259  10.295  1.00  0.00     0.034 C 
BRANCH  11  12
ATOM     12  C   UNL     1      -5.409  -3.982  10.521  1.00  0.00    -0.077 C 
ATOM     13  C   UNL     1      -5.949  -2.842  10.037  1.00  0.00    -0.028 C 
ATOM     14  C   UNL     1      -6.241  -4.981  11.291  1.00  0.00     0.039 C 
BRANCH  13  15
ATOM     15  C   UNL     1      -7.405  -2.478  10.213  1.00  0.00     0.035 C 
BRANCH  15  16
ATOM     16  C   UNL     1      -7.619  -0.959  10.235  1.00  0.00     0.079 C 
BRANCH  16  17
ATOM     17  C   UNL     1      -6.308  -0.213  10.261  1.00  0.00     0.130 C 
ATOM     18  O   UNL     1      -5.831   0.125  11.333  1.00  0.00    -0.300 OA
ATOM     19  C   UNL     1      -5.569   0.112   8.997  1.00  0.00     0.087 C 
ENDBRANCH  16  17
ENDBRANCH  15  16
ENDBRANCH  13  15
ENDBRANCH  11  12
ENDBRANCH   1  11
TORSDOF 9
ENDMDL
MODEL 3
REMARK VINA RESULT:    -3.457     19.793     21.497
REMARK INTER + INTRA:          -6.632
REMARK INTER:                  -5.254
REMARK INTRA:                  -1.378
REMARK UNBOUND:                -1.356
REMARK SMILES CC(=O)CCC=C(C)CCC=C(C)CCC=C(C)C
REMARK SMILES IDX 10 1 11 2 12 3 13 4 14 5 15 6 16 7 18 8 17 9 19 10 9 11 7 12
REMARK SMILES IDX 6 13 8 14 5 15 4 16 2 17 3 18 1 19
REMARK H PARENT
REMARK Flexibility Score: inf
ROOT
ATOM      1  C   UNL     1     -17.364 -18.694  12.744  1.00  0.00     0.032 C 
ENDROOT
BRANCH   1   2
ATOM      2  C   UNL     1     -18.624 -18.277  12.027  1.00  0.00    -0.028 C 
ATOM      3  C   UNL     1     -18.963 -18.684  10.783  1.00  0.00    -0.077 C 
ATOM      4  C   UNL     1     -18.119 -19.668  10.006  1.00  0.00     0.039 C 
BRANCH   3   5
ATOM      5  C   UNL     1     -20.228 -18.145  10.153  1.00  0.00     0.034 C 
BRANCH   5   6
ATOM      6  C   UNL     1     -20.872 -19.198   9.243  1.00  0.00     0.032 C 
BRANCH   6   7
ATOM      7  C   UNL     1     -21.517 -18.548   8.045  1.00  0.00    -0.028 C 
ATOM      8  C   UNL     1     -21.811 -17.952   5.679  1.00  0.00     0.039 C 
ATOM      9  C   UNL     1     -21.034 -18.619   6.785  1.00  0.00    -0.080 C 
ATOM     10  C   UNL     1     -19.739 -19.327   6.464  1.00  0.00     0.039 C 
ENDBRANCH   6   7
ENDBRANCH   5   6
ENDBRANCH   3   5
ENDBRANCH   1   2
BRANCH   1  11
ATOM     11  C   UNL     1     -17.682 -19.160  14.169  1.00  0.00     0.034 C 
BRANCH  11  12
ATOM     12  C   UNL     1     -18.481 -18.113  14.913  1.00  0.00    -0.077 C 
ATOM     13  C   UNL     1     -19.753 -18.388  15.278  1.00  0.00    -0.028 C 
ATOM     14  C   UNL     1     -17.844 -16.779  15.227  1.00  0.00     0.039 C 
BRANCH  13  15
ATOM     15  C   UNL     1     -20.628 -17.407  16.023  1.00  0.00     0.035 C 
BRANCH  15  16
ATOM     16  C   UNL     1     -21.943 -17.134  15.283  1.00  0.00     0.079 C 
BRANCH  16  17
ATOM     17  C   UNL     1     -21.850 -15.900  14.420  1.00  0.00     0.130 C 
ATOM     18  O   UNL     1     -22.124 -14.811  14.898  1.00  0.00    -0.300 OA
ATOM     19  C   UNL     1     -21.413 -15.980  12.987  1.00  0.00     0.087 C 
ENDBRANCH  16  17
ENDBRANCH  15  16
ENDBRANCH  13  15
ENDBRANCH  11  12
ENDBRANCH   1  11
TORSDOF 9
ENDMDL
MODEL 4
REMARK VINA RESULT:    -3.430      2.410      6.603
REMARK INTER + INTRA:          -6.591
REMARK INTER:                  -5.083
REMARK INTRA:                  -1.509
REMARK UNBOUND:                -1.356
REMARK SMILES CC(=O)CCC=C(C)CCC=C(C)CCC=C(C)C
REMARK SMILES IDX 10 1 11 2 12 3 13 4 14 5 15 6 16 7 18 8 17 9 19 10 9 11 7 12
REMARK SMILES IDX 6 13 8 14 5 15 4 16 2 17 3 18 1 19
REMARK H PARENT
REMARK Flexibility Score: inf
ROOT
ATOM      1  C   UNL     1      -7.096  -2.505  10.601  1.00  0.00     0.032 C 
ENDROOT
BRANCH   1   2
ATOM      2  C   UNL     1      -5.805  -2.921   9.941  1.00  0.00    -0.028 C 
ATOM      3  C   UNL     1      -5.084  -4.008  10.296  1.00  0.00    -0.077 C 
ATOM      4  C   UNL     1      -5.553  -4.963  11.369  1.00  0.00     0.039 C 
BRANCH   3   5
ATOM      5  C   UNL     1      -3.773  -4.282   9.593  1.00  0.00     0.034 C 
BRANCH   5   6
ATOM      6  C   UNL     1      -3.829  -3.805   8.137  1.00  0.00     0.032 C 
BRANCH   6   7
ATOM      7  C   UNL     1      -4.511  -4.829   7.264  1.00  0.00    -0.028 C 
ATOM      8  C   UNL     1      -6.198  -5.714   5.711  1.00  0.00     0.039 C 
ATOM      9  C   UNL     1      -5.654  -4.607   6.578  1.00  0.00    -0.080 C 
ATOM     10  C   UNL     1      -6.401  -3.297   6.670  1.00  0.00     0.039 C 
ENDBRANCH   6   7
ENDBRANCH   5   6
ENDBRANCH   3   5
ENDBRANCH   1   2
BRANCH   1  11
ATOM     11  C   UNL     1      -7.205  -0.977  10.659  1.00  0.00     0.034 C 
BRANCH  11  12
ATOM     12  C   UNL     1      -7.668  -0.418   9.332  1.00  0.00    -0.077 C 
ATOM     13  C   UNL     1      -8.987  -0.416   9.040  1.00  0.00    -0.028 C 
ATOM     14  C   UNL     1      -6.645   0.118   8.357  1.00  0.00     0.039 C 
BRANCH  13  15
ATOM     15  C   UNL     1      -9.545   0.121   7.742  1.00  0.00     0.035 C 
BRANCH  15  16
ATOM     16  C   UNL     1      -9.788  -0.994   6.717  1.00  0.00     0.079 C 
BRANCH  16  17
ATOM     17  C   UNL     1      -9.212  -0.645   5.368  1.00  0.00     0.130 C 
ATOM     18  O   UNL     1      -8.267   0.125   5.299  1.00  0.00    -0.300 OA
ATOM     19  C   UNL     1      -9.765  -1.237   4.105  1.00  0.00     0.087 C 
ENDBRANCH  16  17
ENDBRANCH  15  16
ENDBRANCH  13  15
ENDBRANCH  11  12
ENDBRANCH   1  11
TORSDOF 9
ENDMDL
MODEL 5
REMARK VINA RESULT:    -3.280     19.774     21.276
REMARK INTER + INTRA:          -6.363
REMARK INTER:                  -4.985
REMARK INTRA:                  -1.378
REMARK UNBOUND:                -1.356
REMARK SMILES CC(=O)CCC=C(C)CCC=C(C)CCC=C(C)C
REMARK SMILES IDX 10 1 11 2 12 3 13 4 14 5 15 6 16 7 18 8 17 9 19 10 9 11 7 12
REMARK SMILES IDX 6 13 8 14 5 15 4 16 2 17 3 18 1 19
REMARK H PARENT
REMARK Flexibility Score: inf
ROOT
ATOM      1  C   UNL     1     -17.743 -18.926  13.360  1.00  0.00     0.032 C 
ENDROOT
BRANCH   1   2
ATOM      2  C   UNL     1     -18.579 -19.128  12.122  1.00  0.00    -0.028 C 
ATOM      3  C   UNL     1     -18.072 -19.349  10.887  1.00  0.00    -0.077 C 
ATOM      4  C   UNL     1     -16.587 -19.481  10.646  1.00  0.00     0.039 C 
BRANCH   3   5
ATOM      5  C   UNL     1     -19.020 -19.476   9.716  1.00  0.00     0.034 C 
BRANCH   5   6
ATOM      6  C   UNL     1     -20.465 -19.210  10.155  1.00  0.00     0.032 C 
BRANCH   6   7
ATOM      7  C   UNL     1     -21.077 -18.099   9.339  1.00  0.00    -0.028 C 
ATOM      8  C   UNL     1     -21.738 -15.797   8.788  1.00  0.00     0.039 C 
ATOM      9  C   UNL     1     -21.132 -16.806   9.729  1.00  0.00    -0.080 C 
ATOM     10  C   UNL     1     -20.621 -16.355  11.078  1.00  0.00     0.039 C 
ENDBRANCH   6   7
ENDBRANCH   5   6
ENDBRANCH   3   5
ENDBRANCH   1   2
BRANCH   1  11
ATOM     11  C   UNL     1     -17.864 -17.484  13.864  1.00  0.00     0.034 C 
BRANCH  11  12
ATOM     12  C   UNL     1     -18.388 -17.450  15.283  1.00  0.00    -0.077 C 
ATOM     13  C   UNL     1     -19.628 -17.918  15.541  1.00  0.00    -0.028 C 
ATOM     14  C   UNL     1     -17.516 -16.886  16.381  1.00  0.00     0.039 C 
BRANCH  13  15
ATOM     15  C   UNL     1     -20.237 -17.926  16.924  1.00  0.00     0.035 C 
BRANCH  15  16
ATOM     16  C   UNL     1     -21.703 -17.476  16.909  1.00  0.00     0.079 C 
BRANCH  16  17
ATOM     17  C   UNL     1     -21.823 -15.972  16.886  1.00  0.00     0.130 C 
ATOM     18  O   UNL     1     -22.109 -15.408  15.841  1.00  0.00    -0.300 OA
ATOM     19  C   UNL     1     -21.614 -15.153  18.125  1.00  0.00     0.087 C 
ENDBRANCH  16  17
ENDBRANCH  15  16
ENDBRANCH  13  15
ENDBRANCH  11  12
ENDBRANCH   1  11
TORSDOF 9
ENDMDL
MODEL 6
REMARK VINA RESULT:    -3.223     19.523     21.282
REMARK INTER + INTRA:          -6.276
REMARK INTER:                  -4.562
REMARK INTRA:                  -1.713
REMARK UNBOUND:                -1.356
REMARK SMILES CC(=O)CCC=C(C)CCC=C(C)CCC=C(C)C
REMARK SMILES IDX 10 1 11 2 12 3 13 4 14 5 15 6 16 7 18 8 17 9 19 10 9 11 7 12
REMARK SMILES IDX 6 13 8 14 5 15 4 16 2 17 3 18 1 19
REMARK H PARENT
REMARK Flexibility Score: inf
ROOT
ATOM      1  C   UNL     1     -18.725 -17.504  12.656  1.00  0.00     0.032 C 
ENDROOT
BRANCH   1   2
ATOM      2  C   UNL     1     -19.299 -18.178  13.877  1.00  0.00    -0.028 C 
ATOM      3  C   UNL     1     -20.316 -17.679  14.616  1.00  0.00    -0.077 C 
ATOM      4  C   UNL     1     -21.027 -16.401  14.237  1.00  0.00     0.039 C 
BRANCH   3   5
ATOM      5  C   UNL     1     -20.760 -18.427  15.854  1.00  0.00     0.034 C 
BRANCH   5   6
ATOM      6  C   UNL     1     -20.109 -17.832  17.109  1.00  0.00     0.032 C 
BRANCH   6   7
ATOM      7  C   UNL     1     -18.860 -18.593  17.476  1.00  0.00    -0.028 C 
ATOM      8  C   UNL     1     -16.450 -18.981  17.764  1.00  0.00     0.039 C 
ATOM      9  C   UNL     1     -17.604 -18.123  17.311  1.00  0.00    -0.080 C 
ATOM     10  C   UNL     1     -17.328 -16.781  16.676  1.00  0.00     0.039 C 
ENDBRANCH   6   7
ENDBRANCH   5   6
ENDBRANCH   3   5
ENDBRANCH   1   2
BRANCH   1  11
ATOM     11  C   UNL     1     -19.041 -18.313  11.394  1.00  0.00     0.034 C 
BRANCH  11  12
ATOM     12  C   UNL     1     -20.374 -17.903  10.809  1.00  0.00    -0.077 C 
ATOM     13  C   UNL     1     -20.628 -16.594  10.596  1.00  0.00    -0.028 C 
ATOM     14  C   UNL     1     -21.398 -18.967  10.484  1.00  0.00     0.039 C 
BRANCH  13  15
ATOM     15  C   UNL     1     -21.929 -16.088  10.017  1.00  0.00     0.035 C 
BRANCH  15  16
ATOM     16  C   UNL     1     -21.710 -14.931   9.036  1.00  0.00     0.079 C 
BRANCH  16  17
ATOM     17  C   UNL     1     -21.693 -15.409   7.606  1.00  0.00     0.130 C 
ATOM     18  O   UNL     1     -21.619 -14.594   6.700  1.00  0.00    -0.300 OA
ATOM     19  C   UNL     1     -21.751 -16.870   7.270  1.00  0.00     0.087 C 
ENDBRANCH  16  17
ENDBRANCH  15  16
ENDBRANCH  13  15
ENDBRANCH  11  12
ENDBRANCH   1  11
TORSDOF 9
ENDMDL
MODEL 7
REMARK VINA RESULT:    -3.175     19.706     21.438
REMARK INTER + INTRA:          -6.201
REMARK INTER:                  -4.469
REMARK INTRA:                  -1.732
REMARK UNBOUND:                -1.356
REMARK SMILES CC(=O)CCC=C(C)CCC=C(C)CCC=C(C)C
REMARK SMILES IDX 10 1 11 2 12 3 13 4 14 5 15 6 16 7 18 8 17 9 19 10 9 11 7 12
REMARK SMILES IDX 6 13 8 14 5 15 4 16 2 17 3 18 1 19
REMARK H PARENT
REMARK Flexibility Score: inf
ROOT
ATOM      1  C   UNL     1     -17.905 -17.928  13.145  1.00  0.00     0.032 C 
ENDROOT
BRANCH   1   2
ATOM      2  C   UNL     1     -17.961 -17.201  14.465  1.00  0.00    -0.028 C 
ATOM      3  C   UNL     1     -17.373 -17.639  15.602  1.00  0.00    -0.077 C 
ATOM      4  C   UNL     1     -16.533 -18.895  15.634  1.00  0.00     0.039 C 
BRANCH   3   5
ATOM      5  C   UNL     1     -17.554 -16.844  16.875  1.00  0.00     0.034 C 
BRANCH   5   6
ATOM      6  C   UNL     1     -18.730 -17.389  17.693  1.00  0.00     0.032 C 
BRANCH   6   7
ATOM      7  C   UNL     1     -20.037 -17.136  16.986  1.00  0.00    -0.028 C 
ATOM      8  C   UNL     1     -22.123 -17.701  15.814  1.00  0.00     0.039 C 
ATOM      9  C   UNL     1     -20.819 -18.102  16.456  1.00  0.00    -0.080 C 
ATOM     10  C   UNL     1     -20.416 -19.558  16.475  1.00  0.00     0.039 C 
ENDBRANCH   6   7
ENDBRANCH   5   6
ENDBRANCH   3   5
ENDBRANCH   1   2
BRANCH   1  11
ATOM     11  C   UNL     1     -19.112 -18.861  12.991  1.00  0.00     0.034 C 
BRANCH  11  12
ATOM     12  C   UNL     1     -20.020 -18.390  11.877  1.00  0.00    -0.077 C 
ATOM     13  C   UNL     1     -21.069 -17.593  12.171  1.00  0.00    -0.028 C 
ATOM     14  C   UNL     1     -19.738 -18.828  10.458  1.00  0.00     0.039 C 
BRANCH  13  15
ATOM     15  C   UNL     1     -22.030 -17.073  11.128  1.00  0.00     0.035 C 
BRANCH  15  16
ATOM     16  C   UNL     1     -21.709 -15.631  10.718  1.00  0.00     0.079 C 
BRANCH  16  17
ATOM     17  C   UNL     1     -21.799 -15.443   9.225  1.00  0.00     0.130 C 
ATOM     18  O   UNL     1     -21.884 -14.314   8.765  1.00  0.00    -0.300 OA
ATOM     19  C   UNL     1     -21.773 -16.613   8.286  1.00  0.00     0.087 C 
ENDBRANCH  16  17
ENDBRANCH  15  16
ENDBRANCH  13  15
ENDBRANCH  11  12
ENDBRANCH   1  11
TORSDOF 9
ENDMDL
MODEL 8
REMARK VINA RESULT:    -3.073     20.149     21.602
REMARK INTER + INTRA:          -6.047
REMARK INTER:                  -4.575
REMARK INTRA:                  -1.472
REMARK UNBOUND:                -1.356
REMARK SMILES CC(=O)CCC=C(C)CCC=C(C)CCC=C(C)C
REMARK SMILES IDX 10 1 11 2 12 3 13 4 14 5 15 6 16 7 18 8 17 9 19 10 9 11 7 12
REMARK SMILES IDX 6 13 8 14 5 15 4 16 2 17 3 18 1 19
REMARK H PARENT
REMARK Flexibility Score: inf
ROOT
ATOM      1  C   UNL     1     -19.243 -17.648  12.287  1.00  0.00     0.032 C 
ENDROOT
BRANCH   1   2
ATOM      2  C   UNL     1     -19.685 -18.281  10.992  1.00  0.00    -0.028 C 
ATOM      3  C   UNL     1     -20.563 -19.307  10.905  1.00  0.00    -0.077 C 
ATOM      4  C   UNL     1     -21.243 -19.881  12.126  1.00  0.00     0.039 C 
BRANCH   3   5
ATOM      5  C   UNL     1     -20.878 -19.891   9.546  1.00  0.00     0.034 C 
BRANCH   5   6
ATOM      6  C   UNL     1     -19.976 -19.276   8.469  1.00  0.00     0.032 C 
BRANCH   6   7
ATOM      7  C   UNL     1     -20.729 -19.108   7.173  1.00  0.00    -0.028 C 
ATOM      8  C   UNL     1     -22.125 -17.972   5.498  1.00  0.00     0.039 C 
ATOM      9  C   UNL     1     -21.460 -18.018   6.851  1.00  0.00    -0.080 C 
ATOM     10  C   UNL     1     -21.641 -16.864   7.808  1.00  0.00     0.039 C 
ENDBRANCH   6   7
ENDBRANCH   5   6
ENDBRANCH   3   5
ENDBRANCH   1   2
BRANCH   1  11
ATOM     11  C   UNL     1     -17.914 -18.249  12.756  1.00  0.00     0.034 C 
BRANCH  11  12
ATOM     12  C   UNL     1     -17.951 -18.551  14.238  1.00  0.00    -0.077 C 
ATOM     13  C   UNL     1     -17.554 -17.604  15.115  1.00  0.00    -0.028 C 
ATOM     14  C   UNL     1     -18.425 -19.907  14.706  1.00  0.00     0.039 C 
BRANCH  13  15
ATOM     15  C   UNL     1     -17.555 -17.812  16.612  1.00  0.00     0.035 C 
BRANCH  15  16
ATOM     16  C   UNL     1     -18.623 -16.960  17.310  1.00  0.00     0.079 C 
BRANCH  16  17
ATOM     17  C   UNL     1     -20.003 -17.540  17.129  1.00  0.00     0.130 C 
ATOM     18  O   UNL     1     -20.343 -18.502  17.800  1.00  0.00    -0.300 OA
ATOM     19  C   UNL     1     -20.977 -16.951  16.152  1.00  0.00     0.087 C 
ENDBRANCH  16  17
ENDBRANCH  15  16
ENDBRANCH  13  15
ENDBRANCH  11  12
ENDBRANCH   1  11
TORSDOF 9
ENDMDL
