MODEL 1
REMARK VINA RESULT:    -2.458      0.000      0.000
REMARK INTER + INTRA:          -2.458
REMARK INTER:                  -2.458
REMARK INTRA:                   0.000
REMARK UNBOUND:                 0.000
REMARK SMILES CC(=O)[O-]
REMARK SMILES IDX 1 1 2 2 3 3 4 4
REMARK H PARENT
REMARK Flexibility Score: inf
ROOT
ATOM      1  C   UNL     1      -8.243  16.748 -11.793  1.00  0.00     0.063 C 
ATOM      2  C   UNL     1      -7.452  17.941 -11.378  1.00  0.00     0.038 C 
ATOM      3  O   UNL     1      -7.846  19.098 -11.682  1.00  0.00    -0.550 OA
ATOM      4  O   UNL     1      -6.308  17.783 -10.607  1.00  0.00    -0.550 OA
ENDROOT
TORSDOF 0
ENDMDL
MODEL 2
REMARK VINA RESULT:    -2.397      1.361      1.683
REMARK INTER + INTRA:          -2.397
REMARK INTER:                  -2.397
REMARK INTRA:                   0.000
REMARK UNBOUND:                 0.000
REMARK SMILES CC(=O)[O-]
REMARK SMILES IDX 1 1 2 2 3 3 4 4
REMARK H PARENT
REMARK Flexibility Score: inf
ROOT
ATOM      1  C   UNL     1      -8.103  19.125 -11.502  1.00  0.00     0.063 C 
ATOM      2  C   UNL     1      -7.493  17.772 -11.356  1.00  0.00     0.038 C 
ATOM      3  O   UNL     1      -8.053  16.768 -11.869  1.00  0.00    -0.550 OA
ATOM      4  O   UNL     1      -6.278  17.623 -10.700  1.00  0.00    -0.550 OA
ENDROOT
TORSDOF 0
ENDMDL
MODEL 3
REMARK VINA RESULT:    -2.371      1.380      2.050
REMARK INTER + INTRA:          -2.371
REMARK INTER:                  -2.371
REMARK INTRA:                   0.000
REMARK UNBOUND:                 0.000
REMARK SMILES CC(=O)[O-]
REMARK SMILES IDX 1 1 2 2 3 3 4 4
REMARK H PARENT
REMARK Flexibility Score: inf
ROOT
ATOM      1  C   UNL     1      -6.272  17.593 -10.715  1.00  0.00     0.063 C 
ATOM      2  C   UNL     1      -7.557  17.830 -11.433  1.00  0.00     0.038 C 
ATOM      3  O   UNL     1      -8.317  16.863 -11.706  1.00  0.00    -0.550 OA
ATOM      4  O   UNL     1      -7.947  19.123 -11.755  1.00  0.00    -0.550 OA
ENDROOT
TORSDOF 0
ENDMDL
MODEL 4
REMARK VINA RESULT:    -2.305      4.457      5.012
REMARK INTER + INTRA:          -2.305
REMARK INTER:                  -2.305
REMARK INTRA:                   0.000
REMARK UNBOUND:                 0.000
REMARK SMILES CC(=O)[O-]
REMARK SMILES IDX 1 1 2 2 3 3 4 4
REMARK H PARENT
REMARK Flexibility Score: inf
ROOT
ATOM      1  C   UNL     1      -2.065  15.652 -10.107  1.00  0.00     0.063 C 
ATOM      2  C   UNL     1      -3.244  16.437  -9.641  1.00  0.00     0.038 C 
ATOM      3  O   UNL     1      -3.965  17.050 -10.472  1.00  0.00    -0.550 OA
ATOM      4  O   UNL     1      -3.583  16.449  -8.294  1.00  0.00    -0.550 OA
ENDROOT
TORSDOF 0
ENDMDL
MODEL 5
REMARK VINA RESULT:    -2.204     17.491     17.819
REMARK INTER + INTRA:          -2.204
REMARK INTER:                  -2.204
REMARK INTRA:                   0.000
REMARK UNBOUND:                 0.000
REMARK SMILES CC(=O)[O-]
REMARK SMILES IDX 1 1 2 2 3 3 4 4
REMARK H PARENT
REMARK Flexibility Score: inf
ROOT
ATOM      1  C   UNL     1      -2.758   0.743  -7.286  1.00  0.00     0.063 C 
ATOM      2  C   UNL     1      -2.482   1.057  -8.717  1.00  0.00     0.038 C 
ATOM      3  O   UNL     1      -3.427   1.363  -9.491  1.00  0.00    -0.550 OA
ATOM      4  O   UNL     1      -1.175   1.068  -9.188  1.00  0.00    -0.550 OA
ENDROOT
TORSDOF 0
ENDMDL
MODEL 6
REMARK VINA RESULT:    -2.165     17.376     17.813
REMARK INTER + INTRA:          -2.165
REMARK INTER:                  -2.165
REMARK INTRA:                   0.000
REMARK UNBOUND:                 0.000
REMARK SMILES CC(=O)[O-]
REMARK SMILES IDX 1 1 2 2 3 3 4 4
REMARK H PARENT
REMARK Flexibility Score: inf
ROOT
ATOM      1  C   UNL     1      -1.631   1.147  -8.916  1.00  0.00     0.063 C 
ATOM      2  C   UNL     1      -2.814   1.123  -8.009  1.00  0.00     0.038 C 
ATOM      3  O   UNL     1      -3.909   1.617  -8.385  1.00  0.00    -0.550 OA
ATOM      4  O   UNL     1      -2.726   0.506  -6.768  1.00  0.00    -0.550 OA
ENDROOT
TORSDOF 0
ENDMDL
MODEL 7
REMARK VINA RESULT:    -2.052     15.473     15.857
REMARK INTER + INTRA:          -2.052
REMARK INTER:                  -2.052
REMARK INTRA:                   0.000
REMARK UNBOUND:                 0.000
REMARK SMILES CC(=O)[O-]
REMARK SMILES IDX 1 1 2 2 3 3 4 4
REMARK H PARENT
REMARK Flexibility Score: inf
ROOT
ATOM      1  C   UNL     1       1.158   5.484  -6.984  1.00  0.00     0.063 C 
ATOM      2  C   UNL     1       1.656   5.354  -8.383  1.00  0.00     0.038 C 
ATOM      3  O   UNL     1       0.863   5.488  -9.352  1.00  0.00    -0.550 OA
ATOM      4  O   UNL     1       3.007   5.139  -8.623  1.00  0.00    -0.550 OA
ENDROOT
TORSDOF 0
ENDMDL
MODEL 8
REMARK VINA RESULT:    -2.051     17.622     18.169
REMARK INTER + INTRA:          -2.051
REMARK INTER:                  -2.051
REMARK INTRA:                   0.000
REMARK UNBOUND:                 0.000
REMARK SMILES CC(=O)[O-]
REMARK SMILES IDX 1 1 2 2 3 3 4 4
REMARK H PARENT
REMARK Flexibility Score: inf
ROOT
ATOM      1  C   UNL     1      -2.879   0.345  -5.919  1.00  0.00     0.063 C 
ATOM      2  C   UNL     1      -2.610   0.947  -7.257  1.00  0.00     0.038 C 
ATOM      3  O   UNL     1      -2.976   0.350  -8.303  1.00  0.00    -0.550 OA
ATOM      4  O   UNL     1      -2.004   2.193  -7.349  1.00  0.00    -0.550 OA
ENDROOT
TORSDOF 0
ENDMDL
MODEL 9
REMARK VINA RESULT:    -2.037     15.430     15.770
REMARK INTER + INTRA:          -2.037
REMARK INTER:                  -2.037
REMARK INTRA:                   0.000
REMARK UNBOUND:                 0.000
REMARK SMILES CC(=O)[O-]
REMARK SMILES IDX 1 1 2 2 3 3 4 4
REMARK H PARENT
REMARK Flexibility Score: inf
ROOT
ATOM      1  C   UNL     1       1.134   5.265  -9.252  1.00  0.00     0.063 C 
ATOM      2  C   UNL     1       1.788   5.649  -7.969  1.00  0.00     0.038 C 
ATOM      3  O   UNL     1       1.090   5.874  -6.946  1.00  0.00    -0.550 OA
ATOM      4  O   UNL     1       3.173   5.705  -7.884  1.00  0.00    -0.550 OA
ENDROOT
TORSDOF 0
ENDMDL
