MODEL 1
REMARK VINA RESULT:    -3.989      0.000      0.000
REMARK INTER + INTRA:          -5.080
REMARK INTER:                  -4.922
REMARK INTRA:                  -0.158
REMARK UNBOUND:                -0.158
REMARK SMILES CCCCC=CC(C)=O
REMARK SMILES IDX 4 1 3 2 2 3 1 4 5 5 6 6 7 7 9 8 8 9
REMARK H PARENT
REMARK Flexibility Score: inf
ROOT
ATOM      1  C   UNL     1     178.395 183.947 194.355  1.00  0.00     0.027 C 
ENDROOT
BRANCH   1   2
ATOM      2  C   UNL     1     177.221 184.083 195.330  1.00  0.00     0.004 C 
BRANCH   2   3
ATOM      3  C   UNL     1     177.716 184.411 196.743  1.00  0.00    -0.003 C 
ATOM      4  C   UNL     1     176.559 184.446 197.739  1.00  0.00     0.004 C 
ENDBRANCH   2   3
ENDBRANCH   1   2
BRANCH   1   5
ATOM      5  C   UNL     1     179.302 185.141 194.424  1.00  0.00    -0.023 C 
ATOM      6  C   UNL     1     180.401 185.228 193.664  1.00  0.00     0.042 C 
BRANCH   6   7
ATOM      7  C   UNL     1     181.316 186.387 193.690  1.00  0.00     0.152 C 
ATOM      8  O   UNL     1     180.823 187.545 193.731  1.00  0.00    -0.295 OA
ATOM      9  C   UNL     1     182.808 186.234 193.670  1.00  0.00     0.093 C 
ENDBRANCH   6   7
ENDBRANCH   1   5
TORSDOF 4
ENDMDL
MODEL 2
REMARK VINA RESULT:    -3.979     11.200     14.825
REMARK INTER + INTRA:          -5.068
REMARK INTER:                  -4.914
REMARK INTRA:                  -0.153
REMARK UNBOUND:                -0.158
REMARK SMILES CCCCC=CC(C)=O
REMARK SMILES IDX 4 1 3 2 2 3 1 4 5 5 6 6 7 7 9 8 8 9
REMARK H PARENT
REMARK Flexibility Score: inf
ROOT
ATOM      1  C   UNL     1     194.251 188.867 194.390  1.00  0.00     0.027 C 
ENDROOT
BRANCH   1   2
ATOM      2  C   UNL     1     195.486 188.692 195.280  1.00  0.00     0.004 C 
BRANCH   2   3
ATOM      3  C   UNL     1     195.088 188.232 196.687  1.00  0.00    -0.003 C 
ATOM      4  C   UNL     1     196.108 188.692 197.726  1.00  0.00     0.004 C 
ENDBRANCH   2   3
ENDBRANCH   1   2
BRANCH   1   5
ATOM      5  C   UNL     1     193.365 187.655 194.442  1.00  0.00    -0.023 C 
ATOM      6  C   UNL     1     192.286 187.545 193.659  1.00  0.00     0.042 C 
BRANCH   6   7
ATOM      7  C   UNL     1     191.392 186.369 193.668  1.00  0.00     0.152 C 
ATOM      8  O   UNL     1     191.908 185.219 193.674  1.00  0.00    -0.295 OA
ATOM      9  C   UNL     1     189.898 186.493 193.671  1.00  0.00     0.093 C 
ENDBRANCH   6   7
ENDBRANCH   1   5
TORSDOF 4
ENDMDL
MODEL 3
REMARK VINA RESULT:    -3.572     10.302     13.308
REMARK INTER + INTRA:          -4.565
REMARK INTER:                  -4.443
REMARK INTRA:                  -0.122
REMARK UNBOUND:                -0.158
REMARK SMILES CCCCC=CC(C)=O
REMARK SMILES IDX 4 1 3 2 2 3 1 4 5 5 6 6 7 7 9 8 8 9
REMARK H PARENT
REMARK Flexibility Score: inf
ROOT
ATOM      1  C   UNL     1     191.703 186.455 193.933  1.00  0.00     0.027 C 
ENDROOT
BRANCH   1   2
ATOM      2  C   UNL     1     190.389 186.778 193.213  1.00  0.00     0.004 C 
BRANCH   2   3
ATOM      3  C   UNL     1     189.243 185.910 193.743  1.00  0.00    -0.003 C 
ATOM      4  C   UNL     1     188.198 186.756 194.466  1.00  0.00     0.004 C 
ENDBRANCH   2   3
ENDBRANCH   1   2
BRANCH   1   5
ATOM      5  C   UNL     1     192.679 187.590 193.822  1.00  0.00    -0.023 C 
ATOM      6  C   UNL     1     193.663 187.754 194.714  1.00  0.00     0.042 C 
BRANCH   6   7
ATOM      7  C   UNL     1     194.652 188.849 194.639  1.00  0.00     0.152 C 
ATOM      8  O   UNL     1     195.784 188.676 195.166  1.00  0.00    -0.295 OA
ATOM      9  C   UNL     1     194.359 190.153 193.960  1.00  0.00     0.093 C 
ENDBRANCH   6   7
ENDBRANCH   1   5
TORSDOF 4
ENDMDL
MODEL 4
REMARK VINA RESULT:    -3.572     12.195     13.864
REMARK INTER + INTRA:          -4.565
REMARK INTER:                  -4.283
REMARK INTRA:                  -0.282
REMARK UNBOUND:                -0.158
REMARK SMILES CCCCC=CC(C)=O
REMARK SMILES IDX 4 1 3 2 2 3 1 4 5 5 6 6 7 7 9 8 8 9
REMARK H PARENT
REMARK Flexibility Score: inf
ROOT
ATOM      1  C   UNL     1     192.030 186.018 193.916  1.00  0.00     0.027 C 
ENDROOT
BRANCH   1   2
ATOM      2  C   UNL     1     190.799 186.818 193.477  1.00  0.00     0.004 C 
BRANCH   2   3
ATOM      3  C   UNL     1     190.449 186.527 192.014  1.00  0.00    -0.003 C 
ATOM      4  C   UNL     1     190.774 187.722 191.120  1.00  0.00     0.004 C 
ENDBRANCH   2   3
ENDBRANCH   1   2
BRANCH   1   5
ATOM      5  C   UNL     1     193.126 186.925 194.397  1.00  0.00    -0.023 C 
ATOM      6  C   UNL     1     193.223 188.189 193.969  1.00  0.00     0.042 C 
BRANCH   6   7
ATOM      7  C   UNL     1     194.276 189.121 194.422  1.00  0.00     0.152 C 
ATOM      8  O   UNL     1     194.343 190.261 193.891  1.00  0.00    -0.295 OA
ATOM      9  C   UNL     1     195.266 188.759 195.489  1.00  0.00     0.093 C 
ENDBRANCH   6   7
ENDBRANCH   1   5
TORSDOF 4
ENDMDL
MODEL 5
REMARK VINA RESULT:    -3.543      2.326      5.434
REMARK INTER + INTRA:          -4.530
REMARK INTER:                  -4.317
REMARK INTRA:                  -0.213
REMARK UNBOUND:                -0.158
REMARK SMILES CCCCC=CC(C)=O
REMARK SMILES IDX 4 1 3 2 2 3 1 4 5 5 6 6 7 7 9 8 8 9
REMARK H PARENT
REMARK Flexibility Score: inf
ROOT
ATOM      1  C   UNL     1     181.287 186.288 193.692  1.00  0.00     0.027 C 
ENDROOT
BRANCH   1   2
ATOM      2  C   UNL     1     182.409 186.031 192.681  1.00  0.00     0.004 C 
BRANCH   2   3
ATOM      3  C   UNL     1     181.895 185.226 191.482  1.00  0.00    -0.003 C 
ATOM      4  C   UNL     1     182.194 185.942 190.167  1.00  0.00     0.004 C 
ENDBRANCH   2   3
ENDBRANCH   1   2
BRANCH   1   5
ATOM      5  C   UNL     1     180.337 185.127 193.758  1.00  0.00    -0.023 C 
ATOM      6  C   UNL     1     179.220 185.180 194.494  1.00  0.00     0.042 C 
BRANCH   6   7
ATOM      7  C   UNL     1     178.252 184.068 194.580  1.00  0.00     0.152 C 
ATOM      8  O   UNL     1     177.219 184.221 195.285  1.00  0.00    -0.295 OA
ATOM      9  C   UNL     1     178.454 182.767 193.861  1.00  0.00     0.093 C 
ENDBRANCH   6   7
ENDBRANCH   1   5
TORSDOF 4
ENDMDL
MODEL 6
REMARK VINA RESULT:    -3.538     10.941     13.708
REMARK INTER + INTRA:          -4.523
REMARK INTER:                  -4.369
REMARK INTRA:                  -0.154
REMARK UNBOUND:                -0.158
REMARK SMILES CCCCC=CC(C)=O
REMARK SMILES IDX 4 1 3 2 2 3 1 4 5 5 6 6 7 7 9 8 8 9
REMARK H PARENT
REMARK Flexibility Score: inf
ROOT
ATOM      1  C   UNL     1     192.841 187.908 193.979  1.00  0.00     0.027 C 
ENDROOT
BRANCH   1   2
ATOM      2  C   UNL     1     193.935 187.916 195.053  1.00  0.00     0.004 C 
BRANCH   2   3
ATOM      3  C   UNL     1     194.905 189.083 194.839  1.00  0.00    -0.003 C 
ATOM      4  C   UNL     1     194.340 190.098 193.849  1.00  0.00     0.004 C 
ENDBRANCH   2   3
ENDBRANCH   1   2
BRANCH   1   5
ATOM      5  C   UNL     1     192.079 186.614 193.988  1.00  0.00    -0.023 C 
ATOM      6  C   UNL     1     190.815 186.546 193.553  1.00  0.00     0.042 C 
BRANCH   6   7
ATOM      7  C   UNL     1     190.029 185.295 193.533  1.00  0.00     0.152 C 
ATOM      8  O   UNL     1     188.841 185.322 193.951  1.00  0.00    -0.295 OA
ATOM      9  C   UNL     1     190.594 183.999 193.035  1.00  0.00     0.093 C 
ENDBRANCH   6   7
ENDBRANCH   1   5
TORSDOF 4
ENDMDL
MODEL 7
REMARK VINA RESULT:    -3.527      1.758      2.571
REMARK INTER + INTRA:          -4.509
REMARK INTER:                  -4.362
REMARK INTRA:                  -0.146
REMARK UNBOUND:                -0.158
REMARK SMILES CCCCC=CC(C)=O
REMARK SMILES IDX 4 1 3 2 2 3 1 4 5 5 6 6 7 7 9 8 8 9
REMARK H PARENT
REMARK Flexibility Score: inf
ROOT
ATOM      1  C   UNL     1     179.957 184.852 193.968  1.00  0.00     0.027 C 
ENDROOT
BRANCH   1   2
ATOM      2  C   UNL     1     178.932 184.758 195.103  1.00  0.00     0.004 C 
BRANCH   2   3
ATOM      3  C   UNL     1     177.871 183.695 194.798  1.00  0.00    -0.003 C 
ATOM      4  C   UNL     1     178.417 182.623 193.858  1.00  0.00     0.004 C 
ENDBRANCH   2   3
ENDBRANCH   1   2
BRANCH   1   5
ATOM      5  C   UNL     1     180.663 186.177 193.980  1.00  0.00    -0.023 C 
ATOM      6  C   UNL     1     181.922 186.301 193.543  1.00  0.00     0.042 C 
BRANCH   6   7
ATOM      7  C   UNL     1     182.653 187.584 193.526  1.00  0.00     0.152 C 
ATOM      8  O   UNL     1     183.776 187.647 194.094  1.00  0.00    -0.295 OA
ATOM      9  C   UNL     1     182.108 188.811 192.857  1.00  0.00     0.093 C 
ENDBRANCH   6   7
ENDBRANCH   1   5
TORSDOF 4
ENDMDL
MODEL 8
REMARK VINA RESULT:    -3.507      2.223      5.306
REMARK INTER + INTRA:          -4.484
REMARK INTER:                  -4.321
REMARK INTRA:                  -0.164
REMARK UNBOUND:                -0.158
REMARK SMILES CCCCC=CC(C)=O
REMARK SMILES IDX 4 1 3 2 2 3 1 4 5 5 6 6 7 7 9 8 8 9
REMARK H PARENT
REMARK Flexibility Score: inf
ROOT
ATOM      1  C   UNL     1     181.157 186.625 193.678  1.00  0.00     0.027 C 
ENDROOT
BRANCH   1   2
ATOM      2  C   UNL     1     182.662 186.336 193.642  1.00  0.00     0.004 C 
BRANCH   2   3
ATOM      3  C   UNL     1     183.472 187.636 193.688  1.00  0.00    -0.003 C 
ATOM      4  C   UNL     1     182.569 188.856 193.522  1.00  0.00     0.004 C 
ENDBRANCH   2   3
ENDBRANCH   1   2
BRANCH   1   5
ATOM      5  C   UNL     1     180.366 185.367 193.889  1.00  0.00    -0.023 C 
ATOM      6  C   UNL     1     179.287 185.346 194.681  1.00  0.00     0.042 C 
BRANCH   6   7
ATOM      7  C   UNL     1     178.472 184.135 194.910  1.00  0.00     0.152 C 
ATOM      8  O   UNL     1     177.762 184.073 195.949  1.00  0.00    -0.295 OA
ATOM      9  C   UNL     1     178.458 182.981 193.953  1.00  0.00     0.093 C 
ENDBRANCH   6   7
ENDBRANCH   1   5
TORSDOF 4
ENDMDL
