MODEL 1
REMARK VINA RESULT:    -3.996      0.000      0.000
REMARK INTER + INTRA:          -9.556
REMARK INTER:                  -7.499
REMARK INTRA:                  -2.057
REMARK UNBOUND:                -2.057
REMARK SMILES CCCCCCCCC=CCCCCCCCC(=O)[O-]
REMARK SMILES IDX 10 1 9 2 11 3 12 4 13 5 14 6 15 7 16 8 17 9 18 10 19 11
REMARK SMILES IDX 20 12 8 13 7 14 6 15 5 16 4 17 3 18 2 19 1 20
REMARK H PARENT
REMARK Flexibility Score: inf
ROOT
ATOM      1  C   UNL     1      -6.521  -8.195   4.108  1.00  0.00    -0.031 C 
ATOM      2  C   UNL     1      -6.041  -7.021   3.676  1.00  0.00    -0.031 C 
ENDROOT
BRANCH   1   3
ATOM      3  C   UNL     1      -7.872  -8.306   4.762  1.00  0.00     0.027 C 
BRANCH   3   4
ATOM      4  C   UNL     1      -8.667  -6.998   4.640  1.00  0.00     0.004 C 
BRANCH   4   5
ATOM      5  C   UNL     1      -9.906  -7.091   3.727  1.00  0.00     0.000 C 
BRANCH   5   6
ATOM      6  C   UNL     1      -9.843  -8.190   2.646  1.00  0.00     0.000 C 
BRANCH   6   7
ATOM      7  C   UNL     1      -9.217  -7.752   1.309  1.00  0.00     0.000 C 
BRANCH   7   8
ATOM      8  C   UNL     1      -8.546  -8.914   0.557  1.00  0.00     0.006 C 
BRANCH   8   9
ATOM      9  C   UNL     1      -7.022  -8.755   0.488  1.00  0.00     0.053 C 
BRANCH   9  10
ATOM     10  C   UNL     1      -6.616  -7.776  -0.572  1.00  0.00     0.041 C 
ATOM     11  O   UNL     1      -7.307  -7.650  -1.617  1.00  0.00    -0.550 OA
ATOM     12  O   UNL     1      -5.454  -7.030  -0.421  1.00  0.00    -0.550 OA
ENDBRANCH   9  10
ENDBRANCH   8   9
ENDBRANCH   7   8
ENDBRANCH   6   7
ENDBRANCH   5   6
ENDBRANCH   4   5
ENDBRANCH   3   4
ENDBRANCH   1   3
BRANCH   2  13
ATOM     13  C   UNL     1      -4.686  -6.910   3.029  1.00  0.00     0.027 C 
BRANCH  13  14
ATOM     14  C   UNL     1      -4.068  -8.290   2.775  1.00  0.00     0.004 C 
BRANCH  14  15
ATOM     15  C   UNL     1      -2.560  -8.313   3.079  1.00  0.00     0.000 C 
BRANCH  15  16
ATOM     16  C   UNL     1      -2.243  -7.962   4.541  1.00  0.00     0.000 C 
BRANCH  16  17
ATOM     17  C   UNL     1      -2.921  -8.918   5.539  1.00  0.00    -0.000 C 
BRANCH  17  18
ATOM     18  C   UNL     1      -2.387  -8.751   6.971  1.00  0.00    -0.000 C 
BRANCH  18  19
ATOM     19  C   UNL     1      -0.864  -8.558   7.016  1.00  0.00    -0.003 C 
ATOM     20  C   UNL     1      -0.482  -7.430   7.970  1.00  0.00     0.004 C 
ENDBRANCH  18  19
ENDBRANCH  17  18
ENDBRANCH  16  17
ENDBRANCH  15  16
ENDBRANCH  14  15
ENDBRANCH  13  14
ENDBRANCH   2  13
TORSDOF 15
ENDMDL
MODEL 2
REMARK VINA RESULT:    -3.787      3.793      7.008
REMARK INTER + INTRA:          -9.165
REMARK INTER:                  -6.822
REMARK INTRA:                  -2.343
REMARK UNBOUND:                -2.057
REMARK SMILES CCCCCCCCC=CCCCCCCCC(=O)[O-]
REMARK SMILES IDX 10 1 9 2 11 3 12 4 13 5 14 6 15 7 16 8 17 9 18 10 19 11
REMARK SMILES IDX 20 12 8 13 7 14 6 15 5 16 4 17 3 18 2 19 1 20
REMARK H PARENT
REMARK Flexibility Score: inf
ROOT
ATOM      1  C   UNL     1      -4.710  -8.153   3.373  1.00  0.00    -0.031 C 
ATOM      2  C   UNL     1      -3.525  -7.526   3.410  1.00  0.00    -0.031 C 
ENDROOT
BRANCH   1   3
ATOM      3  C   UNL     1      -5.969  -7.495   3.869  1.00  0.00     0.027 C 
BRANCH   3   4
ATOM      4  C   UNL     1      -6.744  -8.411   4.828  1.00  0.00     0.004 C 
BRANCH   4   5
ATOM      5  C   UNL     1      -6.231  -8.385   6.282  1.00  0.00     0.000 C 
BRANCH   5   6
ATOM      6  C   UNL     1      -5.234  -9.503   6.645  1.00  0.00     0.000 C 
BRANCH   6   7
ATOM      7  C   UNL     1      -3.925  -9.022   7.297  1.00  0.00     0.000 C 
BRANCH   7   8
ATOM      8  C   UNL     1      -2.680  -9.388   6.473  1.00  0.00     0.006 C 
BRANCH   8   9
ATOM      9  C   UNL     1      -1.628  -8.272   6.488  1.00  0.00     0.053 C 
BRANCH   9  10
ATOM     10  C   UNL     1      -0.656  -8.443   7.615  1.00  0.00     0.041 C 
ATOM     11  O   UNL     1      -0.230  -7.439   8.244  1.00  0.00    -0.550 OA
ATOM     12  O   UNL     1      -0.192  -9.710   7.947  1.00  0.00    -0.550 OA
ENDBRANCH   9  10
ENDBRANCH   8   9
ENDBRANCH   7   8
ENDBRANCH   6   7
ENDBRANCH   5   6
ENDBRANCH   4   5
ENDBRANCH   3   4
ENDBRANCH   1   3
BRANCH   2  13
ATOM     13  C   UNL     1      -2.264  -8.189   2.921  1.00  0.00     0.027 C 
BRANCH  13  14
ATOM     14  C   UNL     1      -2.572  -9.380   2.007  1.00  0.00     0.004 C 
BRANCH  14  15
ATOM     15  C   UNL     1      -2.630  -8.971   0.524  1.00  0.00     0.000 C 
BRANCH  15  16
ATOM     16  C   UNL     1      -4.020  -9.183  -0.096  1.00  0.00     0.000 C 
BRANCH  16  17
ATOM     17  C   UNL     1      -4.575  -7.908  -0.754  1.00  0.00    -0.000 C 
BRANCH  17  18
ATOM     18  C   UNL     1      -5.937  -7.490  -0.176  1.00  0.00    -0.000 C 
BRANCH  18  19
ATOM     19  C   UNL     1      -6.869  -8.687   0.067  1.00  0.00    -0.003 C 
ATOM     20  C   UNL     1      -8.044  -8.294   0.958  1.00  0.00     0.004 C 
ENDBRANCH  18  19
ENDBRANCH  17  18
ENDBRANCH  16  17
ENDBRANCH  15  16
ENDBRANCH  14  15
ENDBRANCH  13  14
ENDBRANCH   2  13
TORSDOF 15
ENDMDL
MODEL 3
REMARK VINA RESULT:    -3.786      1.899      5.995
REMARK INTER + INTRA:          -9.163
REMARK INTER:                  -6.955
REMARK INTRA:                  -2.209
REMARK UNBOUND:                -2.057
REMARK SMILES CCCCCCCCC=CCCCCCCCC(=O)[O-]
REMARK SMILES IDX 10 1 9 2 11 3 12 4 13 5 14 6 15 7 16 8 17 9 18 10 19 11
REMARK SMILES IDX 20 12 8 13 7 14 6 15 5 16 4 17 3 18 2 19 1 20
REMARK H PARENT
REMARK Flexibility Score: inf
ROOT
ATOM      1  C   UNL     1      -3.535  -8.066   3.711  1.00  0.00    -0.031 C 
ATOM      2  C   UNL     1      -4.291  -7.013   3.370  1.00  0.00    -0.031 C 
ENDROOT
BRANCH   1   3
ATOM      3  C   UNL     1      -2.041  -8.062   3.524  1.00  0.00     0.027 C 
BRANCH   3   4
ATOM      4  C   UNL     1      -1.649  -8.510   2.107  1.00  0.00     0.004 C 
BRANCH   4   5
ATOM      5  C   UNL     1      -2.637  -9.501   1.460  1.00  0.00     0.000 C 
BRANCH   5   6
ATOM      6  C   UNL     1      -3.310  -9.004   0.165  1.00  0.00     0.000 C 
BRANCH   6   7
ATOM      7  C   UNL     1      -4.838  -8.830   0.251  1.00  0.00     0.000 C 
BRANCH   7   8
ATOM      8  C   UNL     1      -5.299  -7.418  -0.146  1.00  0.00     0.006 C 
BRANCH   8   9
ATOM      9  C   UNL     1      -5.028  -7.115  -1.625  1.00  0.00     0.053 C 
BRANCH   9  10
ATOM     10  C   UNL     1      -6.299  -6.892  -2.386  1.00  0.00     0.041 C 
ATOM     11  O   UNL     1      -6.486  -7.467  -3.491  1.00  0.00    -0.550 OA
ATOM     12  O   UNL     1      -7.261  -6.021  -1.892  1.00  0.00    -0.550 OA
ENDBRANCH   9  10
ENDBRANCH   8   9
ENDBRANCH   7   8
ENDBRANCH   6   7
ENDBRANCH   5   6
ENDBRANCH   4   5
ENDBRANCH   3   4
ENDBRANCH   1   3
BRANCH   2  13
ATOM     13  C   UNL     1      -5.786  -7.021   3.550  1.00  0.00     0.027 C 
BRANCH  13  14
ATOM     14  C   UNL     1      -6.226  -8.089   4.559  1.00  0.00     0.004 C 
BRANCH  14  15
ATOM     15  C   UNL     1      -7.747  -8.320   4.530  1.00  0.00     0.000 C 
BRANCH  15  16
ATOM     16  C   UNL     1      -8.538  -7.030   4.264  1.00  0.00     0.000 C 
BRANCH  16  17
ATOM     17  C   UNL     1      -9.755  -7.260   3.350  1.00  0.00    -0.000 C 
BRANCH  17  18
ATOM     18  C   UNL     1      -9.512  -8.369   2.314  1.00  0.00    -0.000 C 
BRANCH  18  19
ATOM     19  C   UNL     1      -8.883  -7.840   1.016  1.00  0.00    -0.003 C 
ATOM     20  C   UNL     1      -8.655  -8.971   0.017  1.00  0.00     0.004 C 
ENDBRANCH  18  19
ENDBRANCH  17  18
ENDBRANCH  16  17
ENDBRANCH  15  16
ENDBRANCH  14  15
ENDBRANCH  13  14
ENDBRANCH   2  13
TORSDOF 15
ENDMDL
MODEL 4
REMARK VINA RESULT:    -3.783      3.877      7.913
REMARK INTER + INTRA:          -9.158
REMARK INTER:                  -7.522
REMARK INTRA:                  -1.636
REMARK UNBOUND:                -2.057
REMARK SMILES CCCCCCCCC=CCCCCCCCC(=O)[O-]
REMARK SMILES IDX 10 1 9 2 11 3 12 4 13 5 14 6 15 7 16 8 17 9 18 10 19 11
REMARK SMILES IDX 20 12 8 13 7 14 6 15 5 16 4 17 3 18 2 19 1 20
REMARK H PARENT
REMARK Flexibility Score: inf
ROOT
ATOM      1  C   UNL     1      -4.417  -7.977   2.480  1.00  0.00    -0.031 C 
ATOM      2  C   UNL     1      -5.511  -7.462   1.902  1.00  0.00    -0.031 C 
ENDROOT
BRANCH   1   3
ATOM      3  C   UNL     1      -3.714  -7.276   3.612  1.00  0.00     0.027 C 
BRANCH   3   4
ATOM      4  C   UNL     1      -2.261  -7.752   3.755  1.00  0.00     0.004 C 
BRANCH   4   5
ATOM      5  C   UNL     1      -1.886  -8.226   5.173  1.00  0.00     0.000 C 
BRANCH   5   6
ATOM      6  C   UNL     1      -2.988  -9.009   5.916  1.00  0.00     0.000 C 
BRANCH   6   7
ATOM      7  C   UNL     1      -2.968  -8.865   7.448  1.00  0.00     0.000 C 
BRANCH   7   8
ATOM      8  C   UNL     1      -1.665  -8.236   7.971  1.00  0.00     0.006 C 
BRANCH   8   9
ATOM      9  C   UNL     1      -1.930  -7.051   8.909  1.00  0.00     0.053 C 
BRANCH   9  10
ATOM     10  C   UNL     1      -0.766  -6.110   8.953  1.00  0.00     0.041 C 
ATOM     11  O   UNL     1       0.385  -6.509   8.637  1.00  0.00    -0.550 OA
ATOM     12  O   UNL     1      -0.948  -4.799   9.378  1.00  0.00    -0.550 OA
ENDBRANCH   9  10
ENDBRANCH   8   9
ENDBRANCH   7   8
ENDBRANCH   6   7
ENDBRANCH   5   6
ENDBRANCH   4   5
ENDBRANCH   3   4
ENDBRANCH   1   3
BRANCH   2  13
ATOM     13  C   UNL     1      -6.209  -8.160   0.765  1.00  0.00     0.027 C 
BRANCH  13  14
ATOM     14  C   UNL     1      -7.387  -9.006   1.262  1.00  0.00     0.004 C 
BRANCH  14  15
ATOM     15  C   UNL     1      -8.744  -8.397   0.865  1.00  0.00     0.000 C 
BRANCH  15  16
ATOM     16  C   UNL     1      -9.315  -7.466   1.945  1.00  0.00     0.000 C 
BRANCH  16  17
ATOM     17  C   UNL     1     -10.125  -8.224   3.012  1.00  0.00    -0.000 C 
BRANCH  17  18
ATOM     18  C   UNL     1      -9.629  -7.942   4.440  1.00  0.00    -0.000 C 
BRANCH  18  19
ATOM     19  C   UNL     1      -8.262  -7.241   4.464  1.00  0.00    -0.003 C 
ATOM     20  C   UNL     1      -7.183  -8.165   5.020  1.00  0.00     0.004 C 
ENDBRANCH  18  19
ENDBRANCH  17  18
ENDBRANCH  16  17
ENDBRANCH  15  16
ENDBRANCH  14  15
ENDBRANCH  13  14
ENDBRANCH   2  13
TORSDOF 15
ENDMDL
MODEL 5
REMARK VINA RESULT:    -3.762      3.519      7.922
REMARK INTER + INTRA:          -9.118
REMARK INTER:                  -7.392
REMARK INTRA:                  -1.726
REMARK UNBOUND:                -2.057
REMARK SMILES CCCCCCCCC=CCCCCCCCC(=O)[O-]
REMARK SMILES IDX 10 1 9 2 11 3 12 4 13 5 14 6 15 7 16 8 17 9 18 10 19 11
REMARK SMILES IDX 20 12 8 13 7 14 6 15 5 16 4 17 3 18 2 19 1 20
REMARK H PARENT
REMARK Flexibility Score: inf
ROOT
ATOM      1  C   UNL     1      -6.010  -6.949   3.754  1.00  0.00    -0.031 C 
ATOM      2  C   UNL     1      -6.580  -8.095   4.154  1.00  0.00    -0.031 C 
ENDROOT
BRANCH   1   3
ATOM      3  C   UNL     1      -4.718  -6.934   2.982  1.00  0.00     0.027 C 
BRANCH   3   4
ATOM      4  C   UNL     1      -4.132  -8.347   2.838  1.00  0.00     0.004 C 
BRANCH   4   5
ATOM      5  C   UNL     1      -2.615  -8.433   3.105  1.00  0.00     0.000 C 
BRANCH   5   6
ATOM      6  C   UNL     1      -2.178  -8.049   4.533  1.00  0.00     0.000 C 
BRANCH   6   7
ATOM      7  C   UNL     1      -2.934  -8.774   5.662  1.00  0.00     0.000 C 
BRANCH   7   8
ATOM      8  C   UNL     1      -2.038  -9.088   6.872  1.00  0.00     0.006 C 
BRANCH   8   9
ATOM      9  C   UNL     1      -0.824  -8.152   6.951  1.00  0.00     0.053 C 
BRANCH   9  10
ATOM     10  C   UNL     1      -0.849  -7.318   8.195  1.00  0.00     0.041 C 
ATOM     11  O   UNL     1       0.177  -6.682   8.553  1.00  0.00    -0.550 OA
ATOM     12  O   UNL     1      -1.995  -7.272   8.979  1.00  0.00    -0.550 OA
ENDBRANCH   9  10
ENDBRANCH   8   9
ENDBRANCH   7   8
ENDBRANCH   6   7
ENDBRANCH   5   6
ENDBRANCH   4   5
ENDBRANCH   3   4
ENDBRANCH   1   3
BRANCH   2  13
ATOM     13  C   UNL     1      -7.868  -8.108   4.933  1.00  0.00     0.027 C 
BRANCH  13  14
ATOM     14  C   UNL     1      -9.046  -7.617   4.082  1.00  0.00     0.004 C 
BRANCH  14  15
ATOM     15  C   UNL     1      -9.312  -8.537   2.878  1.00  0.00     0.000 C 
BRANCH  15  16
ATOM     16  C   UNL     1      -9.301  -7.782   1.540  1.00  0.00     0.000 C 
BRANCH  16  17
ATOM     17  C   UNL     1      -8.071  -8.120   0.681  1.00  0.00    -0.000 C 
BRANCH  17  18
ATOM     18  C   UNL     1      -8.223  -7.655  -0.777  1.00  0.00    -0.000 C 
BRANCH  18  19
ATOM     19  C   UNL     1      -6.878  -7.299  -1.428  1.00  0.00    -0.003 C 
ATOM     20  C   UNL     1      -5.728  -7.466  -0.439  1.00  0.00     0.004 C 
ENDBRANCH  18  19
ENDBRANCH  17  18
ENDBRANCH  16  17
ENDBRANCH  15  16
ENDBRANCH  14  15
ENDBRANCH  13  14
ENDBRANCH   2  13
TORSDOF 15
ENDMDL
MODEL 6
REMARK VINA RESULT:    -3.729      1.815      3.363
REMARK INTER + INTRA:          -9.056
REMARK INTER:                  -6.974
REMARK INTRA:                  -2.082
REMARK UNBOUND:                -2.057
REMARK SMILES CCCCCCCCC=CCCCCCCCC(=O)[O-]
REMARK SMILES IDX 10 1 9 2 11 3 12 4 13 5 14 6 15 7 16 8 17 9 18 10 19 11
REMARK SMILES IDX 20 12 8 13 7 14 6 15 5 16 4 17 3 18 2 19 1 20
REMARK H PARENT
REMARK Flexibility Score: inf
ROOT
ATOM      1  C   UNL     1      -7.609  -7.757   4.499  1.00  0.00    -0.031 C 
ATOM      2  C   UNL     1      -6.466  -7.254   4.011  1.00  0.00    -0.031 C 
ENDROOT
BRANCH   1   3
ATOM      3  C   UNL     1      -8.912  -7.013   4.386  1.00  0.00     0.027 C 
BRANCH   3   4
ATOM      4  C   UNL     1      -9.617  -7.310   3.054  1.00  0.00     0.004 C 
BRANCH   4   5
ATOM      5  C   UNL     1      -9.730  -8.810   2.716  1.00  0.00     0.000 C 
BRANCH   5   6
ATOM      6  C   UNL     1      -9.039  -9.241   1.407  1.00  0.00     0.000 C 
BRANCH   6   7
ATOM      7  C   UNL     1      -8.078  -8.200   0.805  1.00  0.00     0.000 C 
BRANCH   7   8
ATOM      8  C   UNL     1      -6.647  -8.738   0.636  1.00  0.00     0.006 C 
BRANCH   8   9
ATOM      9  C   UNL     1      -5.659  -7.636   0.232  1.00  0.00     0.053 C 
BRANCH   9  10
ATOM     10  C   UNL     1      -5.889  -7.176  -1.175  1.00  0.00     0.041 C 
ATOM     11  O   UNL     1      -6.101  -8.014  -2.090  1.00  0.00    -0.550 OA
ATOM     12  O   UNL     1      -5.833  -5.822  -1.481  1.00  0.00    -0.550 OA
ENDBRANCH   9  10
ENDBRANCH   8   9
ENDBRANCH   7   8
ENDBRANCH   6   7
ENDBRANCH   5   6
ENDBRANCH   4   5
ENDBRANCH   3   4
ENDBRANCH   1   3
BRANCH   2  13
ATOM     13  C   UNL     1      -5.161  -7.995   4.132  1.00  0.00     0.027 C 
BRANCH  13  14
ATOM     14  C   UNL     1      -4.035  -7.281   3.375  1.00  0.00     0.004 C 
BRANCH  14  15
ATOM     15  C   UNL     1      -2.642  -7.750   3.832  1.00  0.00     0.000 C 
BRANCH  15  16
ATOM     16  C   UNL     1      -1.820  -8.367   2.689  1.00  0.00     0.000 C 
BRANCH  16  17
ATOM     17  C   UNL     1      -2.619  -9.399   1.875  1.00  0.00    -0.000 C 
BRANCH  17  18
ATOM     18  C   UNL     1      -2.128  -9.512   0.422  1.00  0.00    -0.000 C 
BRANCH  18  19
ATOM     19  C   UNL     1      -0.841  -8.714   0.168  1.00  0.00    -0.003 C 
ATOM     20  C   UNL     1      -0.932  -7.928  -1.137  1.00  0.00     0.004 C 
ENDBRANCH  18  19
ENDBRANCH  17  18
ENDBRANCH  16  17
ENDBRANCH  15  16
ENDBRANCH  14  15
ENDBRANCH  13  14
ENDBRANCH   2  13
TORSDOF 15
ENDMDL
MODEL 7
REMARK VINA RESULT:    -3.711     13.637     16.287
REMARK INTER + INTRA:          -9.023
REMARK INTER:                  -6.113
REMARK INTRA:                  -2.909
REMARK UNBOUND:                -2.057
REMARK SMILES CCCCCCCCC=CCCCCCCCC(=O)[O-]
REMARK SMILES IDX 10 1 9 2 11 3 12 4 13 5 14 6 15 7 16 8 17 9 18 10 19 11
REMARK SMILES IDX 20 12 8 13 7 14 6 15 5 16 4 17 3 18 2 19 1 20
REMARK H PARENT
REMARK Flexibility Score: inf
ROOT
ATOM      1  C   UNL     1       7.669  -6.754  -7.200  1.00  0.00    -0.031 C 
ATOM      2  C   UNL     1       6.610  -6.650  -6.385  1.00  0.00    -0.031 C 
ENDROOT
BRANCH   1   3
ATOM      3  C   UNL     1       7.971  -5.712  -8.243  1.00  0.00     0.027 C 
BRANCH   3   4
ATOM      4  C   UNL     1       6.893  -5.679  -9.336  1.00  0.00     0.004 C 
BRANCH   4   5
ATOM      5  C   UNL     1       6.430  -4.261  -9.726  1.00  0.00     0.000 C 
BRANCH   5   6
ATOM      6  C   UNL     1       4.973  -3.921  -9.352  1.00  0.00     0.000 C 
BRANCH   6   7
ATOM      7  C   UNL     1       4.181  -5.073  -8.707  1.00  0.00     0.000 C 
BRANCH   7   8
ATOM      8  C   UNL     1       2.678  -5.018  -9.031  1.00  0.00     0.006 C 
BRANCH   8   9
ATOM      9  C   UNL     1       1.809  -5.262  -7.791  1.00  0.00     0.053 C 
BRANCH   9  10
ATOM     10  C   UNL     1       1.141  -4.004  -7.327  1.00  0.00     0.041 C 
ATOM     11  O   UNL     1       0.038  -4.057  -6.723  1.00  0.00    -0.550 OA
ATOM     12  O   UNL     1       1.720  -2.769  -7.596  1.00  0.00    -0.550 OA
ENDBRANCH   9  10
ENDBRANCH   8   9
ENDBRANCH   7   8
ENDBRANCH   6   7
ENDBRANCH   5   6
ENDBRANCH   4   5
ENDBRANCH   3   4
ENDBRANCH   1   3
BRANCH   2  13
ATOM     13  C   UNL     1       6.304  -7.697  -5.347  1.00  0.00     0.027 C 
BRANCH  13  14
ATOM     14  C   UNL     1       5.330  -8.753  -5.882  1.00  0.00     0.004 C 
BRANCH  14  15
ATOM     15  C   UNL     1       4.197  -8.127  -6.714  1.00  0.00     0.000 C 
BRANCH  15  16
ATOM     16  C   UNL     1       4.083  -8.739  -8.119  1.00  0.00     0.000 C 
BRANCH  16  17
ATOM     17  C   UNL     1       5.255  -9.681  -8.450  1.00  0.00    -0.000 C 
BRANCH  17  18
ATOM     18  C   UNL     1       6.073  -9.201  -9.659  1.00  0.00    -0.000 C 
BRANCH  18  19
ATOM     19  C   UNL     1       7.558  -9.582  -9.558  1.00  0.00    -0.003 C 
ATOM     20  C   UNL     1       7.855 -10.284  -8.236  1.00  0.00     0.004 C 
ENDBRANCH  18  19
ENDBRANCH  17  18
ENDBRANCH  16  17
ENDBRANCH  15  16
ENDBRANCH  14  15
ENDBRANCH  13  14
ENDBRANCH   2  13
TORSDOF 15
ENDMDL
MODEL 8
REMARK VINA RESULT:    -3.696      3.653      7.854
REMARK INTER + INTRA:          -8.995
REMARK INTER:                  -6.808
REMARK INTRA:                  -2.187
REMARK UNBOUND:                -2.057
REMARK SMILES CCCCCCCCC=CCCCCCCCC(=O)[O-]
REMARK SMILES IDX 10 1 9 2 11 3 12 4 13 5 14 6 15 7 16 8 17 9 18 10 19 11
REMARK SMILES IDX 20 12 8 13 7 14 6 15 5 16 4 17 3 18 2 19 1 20
REMARK H PARENT
REMARK Flexibility Score: inf
ROOT
ATOM      1  C   UNL     1      -5.974  -7.113   3.722  1.00  0.00    -0.031 C 
ATOM      2  C   UNL     1      -6.464  -8.195   4.343  1.00  0.00    -0.031 C 
ENDROOT
BRANCH   1   3
ATOM      3  C   UNL     1      -4.951  -7.226   2.623  1.00  0.00     0.027 C 
BRANCH   3   4
ATOM      4  C   UNL     1      -3.907  -8.309   2.934  1.00  0.00     0.004 C 
BRANCH   4   5
ATOM      5  C   UNL     1      -2.587  -7.767   3.518  1.00  0.00     0.000 C 
BRANCH   5   6
ATOM      6  C   UNL     1      -2.268  -8.227   4.955  1.00  0.00     0.000 C 
BRANCH   6   7
ATOM      7  C   UNL     1      -3.193  -9.327   5.507  1.00  0.00     0.000 C 
BRANCH   7   8
ATOM      8  C   UNL     1      -3.728  -9.004   6.913  1.00  0.00     0.006 C 
BRANCH   8   9
ATOM      9  C   UNL     1      -3.063  -9.865   7.995  1.00  0.00     0.053 C 
BRANCH   9  10
ATOM     10  C   UNL     1      -1.793  -9.246   8.491  1.00  0.00     0.041 C 
ATOM     11  O   UNL     1      -0.679  -9.674   8.090  1.00  0.00    -0.550 OA
ATOM     12  O   UNL     1      -1.838  -8.218   9.425  1.00  0.00    -0.550 OA
ENDBRANCH   9  10
ENDBRANCH   8   9
ENDBRANCH   7   8
ENDBRANCH   6   7
ENDBRANCH   5   6
ENDBRANCH   4   5
ENDBRANCH   3   4
ENDBRANCH   1   3
BRANCH   2  13
ATOM     13  C   UNL     1      -7.481  -8.080   5.448  1.00  0.00     0.027 C 
BRANCH  13  14
ATOM     14  C   UNL     1      -8.906  -8.291   4.925  1.00  0.00     0.004 C 
BRANCH  14  15
ATOM     15  C   UNL     1      -9.447  -7.046   4.200  1.00  0.00     0.000 C 
BRANCH  15  16
ATOM     16  C   UNL     1      -9.742  -7.306   2.714  1.00  0.00     0.000 C 
BRANCH  16  17
ATOM     17  C   UNL     1      -9.799  -8.807   2.377  1.00  0.00    -0.000 C 
BRANCH  17  18
ATOM     18  C   UNL     1      -8.662  -9.244   1.439  1.00  0.00    -0.000 C 
BRANCH  18  19
ATOM     19  C   UNL     1      -8.067  -8.072   0.644  1.00  0.00    -0.003 C 
ATOM     20  C   UNL     1      -8.679  -7.988  -0.751  1.00  0.00     0.004 C 
ENDBRANCH  18  19
ENDBRANCH  17  18
ENDBRANCH  16  17
ENDBRANCH  15  16
ENDBRANCH  14  15
ENDBRANCH  13  14
ENDBRANCH   2  13
TORSDOF 15
ENDMDL
MODEL 9
REMARK VINA RESULT:    -3.654     13.764     16.440
REMARK INTER + INTRA:          -8.916
REMARK INTER:                  -6.071
REMARK INTRA:                  -2.845
REMARK UNBOUND:                -2.057
REMARK SMILES CCCCCCCCC=CCCCCCCCC(=O)[O-]
REMARK SMILES IDX 10 1 9 2 11 3 12 4 13 5 14 6 15 7 16 8 17 9 18 10 19 11
REMARK SMILES IDX 20 12 8 13 7 14 6 15 5 16 4 17 3 18 2 19 1 20
REMARK H PARENT
REMARK Flexibility Score: inf
ROOT
ATOM      1  C   UNL     1       7.575  -6.712  -7.299  1.00  0.00    -0.031 C 
ATOM      2  C   UNL     1       6.499  -6.727  -6.499  1.00  0.00    -0.031 C 
ENDROOT
BRANCH   1   3
ATOM      3  C   UNL     1       7.866  -5.552  -8.212  1.00  0.00     0.027 C 
BRANCH   3   4
ATOM      4  C   UNL     1       6.966  -5.572  -9.456  1.00  0.00     0.004 C 
BRANCH   4   5
ATOM      5  C   UNL     1       6.396  -4.194  -9.848  1.00  0.00     0.000 C 
BRANCH   5   6
ATOM      6  C   UNL     1       4.857  -4.090  -9.824  1.00  0.00     0.000 C 
BRANCH   6   7
ATOM      7  C   UNL     1       4.121  -5.401  -9.493  1.00  0.00     0.000 C 
BRANCH   7   8
ATOM      8  C   UNL     1       3.432  -5.366  -8.119  1.00  0.00     0.006 C 
BRANCH   8   9
ATOM      9  C   UNL     1       2.012  -5.945  -8.169  1.00  0.00     0.053 C 
BRANCH   9  10
ATOM     10  C   UNL     1       1.075  -5.191  -7.277  1.00  0.00     0.041 C 
ATOM     11  O   UNL     1       0.170  -5.799  -6.647  1.00  0.00    -0.550 OA
ATOM     12  O   UNL     1       1.178  -3.809  -7.169  1.00  0.00    -0.550 OA
ENDBRANCH   9  10
ENDBRANCH   8   9
ENDBRANCH   7   8
ENDBRANCH   6   7
ENDBRANCH   5   6
ENDBRANCH   4   5
ENDBRANCH   3   4
ENDBRANCH   1   3
BRANCH   2  13
ATOM     13  C   UNL     1       6.204  -7.893  -5.592  1.00  0.00     0.027 C 
BRANCH  13  14
ATOM     14  C   UNL     1       7.419  -8.818  -5.451  1.00  0.00     0.004 C 
BRANCH  14  15
ATOM     15  C   UNL     1       7.171 -10.198  -6.085  1.00  0.00     0.000 C 
BRANCH  15  16
ATOM     16  C   UNL     1       7.848 -10.352  -7.456  1.00  0.00     0.000 C 
BRANCH  16  17
ATOM     17  C   UNL     1       6.836 -10.572  -8.594  1.00  0.00    -0.000 C 
BRANCH  17  18
ATOM     18  C   UNL     1       6.757  -9.372  -9.552  1.00  0.00    -0.000 C 
BRANCH  18  19
ATOM     19  C   UNL     1       5.311  -8.951  -9.855  1.00  0.00    -0.003 C 
ATOM     20  C   UNL     1       4.441  -9.037  -8.604  1.00  0.00     0.004 C 
ENDBRANCH  18  19
ENDBRANCH  17  18
ENDBRANCH  16  17
ENDBRANCH  15  16
ENDBRANCH  14  15
ENDBRANCH  13  14
ENDBRANCH   2  13
TORSDOF 15
ENDMDL
