MODEL 1
REMARK VINA RESULT:    -3.665      0.000      0.000
REMARK INTER + INTRA:          -3.682
REMARK INTER:                  -4.522
REMARK INTRA:                   0.840
REMARK UNBOUND:                 0.840
REMARK SMILES CC1=CC=CC(C)(C)CC1=O
REMARK SMILES IDX 1 1 2 2 3 3 10 4 11 5 9 6 4 8 5 9 6 10 7 11 8 12
REMARK H PARENT
REMARK Flexibility Score: 80.00
ROOT
ATOM      1  C   UNL     1     254.845 260.801 247.824  1.00  0.00     0.048 C 
ATOM      2  C   UNL     1     256.208 260.934 247.186  1.00  0.00    -0.008 C 
ATOM      3  C   UNL     1     256.263 261.132 245.851  1.00  0.00     0.007 C 
ENDROOT
BRANCH   2   4
ATOM      4  C   UNL     1     257.383 260.779 248.083  1.00  0.00     0.159 C 
ATOM      5  O   UNL     1     257.184 260.642 249.322  1.00  0.00    -0.295 OA
BRANCH   4   6
ATOM      6  C   UNL     1     258.806 260.734 247.606  1.00  0.00     0.091 CG0
ATOM      7  G   UNL     1     259.200 261.920 246.698  1.00  0.00     0.000 G0
ENDBRANCH   4   6
ENDBRANCH   2   4
BRANCH   3   8
ATOM      8  C   UNL     1     257.438 261.307 244.967  1.00  0.00    -0.003 C 
ATOM      9  C   UNL     1     258.683 261.672 245.297  1.00  0.00    -0.020 C 
BRANCH   9  10
ATOM     10  C   UNL     1     259.196 261.928 246.693  1.00  0.00    -0.010 CG0
ATOM     11  C   UNL     1     258.685 263.292 247.210  1.00  0.00     0.016 C 
ATOM     12  C   UNL     1     260.740 261.988 246.638  1.00  0.00     0.016 C 
ATOM     13  G   UNL     1     258.794 260.753 247.612  1.00  0.00     0.000 G0
ENDBRANCH   9  10
ENDBRANCH   3   8
TORSDOF 0
ENDMDL
MODEL 2
REMARK VINA RESULT:    -3.632      1.977      3.147
REMARK INTER + INTRA:          -3.641
REMARK INTER:                  -4.490
REMARK INTRA:                   0.849
REMARK UNBOUND:                 0.840
REMARK SMILES CC1=CC=CC(C)(C)CC1=O
REMARK SMILES IDX 1 1 2 2 3 3 10 4 11 5 9 6 4 8 5 9 6 10 7 11 8 12
REMARK H PARENT
REMARK Flexibility Score: 80.00
ROOT
ATOM      1  C   UNL     1     257.503 261.300 244.636  1.00  0.00     0.048 C 
ATOM      2  C   UNL     1     257.676 261.533 246.119  1.00  0.00    -0.008 C 
ATOM      3  C   UNL     1     256.788 260.955 246.957  1.00  0.00     0.007 C 
ENDROOT
BRANCH   2   4
ATOM      4  C   UNL     1     258.787 262.433 246.528  1.00  0.00     0.159 C 
ATOM      5  O   UNL     1     259.578 262.858 245.642  1.00  0.00    -0.295 OA
BRANCH   4   6
ATOM      6  C   UNL     1     259.010 262.908 247.934  1.00  0.00     0.091 CG0
ATOM      7  G   UNL     1     259.077 261.771 248.977  1.00  0.00     0.000 G0
ENDBRANCH   4   6
ENDBRANCH   2   4
BRANCH   3   8
ATOM      8  C   UNL     1     256.714 260.998 248.434  1.00  0.00    -0.003 C 
ATOM      9  C   UNL     1     257.678 261.309 249.309  1.00  0.00    -0.020 C 
BRANCH   9  10
ATOM     10  C   UNL     1     259.076 261.765 248.970  1.00  0.00    -0.010 CG0
ATOM     11  C   UNL     1     259.931 260.567 248.496  1.00  0.00     0.016 C 
ATOM     12  C   UNL     1     259.725 262.335 250.253  1.00  0.00     0.016 C 
ATOM     13  G   UNL     1     259.006 262.900 247.923  1.00  0.00     0.000 G0
ENDBRANCH   9  10
ENDBRANCH   3   8
TORSDOF 0
ENDMDL
MODEL 3
REMARK VINA RESULT:    -3.589      9.608     10.566
REMARK INTER + INTRA:          -3.588
REMARK INTER:                  -4.416
REMARK INTRA:                   0.828
REMARK UNBOUND:                 0.840
REMARK SMILES CC1=CC=CC(C)(C)CC1=O
REMARK SMILES IDX 1 1 2 2 3 3 10 4 11 5 9 6 4 8 5 9 6 10 7 11 8 12
REMARK H PARENT
REMARK Flexibility Score: 80.00
ROOT
ATOM      1  C   UNL     1     246.971 258.980 244.830  1.00  0.00     0.048 C 
ATOM      2  C   UNL     1     247.528 257.915 245.746  1.00  0.00    -0.008 C 
ATOM      3  C   UNL     1     246.875 256.734 245.811  1.00  0.00     0.007 C 
ENDROOT
BRANCH   2   4
ATOM      4  C   UNL     1     248.726 258.282 246.546  1.00  0.00     0.159 C 
ATOM      5  O   UNL     1     249.250 259.416 246.365  1.00  0.00    -0.295 OA
BRANCH   4   6
ATOM      6  C   UNL     1     249.339 257.402 247.596  1.00  0.00     0.091 CG0
ATOM      7  G   UNL     1     249.625 255.961 247.117  1.00  0.00     0.000 G0
ENDBRANCH   4   6
ENDBRANCH   2   4
BRANCH   3   8
ATOM      8  C   UNL     1     247.188 255.521 246.600  1.00  0.00    -0.003 C 
ATOM      9  C   UNL     1     248.356 255.158 247.144  1.00  0.00    -0.020 C 
BRANCH   9  10
ATOM     10  C   UNL     1     249.634 255.962 247.130  1.00  0.00    -0.010 CG0
ATOM     11  C   UNL     1     250.303 255.881 245.739  1.00  0.00     0.016 C 
ATOM     12  C   UNL     1     250.605 255.344 248.162  1.00  0.00     0.016 C 
ATOM     13  G   UNL     1     249.332 257.414 247.564  1.00  0.00     0.000 G0
ENDBRANCH   9  10
ENDBRANCH   3   8
TORSDOF 0
ENDMDL
MODEL 4
REMARK VINA RESULT:    -3.521      2.082      2.657
REMARK INTER + INTRA:          -3.505
REMARK INTER:                  -4.355
REMARK INTRA:                   0.850
REMARK UNBOUND:                 0.840
REMARK SMILES CC1=CC=CC(C)(C)CC1=O
REMARK SMILES IDX 1 1 2 2 3 3 10 4 11 5 9 6 4 8 5 9 6 10 7 11 8 12
REMARK H PARENT
REMARK Flexibility Score: 80.00
ROOT
ATOM      1  C   UNL     1     256.645 262.340 251.473  1.00  0.00     0.048 C 
ATOM      2  C   UNL     1     257.421 261.841 250.276  1.00  0.00    -0.008 C 
ATOM      3  C   UNL     1     256.746 261.158 249.326  1.00  0.00     0.007 C 
ENDROOT
BRANCH   2   4
ATOM      4  C   UNL     1     258.885 262.100 250.274  1.00  0.00     0.159 C 
ATOM      5  O   UNL     1     259.379 262.787 251.211  1.00  0.00    -0.295 OA
BRANCH   4   6
ATOM      6  C   UNL     1     259.833 261.560 249.244  1.00  0.00     0.091 CG0
ATOM      7  G   UNL     1     259.403 261.841 247.787  1.00  0.00     0.000 G0
ENDBRANCH   4   6
ENDBRANCH   2   4
BRANCH   3   8
ATOM      8  C   UNL     1     257.231 260.568 248.059  1.00  0.00    -0.003 C 
ATOM      9  C   UNL     1     258.341 260.863 247.372  1.00  0.00    -0.020 C 
BRANCH   9  10
ATOM     10  C   UNL     1     259.411 261.845 247.787  1.00  0.00    -0.010 CG0
ATOM     11  C   UNL     1     258.916 263.295 247.578  1.00  0.00     0.016 C 
ATOM     12  C   UNL     1     260.645 261.629 246.881  1.00  0.00     0.016 C 
ATOM     13  G   UNL     1     259.831 261.562 249.246  1.00  0.00     0.000 G0
ENDBRANCH   9  10
ENDBRANCH   3   8
TORSDOF 0
ENDMDL
MODEL 5
REMARK VINA RESULT:    -3.408      6.582      9.048
REMARK INTER + INTRA:          -3.365
REMARK INTER:                  -4.223
REMARK INTRA:                   0.858
REMARK UNBOUND:                 0.840
REMARK SMILES CC1=CC=CC(C)(C)CC1=O
REMARK SMILES IDX 1 1 2 2 3 3 10 4 11 5 9 6 4 8 5 9 6 10 7 11 8 12
REMARK H PARENT
REMARK Flexibility Score: 80.00
ROOT
ATOM      1  C   UNL     1     253.781 258.397 247.026  1.00  0.00     0.048 C 
ATOM      2  C   UNL     1     252.333 258.075 247.317  1.00  0.00    -0.008 C 
ATOM      3  C   UNL     1     251.409 259.023 247.050  1.00  0.00     0.007 C 
ENDROOT
BRANCH   2   4
ATOM      4  C   UNL     1     252.055 256.748 247.928  1.00  0.00     0.159 C 
ATOM      5  O   UNL     1     253.007 255.931 248.061  1.00  0.00    -0.295 OA
BRANCH   4   6
ATOM      6  C   UNL     1     250.709 256.324 248.442  1.00  0.00     0.091 CG0
ATOM      7  G   UNL     1     249.569 256.471 247.409  1.00  0.00     0.000 G0
ENDBRANCH   4   6
ENDBRANCH   2   4
BRANCH   3   8
ATOM      8  C   UNL     1     249.940 258.987 247.220  1.00  0.00    -0.003 C 
ATOM      9  C   UNL     1     249.139 257.922 247.338  1.00  0.00    -0.020 C 
BRANCH   9  10
ATOM     10  C   UNL     1     249.579 256.478 247.397  1.00  0.00    -0.010 CG0
ATOM     11  C   UNL     1     249.993 255.987 245.990  1.00  0.00     0.016 C 
ATOM     12  C   UNL     1     248.378 255.624 247.864  1.00  0.00     0.016 C 
ATOM     13  G   UNL     1     250.710 256.328 248.438  1.00  0.00     0.000 G0
ENDBRANCH   9  10
ENDBRANCH   3   8
TORSDOF 0
ENDMDL
MODEL 6
REMARK VINA RESULT:    -3.386      7.079      8.528
REMARK INTER + INTRA:          -3.338
REMARK INTER:                  -4.190
REMARK INTRA:                   0.851
REMARK UNBOUND:                 0.840
REMARK SMILES CC1=CC=CC(C)(C)CC1=O
REMARK SMILES IDX 1 1 2 2 3 3 10 4 11 5 9 6 4 8 5 9 6 10 7 11 8 12
REMARK H PARENT
REMARK Flexibility Score: 80.00
ROOT
ATOM      1  C   UNL     1     250.032 259.817 247.191  1.00  0.00     0.048 C 
ATOM      2  C   UNL     1     250.854 258.577 246.925  1.00  0.00    -0.008 C 
ATOM      3  C   UNL     1     252.199 258.699 246.926  1.00  0.00     0.007 C 
ENDROOT
BRANCH   2   4
ATOM      4  C   UNL     1     250.102 257.329 246.629  1.00  0.00     0.159 C 
ATOM      5  O   UNL     1     248.842 257.353 246.692  1.00  0.00    -0.295 OA
BRANCH   4   6
ATOM      6  C   UNL     1     250.745 256.038 246.216  1.00  0.00     0.091 CG0
ATOM      7  G   UNL     1     251.871 255.566 247.164  1.00  0.00     0.000 G0
ENDBRANCH   4   6
ENDBRANCH   2   4
BRANCH   3   8
ATOM      8  C   UNL     1     253.243 257.672 246.710  1.00  0.00    -0.003 C 
ATOM      9  C   UNL     1     253.143 256.343 246.826  1.00  0.00    -0.020 C 
BRANCH   9  10
ATOM     10  C   UNL     1     251.886 255.569 247.147  1.00  0.00    -0.010 CG0
ATOM     11  C   UNL     1     251.539 255.708 248.647  1.00  0.00     0.016 C 
ATOM     12  C   UNL     1     252.151 254.074 246.856  1.00  0.00     0.016 C 
ATOM     13  G   UNL     1     250.742 256.042 246.223  1.00  0.00     0.000 G0
ENDBRANCH   9  10
ENDBRANCH   3   8
TORSDOF 0
ENDMDL
MODEL 7
REMARK VINA RESULT:    -3.348      6.622      8.235
REMARK INTER + INTRA:          -3.291
REMARK INTER:                  -4.156
REMARK INTRA:                   0.865
REMARK UNBOUND:                 0.840
REMARK SMILES CC1=CC=CC(C)(C)CC1=O
REMARK SMILES IDX 1 1 2 2 3 3 10 4 11 5 9 6 4 8 5 9 6 10 7 11 8 12
REMARK H PARENT
REMARK Flexibility Score: 80.00
ROOT
ATOM      1  C   UNL     1     252.251 260.681 247.217  1.00  0.00     0.048 C 
ATOM      2  C   UNL     1     252.103 259.211 246.899  1.00  0.00    -0.008 C 
ATOM      3  C   UNL     1     253.215 258.522 246.564  1.00  0.00     0.007 C 
ENDROOT
BRANCH   2   4
ATOM      4  C   UNL     1     250.723 258.657 246.930  1.00  0.00     0.159 C 
ATOM      5  O   UNL     1     249.776 259.414 247.279  1.00  0.00    -0.295 OA
BRANCH   4   6
ATOM      6  C   UNL     1     250.371 257.254 246.530  1.00  0.00     0.091 CG0
ATOM      7  G   UNL     1     251.240 256.172 247.210  1.00  0.00     0.000 G0
ENDBRANCH   4   6
ENDBRANCH   2   4
BRANCH   3   8
ATOM      8  C   UNL     1     253.375 257.093 246.217  1.00  0.00    -0.003 C 
ATOM      9  C   UNL     1     252.564 256.068 246.506  1.00  0.00    -0.020 C 
BRANCH   9  10
ATOM     10  C   UNL     1     251.232 256.158 247.211  1.00  0.00    -0.010 CG0
ATOM     11  C   UNL     1     251.442 256.409 248.722  1.00  0.00     0.016 C 
ATOM     12  C   UNL     1     250.507 254.802 247.050  1.00  0.00     0.016 C 
ATOM     13  G   UNL     1     250.368 257.248 246.539  1.00  0.00     0.000 G0
ENDBRANCH   9  10
ENDBRANCH   3   8
TORSDOF 0
ENDMDL
MODEL 8
REMARK VINA RESULT:    -3.340      8.507      9.951
REMARK INTER + INTRA:          -3.282
REMARK INTER:                  -4.127
REMARK INTRA:                   0.845
REMARK UNBOUND:                 0.840
REMARK SMILES CC1=CC=CC(C)(C)CC1=O
REMARK SMILES IDX 1 1 2 2 3 3 10 4 11 5 9 6 4 8 5 9 6 10 7 11 8 12
REMARK H PARENT
REMARK Flexibility Score: 80.00
ROOT
ATOM      1  C   UNL     1     249.971 259.424 247.109  1.00  0.00     0.048 C 
ATOM      2  C   UNL     1     249.706 257.938 247.191  1.00  0.00    -0.008 C 
ATOM      3  C   UNL     1     248.450 257.506 246.946  1.00  0.00     0.007 C 
ENDROOT
BRANCH   2   4
ATOM      4  C   UNL     1     250.850 257.078 247.595  1.00  0.00     0.159 C 
ATOM      5  O   UNL     1     251.982 257.612 247.753  1.00  0.00    -0.295 OA
BRANCH   4   6
ATOM      6  C   UNL     1     250.740 255.606 247.867  1.00  0.00     0.091 CG0
ATOM      7  G   UNL     1     250.074 254.805 246.727  1.00  0.00     0.000 G0
ENDBRANCH   4   6
ENDBRANCH   2   4
BRANCH   3   8
ATOM      8  C   UNL     1     247.906 256.129 246.943  1.00  0.00    -0.003 C 
ATOM      9  C   UNL     1     248.566 254.972 246.821  1.00  0.00    -0.020 C 
BRANCH   9  10
ATOM     10  C   UNL     1     250.063 254.805 246.724  1.00  0.00    -0.010 CG0
ATOM     11  C   UNL     1     250.558 255.212 245.317  1.00  0.00     0.016 C 
ATOM     12  C   UNL     1     250.399 253.311 246.932  1.00  0.00     0.016 C 
ATOM     13  G   UNL     1     250.744 255.612 247.852  1.00  0.00     0.000 G0
ENDBRANCH   9  10
ENDBRANCH   3   8
TORSDOF 0
ENDMDL
MODEL 9
REMARK VINA RESULT:    -3.305      1.722      2.621
REMARK INTER + INTRA:          -3.238
REMARK INTER:                  -4.086
REMARK INTRA:                   0.848
REMARK UNBOUND:                 0.840
REMARK SMILES CC1=CC=CC(C)(C)CC1=O
REMARK SMILES IDX 1 1 2 2 3 3 10 4 11 5 9 6 4 8 5 9 6 10 7 11 8 12
REMARK H PARENT
REMARK Flexibility Score: 80.00
ROOT
ATOM      1  C   UNL     1     255.127 259.850 246.294  1.00  0.00     0.048 C 
ATOM      2  C   UNL     1     256.182 260.678 246.989  1.00  0.00    -0.008 C 
ATOM      3  C   UNL     1     256.129 260.767 248.336  1.00  0.00     0.007 C 
ENDROOT
BRANCH   2   4
ATOM      4  C   UNL     1     257.165 261.375 246.118  1.00  0.00     0.159 C 
ATOM      5  O   UNL     1     257.132 261.158 244.875  1.00  0.00    -0.295 OA
BRANCH   4   6
ATOM      6  C   UNL     1     258.180 262.362 246.617  1.00  0.00     0.091 CG0
ATOM      7  G   UNL     1     259.053 261.831 247.776  1.00  0.00     0.000 G0
ENDBRANCH   4   6
ENDBRANCH   2   4
BRANCH   3   8
ATOM      8  C   UNL     1     257.021 261.486 249.273  1.00  0.00    -0.003 C 
ATOM      9  C   UNL     1     258.271 261.918 249.070  1.00  0.00    -0.020 C 
BRANCH   9  10
ATOM     10  C   UNL     1     259.047 261.826 247.778  1.00  0.00    -0.010 CG0
ATOM     11  C   UNL     1     259.537 260.377 247.550  1.00  0.00     0.016 C 
ATOM     12  C   UNL     1     260.291 262.736 247.895  1.00  0.00     0.016 C 
ATOM     13  G   UNL     1     258.174 262.351 246.617  1.00  0.00     0.000 G0
ENDBRANCH   9  10
ENDBRANCH   3   8
TORSDOF 0
ENDMDL
