MODEL 1
REMARK VINA RESULT:    -3.903      0.000      0.000
REMARK INTER + INTRA:          -9.992
REMARK INTER:                  -7.098
REMARK INTRA:                  -2.894
REMARK UNBOUND:                -2.894
REMARK SMILES CCCCCCCCCCCCCC[C@H](C)C(=O)[O-]
REMARK SMILES IDX 9 1 10 2 11 3 12 4 13 5 14 6 15 7 16 8 17 9 18 10 19 11 8 12
REMARK SMILES IDX 7 13 6 14 5 15 4 16 3 17 2 18 1 19
REMARK H PARENT
REMARK Flexibility Score: inf
ROOT
ATOM      1  C   UNL     1      -8.261   7.043  14.605  1.00  0.00     0.000 C 
ENDROOT
BRANCH   1   2
ATOM      2  C   UNL     1      -7.203   8.088  14.212  1.00  0.00     0.000 C 
BRANCH   2   3
ATOM      3  C   UNL     1      -5.941   8.006  15.090  1.00  0.00     0.000 C 
BRANCH   3   4
ATOM      4  C   UNL     1      -6.178   7.256  16.414  1.00  0.00     0.000 C 
BRANCH   4   5
ATOM      5  C   UNL     1      -5.181   6.120  16.715  1.00  0.00     0.001 C 
BRANCH   5   6
ATOM      6  C   UNL     1      -4.244   5.814  15.533  1.00  0.00     0.009 C 
BRANCH   6   7
ATOM      7  C   UNL     1      -3.949   4.306  15.382  1.00  0.00     0.032 C 
ATOM      8  C   UNL     1      -4.847   3.441  16.277  1.00  0.00     0.014 C 
BRANCH   7   9
ATOM      9  C   UNL     1      -2.504   4.033  15.702  1.00  0.00     0.044 C 
ATOM     10  O   UNL     1      -1.620   4.898  15.459  1.00  0.00    -0.550 OA
ATOM     11  O   UNL     1      -2.135   2.817  16.264  1.00  0.00    -0.550 OA
ENDBRANCH   7   9
ENDBRANCH   6   7
ENDBRANCH   5   6
ENDBRANCH   4   5
ENDBRANCH   3   4
ENDBRANCH   2   3
ENDBRANCH   1   2
BRANCH   1  12
ATOM     12  C   UNL     1      -8.437   5.953  13.533  1.00  0.00     0.000 C 
BRANCH  12  13
ATOM     13  C   UNL     1      -7.471   4.772  13.728  1.00  0.00    -0.000 C 
BRANCH  13  14
ATOM     14  C   UNL     1      -6.365   4.726  12.662  1.00  0.00    -0.000 C 
BRANCH  14  15
ATOM     15  C   UNL     1      -6.796   5.482  11.396  1.00  0.00    -0.000 C 
BRANCH  15  16
ATOM     16  C   UNL     1      -5.875   6.669  11.067  1.00  0.00    -0.000 C 
BRANCH  16  17
ATOM     17  C   UNL     1      -4.539   6.684  11.832  1.00  0.00    -0.000 C 
BRANCH  17  18
ATOM     18  C   UNL     1      -3.852   8.066  11.859  1.00  0.00    -0.003 C 
ATOM     19  C   UNL     1      -2.857   8.204  13.012  1.00  0.00     0.004 C 
ENDBRANCH  17  18
ENDBRANCH  16  17
ENDBRANCH  15  16
ENDBRANCH  14  15
ENDBRANCH  13  14
ENDBRANCH  12  13
ENDBRANCH   1  12
TORSDOF 14
ENDMDL
MODEL 2
REMARK VINA RESULT:    -3.866      1.081      3.040
REMARK INTER + INTRA:          -9.923
REMARK INTER:                  -7.387
REMARK INTRA:                  -2.536
REMARK UNBOUND:                -2.894
REMARK SMILES CCCCCCCCCCCCCC[C@H](C)C(=O)[O-]
REMARK SMILES IDX 9 1 10 2 11 3 12 4 13 5 14 6 15 7 16 8 17 9 18 10 19 11 8 12
REMARK SMILES IDX 7 13 6 14 5 15 4 16 3 17 2 18 1 19
REMARK H PARENT
REMARK Flexibility Score: inf
ROOT
ATOM      1  C   UNL     1      -4.910   7.997  14.173  1.00  0.00     0.000 C 
ENDROOT
BRANCH   1   2
ATOM      2  C   UNL     1      -5.828   8.678  15.202  1.00  0.00     0.000 C 
BRANCH   2   3
ATOM      3  C   UNL     1      -5.710   8.050  16.603  1.00  0.00     0.000 C 
BRANCH   3   4
ATOM      4  C   UNL     1      -6.335   6.645  16.685  1.00  0.00     0.000 C 
BRANCH   4   5
ATOM      5  C   UNL     1      -5.390   5.532  17.175  1.00  0.00     0.001 C 
BRANCH   5   6
ATOM      6  C   UNL     1      -4.114   5.409  16.325  1.00  0.00     0.009 C 
BRANCH   6   7
ATOM      7  C   UNL     1      -3.841   3.960  15.866  1.00  0.00     0.032 C 
ATOM      8  C   UNL     1      -4.660   2.931  16.657  1.00  0.00     0.014 C 
BRANCH   7   9
ATOM      9  C   UNL     1      -2.375   3.649  15.997  1.00  0.00     0.044 C 
ATOM     10  O   UNL     1      -1.987   2.679  16.703  1.00  0.00    -0.550 OA
ATOM     11  O   UNL     1      -1.436   4.437  15.342  1.00  0.00    -0.550 OA
ENDBRANCH   7   9
ENDBRANCH   6   7
ENDBRANCH   5   6
ENDBRANCH   4   5
ENDBRANCH   3   4
ENDBRANCH   2   3
ENDBRANCH   1   2
BRANCH   1  12
ATOM     12  C   UNL     1      -5.437   8.133  12.734  1.00  0.00     0.000 C 
BRANCH  12  13
ATOM     13  C   UNL     1      -5.559   6.776  12.020  1.00  0.00    -0.000 C 
BRANCH  13  14
ATOM     14  C   UNL     1      -5.465   5.585  12.985  1.00  0.00    -0.000 C 
BRANCH  14  15
ATOM     15  C   UNL     1      -6.704   4.685  12.863  1.00  0.00    -0.000 C 
BRANCH  15  16
ATOM     16  C   UNL     1      -7.704   4.887  14.014  1.00  0.00    -0.000 C 
BRANCH  16  17
ATOM     17  C   UNL     1      -8.951   5.714  13.651  1.00  0.00    -0.000 C 
BRANCH  17  18
ATOM     18  C   UNL     1      -8.890   7.178  14.136  1.00  0.00    -0.003 C 
ATOM     19  C   UNL     1      -9.522   8.151  13.140  1.00  0.00     0.004 C 
ENDBRANCH  17  18
ENDBRANCH  16  17
ENDBRANCH  15  16
ENDBRANCH  14  15
ENDBRANCH  13  14
ENDBRANCH  12  13
ENDBRANCH   1  12
TORSDOF 14
ENDMDL
MODEL 3
REMARK VINA RESULT:    -3.808      1.339      2.204
REMARK INTER + INTRA:          -9.818
REMARK INTER:                  -7.088
REMARK INTRA:                  -2.731
REMARK UNBOUND:                -2.894
REMARK SMILES CCCCCCCCCCCCCC[C@H](C)C(=O)[O-]
REMARK SMILES IDX 9 1 10 2 11 3 12 4 13 5 14 6 15 7 16 8 17 9 18 10 19 11 8 12
REMARK SMILES IDX 7 13 6 14 5 15 4 16 3 17 2 18 1 19
REMARK H PARENT
REMARK Flexibility Score: inf
ROOT
ATOM      1  C   UNL     1      -7.509   5.817  15.535  1.00  0.00     0.000 C 
ENDROOT
BRANCH   1   2
ATOM      2  C   UNL     1      -7.238   7.330  15.589  1.00  0.00     0.000 C 
BRANCH   2   3
ATOM      3  C   UNL     1      -5.769   7.654  15.916  1.00  0.00     0.000 C 
BRANCH   3   4
ATOM      4  C   UNL     1      -4.862   7.651  14.672  1.00  0.00     0.000 C 
BRANCH   4   5
ATOM      5  C   UNL     1      -3.772   6.563  14.654  1.00  0.00     0.001 C 
BRANCH   5   6
ATOM      6  C   UNL     1      -3.793   5.670  15.907  1.00  0.00     0.009 C 
BRANCH   6   7
ATOM      7  C   UNL     1      -3.592   4.175  15.577  1.00  0.00     0.032 C 
ATOM      8  C   UNL     1      -4.571   3.270  16.339  1.00  0.00     0.014 C 
BRANCH   7   9
ATOM      9  C   UNL     1      -2.178   3.767  15.890  1.00  0.00     0.044 C 
ATOM     10  O   UNL     1      -1.206   4.407  15.407  1.00  0.00    -0.550 OA
ATOM     11  O   UNL     1      -1.937   2.672  16.711  1.00  0.00    -0.550 OA
ENDBRANCH   7   9
ENDBRANCH   6   7
ENDBRANCH   5   6
ENDBRANCH   4   5
ENDBRANCH   3   4
ENDBRANCH   2   3
ENDBRANCH   1   2
BRANCH   1  12
ATOM     12  C   UNL     1      -7.809   5.324  14.108  1.00  0.00     0.000 C 
BRANCH  12  13
ATOM     13  C   UNL     1      -6.704   4.407  13.556  1.00  0.00    -0.000 C 
BRANCH  13  14
ATOM     14  C   UNL     1      -5.999   4.999  12.327  1.00  0.00    -0.000 C 
BRANCH  14  15
ATOM     15  C   UNL     1      -7.014   5.661  11.383  1.00  0.00    -0.000 C 
BRANCH  15  16
ATOM     16  C   UNL     1      -6.790   7.175  11.233  1.00  0.00    -0.000 C 
BRANCH  16  17
ATOM     17  C   UNL     1      -8.021   8.046  11.544  1.00  0.00    -0.000 C 
BRANCH  17  18
ATOM     18  C   UNL     1      -7.714   9.259  12.447  1.00  0.00    -0.003 C 
ATOM     19  C   UNL     1      -8.918   9.682  13.290  1.00  0.00     0.004 C 
ENDBRANCH  17  18
ENDBRANCH  16  17
ENDBRANCH  15  16
ENDBRANCH  14  15
ENDBRANCH  13  14
ENDBRANCH  12  13
ENDBRANCH   1  12
TORSDOF 14
ENDMDL
MODEL 4
REMARK VINA RESULT:    -3.800      1.212      2.325
REMARK INTER + INTRA:          -9.803
REMARK INTER:                  -7.476
REMARK INTRA:                  -2.327
REMARK UNBOUND:                -2.894
REMARK SMILES CCCCCCCCCCCCCC[C@H](C)C(=O)[O-]
REMARK SMILES IDX 9 1 10 2 11 3 12 4 13 5 14 6 15 7 16 8 17 9 18 10 19 11 8 12
REMARK SMILES IDX 7 13 6 14 5 15 4 16 3 17 2 18 1 19
REMARK H PARENT
REMARK Flexibility Score: inf
ROOT
ATOM      1  C   UNL     1      -7.248   7.160  16.788  1.00  0.00     0.000 C 
ENDROOT
BRANCH   1   2
ATOM      2  C   UNL     1      -5.749   7.436  16.582  1.00  0.00     0.000 C 
BRANCH   2   3
ATOM      3  C   UNL     1      -4.870   6.233  16.968  1.00  0.00     0.000 C 
BRANCH   3   4
ATOM      4  C   UNL     1      -5.620   4.890  16.884  1.00  0.00     0.000 C 
BRANCH   4   5
ATOM      5  C   UNL     1      -4.782   3.697  16.389  1.00  0.00     0.001 C 
BRANCH   5   6
ATOM      6  C   UNL     1      -3.870   4.054  15.203  1.00  0.00     0.009 C 
BRANCH   6   7
ATOM      7  C   UNL     1      -2.390   3.693  15.458  1.00  0.00     0.032 C 
ATOM      8  C   UNL     1      -2.213   2.776  16.677  1.00  0.00     0.014 C 
BRANCH   7   9
ATOM      9  C   UNL     1      -1.582   4.948  15.648  1.00  0.00     0.044 C 
ATOM     10  O   UNL     1      -1.921   6.020  15.079  1.00  0.00    -0.550 OA
ATOM     11  O   UNL     1      -0.448   4.928  16.452  1.00  0.00    -0.550 OA
ENDBRANCH   7   9
ENDBRANCH   6   7
ENDBRANCH   5   6
ENDBRANCH   4   5
ENDBRANCH   3   4
ENDBRANCH   2   3
ENDBRANCH   1   2
BRANCH   1  12
ATOM     12  C   UNL     1      -8.067   7.367  15.502  1.00  0.00     0.000 C 
BRANCH  12  13
ATOM     13  C   UNL     1      -9.068   6.227  15.250  1.00  0.00    -0.000 C 
BRANCH  13  14
ATOM     14  C   UNL     1      -8.798   5.479  13.936  1.00  0.00    -0.000 C 
BRANCH  14  15
ATOM     15  C   UNL     1      -7.353   4.960  13.890  1.00  0.00    -0.000 C 
BRANCH  15  16
ATOM     16  C   UNL     1      -6.833   4.766  12.456  1.00  0.00    -0.000 C 
BRANCH  16  17
ATOM     17  C   UNL     1      -5.857   5.853  11.967  1.00  0.00    -0.000 C 
BRANCH  17  18
ATOM     18  C   UNL     1      -5.543   6.929  13.028  1.00  0.00    -0.003 C 
ATOM     19  C   UNL     1      -4.130   7.496  12.886  1.00  0.00     0.004 C 
ENDBRANCH  17  18
ENDBRANCH  16  17
ENDBRANCH  15  16
ENDBRANCH  14  15
ENDBRANCH  13  14
ENDBRANCH  12  13
ENDBRANCH   1  12
TORSDOF 14
ENDMDL
MODEL 5
REMARK VINA RESULT:    -3.789      1.367      2.118
REMARK INTER + INTRA:          -9.784
REMARK INTER:                  -7.270
REMARK INTRA:                  -2.515
REMARK UNBOUND:                -2.894
REMARK SMILES CCCCCCCCCCCCCC[C@H](C)C(=O)[O-]
REMARK SMILES IDX 9 1 10 2 11 3 12 4 13 5 14 6 15 7 16 8 17 9 18 10 19 11 8 12
REMARK SMILES IDX 7 13 6 14 5 15 4 16 3 17 2 18 1 19
REMARK H PARENT
REMARK Flexibility Score: inf
ROOT
ATOM      1  C   UNL     1      -9.185   7.040  15.239  1.00  0.00     0.000 C 
ENDROOT
BRANCH   1   2
ATOM      2  C   UNL     1      -7.791   6.733  15.811  1.00  0.00     0.000 C 
BRANCH   2   3
ATOM      3  C   UNL     1      -6.735   7.764  15.372  1.00  0.00     0.000 C 
BRANCH   3   4
ATOM      4  C   UNL     1      -5.345   7.496  15.980  1.00  0.00     0.000 C 
BRANCH   4   5
ATOM      5  C   UNL     1      -5.040   6.021  16.300  1.00  0.00     0.001 C 
BRANCH   5   6
ATOM      6  C   UNL     1      -3.586   5.627  15.990  1.00  0.00     0.009 C 
BRANCH   6   7
ATOM      7  C   UNL     1      -3.430   4.123  15.674  1.00  0.00     0.032 C 
ATOM      8  C   UNL     1      -4.445   3.257  16.432  1.00  0.00     0.014 C 
BRANCH   7   9
ATOM      9  C   UNL     1      -2.033   3.672  16.005  1.00  0.00     0.044 C 
ATOM     10  O   UNL     1      -1.037   4.351  15.635  1.00  0.00    -0.550 OA
ATOM     11  O   UNL     1      -1.834   2.496  16.717  1.00  0.00    -0.550 OA
ENDBRANCH   7   9
ENDBRANCH   6   7
ENDBRANCH   5   6
ENDBRANCH   4   5
ENDBRANCH   3   4
ENDBRANCH   2   3
ENDBRANCH   1   2
BRANCH   1  12
ATOM     12  C   UNL     1      -9.514   6.187  14.001  1.00  0.00     0.000 C 
BRANCH  12  13
ATOM     13  C   UNL     1      -9.933   7.039  12.791  1.00  0.00    -0.000 C 
BRANCH  13  14
ATOM     14  C   UNL     1      -8.898   7.010  11.656  1.00  0.00    -0.000 C 
BRANCH  14  15
ATOM     15  C   UNL     1      -7.982   8.241  11.722  1.00  0.00    -0.000 C 
BRANCH  15  16
ATOM     16  C   UNL     1      -6.495   7.889  11.548  1.00  0.00    -0.000 C 
BRANCH  16  17
ATOM     17  C   UNL     1      -6.202   6.388  11.360  1.00  0.00    -0.000 C 
BRANCH  17  18
ATOM     18  C   UNL     1      -5.514   5.731  12.574  1.00  0.00    -0.003 C 
ATOM     19  C   UNL     1      -6.284   4.518  13.098  1.00  0.00     0.004 C 
ENDBRANCH  17  18
ENDBRANCH  16  17
ENDBRANCH  15  16
ENDBRANCH  14  15
ENDBRANCH  13  14
ENDBRANCH  12  13
ENDBRANCH   1  12
TORSDOF 14
ENDMDL
MODEL 6
REMARK VINA RESULT:    -3.751      1.087      1.562
REMARK INTER + INTRA:          -9.714
REMARK INTER:                  -7.071
REMARK INTRA:                  -2.643
REMARK UNBOUND:                -2.894
REMARK SMILES CCCCCCCCCCCCCC[C@H](C)C(=O)[O-]
REMARK SMILES IDX 9 1 10 2 11 3 12 4 13 5 14 6 15 7 16 8 17 9 18 10 19 11 8 12
REMARK SMILES IDX 7 13 6 14 5 15 4 16 3 17 2 18 1 19
REMARK H PARENT
REMARK Flexibility Score: inf
ROOT
ATOM      1  C   UNL     1      -8.944   7.433  14.629  1.00  0.00     0.000 C 
ENDROOT
BRANCH   1   2
ATOM      2  C   UNL     1      -8.426   6.840  15.950  1.00  0.00     0.000 C 
BRANCH   2   3
ATOM      3  C   UNL     1      -7.045   7.396  16.343  1.00  0.00     0.000 C 
BRANCH   3   4
ATOM      4  C   UNL     1      -6.418   6.656  17.539  1.00  0.00     0.000 C 
BRANCH   4   5
ATOM      5  C   UNL     1      -5.037   6.028  17.275  1.00  0.00     0.001 C 
BRANCH   5   6
ATOM      6  C   UNL     1      -4.770   5.768  15.782  1.00  0.00     0.009 C 
BRANCH   6   7
ATOM      7  C   UNL     1      -4.317   4.319  15.501  1.00  0.00     0.032 C 
ATOM      8  C   UNL     1      -5.017   3.300  16.411  1.00  0.00     0.014 C 
BRANCH   7   9
ATOM      9  C   UNL     1      -2.826   4.207  15.667  1.00  0.00     0.044 C 
ATOM     10  O   UNL     1      -2.306   3.129  16.063  1.00  0.00    -0.550 OA
ATOM     11  O   UNL     1      -2.012   5.298  15.390  1.00  0.00    -0.550 OA
ENDBRANCH   7   9
ENDBRANCH   6   7
ENDBRANCH   5   6
ENDBRANCH   4   5
ENDBRANCH   3   4
ENDBRANCH   2   3
ENDBRANCH   1   2
BRANCH   1  12
ATOM     12  C   UNL     1      -8.858   6.433  13.462  1.00  0.00     0.000 C 
BRANCH  12  13
ATOM     13  C   UNL     1      -8.423   5.030  13.918  1.00  0.00    -0.000 C 
BRANCH  13  14
ATOM     14  C   UNL     1      -7.154   4.540  13.205  1.00  0.00    -0.000 C 
BRANCH  14  15
ATOM     15  C   UNL     1      -6.774   5.486  12.056  1.00  0.00    -0.000 C 
BRANCH  15  16
ATOM     16  C   UNL     1      -5.351   6.053  12.195  1.00  0.00    -0.000 C 
BRANCH  16  17
ATOM     17  C   UNL     1      -5.230   7.569  11.949  1.00  0.00    -0.000 C 
BRANCH  17  18
ATOM     18  C   UNL     1      -5.143   8.404  13.244  1.00  0.00    -0.003 C 
ATOM     19  C   UNL     1      -6.248   9.457  13.336  1.00  0.00     0.004 C 
ENDBRANCH  17  18
ENDBRANCH  16  17
ENDBRANCH  15  16
ENDBRANCH  14  15
ENDBRANCH  13  14
ENDBRANCH  12  13
ENDBRANCH   1  12
TORSDOF 14
ENDMDL
MODEL 7
REMARK VINA RESULT:    -3.743      1.524      3.466
REMARK INTER + INTRA:          -9.699
REMARK INTER:                  -7.143
REMARK INTRA:                  -2.556
REMARK UNBOUND:                -2.894
REMARK SMILES CCCCCCCCCCCCCC[C@H](C)C(=O)[O-]
REMARK SMILES IDX 9 1 10 2 11 3 12 4 13 5 14 6 15 7 16 8 17 9 18 10 19 11 8 12
REMARK SMILES IDX 7 13 6 14 5 15 4 16 3 17 2 18 1 19
REMARK H PARENT
REMARK Flexibility Score: inf
ROOT
ATOM      1  C   UNL     1      -7.531   8.377  12.262  1.00  0.00     0.000 C 
ENDROOT
BRANCH   1   2
ATOM      2  C   UNL     1      -7.050   7.117  11.523  1.00  0.00     0.000 C 
BRANCH   2   3
ATOM      3  C   UNL     1      -5.951   6.366  12.296  1.00  0.00     0.000 C 
BRANCH   3   4
ATOM      4  C   UNL     1      -6.211   4.851  12.390  1.00  0.00     0.000 C 
BRANCH   4   5
ATOM      5  C   UNL     1      -5.151   4.047  13.166  1.00  0.00     0.001 C 
BRANCH   5   6
ATOM      6  C   UNL     1      -4.717   4.731  14.474  1.00  0.00     0.009 C 
BRANCH   6   7
ATOM      7  C   UNL     1      -4.330   3.721  15.575  1.00  0.00     0.032 C 
ATOM      8  C   UNL     1      -5.218   3.846  16.822  1.00  0.00     0.014 C 
BRANCH   7   9
ATOM      9  C   UNL     1      -2.888   3.909  15.961  1.00  0.00     0.044 C 
ATOM     10  O   UNL     1      -2.230   2.958  16.462  1.00  0.00    -0.550 OA
ATOM     11  O   UNL     1      -2.274   5.141  15.770  1.00  0.00    -0.550 OA
ENDBRANCH   7   9
ENDBRANCH   6   7
ENDBRANCH   5   6
ENDBRANCH   4   5
ENDBRANCH   3   4
ENDBRANCH   2   3
ENDBRANCH   1   2
BRANCH   1  12
ATOM     12  C   UNL     1      -8.955   8.222  12.824  1.00  0.00     0.000 C 
BRANCH  12  13
ATOM     13  C   UNL     1      -8.973   8.089  14.357  1.00  0.00    -0.000 C 
BRANCH  13  14
ATOM     14  C   UNL     1      -9.102   6.631  14.825  1.00  0.00    -0.000 C 
BRANCH  14  15
ATOM     15  C   UNL     1      -7.824   6.175  15.544  1.00  0.00    -0.000 C 
BRANCH  15  16
ATOM     16  C   UNL     1      -7.466   7.064  16.747  1.00  0.00    -0.000 C 
BRANCH  16  17
ATOM     17  C   UNL     1      -5.995   7.517  16.803  1.00  0.00    -0.000 C 
BRANCH  17  18
ATOM     18  C   UNL     1      -5.488   8.148  15.489  1.00  0.00    -0.003 C 
ATOM     19  C   UNL     1      -5.557   9.676  15.508  1.00  0.00     0.004 C 
ENDBRANCH  17  18
ENDBRANCH  16  17
ENDBRANCH  15  16
ENDBRANCH  14  15
ENDBRANCH  13  14
ENDBRANCH  12  13
ENDBRANCH   1  12
TORSDOF 14
ENDMDL
MODEL 8
REMARK VINA RESULT:    -3.688      1.157      3.196
REMARK INTER + INTRA:          -9.599
REMARK INTER:                  -6.884
REMARK INTRA:                  -2.715
REMARK UNBOUND:                -2.894
REMARK SMILES CCCCCCCCCCCCCC[C@H](C)C(=O)[O-]
REMARK SMILES IDX 9 1 10 2 11 3 12 4 13 5 14 6 15 7 16 8 17 9 18 10 19 11 8 12
REMARK SMILES IDX 7 13 6 14 5 15 4 16 3 17 2 18 1 19
REMARK H PARENT
REMARK Flexibility Score: inf
ROOT
ATOM      1  C   UNL     1      -6.206   6.613  11.086  1.00  0.00     0.000 C 
ENDROOT
BRANCH   1   2
ATOM      2  C   UNL     1      -4.888   6.814  11.853  1.00  0.00     0.000 C 
BRANCH   2   3
ATOM      3  C   UNL     1      -4.904   8.080  12.729  1.00  0.00     0.000 C 
BRANCH   3   4
ATOM      4  C   UNL     1      -4.457   7.813  14.178  1.00  0.00     0.000 C 
BRANCH   4   5
ATOM      5  C   UNL     1      -3.462   6.650  14.356  1.00  0.00     0.001 C 
BRANCH   5   6
ATOM      6  C   UNL     1      -3.745   5.804  15.610  1.00  0.00     0.009 C 
BRANCH   6   7
ATOM      7  C   UNL     1      -3.578   4.290  15.357  1.00  0.00     0.032 C 
ATOM      8  C   UNL     1      -4.648   3.454  16.073  1.00  0.00     0.014 C 
BRANCH   7   9
ATOM      9  C   UNL     1      -2.210   3.845  15.799  1.00  0.00     0.044 C 
ATOM     10  O   UNL     1      -1.180   4.457  15.407  1.00  0.00    -0.550 OA
ATOM     11  O   UNL     1      -2.075   2.748  16.641  1.00  0.00    -0.550 OA
ENDBRANCH   7   9
ENDBRANCH   6   7
ENDBRANCH   5   6
ENDBRANCH   4   5
ENDBRANCH   3   4
ENDBRANCH   2   3
ENDBRANCH   1   2
BRANCH   1  12
ATOM     12  C   UNL     1      -6.895   5.284  11.441  1.00  0.00     0.000 C 
BRANCH  12  13
ATOM     13  C   UNL     1      -6.382   4.687  12.762  1.00  0.00    -0.000 C 
BRANCH  13  14
ATOM     14  C   UNL     1      -7.469   4.617  13.845  1.00  0.00    -0.000 C 
BRANCH  14  15
ATOM     15  C   UNL     1      -7.303   5.759  14.859  1.00  0.00    -0.000 C 
BRANCH  15  16
ATOM     16  C   UNL     1      -8.648   6.322  15.349  1.00  0.00    -0.000 C 
BRANCH  16  17
ATOM     17  C   UNL     1      -9.322   7.319  14.388  1.00  0.00    -0.000 C 
BRANCH  17  18
ATOM     18  C   UNL     1      -8.367   8.402  13.844  1.00  0.00    -0.003 C 
ATOM     19  C   UNL     1      -8.728   8.842  12.424  1.00  0.00     0.004 C 
ENDBRANCH  17  18
ENDBRANCH  16  17
ENDBRANCH  15  16
ENDBRANCH  14  15
ENDBRANCH  13  14
ENDBRANCH  12  13
ENDBRANCH   1  12
TORSDOF 14
ENDMDL
MODEL 9
REMARK VINA RESULT:    -3.572      3.382      5.787
REMARK INTER + INTRA:          -9.390
REMARK INTER:                  -6.724
REMARK INTRA:                  -2.666
REMARK UNBOUND:                -2.894
REMARK SMILES CCCCCCCCCCCCCC[C@H](C)C(=O)[O-]
REMARK SMILES IDX 9 1 10 2 11 3 12 4 13 5 14 6 15 7 16 8 17 9 18 10 19 11 8 12
REMARK SMILES IDX 7 13 6 14 5 15 4 16 3 17 2 18 1 19
REMARK H PARENT
REMARK Flexibility Score: inf
ROOT
ATOM      1  C   UNL     1      -9.201   6.585  15.138  1.00  0.00     0.000 C 
ENDROOT
BRANCH   1   2
ATOM      2  C   UNL     1      -8.950   5.710  13.898  1.00  0.00     0.000 C 
BRANCH   2   3
ATOM      3  C   UNL     1      -7.612   4.953  13.972  1.00  0.00     0.000 C 
BRANCH   3   4
ATOM      4  C   UNL     1      -6.976   4.721  12.589  1.00  0.00     0.000 C 
BRANCH   4   5
ATOM      5  C   UNL     1      -5.983   5.805  12.130  1.00  0.00     0.001 C 
BRANCH   5   6
ATOM      6  C   UNL     1      -6.374   6.450  10.789  1.00  0.00     0.009 C 
BRANCH   6   7
ATOM      7  C   UNL     1      -7.005   7.848  10.961  1.00  0.00     0.032 C 
ATOM      8  C   UNL     1      -6.689   8.469  12.329  1.00  0.00     0.014 C 
BRANCH   7   9
ATOM      9  C   UNL     1      -8.496   7.763  10.777  1.00  0.00     0.044 C 
ATOM     10  O   UNL     1      -9.222   8.777  10.959  1.00  0.00    -0.550 OA
ATOM     11  O   UNL     1      -9.083   6.558  10.409  1.00  0.00    -0.550 OA
ENDBRANCH   7   9
ENDBRANCH   6   7
ENDBRANCH   5   6
ENDBRANCH   4   5
ENDBRANCH   3   4
ENDBRANCH   2   3
ENDBRANCH   1   2
BRANCH   1  12
ATOM     12  C   UNL     1      -7.958   7.396  15.547  1.00  0.00     0.000 C 
BRANCH  12  13
ATOM     13  C   UNL     1      -7.452   7.032  16.953  1.00  0.00    -0.000 C 
BRANCH  13  14
ATOM     14  C   UNL     1      -5.919   7.033  17.051  1.00  0.00    -0.000 C 
BRANCH  14  15
ATOM     15  C   UNL     1      -5.286   7.413  15.704  1.00  0.00    -0.000 C 
BRANCH  15  16
ATOM     16  C   UNL     1      -4.305   6.348  15.184  1.00  0.00    -0.000 C 
BRANCH  16  17
ATOM     17  C   UNL     1      -3.999   5.210  16.176  1.00  0.00    -0.000 C 
BRANCH  17  18
ATOM     18  C   UNL     1      -4.568   3.841  15.747  1.00  0.00    -0.003 C 
ATOM     19  C   UNL     1      -5.253   3.105  16.899  1.00  0.00     0.004 C 
ENDBRANCH  17  18
ENDBRANCH  16  17
ENDBRANCH  15  16
ENDBRANCH  14  15
ENDBRANCH  13  14
ENDBRANCH  12  13
ENDBRANCH   1  12
TORSDOF 14
ENDMDL
