MODEL 1
REMARK VINA RESULT:    -4.537      0.000      0.000
REMARK INTER + INTRA:          -9.738
REMARK INTER:                  -7.721
REMARK INTRA:                  -2.017
REMARK UNBOUND:                -2.017
REMARK SMILES CCCCCCCCCCCCCC(=O)[O-]
REMARK SMILES IDX 8 1 9 2 10 3 11 4 12 5 13 6 14 7 15 8 16 9 7 10 6 11 5 12
REMARK SMILES IDX 4 13 3 14 2 15 1 16
REMARK H PARENT
REMARK Flexibility Score: inf
ROOT
ATOM      1  C   UNL     1      61.890  29.572  25.182  1.00  0.00     0.000 C 
ENDROOT
BRANCH   1   2
ATOM      2  C   UNL     1      63.271  30.083  24.755  1.00  0.00     0.000 C 
BRANCH   2   3
ATOM      3  C   UNL     1      64.375  29.486  25.641  1.00  0.00     0.000 C 
BRANCH   3   4
ATOM      4  C   UNL     1      65.221  28.435  24.904  1.00  0.00     0.000 C 
BRANCH   4   5
ATOM      5  C   UNL     1      64.924  27.000  25.376  1.00  0.00     0.006 C 
BRANCH   5   6
ATOM      6  C   UNL     1      65.212  25.961  24.284  1.00  0.00     0.053 C 
BRANCH   6   7
ATOM      7  C   UNL     1      64.040  25.780  23.368  1.00  0.00     0.041 C 
ATOM      8  O   UNL     1      63.975  26.425  22.289  1.00  0.00    -0.550 OA
ATOM      9  O   UNL     1      63.040  24.871  23.689  1.00  0.00    -0.550 OA
ENDBRANCH   6   7
ENDBRANCH   5   6
ENDBRANCH   4   5
ENDBRANCH   3   4
ENDBRANCH   2   3
ENDBRANCH   1   2
BRANCH   1  10
ATOM     10  C   UNL     1      61.563  28.232  24.507  1.00  0.00     0.000 C 
BRANCH  10  11
ATOM     11  C   UNL     1      61.010  27.184  25.499  1.00  0.00    -0.000 C 
BRANCH  11  12
ATOM     12  C   UNL     1      60.995  27.665  26.961  1.00  0.00    -0.000 C 
BRANCH  12  13
ATOM     13  C   UNL     1      62.207  27.214  27.796  1.00  0.00    -0.000 C 
BRANCH  13  14
ATOM     14  C   UNL     1      62.611  28.219  28.898  1.00  0.00    -0.000 C 
BRANCH  14  15
ATOM     15  C   UNL     1      61.874  29.561  28.776  1.00  0.00    -0.003 C 
ATOM     16  C   UNL     1      62.853  30.731  28.800  1.00  0.00     0.004 C 
ENDBRANCH  14  15
ENDBRANCH  13  14
ENDBRANCH  12  13
ENDBRANCH  11  12
ENDBRANCH  10  11
ENDBRANCH   1  10
TORSDOF 12
ENDMDL
MODEL 2
REMARK VINA RESULT:    -4.458     12.702     14.750
REMARK INTER + INTRA:          -9.602
REMARK INTER:                  -7.936
REMARK INTRA:                  -1.666
REMARK UNBOUND:                -2.017
REMARK SMILES CCCCCCCCCCCCCC(=O)[O-]
REMARK SMILES IDX 8 1 9 2 10 3 11 4 12 5 13 6 14 7 15 8 16 9 7 10 6 11 5 12
REMARK SMILES IDX 4 13 3 14 2 15 1 16
REMARK H PARENT
REMARK Flexibility Score: inf
ROOT
ATOM      1  C   UNL     1      61.319  29.070  13.510  1.00  0.00     0.000 C 
ENDROOT
BRANCH   1   2
ATOM      2  C   UNL     1      62.795  28.915  13.125  1.00  0.00     0.000 C 
BRANCH   2   3
ATOM      3  C   UNL     1      63.513  30.272  13.147  1.00  0.00     0.000 C 
BRANCH   3   4
ATOM      4  C   UNL     1      62.804  31.331  12.287  1.00  0.00     0.000 C 
BRANCH   4   5
ATOM      5  C   UNL     1      62.236  32.490  13.125  1.00  0.00     0.006 C 
BRANCH   5   6
ATOM      6  C   UNL     1      60.719  32.642  12.951  1.00  0.00     0.053 C 
BRANCH   6   7
ATOM      7  C   UNL     1      60.016  32.750  14.270  1.00  0.00     0.041 C 
ATOM      8  O   UNL     1      59.132  31.912  14.587  1.00  0.00    -0.550 OA
ATOM      9  O   UNL     1      60.364  33.755  15.163  1.00  0.00    -0.550 OA
ENDBRANCH   6   7
ENDBRANCH   5   6
ENDBRANCH   4   5
ENDBRANCH   3   4
ENDBRANCH   2   3
ENDBRANCH   1   2
BRANCH   1  10
ATOM     10  C   UNL     1      60.480  27.903  12.967  1.00  0.00     0.000 C 
BRANCH  10  11
ATOM     11  C   UNL     1      59.240  28.378  12.176  1.00  0.00    -0.000 C 
BRANCH  11  12
ATOM     12  C   UNL     1      59.584  29.212  10.929  1.00  0.00    -0.000 C 
BRANCH  12  13
ATOM     13  C   UNL     1      59.548  28.428   9.605  1.00  0.00    -0.000 C 
BRANCH  13  14
ATOM     14  C   UNL     1      60.939  28.234   8.961  1.00  0.00    -0.000 C 
BRANCH  14  15
ATOM     15  C   UNL     1      61.896  29.397   9.253  1.00  0.00    -0.003 C 
ATOM     16  C   UNL     1      63.325  28.900   9.453  1.00  0.00     0.004 C 
ENDBRANCH  14  15
ENDBRANCH  13  14
ENDBRANCH  12  13
ENDBRANCH  11  12
ENDBRANCH  10  11
ENDBRANCH   1  10
TORSDOF 12
ENDMDL
MODEL 3
REMARK VINA RESULT:    -4.443      0.796      2.806
REMARK INTER + INTRA:          -9.576
REMARK INTER:                  -7.653
REMARK INTRA:                  -1.923
REMARK UNBOUND:                -2.017
REMARK SMILES CCCCCCCCCCCCCC(=O)[O-]
REMARK SMILES IDX 8 1 9 2 10 3 11 4 12 5 13 6 14 7 15 8 16 9 7 10 6 11 5 12
REMARK SMILES IDX 4 13 3 14 2 15 1 16
REMARK H PARENT
REMARK Flexibility Score: inf
ROOT
ATOM      1  C   UNL     1      64.036  29.984  27.695  1.00  0.00     0.000 C 
ENDROOT
BRANCH   1   2
ATOM      2  C   UNL     1      63.747  30.372  26.239  1.00  0.00     0.000 C 
BRANCH   2   3
ATOM      3  C   UNL     1      64.789  29.758  25.292  1.00  0.00     0.000 C 
BRANCH   3   4
ATOM      4  C   UNL     1      65.229  28.351  25.727  1.00  0.00     0.000 C 
BRANCH   4   5
ATOM      5  C   UNL     1      65.572  27.443  24.533  1.00  0.00     0.006 C 
BRANCH   5   6
ATOM      6  C   UNL     1      64.937  26.052  24.663  1.00  0.00     0.053 C 
BRANCH   6   7
ATOM      7  C   UNL     1      63.904  25.812  23.604  1.00  0.00     0.041 C 
ATOM      8  O   UNL     1      63.067  24.881  23.737  1.00  0.00    -0.550 OA
ATOM      9  O   UNL     1      63.844  26.639  22.490  1.00  0.00    -0.550 OA
ENDBRANCH   6   7
ENDBRANCH   5   6
ENDBRANCH   4   5
ENDBRANCH   3   4
ENDBRANCH   2   3
ENDBRANCH   1   2
BRANCH   1  10
ATOM     10  C   UNL     1      62.972  30.561  28.641  1.00  0.00     0.000 C 
BRANCH  10  11
ATOM     11  C   UNL     1      61.885  29.527  29.016  1.00  0.00    -0.000 C 
BRANCH  11  12
ATOM     12  C   UNL     1      62.361  28.067  28.916  1.00  0.00    -0.000 C 
BRANCH  12  13
ATOM     13  C   UNL     1      61.434  27.145  28.105  1.00  0.00    -0.000 C 
BRANCH  13  14
ATOM     14  C   UNL     1      61.917  26.894  26.659  1.00  0.00    -0.000 C 
BRANCH  14  15
ATOM     15  C   UNL     1      60.854  27.243  25.609  1.00  0.00    -0.003 C 
ATOM     16  C   UNL     1      61.383  28.265  24.607  1.00  0.00     0.004 C 
ENDBRANCH  14  15
ENDBRANCH  13  14
ENDBRANCH  12  13
ENDBRANCH  11  12
ENDBRANCH  10  11
ENDBRANCH   1  10
TORSDOF 12
ENDMDL
MODEL 4
REMARK VINA RESULT:    -4.439      3.005      5.335
REMARK INTER + INTRA:          -9.571
REMARK INTER:                  -7.506
REMARK INTRA:                  -2.064
REMARK UNBOUND:                -2.017
REMARK SMILES CCCCCCCCCCCCCC(=O)[O-]
REMARK SMILES IDX 8 1 9 2 10 3 11 4 12 5 13 6 14 7 15 8 16 9 7 10 6 11 5 12
REMARK SMILES IDX 4 13 3 14 2 15 1 16
REMARK H PARENT
REMARK Flexibility Score: inf
ROOT
ATOM      1  C   UNL     1      60.882  27.743  26.466  1.00  0.00     0.000 C 
ENDROOT
BRANCH   1   2
ATOM      2  C   UNL     1      62.056  27.142  27.248  1.00  0.00     0.000 C 
BRANCH   2   3
ATOM      3  C   UNL     1      62.456  28.050  28.420  1.00  0.00     0.000 C 
BRANCH   3   4
ATOM      4  C   UNL     1      61.871  29.466  28.299  1.00  0.00     0.000 C 
BRANCH   4   5
ATOM      5  C   UNL     1      62.895  30.561  28.648  1.00  0.00     0.006 C 
BRANCH   5   6
ATOM      6  C   UNL     1      64.230  29.975  29.125  1.00  0.00     0.053 C 
BRANCH   6   7
ATOM      7  C   UNL     1      65.395  30.798  28.666  1.00  0.00     0.041 C 
ATOM      8  O   UNL     1      65.398  32.045  28.845  1.00  0.00    -0.550 OA
ATOM      9  O   UNL     1      66.491  30.185  28.075  1.00  0.00    -0.550 OA
ENDBRANCH   6   7
ENDBRANCH   5   6
ENDBRANCH   4   5
ENDBRANCH   3   4
ENDBRANCH   2   3
ENDBRANCH   1   2
BRANCH   1  10
ATOM     10  C   UNL     1      61.260  27.981  24.996  1.00  0.00     0.000 C 
BRANCH  10  11
ATOM     11  C   UNL     1      61.865  29.383  24.756  1.00  0.00    -0.000 C 
BRANCH  11  12
ATOM     12  C   UNL     1      63.307  29.349  24.220  1.00  0.00    -0.000 C 
BRANCH  12  13
ATOM     13  C   UNL     1      64.394  29.531  25.294  1.00  0.00    -0.000 C 
BRANCH  13  14
ATOM     14  C   UNL     1      65.226  28.256  25.557  1.00  0.00    -0.000 C 
BRANCH  14  15
ATOM     15  C   UNL     1      65.311  27.339  24.330  1.00  0.00    -0.003 C 
ATOM     16  C   UNL     1      64.721  25.963  24.626  1.00  0.00     0.004 C 
ENDBRANCH  14  15
ENDBRANCH  13  14
ENDBRANCH  12  13
ENDBRANCH  11  12
ENDBRANCH  10  11
ENDBRANCH   1  10
TORSDOF 12
ENDMDL
MODEL 5
REMARK VINA RESULT:    -4.358     12.853     14.902
REMARK INTER + INTRA:          -9.432
REMARK INTER:                  -7.757
REMARK INTRA:                  -1.675
REMARK UNBOUND:                -2.017
REMARK SMILES CCCCCCCCCCCCCC(=O)[O-]
REMARK SMILES IDX 8 1 9 2 10 3 11 4 12 5 13 6 14 7 15 8 16 9 7 10 6 11 5 12
REMARK SMILES IDX 4 13 3 14 2 15 1 16
REMARK H PARENT
REMARK Flexibility Score: inf
ROOT
ATOM      1  C   UNL     1      64.001  30.107   9.192  1.00  0.00     0.000 C 
ENDROOT
BRANCH   1   2
ATOM      2  C   UNL     1      64.396  31.145  10.250  1.00  0.00     0.000 C 
BRANCH   2   3
ATOM      3  C   UNL     1      63.306  31.275  11.324  1.00  0.00     0.000 C 
BRANCH   3   4
ATOM      4  C   UNL     1      63.672  32.291  12.418  1.00  0.00     0.000 C 
BRANCH   4   5
ATOM      5  C   UNL     1      62.607  32.376  13.526  1.00  0.00     0.006 C 
BRANCH   5   6
ATOM      6  C   UNL     1      61.181  32.365  12.961  1.00  0.00     0.053 C 
BRANCH   6   7
ATOM      7  C   UNL     1      60.159  32.636  14.023  1.00  0.00     0.041 C 
ATOM      8  O   UNL     1      60.279  33.638  14.776  1.00  0.00    -0.550 OA
ATOM      9  O   UNL     1      59.056  31.802  14.157  1.00  0.00    -0.550 OA
ENDBRANCH   6   7
ENDBRANCH   5   6
ENDBRANCH   4   5
ENDBRANCH   3   4
ENDBRANCH   2   3
ENDBRANCH   1   2
BRANCH   1  10
ATOM     10  C   UNL     1      63.133  28.998   9.804  1.00  0.00     0.000 C 
BRANCH  10  11
ATOM     11  C   UNL     1      61.931  28.620   8.908  1.00  0.00    -0.000 C 
BRANCH  11  12
ATOM     12  C   UNL     1      60.627  28.385   9.692  1.00  0.00    -0.000 C 
BRANCH  12  13
ATOM     13  C   UNL     1      60.189  29.567  10.575  1.00  0.00    -0.000 C 
BRANCH  13  14
ATOM     14  C   UNL     1      59.608  29.139  11.942  1.00  0.00    -0.000 C 
BRANCH  14  15
ATOM     15  C   UNL     1      60.446  28.051  12.628  1.00  0.00    -0.003 C 
ATOM     16  C   UNL     1      61.678  28.647  13.302  1.00  0.00     0.004 C 
ENDBRANCH  14  15
ENDBRANCH  13  14
ENDBRANCH  12  13
ENDBRANCH  11  12
ENDBRANCH  10  11
ENDBRANCH   1  10
TORSDOF 12
ENDMDL
MODEL 6
REMARK VINA RESULT:    -4.354     11.842     14.195
REMARK INTER + INTRA:          -9.425
REMARK INTER:                  -7.576
REMARK INTRA:                  -1.850
REMARK UNBOUND:                -2.017
REMARK SMILES CCCCCCCCCCCCCC(=O)[O-]
REMARK SMILES IDX 8 1 9 2 10 3 11 4 12 5 13 6 14 7 15 8 16 9 7 10 6 11 5 12
REMARK SMILES IDX 4 13 3 14 2 15 1 16
REMARK H PARENT
REMARK Flexibility Score: inf
ROOT
ATOM      1  C   UNL     1      63.049  30.006  13.482  1.00  0.00     0.000 C 
ENDROOT
BRANCH   1   2
ATOM      2  C   UNL     1      62.734  30.979  12.339  1.00  0.00     0.000 C 
BRANCH   2   3
ATOM      3  C   UNL     1      62.241  32.327  12.886  1.00  0.00     0.000 C 
BRANCH   3   4
ATOM      4  C   UNL     1      60.711  32.389  13.013  1.00  0.00     0.000 C 
BRANCH   4   5
ATOM      5  C   UNL     1      60.238  32.406  14.478  1.00  0.00     0.006 C 
BRANCH   5   6
ATOM      6  C   UNL     1      60.453  33.773  15.140  1.00  0.00     0.053 C 
BRANCH   6   7
ATOM      7  C   UNL     1      61.475  33.706  16.234  1.00  0.00     0.041 C 
ATOM      8  O   UNL     1      61.147  33.308  17.383  1.00  0.00    -0.550 OA
ATOM      9  O   UNL     1      62.796  34.049  15.975  1.00  0.00    -0.550 OA
ENDBRANCH   6   7
ENDBRANCH   5   6
ENDBRANCH   4   5
ENDBRANCH   3   4
ENDBRANCH   2   3
ENDBRANCH   1   2
BRANCH   1  10
ATOM     10  C   UNL     1      62.392  28.638  13.240  1.00  0.00     0.000 C 
BRANCH  10  11
ATOM     11  C   UNL     1      60.858  28.675  13.416  1.00  0.00    -0.000 C 
BRANCH  11  12
ATOM     12  C   UNL     1      60.082  28.225  12.165  1.00  0.00    -0.000 C 
BRANCH  12  13
ATOM     13  C   UNL     1      59.529  29.376  11.306  1.00  0.00    -0.000 C 
BRANCH  13  14
ATOM     14  C   UNL     1      60.267  29.556   9.961  1.00  0.00    -0.000 C 
BRANCH  14  15
ATOM     15  C   UNL     1      61.267  28.426   9.676  1.00  0.00    -0.003 C 
ATOM     16  C   UNL     1      62.628  28.983   9.269  1.00  0.00     0.004 C 
ENDBRANCH  14  15
ENDBRANCH  13  14
ENDBRANCH  12  13
ENDBRANCH  11  12
ENDBRANCH  10  11
ENDBRANCH   1  10
TORSDOF 12
ENDMDL
MODEL 7
REMARK VINA RESULT:    -4.278     11.267     13.530
REMARK INTER + INTRA:          -9.296
REMARK INTER:                  -7.463
REMARK INTRA:                  -1.832
REMARK UNBOUND:                -2.017
REMARK SMILES CCCCCCCCCCCCCC(=O)[O-]
REMARK SMILES IDX 8 1 9 2 10 3 11 4 12 5 13 6 14 7 15 8 16 9 7 10 6 11 5 12
REMARK SMILES IDX 4 13 3 14 2 15 1 16
REMARK H PARENT
REMARK Flexibility Score: inf
ROOT
ATOM      1  C   UNL     1      62.981  31.703  11.942  1.00  0.00     0.000 C 
ENDROOT
BRANCH   1   2
ATOM      2  C   UNL     1      62.345  32.200  13.246  1.00  0.00     0.000 C 
BRANCH   2   3
ATOM      3  C   UNL     1      60.877  32.591  13.027  1.00  0.00     0.000 C 
BRANCH   3   4
ATOM      4  C   UNL     1      60.049  32.532  14.320  1.00  0.00     0.000 C 
BRANCH   4   5
ATOM      5  C   UNL     1      60.924  32.588  15.586  1.00  0.00     0.006 C 
BRANCH   5   6
ATOM      6  C   UNL     1      60.938  33.986  16.218  1.00  0.00     0.053 C 
BRANCH   6   7
ATOM      7  C   UNL     1      62.070  34.147  17.187  1.00  0.00     0.041 C 
ATOM      8  O   UNL     1      63.262  34.071  16.786  1.00  0.00    -0.550 OA
ATOM      9  O   UNL     1      61.809  34.415  18.524  1.00  0.00    -0.550 OA
ENDBRANCH   6   7
ENDBRANCH   5   6
ENDBRANCH   4   5
ENDBRANCH   3   4
ENDBRANCH   2   3
ENDBRANCH   1   2
BRANCH   1  10
ATOM     10  C   UNL     1      63.592  30.305  12.122  1.00  0.00     0.000 C 
BRANCH  10  11
ATOM     11  C   UNL     1      63.088  29.594  13.398  1.00  0.00    -0.000 C 
BRANCH  11  12
ATOM     12  C   UNL     1      62.150  28.408  13.113  1.00  0.00    -0.000 C 
BRANCH  12  13
ATOM     13  C   UNL     1      60.709  28.593  13.623  1.00  0.00    -0.000 C 
BRANCH  13  14
ATOM     14  C   UNL     1      59.755  29.211  12.577  1.00  0.00    -0.000 C 
BRANCH  14  15
ATOM     15  C   UNL     1      59.944  28.614  11.175  1.00  0.00    -0.003 C 
ATOM     16  C   UNL     1      60.274  29.698  10.153  1.00  0.00     0.004 C 
ENDBRANCH  14  15
ENDBRANCH  13  14
ENDBRANCH  12  13
ENDBRANCH  11  12
ENDBRANCH  10  11
ENDBRANCH   1  10
TORSDOF 12
ENDMDL
MODEL 8
REMARK VINA RESULT:    -4.228      1.739      4.884
REMARK INTER + INTRA:          -9.211
REMARK INTER:                  -7.552
REMARK INTRA:                  -1.659
REMARK UNBOUND:                -2.017
REMARK SMILES CCCCCCCCCCCCCC(=O)[O-]
REMARK SMILES IDX 8 1 9 2 10 3 11 4 12 5 13 6 14 7 15 8 16 9 7 10 6 11 5 12
REMARK SMILES IDX 4 13 3 14 2 15 1 16
REMARK H PARENT
REMARK Flexibility Score: inf
ROOT
ATOM      1  C   UNL     1      63.273  30.498  27.909  1.00  0.00     0.000 C 
ENDROOT
BRANCH   1   2
ATOM      2  C   UNL     1      62.210  30.060  28.924  1.00  0.00     0.000 C 
BRANCH   2   3
ATOM      3  C   UNL     1      61.343  28.926  28.357  1.00  0.00     0.000 C 
BRANCH   3   4
ATOM      4  C   UNL     1      62.130  27.620  28.164  1.00  0.00     0.000 C 
BRANCH   4   5
ATOM      5  C   UNL     1      62.217  27.194  26.688  1.00  0.00     0.006 C 
BRANCH   5   6
ATOM      6  C   UNL     1      61.230  27.966  25.803  1.00  0.00     0.053 C 
BRANCH   6   7
ATOM      7  C   UNL     1      61.919  28.628  24.648  1.00  0.00     0.041 C 
ATOM      8  O   UNL     1      62.105  27.995  23.576  1.00  0.00    -0.550 OA
ATOM      9  O   UNL     1      62.320  29.954  24.745  1.00  0.00    -0.550 OA
ENDBRANCH   6   7
ENDBRANCH   5   6
ENDBRANCH   4   5
ENDBRANCH   3   4
ENDBRANCH   2   3
ENDBRANCH   1   2
BRANCH   1  10
ATOM     10  C   UNL     1      64.659  30.587  28.565  1.00  0.00     0.000 C 
BRANCH  10  11
ATOM     11  C   UNL     1      65.790  30.086  27.638  1.00  0.00    -0.000 C 
BRANCH  11  12
ATOM     12  C   UNL     1      65.305  29.131  26.533  1.00  0.00    -0.000 C 
BRANCH  12  13
ATOM     13  C   UNL     1      66.150  29.157  25.247  1.00  0.00    -0.000 C 
BRANCH  13  14
ATOM     14  C   UNL     1      65.714  28.112  24.196  1.00  0.00    -0.000 C 
BRANCH  14  15
ATOM     15  C   UNL     1      65.242  26.795  24.829  1.00  0.00    -0.003 C 
ATOM     16  C   UNL     1      64.877  25.769  23.760  1.00  0.00     0.004 C 
ENDBRANCH  14  15
ENDBRANCH  13  14
ENDBRANCH  12  13
ENDBRANCH  11  12
ENDBRANCH  10  11
ENDBRANCH   1  10
TORSDOF 12
ENDMDL
MODEL 9
REMARK VINA RESULT:    -4.198      2.825      5.592
REMARK INTER + INTRA:          -9.160
REMARK INTER:                  -7.633
REMARK INTRA:                  -1.527
REMARK UNBOUND:                -2.017
REMARK SMILES CCCCCCCCCCCCCC(=O)[O-]
REMARK SMILES IDX 8 1 9 2 10 3 11 4 12 5 13 6 14 7 15 8 16 9 7 10 6 11 5 12
REMARK SMILES IDX 4 13 3 14 2 15 1 16
REMARK H PARENT
REMARK Flexibility Score: inf
ROOT
ATOM      1  C   UNL     1      61.125  28.548  25.000  1.00  0.00     0.000 C 
ENDROOT
BRANCH   1   2
ATOM      2  C   UNL     1      61.532  27.082  25.186  1.00  0.00     0.000 C 
BRANCH   2   3
ATOM      3  C   UNL     1      62.157  26.857  26.571  1.00  0.00     0.000 C 
BRANCH   3   4
ATOM      4  C   UNL     1      61.115  26.885  27.701  1.00  0.00     0.000 C 
BRANCH   4   5
ATOM      5  C   UNL     1      61.633  27.594  28.966  1.00  0.00     0.006 C 
BRANCH   5   6
ATOM      6  C   UNL     1      61.351  29.102  28.941  1.00  0.00     0.053 C 
BRANCH   6   7
ATOM      7  C   UNL     1      62.612  29.902  28.826  1.00  0.00     0.041 C 
ATOM      8  O   UNL     1      63.674  29.356  28.427  1.00  0.00    -0.550 OA
ATOM      9  O   UNL     1      62.606  31.258  29.125  1.00  0.00    -0.550 OA
ENDBRANCH   6   7
ENDBRANCH   5   6
ENDBRANCH   4   5
ENDBRANCH   3   4
ENDBRANCH   2   3
ENDBRANCH   1   2
BRANCH   1  10
ATOM     10  C   UNL     1      62.345  29.477  25.093  1.00  0.00     0.000 C 
BRANCH  10  11
ATOM     11  C   UNL     1      63.440  29.127  24.061  1.00  0.00    -0.000 C 
BRANCH  11  12
ATOM     12  C   UNL     1      64.871  29.243  24.616  1.00  0.00    -0.000 C 
BRANCH  12  13
ATOM     13  C   UNL     1      65.785  28.050  24.287  1.00  0.00    -0.000 C 
BRANCH  13  14
ATOM     14  C   UNL     1      65.256  26.698  24.818  1.00  0.00    -0.000 C 
BRANCH  14  15
ATOM     15  C   UNL     1      64.829  25.745  23.694  1.00  0.00    -0.003 C 
ATOM     16  C   UNL     1      65.788  25.823  22.510  1.00  0.00     0.004 C 
ENDBRANCH  14  15
ENDBRANCH  13  14
ENDBRANCH  12  13
ENDBRANCH  11  12
ENDBRANCH  10  11
ENDBRANCH   1  10
TORSDOF 12
ENDMDL
