MODEL 1
REMARK VINA RESULT:    -3.805      0.000      0.000
REMARK INTER + INTRA:          -4.564
REMARK INTER:                  -4.473
REMARK INTRA:                  -0.091
REMARK UNBOUND:                -0.091
REMARK SMILES CCCCC(=O)[O-]
REMARK SMILES IDX 4 1 5 2 6 3 7 4 3 5 2 6 1 7
REMARK H PARENT
REMARK Flexibility Score: inf
ROOT
ATOM      1  C   UNL     1      10.173  54.460  23.767  1.00  0.00     0.053 C 
ENDROOT
BRANCH   1   2
ATOM      2  C   UNL     1       9.282  54.071  24.905  1.00  0.00     0.041 C 
ATOM      3  O   UNL     1       9.693  54.164  26.092  1.00  0.00    -0.550 OA
ATOM      4  O   UNL     1       8.009  53.574  24.656  1.00  0.00    -0.550 OA
ENDBRANCH   1   2
BRANCH   1   5
ATOM      5  C   UNL     1       9.483  54.266  22.410  1.00  0.00     0.006 C 
BRANCH   5   6
ATOM      6  C   UNL     1      10.229  53.265  21.516  1.00  0.00    -0.003 C 
ATOM      7  C   UNL     1      10.129  51.849  22.076  1.00  0.00     0.004 C 
ENDBRANCH   5   6
ENDBRANCH   1   5
TORSDOF 3
ENDMDL
MODEL 2
REMARK VINA RESULT:    -3.667      2.623      3.428
REMARK INTER + INTRA:          -4.402
REMARK INTER:                  -4.386
REMARK INTRA:                  -0.016
REMARK UNBOUND:                -0.091
REMARK SMILES CCCCC(=O)[O-]
REMARK SMILES IDX 4 1 5 2 6 3 7 4 3 5 2 6 1 7
REMARK H PARENT
REMARK Flexibility Score: inf
ROOT
ATOM      1  C   UNL     1       9.813  53.622  21.154  1.00  0.00     0.053 C 
ENDROOT
BRANCH   1   2
ATOM      2  C   UNL     1      10.111  52.818  22.381  1.00  0.00     0.041 C 
ATOM      3  O   UNL     1      10.304  53.394  23.485  1.00  0.00    -0.550 OA
ATOM      4  O   UNL     1      10.208  51.435  22.302  1.00  0.00    -0.550 OA
ENDBRANCH   1   2
BRANCH   1   5
ATOM      5  C   UNL     1       8.536  54.458  21.315  1.00  0.00     0.006 C 
BRANCH   5   6
ATOM      6  C   UNL     1       7.878  54.778  19.965  1.00  0.00    -0.003 C 
ATOM      7  C   UNL     1       7.647  56.278  19.809  1.00  0.00     0.004 C 
ENDBRANCH   5   6
ENDBRANCH   1   5
TORSDOF 3
ENDMDL
MODEL 3
REMARK VINA RESULT:    -3.641      4.319      5.064
REMARK INTER + INTRA:          -4.371
REMARK INTER:                  -4.297
REMARK INTRA:                  -0.075
REMARK UNBOUND:                -0.091
REMARK SMILES CCCCC(=O)[O-]
REMARK SMILES IDX 4 1 5 2 6 3 7 4 3 5 2 6 1 7
REMARK H PARENT
REMARK Flexibility Score: inf
ROOT
ATOM      1  C   UNL     1       7.712  55.715  20.445  1.00  0.00     0.053 C 
ENDROOT
BRANCH   1   2
ATOM      2  C   UNL     1       6.624  55.055  21.233  1.00  0.00     0.041 C 
ATOM      3  O   UNL     1       6.881  54.057  21.957  1.00  0.00    -0.550 OA
ATOM      4  O   UNL     1       5.318  55.520  21.143  1.00  0.00    -0.550 OA
ENDBRANCH   1   2
BRANCH   1   5
ATOM      5  C   UNL     1       7.288  55.975  18.993  1.00  0.00     0.006 C 
BRANCH   5   6
ATOM      6  C   UNL     1       7.287  54.691  18.150  1.00  0.00    -0.003 C 
ATOM      7  C   UNL     1       6.757  54.957  16.744  1.00  0.00     0.004 C 
ENDBRANCH   5   6
ENDBRANCH   1   5
TORSDOF 3
ENDMDL
MODEL 4
REMARK VINA RESULT:    -3.638      2.411      3.655
REMARK INTER + INTRA:          -4.368
REMARK INTER:                  -4.247
REMARK INTRA:                  -0.121
REMARK UNBOUND:                -0.091
REMARK SMILES CCCCC(=O)[O-]
REMARK SMILES IDX 4 1 5 2 6 3 7 4 3 5 2 6 1 7
REMARK H PARENT
REMARK Flexibility Score: inf
ROOT
ATOM      1  C   UNL     1       9.930  53.628  21.255  1.00  0.00     0.053 C 
ENDROOT
BRANCH   1   2
ATOM      2  C   UNL     1       8.550  54.149  20.999  1.00  0.00     0.041 C 
ATOM      3  O   UNL     1       7.549  53.556  21.482  1.00  0.00    -0.550 OA
ATOM      4  O   UNL     1       8.365  55.270  20.200  1.00  0.00    -0.550 OA
ENDBRANCH   1   2
BRANCH   1   5
ATOM      5  C   UNL     1      10.101  53.151  22.704  1.00  0.00     0.006 C 
BRANCH   5   6
ATOM      6  C   UNL     1      10.270  54.321  23.685  1.00  0.00    -0.003 C 
ATOM      7  C   UNL     1       9.226  54.263  24.795  1.00  0.00     0.004 C 
ENDBRANCH   5   6
ENDBRANCH   1   5
TORSDOF 3
ENDMDL
MODEL 5
REMARK VINA RESULT:    -3.577      3.573      4.071
REMARK INTER + INTRA:          -4.296
REMARK INTER:                  -4.269
REMARK INTRA:                  -0.026
REMARK UNBOUND:                -0.091
REMARK SMILES CCCCC(=O)[O-]
REMARK SMILES IDX 4 1 5 2 6 3 7 4 3 5 2 6 1 7
REMARK H PARENT
REMARK Flexibility Score: inf
ROOT
ATOM      1  C   UNL     1       8.063  55.253  21.632  1.00  0.00     0.053 C 
ENDROOT
BRANCH   1   2
ATOM      2  C   UNL     1       7.287  56.129  20.699  1.00  0.00     0.041 C 
ATOM      3  O   UNL     1       7.770  56.450  19.581  1.00  0.00    -0.550 OA
ATOM      4  O   UNL     1       6.043  56.620  21.076  1.00  0.00    -0.550 OA
ENDBRANCH   1   2
BRANCH   1   5
ATOM      5  C   UNL     1       8.758  54.103  20.890  1.00  0.00     0.006 C 
BRANCH   5   6
ATOM      6  C   UNL     1      10.055  53.664  21.584  1.00  0.00    -0.003 C 
ATOM      7  C   UNL     1      10.001  52.188  21.969  1.00  0.00     0.004 C 
ENDBRANCH   5   6
ENDBRANCH   1   5
TORSDOF 3
ENDMDL
MODEL 6
REMARK VINA RESULT:    -3.548      5.845      6.604
REMARK INTER + INTRA:          -4.261
REMARK INTER:                  -4.200
REMARK INTRA:                  -0.062
REMARK UNBOUND:                -0.091
REMARK SMILES CCCCC(=O)[O-]
REMARK SMILES IDX 4 1 5 2 6 3 7 4 3 5 2 6 1 7
REMARK H PARENT
REMARK Flexibility Score: inf
ROOT
ATOM      1  C   UNL     1       7.511  54.823  19.296  1.00  0.00     0.053 C 
ENDROOT
BRANCH   1   2
ATOM      2  C   UNL     1       6.969  54.487  17.941  1.00  0.00     0.041 C 
ATOM      3  O   UNL     1       6.494  53.342  17.714  1.00  0.00    -0.550 OA
ATOM      4  O   UNL     1       7.017  55.426  16.918  1.00  0.00    -0.550 OA
ENDBRANCH   1   2
BRANCH   1   5
ATOM      5  C   UNL     1       7.456  56.331  19.574  1.00  0.00     0.006 C 
BRANCH   5   6
ATOM      6  C   UNL     1       6.260  56.715  20.457  1.00  0.00    -0.003 C 
ATOM      7  C   UNL     1       5.729  55.506  21.220  1.00  0.00     0.004 C 
ENDBRANCH   5   6
ENDBRANCH   1   5
TORSDOF 3
ENDMDL
MODEL 7
REMARK VINA RESULT:    -3.546      3.053      4.029
REMARK INTER + INTRA:          -4.259
REMARK INTER:                  -4.172
REMARK INTRA:                  -0.087
REMARK UNBOUND:                -0.091
REMARK SMILES CCCCC(=O)[O-]
REMARK SMILES IDX 4 1 5 2 6 3 7 4 3 5 2 6 1 7
REMARK H PARENT
REMARK Flexibility Score: inf
ROOT
ATOM      1  C   UNL     1       8.201  53.979  21.269  1.00  0.00     0.053 C 
ENDROOT
BRANCH   1   2
ATOM      2  C   UNL     1       7.844  55.224  20.517  1.00  0.00     0.041 C 
ATOM      3  O   UNL     1       7.659  56.306  21.134  1.00  0.00    -0.550 OA
ATOM      4  O   UNL     1       7.681  55.183  19.138  1.00  0.00    -0.550 OA
ENDBRANCH   1   2
BRANCH   1   5
ATOM      5  C   UNL     1       9.719  53.759  21.319  1.00  0.00     0.006 C 
BRANCH   5   6
ATOM      6  C   UNL     1      10.233  53.581  22.755  1.00  0.00    -0.003 C 
ATOM      7  C   UNL     1       9.840  54.767  23.630  1.00  0.00     0.004 C 
ENDBRANCH   5   6
ENDBRANCH   1   5
TORSDOF 3
ENDMDL
MODEL 8
REMARK VINA RESULT:    -3.520      3.270      4.230
REMARK INTER + INTRA:          -4.229
REMARK INTER:                  -4.126
REMARK INTRA:                  -0.102
REMARK UNBOUND:                -0.091
REMARK SMILES CCCCC(=O)[O-]
REMARK SMILES IDX 4 1 5 2 6 3 7 4 3 5 2 6 1 7
REMARK H PARENT
REMARK Flexibility Score: inf
ROOT
ATOM      1  C   UNL     1       8.047  54.391  20.511  1.00  0.00     0.053 C 
ENDROOT
BRANCH   1   2
ATOM      2  C   UNL     1       9.155  54.235  21.506  1.00  0.00     0.041 C 
ATOM      3  O   UNL     1       9.074  54.784  22.637  1.00  0.00    -0.550 OA
ATOM      4  O   UNL     1      10.294  53.511  21.174  1.00  0.00    -0.550 OA
ENDBRANCH   1   2
BRANCH   1   5
ATOM      5  C   UNL     1       7.879  55.851  20.068  1.00  0.00     0.006 C 
BRANCH   5   6
ATOM      6  C   UNL     1       6.631  56.503  20.680  1.00  0.00    -0.003 C 
ATOM      7  C   UNL     1       5.654  55.448  21.190  1.00  0.00     0.004 C 
ENDBRANCH   5   6
ENDBRANCH   1   5
TORSDOF 3
ENDMDL
MODEL 9
REMARK VINA RESULT:    -3.508      3.253      4.030
REMARK INTER + INTRA:          -4.214
REMARK INTER:                  -4.169
REMARK INTRA:                  -0.045
REMARK UNBOUND:                -0.091
REMARK SMILES CCCCC(=O)[O-]
REMARK SMILES IDX 4 1 5 2 6 3 7 4 3 5 2 6 1 7
REMARK H PARENT
REMARK Flexibility Score: inf
ROOT
ATOM      1  C   UNL     1       8.096  54.360  20.914  1.00  0.00     0.053 C 
ENDROOT
BRANCH   1   2
ATOM      2  C   UNL     1       9.328  54.183  21.747  1.00  0.00     0.041 C 
ATOM      3  O   UNL     1      10.328  53.577  21.280  1.00  0.00    -0.550 OA
ATOM      4  O   UNL     1       9.361  54.659  23.052  1.00  0.00    -0.550 OA
ENDBRANCH   1   2
BRANCH   1   5
ATOM      5  C   UNL     1       7.668  55.832  20.834  1.00  0.00     0.006 C 
BRANCH   5   6
ATOM      6  C   UNL     1       7.393  56.279  19.391  1.00  0.00    -0.003 C 
ATOM      7  C   UNL     1       7.226  55.077  18.466  1.00  0.00     0.004 C 
ENDBRANCH   5   6
ENDBRANCH   1   5
TORSDOF 3
ENDMDL
