MODEL 1
REMARK VINA RESULT:    -4.581      0.000      0.000
REMARK INTER + INTRA:          -5.355
REMARK INTER:                  -5.519
REMARK INTRA:                   0.164
REMARK UNBOUND:                 0.164
REMARK SMILES O=c1c(O)c(-c2ccc(O)c(O)c2)oc2cc(O)cc(O)c12
REMARK SMILES IDX 5 1 3 2 2 3 1 4 22 5 20 6 19 7 17 8 16 9 15 10 14 11 6 12
REMARK SMILES IDX 7 13 8 14 9 15 13 16 11 17 10 18 12 20 4 22 21 24 18 26
REMARK H PARENT 10 19 12 21 4 23 21 25 18 27
REMARK Flexibility Score: inf
ROOT
ATOM      1  C   UNL     1      55.980  28.997 -33.802  1.00  0.00     0.180 A 
ATOM      2  C   UNL     1      56.012  30.036 -34.748  1.00  0.00     0.208 A 
ATOM      3  C   UNL     1      55.728  29.742 -36.091  1.00  0.00     0.238 A 
ATOM      4  O   UNL     1      55.812  30.666 -36.942  1.00  0.00    -0.285 OA
ATOM      5  C   UNL     1      55.401  28.418 -36.470  1.00  0.00     0.111 A 
ATOM      6  C   UNL     1      55.056  28.015 -37.795  1.00  0.00     0.134 A 
ATOM      7  C   UNL     1      54.878  26.655 -38.079  1.00  0.00     0.093 A 
ATOM      8  C   UNL     1      54.967  25.692 -37.075  1.00  0.00     0.123 A 
ATOM      9  C   UNL     1      55.245  26.081 -35.764  1.00  0.00     0.094 A 
ATOM     10  C   UNL     1      55.463  27.426 -35.456  1.00  0.00     0.146 A 
ATOM     11  O   UNL     1      55.734  27.753 -34.199  1.00  0.00    -0.452 OA
ENDROOT
BRANCH   1  12
ATOM     12  C   UNL     1      56.244  29.232 -32.365  1.00  0.00     0.025 A 
ATOM     13  C   UNL     1      56.883  28.238 -31.607  1.00  0.00     0.016 A 
ATOM     14  C   UNL     1      57.123  28.430 -30.244  1.00  0.00     0.051 A 
ATOM     15  C   UNL     1      56.715  29.609 -29.614  1.00  0.00     0.157 A 
ATOM     16  C   UNL     1      55.816  30.409 -31.724  1.00  0.00     0.062 A 
ATOM     17  C   UNL     1      56.053  30.603 -30.355  1.00  0.00     0.158 A 
BRANCH  15  18
ATOM     18  O   UNL     1      56.970  29.775 -28.253  1.00  0.00    -0.504 OA
ATOM     19  H   UNL     1      56.226  29.911 -27.578  1.00  0.00     0.293 HD
ENDBRANCH  15  18
BRANCH  17  20
ATOM     20  O   UNL     1      55.631  31.775 -29.731  1.00  0.00    -0.504 OA
ATOM     21  H   UNL     1      54.723  32.181 -29.921  1.00  0.00     0.293 HD
ENDBRANCH  17  20
ENDBRANCH   1  12
BRANCH   2  22
ATOM     22  O   UNL     1      56.359  31.332 -34.357  1.00  0.00    -0.502 OA
ATOM     23  H   UNL     1      56.407  31.612 -33.384  1.00  0.00     0.293 HD
ENDBRANCH   2  22
BRANCH   6  24
ATOM     24  O   UNL     1      54.853  28.906 -38.853  1.00  0.00    -0.507 OA
ATOM     25  H   UNL     1      55.516  29.083 -39.592  1.00  0.00     0.293 HD
ENDBRANCH   6  24
BRANCH   8  26
ATOM     26  O   UNL     1      54.768  24.350 -37.391  1.00  0.00    -0.508 OA
ATOM     27  H   UNL     1      55.487  23.655 -37.230  1.00  0.00     0.293 HD
ENDBRANCH   8  26
TORSDOF 6
ENDMDL
MODEL 2
REMARK VINA RESULT:    -4.296      2.036      7.222
REMARK INTER + INTRA:          -5.011
REMARK INTER:                  -5.486
REMARK INTRA:                   0.475
REMARK UNBOUND:                 0.164
REMARK SMILES O=c1c(O)c(-c2ccc(O)c(O)c2)oc2cc(O)cc(O)c12
REMARK SMILES IDX 5 1 3 2 2 3 1 4 22 5 20 6 19 7 17 8 16 9 15 10 14 11 6 12
REMARK SMILES IDX 7 13 8 14 9 15 13 16 11 17 10 18 12 20 4 22 21 24 18 26
REMARK H PARENT 10 19 12 21 4 23 21 25 18 27
REMARK Flexibility Score: inf
ROOT
ATOM      1  C   UNL     1      56.068  29.822 -33.964  1.00  0.00     0.180 A 
ATOM      2  C   UNL     1      56.449  28.491 -33.722  1.00  0.00     0.208 A 
ATOM      3  C   UNL     1      56.732  28.093 -32.406  1.00  0.00     0.238 A 
ATOM      4  O   UNL     1      57.125  26.915 -32.203  1.00  0.00    -0.285 OA
ATOM      5  C   UNL     1      56.614  29.025 -31.346  1.00  0.00     0.111 A 
ATOM      6  C   UNL     1      56.836  28.719 -29.970  1.00  0.00     0.134 A 
ATOM      7  C   UNL     1      56.819  29.750 -29.022  1.00  0.00     0.093 A 
ATOM      8  C   UNL     1      56.523  31.062 -29.391  1.00  0.00     0.123 A 
ATOM      9  C   UNL     1      56.246  31.362 -30.725  1.00  0.00     0.094 A 
ATOM     10  C   UNL     1      56.290  30.361 -31.699  1.00  0.00     0.146 A 
ATOM     11  O   UNL     1      56.030  30.689 -32.958  1.00  0.00    -0.452 OA
ENDROOT
BRANCH   1  12
ATOM     12  C   UNL     1      55.731  30.311 -35.320  1.00  0.00     0.025 A 
ATOM     13  C   UNL     1      55.327  31.644 -35.494  1.00  0.00     0.016 A 
ATOM     14  C   UNL     1      54.985  32.121 -36.762  1.00  0.00     0.051 A 
ATOM     15  C   UNL     1      55.023  31.271 -37.871  1.00  0.00     0.157 A 
ATOM     16  C   UNL     1      55.749  29.452 -36.434  1.00  0.00     0.062 A 
ATOM     17  C   UNL     1      55.403  29.928 -37.708  1.00  0.00     0.158 A 
BRANCH  15  18
ATOM     18  O   UNL     1      54.679  31.775 -39.125  1.00  0.00    -0.504 OA
ATOM     19  H   UNL     1      53.790  32.231 -39.296  1.00  0.00     0.293 HD
ENDBRANCH  15  18
BRANCH  17  20
ATOM     20  O   UNL     1      55.431  29.071 -38.807  1.00  0.00    -0.504 OA
ATOM     21  H   UNL     1      54.781  28.300 -38.896  1.00  0.00     0.293 HD
ENDBRANCH  17  20
ENDBRANCH   1  12
BRANCH   2  22
ATOM     22  O   UNL     1      56.580  27.594 -34.785  1.00  0.00    -0.502 OA
ATOM     23  H   UNL     1      56.126  27.740 -35.679  1.00  0.00     0.293 HD
ENDBRANCH   2  22
BRANCH   6  24
ATOM     24  O   UNL     1      57.050  27.427 -29.482  1.00  0.00    -0.507 OA
ATOM     25  H   UNL     1      56.319  26.766 -29.265  1.00  0.00     0.293 HD
ENDBRANCH   6  24
BRANCH   8  26
ATOM     26  O   UNL     1      56.498  32.060 -28.419  1.00  0.00    -0.508 OA
ATOM     27  H   UNL     1      56.924  32.965 -28.578  1.00  0.00     0.293 HD
ENDBRANCH   8  26
TORSDOF 6
ENDMDL
