MODEL 1
REMARK VINA RESULT:    -3.223      0.000      0.000
REMARK INTER + INTRA:          -3.435
REMARK INTER:                  -3.411
REMARK INTRA:                  -0.024
REMARK UNBOUND:                -0.024
REMARK SMILES O=C([O-])c1cccnc1
REMARK SMILES IDX 4 1 5 2 9 3 6 4 8 5 7 6 2 7 1 8 3 9
REMARK H PARENT
REMARK Flexibility Score: inf
ROOT
ATOM      1  C   UNL     1      62.974  35.008  60.833  1.00  0.00     0.016 A 
ATOM      2  C   UNL     1      62.615  36.329  61.146  1.00  0.00     0.013 A 
ATOM      3  C   UNL     1      62.017  34.185  60.214  1.00  0.00     0.120 A 
ATOM      4  C   UNL     1      61.335  36.799  60.843  1.00  0.00     0.021 A 
ATOM      5  N   UNL     1      60.778  34.667  59.930  1.00  0.00    -0.264 NA
ATOM      6  C   UNL     1      60.421  35.944  60.228  1.00  0.00     0.111 A 
ENDROOT
BRANCH   1   7
ATOM      7  C   UNL     1      64.326  34.500  61.150  1.00  0.00     0.073 C 
ATOM      8  O   UNL     1      65.163  35.233  61.740  1.00  0.00    -0.545 OA
ATOM      9  O   UNL     1      64.691  33.206  60.799  1.00  0.00    -0.545 OA
ENDBRANCH   1   7
TORSDOF 1
ENDMDL
MODEL 2
REMARK VINA RESULT:    -3.196     14.303     15.307
REMARK INTER + INTRA:          -3.407
REMARK INTER:                  -3.382
REMARK INTRA:                  -0.024
REMARK UNBOUND:                -0.024
REMARK SMILES O=C([O-])c1cccnc1
REMARK SMILES IDX 4 1 5 2 9 3 6 4 8 5 7 6 2 7 1 8 3 9
REMARK H PARENT
REMARK Flexibility Score: inf
ROOT
ATOM      1  C   UNL     1      54.927  27.884  50.428  1.00  0.00     0.016 A 
ATOM      2  C   UNL     1      53.613  27.603  50.023  1.00  0.00     0.013 A 
ATOM      3  C   UNL     1      55.863  26.835  50.432  1.00  0.00     0.120 A 
ATOM      4  C   UNL     1      53.259  26.309  49.637  1.00  0.00     0.021 A 
ATOM      5  N   UNL     1      55.493  25.583  50.051  1.00  0.00    -0.264 NA
ATOM      6  C   UNL     1      54.223  25.302  49.657  1.00  0.00     0.111 A 
ENDROOT
BRANCH   1   7
ATOM      7  C   UNL     1      55.313  29.251  50.839  1.00  0.00     0.073 C 
ATOM      8  O   UNL     1      54.447  30.162  50.926  1.00  0.00    -0.545 OA
ATOM      9  O   UNL     1      56.638  29.549  51.136  1.00  0.00    -0.545 OA
ENDBRANCH   1   7
TORSDOF 1
ENDMDL
MODEL 3
REMARK VINA RESULT:    -3.195      2.754      3.600
REMARK INTER + INTRA:          -3.406
REMARK INTER:                  -3.382
REMARK INTRA:                  -0.024
REMARK UNBOUND:                -0.024
REMARK SMILES O=C([O-])c1cccnc1
REMARK SMILES IDX 4 1 5 2 9 3 6 4 8 5 7 6 2 7 1 8 3 9
REMARK H PARENT
REMARK Flexibility Score: inf
ROOT
ATOM      1  C   UNL     1      62.604  35.256  60.817  1.00  0.00     0.016 A 
ATOM      2  C   UNL     1      62.939  36.546  61.259  1.00  0.00     0.013 A 
ATOM      3  C   UNL     1      63.599  34.263  60.842  1.00  0.00     0.120 A 
ATOM      4  C   UNL     1      64.232  36.821  61.708  1.00  0.00     0.021 A 
ATOM      5  N   UNL     1      64.851  34.556  61.284  1.00  0.00    -0.264 NA
ATOM      6  C   UNL     1      65.184  35.801  61.714  1.00  0.00     0.111 A 
ENDROOT
BRANCH   1   7
ATOM      7  C   UNL     1      61.238  34.954  60.338  1.00  0.00     0.073 C 
ATOM      8  O   UNL     1      60.943  33.798  59.933  1.00  0.00    -0.545 OA
ATOM      9  O   UNL     1      60.261  35.942  60.329  1.00  0.00    -0.545 OA
ENDBRANCH   1   7
TORSDOF 1
ENDMDL
MODEL 4
REMARK VINA RESULT:    -3.191     14.114     15.100
REMARK INTER + INTRA:          -3.402
REMARK INTER:                  -3.378
REMARK INTRA:                  -0.024
REMARK UNBOUND:                -0.024
REMARK SMILES O=C([O-])c1cccnc1
REMARK SMILES IDX 4 1 5 2 9 3 6 4 8 5 7 6 2 7 1 8 3 9
REMARK H PARENT
REMARK Flexibility Score: inf
ROOT
ATOM      1  C   UNL     1      55.115  27.286  50.356  1.00  0.00     0.016 A 
ATOM      2  C   UNL     1      53.803  27.744  50.160  1.00  0.00     0.013 A 
ATOM      3  C   UNL     1      56.083  28.203  50.802  1.00  0.00     0.120 A 
ATOM      4  C   UNL     1      53.482  29.081  50.404  1.00  0.00     0.021 A 
ATOM      5  N   UNL     1      55.745  29.500  51.033  1.00  0.00    -0.264 NA
ATOM      6  C   UNL     1      54.477  29.953  50.846  1.00  0.00     0.111 A 
ENDROOT
BRANCH   1   7
ATOM      7  C   UNL     1      55.466  25.872  50.100  1.00  0.00     0.073 C 
ATOM      8  O   UNL     1      54.648  25.103  49.529  1.00  0.00    -0.545 OA
ATOM      9  O   UNL     1      56.704  25.374  50.486  1.00  0.00    -0.545 OA
ENDBRANCH   1   7
TORSDOF 1
ENDMDL
MODEL 5
REMARK VINA RESULT:    -3.176      2.163      3.231
REMARK INTER + INTRA:          -3.386
REMARK INTER:                  -3.362
REMARK INTRA:                  -0.024
REMARK UNBOUND:                -0.024
REMARK SMILES O=C([O-])c1cccnc1
REMARK SMILES IDX 4 1 5 2 9 3 6 4 8 5 7 6 2 7 1 8 3 9
REMARK H PARENT
REMARK Flexibility Score: inf
ROOT
ATOM      1  C   UNL     1      63.153  34.731  60.927  1.00  0.00     0.016 A 
ATOM      2  C   UNL     1      64.503  34.585  61.283  1.00  0.00     0.013 A 
ATOM      3  C   UNL     1      62.563  36.001  61.053  1.00  0.00     0.120 A 
ATOM      4  C   UNL     1      65.229  35.682  61.750  1.00  0.00     0.021 A 
ATOM      5  N   UNL     1      63.292  37.054  61.510  1.00  0.00    -0.264 NA
ATOM      6  C   UNL     1      64.599  36.923  61.857  1.00  0.00     0.111 A 
ENDROOT
BRANCH   1   7
ATOM      7  C   UNL     1      62.375  33.575  60.432  1.00  0.00     0.073 C 
ATOM      8  O   UNL     1      61.154  33.700  60.147  1.00  0.00    -0.545 OA
ATOM      9  O   UNL     1      62.980  32.334  60.275  1.00  0.00    -0.545 OA
ENDBRANCH   1   7
TORSDOF 1
ENDMDL
MODEL 6
REMARK VINA RESULT:    -3.133      2.453      3.116
REMARK INTER + INTRA:          -3.341
REMARK INTER:                  -3.317
REMARK INTRA:                  -0.023
REMARK UNBOUND:                -0.024
REMARK SMILES O=C([O-])c1cccnc1
REMARK SMILES IDX 4 1 5 2 9 3 6 4 8 5 7 6 2 7 1 8 3 9
REMARK H PARENT
REMARK Flexibility Score: inf
ROOT
ATOM      1  C   UNL     1      63.204  34.486  60.857  1.00  0.00     0.016 A 
ATOM      2  C   UNL     1      62.568  35.733  60.963  1.00  0.00     0.013 A 
ATOM      3  C   UNL     1      64.562  34.397  61.211  1.00  0.00     0.120 A 
ATOM      4  C   UNL     1      63.279  36.848  61.410  1.00  0.00     0.021 A 
ATOM      5  N   UNL     1      65.232  35.498  61.644  1.00  0.00    -0.264 NA
ATOM      6  C   UNL     1      64.625  36.709  61.750  1.00  0.00     0.111 A 
ENDROOT
BRANCH   1   7
ATOM      7  C   UNL     1      62.460  33.299  60.384  1.00  0.00     0.073 C 
ATOM      8  O   UNL     1      61.201  33.274  60.424  1.00  0.00    -0.545 OA
ATOM      9  O   UNL     1      63.141  32.193  59.890  1.00  0.00    -0.545 OA
ENDBRANCH   1   7
TORSDOF 1
ENDMDL
MODEL 7
REMARK VINA RESULT:    -3.099     14.265     15.229
REMARK INTER + INTRA:          -3.304
REMARK INTER:                  -3.282
REMARK INTRA:                  -0.022
REMARK UNBOUND:                -0.024
REMARK SMILES O=C([O-])c1cccnc1
REMARK SMILES IDX 4 1 5 2 9 3 6 4 8 5 7 6 2 7 1 8 3 9
REMARK H PARENT
REMARK Flexibility Score: inf
ROOT
ATOM      1  C   UNL     1      55.558  27.214  50.384  1.00  0.00     0.016 A 
ATOM      2  C   UNL     1      54.345  27.914  50.286  1.00  0.00     0.013 A 
ATOM      3  C   UNL     1      55.564  25.843  50.073  1.00  0.00     0.120 A 
ATOM      4  C   UNL     1      53.182  27.252  49.890  1.00  0.00     0.021 A 
ATOM      5  N   UNL     1      54.417  25.221  49.690  1.00  0.00    -0.264 NA
ATOM      6  C   UNL     1      53.239  25.890  49.592  1.00  0.00     0.111 A 
ENDROOT
BRANCH   1   7
ATOM      7  C   UNL     1      56.796  27.906  50.804  1.00  0.00     0.073 C 
ATOM      8  O   UNL     1      57.707  27.278  51.406  1.00  0.00    -0.545 OA
ATOM      9  O   UNL     1      56.971  29.258  50.538  1.00  0.00    -0.545 OA
ENDBRANCH   1   7
TORSDOF 1
ENDMDL
MODEL 8
REMARK VINA RESULT:    -3.098      1.901      2.499
REMARK INTER + INTRA:          -3.303
REMARK INTER:                  -3.287
REMARK INTRA:                  -0.017
REMARK UNBOUND:                -0.024
REMARK SMILES O=C([O-])c1cccnc1
REMARK SMILES IDX 4 1 5 2 9 3 6 4 8 5 7 6 2 7 1 8 3 9
REMARK H PARENT
REMARK Flexibility Score: inf
ROOT
ATOM      1  C   UNL     1      63.726  33.234  60.659  1.00  0.00     0.016 A 
ATOM      2  C   UNL     1      64.449  34.359  61.084  1.00  0.00     0.013 A 
ATOM      3  C   UNL     1      62.356  33.387  60.382  1.00  0.00     0.120 A 
ATOM      4  C   UNL     1      63.810  35.592  61.227  1.00  0.00     0.021 A 
ATOM      5  N   UNL     1      61.757  34.598  60.529  1.00  0.00    -0.264 NA
ATOM      6  C   UNL     1      62.449  35.693  60.941  1.00  0.00     0.111 A 
ENDROOT
BRANCH   1   7
ATOM      7  C   UNL     1      64.392  31.923  60.504  1.00  0.00     0.073 C 
ATOM      8  O   UNL     1      64.154  30.985  61.311  1.00  0.00    -0.545 OA
ATOM      9  O   UNL     1      65.291  31.708  59.466  1.00  0.00    -0.545 OA
ENDBRANCH   1   7
TORSDOF 1
ENDMDL
MODEL 9
REMARK VINA RESULT:    -3.049      3.449      4.232
REMARK INTER + INTRA:          -3.252
REMARK INTER:                  -3.234
REMARK INTRA:                  -0.017
REMARK UNBOUND:                -0.024
REMARK SMILES O=C([O-])c1cccnc1
REMARK SMILES IDX 4 1 5 2 9 3 6 4 8 5 7 6 2 7 1 8 3 9
REMARK H PARENT
REMARK Flexibility Score: inf
ROOT
ATOM      1  C   UNL     1      62.056  32.381  60.577  1.00  0.00     0.016 A 
ATOM      2  C   UNL     1      62.031  33.784  60.534  1.00  0.00     0.013 A 
ATOM      3  C   UNL     1      63.304  31.738  60.658  1.00  0.00     0.120 A 
ATOM      4  C   UNL     1      63.224  34.509  60.570  1.00  0.00     0.021 A 
ATOM      5  N   UNL     1      64.451  32.467  60.691  1.00  0.00    -0.264 NA
ATOM      6  C   UNL     1      64.437  33.825  60.650  1.00  0.00     0.111 A 
ENDROOT
BRANCH   1   7
ATOM      7  C   UNL     1      60.799  31.604  60.540  1.00  0.00     0.073 C 
ATOM      8  O   UNL     1      60.063  31.625  59.517  1.00  0.00    -0.545 OA
ATOM      9  O   UNL     1      60.412  30.838  61.633  1.00  0.00    -0.545 OA
ENDBRANCH   1   7
TORSDOF 1
ENDMDL
