MODEL 1
REMARK VINA RESULT:    -3.645      0.000      0.000
REMARK INTER + INTRA:         -10.124
REMARK INTER:                  -7.908
REMARK INTRA:                  -2.216
REMARK UNBOUND:                -2.216
REMARK SMILES CCCCCCCCCCCCCCCCCCCCCC(=O)[O-]
REMARK SMILES IDX 12 1 11 2 10 3 9 4 8 5 7 6 6 7 5 8 4 9 3 10 2 11 1 12 13 13
REMARK SMILES IDX 14 14 15 15 16 16 17 17 18 18 19 19 20 20 21 21 22 22 23 23
REMARK SMILES IDX 24 24
REMARK H PARENT
REMARK Flexibility Score: inf
ROOT
ATOM      1  C   UNL     1     -98.707 -47.870 -71.864  1.00  0.00     0.000 C 
ENDROOT
BRANCH   1   2
ATOM      2  C   UNL     1     -98.699 -46.623 -70.965  1.00  0.00     0.000 C 
BRANCH   2   3
ATOM      3  C   UNL     1     -98.522 -47.008 -69.490  1.00  0.00     0.000 C 
BRANCH   3   4
ATOM      4  C   UNL     1     -97.755 -45.919 -68.727  1.00  0.00    -0.000 C 
BRANCH   4   5
ATOM      5  C   UNL     1     -96.953 -44.995 -69.659  1.00  0.00    -0.000 C 
BRANCH   5   6
ATOM      6  C   UNL     1     -95.491 -44.831 -69.216  1.00  0.00    -0.000 C 
BRANCH   6   7
ATOM      7  C   UNL     1     -95.094 -45.928 -68.216  1.00  0.00    -0.000 C 
BRANCH   7   8
ATOM      8  C   UNL     1     -94.083 -46.931 -68.800  1.00  0.00    -0.000 C 
BRANCH   8   9
ATOM      9  C   UNL     1     -93.507 -46.547 -70.178  1.00  0.00    -0.000 C 
BRANCH   9  10
ATOM     10  C   UNL     1     -93.792 -47.553 -71.310  1.00  0.00    -0.000 C 
BRANCH  10  11
ATOM     11  C   UNL     1     -95.215 -47.486 -71.890  1.00  0.00    -0.003 C 
ATOM     12  C   UNL     1     -95.423 -46.295 -72.824  1.00  0.00     0.004 C 
ENDBRANCH  10  11
ENDBRANCH   9  10
ENDBRANCH   8   9
ENDBRANCH   7   8
ENDBRANCH   6   7
ENDBRANCH   5   6
ENDBRANCH   4   5
ENDBRANCH   3   4
ENDBRANCH   2   3
ENDBRANCH   1   2
BRANCH   1  13
ATOM     13  C   UNL     1     -99.415 -47.627 -73.207  1.00  0.00     0.000 C 
BRANCH  13  14
ATOM     14  C   UNL     1    -100.702 -46.803 -73.061  1.00  0.00     0.000 C 
BRANCH  14  15
ATOM     15  C   UNL     1    -101.942 -47.702 -73.180  1.00  0.00     0.000 C 
BRANCH  15  16
ATOM     16  C   UNL     1    -102.818 -47.677 -71.917  1.00  0.00     0.000 C 
BRANCH  16  17
ATOM     17  C   UNL     1    -104.263 -48.117 -72.190  1.00  0.00     0.000 C 
BRANCH  17  18
ATOM     18  C   UNL     1    -104.465 -49.593 -71.815  1.00  0.00     0.000 C 
BRANCH  18  19
ATOM     19  C   UNL     1    -104.253 -50.544 -73.004  1.00  0.00     0.000 C 
BRANCH  19  20
ATOM     20  C   UNL     1    -105.204 -51.751 -72.977  1.00  0.00     0.006 C 
BRANCH  20  21
ATOM     21  C   UNL     1    -104.731 -52.797 -71.962  1.00  0.00     0.053 C 
BRANCH  21  22
ATOM     22  C   UNL     1    -104.193 -54.006 -72.661  1.00  0.00     0.041 C 
ATOM     23  O   UNL     1    -104.843 -55.085 -72.648  1.00  0.00    -0.550 OA
ATOM     24  O   UNL     1    -102.958 -53.950 -73.298  1.00  0.00    -0.550 OA
ENDBRANCH  21  22
ENDBRANCH  20  21
ENDBRANCH  19  20
ENDBRANCH  18  19
ENDBRANCH  17  18
ENDBRANCH  16  17
ENDBRANCH  15  16
ENDBRANCH  14  15
ENDBRANCH  13  14
ENDBRANCH   1  13
TORSDOF 20
ENDMDL
MODEL 2
REMARK VINA RESULT:    -3.596      1.813      2.528
REMARK INTER + INTRA:         -10.017
REMARK INTER:                  -7.338
REMARK INTRA:                  -2.679
REMARK UNBOUND:                -2.216
REMARK SMILES CCCCCCCCCCCCCCCCCCCCCC(=O)[O-]
REMARK SMILES IDX 12 1 11 2 10 3 9 4 8 5 7 6 6 7 5 8 4 9 3 10 2 11 1 12 13 13
REMARK SMILES IDX 14 14 15 15 16 16 17 17 18 18 19 19 20 20 21 21 22 22 23 23
REMARK SMILES IDX 24 24
REMARK H PARENT
REMARK Flexibility Score: inf
ROOT
ATOM      1  C   UNL     1     -98.541 -47.998 -71.889  1.00  0.00     0.000 C 
ENDROOT
BRANCH   1   2
ATOM      2  C   UNL     1     -98.125 -46.772 -71.061  1.00  0.00     0.000 C 
BRANCH   2   3
ATOM      3  C   UNL     1     -98.479 -46.962 -69.580  1.00  0.00     0.000 C 
BRANCH   3   4
ATOM      4  C   UNL     1     -97.679 -45.993 -68.697  1.00  0.00    -0.000 C 
BRANCH   4   5
ATOM      5  C   UNL     1     -96.601 -45.228 -69.481  1.00  0.00    -0.000 C 
BRANCH   5   6
ATOM      6  C   UNL     1     -95.256 -45.173 -68.740  1.00  0.00    -0.000 C 
BRANCH   6   7
ATOM      7  C   UNL     1     -94.615 -46.567 -68.661  1.00  0.00    -0.000 C 
BRANCH   7   8
ATOM      8  C   UNL     1     -93.727 -46.886 -69.878  1.00  0.00    -0.000 C 
BRANCH   8   9
ATOM      9  C   UNL     1     -94.366 -47.824 -70.922  1.00  0.00    -0.000 C 
BRANCH   9  10
ATOM     10  C   UNL     1     -94.706 -47.165 -72.273  1.00  0.00    -0.000 C 
BRANCH  10  11
ATOM     11  C   UNL     1     -95.116 -48.147 -73.385  1.00  0.00    -0.003 C 
ATOM     12  C   UNL     1     -95.023 -49.609 -72.952  1.00  0.00     0.004 C 
ENDBRANCH  10  11
ENDBRANCH   9  10
ENDBRANCH   8   9
ENDBRANCH   7   8
ENDBRANCH   6   7
ENDBRANCH   5   6
ENDBRANCH   4   5
ENDBRANCH   3   4
ENDBRANCH   2   3
ENDBRANCH   1   2
BRANCH   1  13
ATOM     13  C   UNL     1     -98.990 -47.627 -73.312  1.00  0.00     0.000 C 
BRANCH  13  14
ATOM     14  C   UNL     1    -100.333 -46.882 -73.338  1.00  0.00     0.000 C 
BRANCH  14  15
ATOM     15  C   UNL     1    -101.485 -47.821 -72.952  1.00  0.00     0.000 C 
BRANCH  15  16
ATOM     16  C   UNL     1    -102.692 -47.071 -72.365  1.00  0.00     0.000 C 
BRANCH  16  17
ATOM     17  C   UNL     1    -102.385 -46.427 -71.005  1.00  0.00     0.000 C 
BRANCH  17  18
ATOM     18  C   UNL     1    -103.605 -46.511 -70.074  1.00  0.00     0.000 C 
BRANCH  18  19
ATOM     19  C   UNL     1    -104.027 -47.958 -69.775  1.00  0.00     0.000 C 
BRANCH  19  20
ATOM     20  C   UNL     1    -105.529 -48.196 -69.997  1.00  0.00     0.006 C 
BRANCH  20  21
ATOM     21  C   UNL     1    -105.792 -48.763 -71.396  1.00  0.00     0.053 C 
BRANCH  21  22
ATOM     22  C   UNL     1    -105.158 -50.110 -71.548  1.00  0.00     0.041 C 
ATOM     23  O   UNL     1    -105.509 -51.062 -70.802  1.00  0.00    -0.550 OA
ATOM     24  O   UNL     1    -104.155 -50.304 -72.491  1.00  0.00    -0.550 OA
ENDBRANCH  21  22
ENDBRANCH  20  21
ENDBRANCH  19  20
ENDBRANCH  18  19
ENDBRANCH  17  18
ENDBRANCH  16  17
ENDBRANCH  15  16
ENDBRANCH  14  15
ENDBRANCH  13  14
ENDBRANCH   1  13
TORSDOF 20
ENDMDL
MODEL 3
REMARK VINA RESULT:    -3.561      3.297      9.153
REMARK INTER + INTRA:          -9.942
REMARK INTER:                  -7.461
REMARK INTRA:                  -2.481
REMARK UNBOUND:                -2.216
REMARK SMILES CCCCCCCCCCCCCCCCCCCCCC(=O)[O-]
REMARK SMILES IDX 12 1 11 2 10 3 9 4 8 5 7 6 6 7 5 8 4 9 3 10 2 11 1 12 13 13
REMARK SMILES IDX 14 14 15 15 16 16 17 17 18 18 19 19 20 20 21 21 22 22 23 23
REMARK SMILES IDX 24 24
REMARK H PARENT
REMARK Flexibility Score: inf
ROOT
ATOM      1  C   UNL     1     -97.607 -46.879 -71.132  1.00  0.00     0.000 C 
ENDROOT
BRANCH   1   2
ATOM      2  C   UNL     1     -98.546 -46.667 -72.331  1.00  0.00     0.000 C 
BRANCH   2   3
ATOM      3  C   UNL     1     -99.711 -47.665 -72.302  1.00  0.00     0.000 C 
BRANCH   3   4
ATOM      4  C   UNL     1    -101.059 -46.938 -72.414  1.00  0.00    -0.000 C 
BRANCH   4   5
ATOM      5  C   UNL     1    -101.779 -46.815 -71.062  1.00  0.00    -0.000 C 
BRANCH   5   6
ATOM      6  C   UNL     1    -103.166 -46.163 -71.186  1.00  0.00    -0.000 C 
BRANCH   6   7
ATOM      7  C   UNL     1    -103.985 -46.366 -69.902  1.00  0.00    -0.000 C 
BRANCH   7   8
ATOM      8  C   UNL     1    -104.069 -47.842 -69.474  1.00  0.00    -0.000 C 
BRANCH   8   9
ATOM      9  C   UNL     1    -105.394 -48.547 -69.827  1.00  0.00    -0.000 C 
BRANCH   9  10
ATOM     10  C   UNL     1    -105.265 -49.730 -70.808  1.00  0.00    -0.000 C 
BRANCH  10  11
ATOM     11  C   UNL     1    -105.180 -49.332 -72.291  1.00  0.00    -0.003 C 
ATOM     12  C   UNL     1    -103.769 -49.464 -72.863  1.00  0.00     0.004 C 
ENDBRANCH  10  11
ENDBRANCH   9  10
ENDBRANCH   8   9
ENDBRANCH   7   8
ENDBRANCH   6   7
ENDBRANCH   5   6
ENDBRANCH   4   5
ENDBRANCH   3   4
ENDBRANCH   2   3
ENDBRANCH   1   2
BRANCH   1  13
ATOM     13  C   UNL     1     -98.353 -46.870 -69.788  1.00  0.00     0.000 C 
BRANCH  13  14
ATOM     14  C   UNL     1     -97.700 -45.946 -68.750  1.00  0.00     0.000 C 
BRANCH  14  15
ATOM     15  C   UNL     1     -96.907 -44.825 -69.440  1.00  0.00     0.000 C 
BRANCH  15  16
ATOM     16  C   UNL     1     -95.446 -44.754 -68.969  1.00  0.00     0.000 C 
BRANCH  16  17
ATOM     17  C   UNL     1     -95.054 -45.937 -68.071  1.00  0.00     0.000 C 
BRANCH  17  18
ATOM     18  C   UNL     1     -94.009 -46.825 -68.764  1.00  0.00     0.000 C 
BRANCH  18  19
ATOM     19  C   UNL     1     -93.211 -46.075 -69.842  1.00  0.00     0.000 C 
BRANCH  19  20
ATOM     20  C   UNL     1     -93.333 -46.724 -71.230  1.00  0.00     0.006 C 
BRANCH  20  21
ATOM     21  C   UNL     1     -94.252 -47.949 -71.183  1.00  0.00     0.053 C 
BRANCH  21  22
ATOM     22  C   UNL     1     -94.293 -48.630 -72.515  1.00  0.00     0.041 C 
ATOM     23  O   UNL     1     -93.303 -48.560 -73.291  1.00  0.00    -0.550 OA
ATOM     24  O   UNL     1     -95.437 -49.313 -72.912  1.00  0.00    -0.550 OA
ENDBRANCH  21  22
ENDBRANCH  20  21
ENDBRANCH  19  20
ENDBRANCH  18  19
ENDBRANCH  17  18
ENDBRANCH  16  17
ENDBRANCH  15  16
ENDBRANCH  14  15
ENDBRANCH  13  14
ENDBRANCH   1  13
TORSDOF 20
ENDMDL
MODEL 4
REMARK VINA RESULT:    -3.510     13.057     15.474
REMARK INTER + INTRA:          -9.830
REMARK INTER:                  -6.105
REMARK INTRA:                  -3.726
REMARK UNBOUND:                -2.216
REMARK SMILES CCCCCCCCCCCCCCCCCCCCCC(=O)[O-]
REMARK SMILES IDX 12 1 11 2 10 3 9 4 8 5 7 6 6 7 5 8 4 9 3 10 2 11 1 12 13 13
REMARK SMILES IDX 14 14 15 15 16 16 17 17 18 18 19 19 20 20 21 21 22 22 23 23
REMARK SMILES IDX 24 24
REMARK H PARENT
REMARK Flexibility Score: inf
ROOT
ATOM      1  C   UNL     1    -110.119 -45.211 -62.571  1.00  0.00     0.000 C 
ENDROOT
BRANCH   1   2
ATOM      2  C   UNL     1    -109.778 -44.714 -61.157  1.00  0.00     0.000 C 
BRANCH   2   3
ATOM      3  C   UNL     1    -110.882 -45.089 -60.159  1.00  0.00     0.000 C 
BRANCH   3   4
ATOM      4  C   UNL     1    -110.480 -44.707 -58.727  1.00  0.00    -0.000 C 
BRANCH   4   5
ATOM      5  C   UNL     1    -110.343 -45.928 -57.804  1.00  0.00    -0.000 C 
BRANCH   5   6
ATOM      6  C   UNL     1    -108.879 -46.323 -57.558  1.00  0.00    -0.000 C 
BRANCH   6   7
ATOM      7  C   UNL     1    -108.581 -46.415 -56.053  1.00  0.00    -0.000 C 
BRANCH   7   8
ATOM      8  C   UNL     1    -107.478 -47.438 -55.724  1.00  0.00    -0.000 C 
BRANCH   8   9
ATOM      9  C   UNL     1    -107.241 -48.510 -56.806  1.00  0.00    -0.000 C 
BRANCH   9  10
ATOM     10  C   UNL     1    -107.696 -49.934 -56.429  1.00  0.00    -0.000 C 
BRANCH  10  11
ATOM     11  C   UNL     1    -108.859 -50.484 -57.272  1.00  0.00    -0.003 C 
ATOM     12  C   UNL     1    -110.177 -49.753 -57.018  1.00  0.00     0.004 C 
ENDBRANCH  10  11
ENDBRANCH   9  10
ENDBRANCH   8   9
ENDBRANCH   7   8
ENDBRANCH   6   7
ENDBRANCH   5   6
ENDBRANCH   4   5
ENDBRANCH   3   4
ENDBRANCH   2   3
ENDBRANCH   1   2
BRANCH   1  13
ATOM     13  C   UNL     1    -111.349 -46.132 -62.593  1.00  0.00     0.000 C 
BRANCH  13  14
ATOM     14  C   UNL     1    -111.162 -47.355 -63.503  1.00  0.00     0.000 C 
BRANCH  14  15
ATOM     15  C   UNL     1    -111.559 -48.646 -62.771  1.00  0.00     0.000 C 
BRANCH  15  16
ATOM     16  C   UNL     1    -111.365 -48.550 -61.249  1.00  0.00     0.000 C 
BRANCH  16  17
ATOM     17  C   UNL     1    -110.166 -49.370 -60.752  1.00  0.00     0.000 C 
BRANCH  17  18
ATOM     18  C   UNL     1    -108.982 -48.454 -60.408  1.00  0.00     0.000 C 
BRANCH  18  19
ATOM     19  C   UNL     1    -108.063 -48.193 -61.612  1.00  0.00     0.000 C 
BRANCH  19  20
ATOM     20  C   UNL     1    -107.756 -49.467 -62.413  1.00  0.00     0.006 C 
BRANCH  20  21
ATOM     21  C   UNL     1    -107.939 -49.226 -63.915  1.00  0.00     0.053 C 
BRANCH  21  22
ATOM     22  C   UNL     1    -107.039 -50.123 -64.708  1.00  0.00     0.041 C 
ATOM     23  O   UNL     1    -106.745 -49.831 -65.898  1.00  0.00    -0.550 OA
ATOM     24  O   UNL     1    -106.554 -51.298 -64.144  1.00  0.00    -0.550 OA
ENDBRANCH  21  22
ENDBRANCH  20  21
ENDBRANCH  19  20
ENDBRANCH  18  19
ENDBRANCH  17  18
ENDBRANCH  16  17
ENDBRANCH  15  16
ENDBRANCH  14  15
ENDBRANCH  13  14
ENDBRANCH   1  13
TORSDOF 20
ENDMDL
MODEL 5
REMARK VINA RESULT:    -3.470      1.146      2.673
REMARK INTER + INTRA:          -9.743
REMARK INTER:                  -6.920
REMARK INTRA:                  -2.823
REMARK UNBOUND:                -2.216
REMARK SMILES CCCCCCCCCCCCCCCCCCCCCC(=O)[O-]
REMARK SMILES IDX 12 1 11 2 10 3 9 4 8 5 7 6 6 7 5 8 4 9 3 10 2 11 1 12 13 13
REMARK SMILES IDX 14 14 15 15 16 16 17 17 18 18 19 19 20 20 21 21 22 22 23 23
REMARK SMILES IDX 24 24
REMARK H PARENT
REMARK Flexibility Score: inf
ROOT
ATOM      1  C   UNL     1     -98.843 -48.020 -72.120  1.00  0.00     0.000 C 
ENDROOT
BRANCH   1   2
ATOM      2  C   UNL     1     -97.693 -47.266 -72.807  1.00  0.00     0.000 C 
BRANCH   2   3
ATOM      3  C   UNL     1     -96.330 -47.788 -72.331  1.00  0.00     0.000 C 
BRANCH   3   4
ATOM      4  C   UNL     1     -95.204 -46.821 -72.726  1.00  0.00    -0.000 C 
BRANCH   4   5
ATOM      5  C   UNL     1     -94.068 -46.781 -71.692  1.00  0.00    -0.000 C 
BRANCH   5   6
ATOM      6  C   UNL     1     -94.400 -47.570 -70.416  1.00  0.00    -0.000 C 
BRANCH   6   7
ATOM      7  C   UNL     1     -94.239 -46.689 -69.168  1.00  0.00    -0.000 C 
BRANCH   7   8
ATOM      8  C   UNL     1     -94.298 -45.184 -69.488  1.00  0.00    -0.000 C 
BRANCH   8   9
ATOM      9  C   UNL     1     -95.629 -44.494 -69.129  1.00  0.00    -0.000 C 
BRANCH   9  10
ATOM     10  C   UNL     1     -96.746 -44.640 -70.182  1.00  0.00    -0.000 C 
BRANCH  10  11
ATOM     11  C   UNL     1     -98.102 -45.107 -69.624  1.00  0.00    -0.003 C 
ATOM     12  C   UNL     1     -98.033 -46.483 -68.965  1.00  0.00     0.004 C 
ENDBRANCH  10  11
ENDBRANCH   9  10
ENDBRANCH   8   9
ENDBRANCH   7   8
ENDBRANCH   6   7
ENDBRANCH   5   6
ENDBRANCH   4   5
ENDBRANCH   3   4
ENDBRANCH   2   3
ENDBRANCH   1   2
BRANCH   1  13
ATOM     13  C   UNL     1    -100.225 -47.575 -72.623  1.00  0.00     0.000 C 
BRANCH  13  14
ATOM     14  C   UNL     1    -100.631 -46.188 -72.105  1.00  0.00     0.000 C 
BRANCH  14  15
ATOM     15  C   UNL     1    -101.646 -46.309 -70.959  1.00  0.00     0.000 C 
BRANCH  15  16
ATOM     16  C   UNL     1    -103.037 -46.750 -71.441  1.00  0.00     0.000 C 
BRANCH  16  17
ATOM     17  C   UNL     1    -103.654 -47.840 -70.553  1.00  0.00     0.000 C 
BRANCH  17  18
ATOM     18  C   UNL     1    -104.393 -48.885 -71.405  1.00  0.00     0.000 C 
BRANCH  18  19
ATOM     19  C   UNL     1    -103.717 -49.131 -72.763  1.00  0.00     0.000 C 
BRANCH  19  20
ATOM     20  C   UNL     1    -104.259 -50.378 -73.479  1.00  0.00     0.006 C 
BRANCH  20  21
ATOM     21  C   UNL     1    -104.469 -51.529 -72.489  1.00  0.00     0.053 C 
BRANCH  21  22
ATOM     22  C   UNL     1    -104.310 -52.850 -73.173  1.00  0.00     0.041 C 
ATOM     23  O   UNL     1    -105.149 -53.219 -74.038  1.00  0.00    -0.550 OA
ATOM     24  O   UNL     1    -103.255 -53.689 -72.831  1.00  0.00    -0.550 OA
ENDBRANCH  21  22
ENDBRANCH  20  21
ENDBRANCH  19  20
ENDBRANCH  18  19
ENDBRANCH  17  18
ENDBRANCH  16  17
ENDBRANCH  15  16
ENDBRANCH  14  15
ENDBRANCH  13  14
ENDBRANCH   1  13
TORSDOF 20
ENDMDL
MODEL 6
REMARK VINA RESULT:    -3.452     13.578     16.050
REMARK INTER + INTRA:          -9.705
REMARK INTER:                  -6.290
REMARK INTRA:                  -3.416
REMARK UNBOUND:                -2.216
REMARK SMILES CCCCCCCCCCCCCCCCCCCCCC(=O)[O-]
REMARK SMILES IDX 12 1 11 2 10 3 9 4 8 5 7 6 6 7 5 8 4 9 3 10 2 11 1 12 13 13
REMARK SMILES IDX 14 14 15 15 16 16 17 17 18 18 19 19 20 20 21 21 22 22 23 23
REMARK SMILES IDX 24 24
REMARK H PARENT
REMARK Flexibility Score: inf
ROOT
ATOM      1  C   UNL     1    -109.378 -46.016 -56.676  1.00  0.00     0.000 C 
ENDROOT
BRANCH   1   2
ATOM      2  C   UNL     1    -108.130 -46.812 -56.261  1.00  0.00     0.000 C 
BRANCH   2   3
ATOM      3  C   UNL     1    -107.636 -47.700 -57.410  1.00  0.00     0.000 C 
BRANCH   3   4
ATOM      4  C   UNL     1    -107.294 -49.110 -56.905  1.00  0.00    -0.000 C 
BRANCH   4   5
ATOM      5  C   UNL     1    -107.837 -49.381 -55.493  1.00  0.00    -0.000 C 
BRANCH   5   6
ATOM      6  C   UNL     1    -108.568 -50.729 -55.389  1.00  0.00    -0.000 C 
BRANCH   6   7
ATOM      7  C   UNL     1    -107.756 -51.847 -56.059  1.00  0.00    -0.000 C 
BRANCH   7   8
ATOM      8  C   UNL     1    -108.610 -52.735 -56.983  1.00  0.00    -0.000 C 
BRANCH   8   9
ATOM      9  C   UNL     1    -108.370 -52.525 -58.491  1.00  0.00    -0.000 C 
BRANCH   9  10
ATOM     10  C   UNL     1    -109.212 -51.408 -59.139  1.00  0.00    -0.000 C 
BRANCH  10  11
ATOM     11  C   UNL     1    -110.638 -51.267 -58.578  1.00  0.00    -0.003 C 
ATOM     12  C   UNL     1    -110.930 -49.867 -58.038  1.00  0.00     0.004 C 
ENDBRANCH  10  11
ENDBRANCH   9  10
ENDBRANCH   8   9
ENDBRANCH   7   8
ENDBRANCH   6   7
ENDBRANCH   5   6
ENDBRANCH   4   5
ENDBRANCH   3   4
ENDBRANCH   2   3
ENDBRANCH   1   2
BRANCH   1  13
ATOM     13  C   UNL     1    -109.906 -46.424 -58.060  1.00  0.00     0.000 C 
BRANCH  13  14
ATOM     14  C   UNL     1    -109.840 -45.282 -59.084  1.00  0.00     0.000 C 
BRANCH  14  15
ATOM     15  C   UNL     1    -109.443 -45.813 -60.469  1.00  0.00     0.000 C 
BRANCH  15  16
ATOM     16  C   UNL     1    -110.509 -46.738 -61.079  1.00  0.00     0.000 C 
BRANCH  16  17
ATOM     17  C   UNL     1    -110.029 -48.191 -61.207  1.00  0.00     0.000 C 
BRANCH  17  18
ATOM     18  C   UNL     1    -108.504 -48.279 -61.041  1.00  0.00     0.000 C 
BRANCH  18  19
ATOM     19  C   UNL     1    -107.824 -49.052 -62.182  1.00  0.00     0.000 C 
BRANCH  19  20
ATOM     20  C   UNL     1    -108.503 -48.823 -63.541  1.00  0.00     0.006 C 
BRANCH  20  21
ATOM     21  C   UNL     1    -108.773 -50.155 -64.249  1.00  0.00     0.053 C 
BRANCH  21  22
ATOM     22  C   UNL     1    -107.494 -50.893 -64.492  1.00  0.00     0.041 C 
ATOM     23  O   UNL     1    -107.315 -52.032 -63.983  1.00  0.00    -0.550 OA
ATOM     24  O   UNL     1    -106.486 -50.310 -65.252  1.00  0.00    -0.550 OA
ENDBRANCH  21  22
ENDBRANCH  20  21
ENDBRANCH  19  20
ENDBRANCH  18  19
ENDBRANCH  17  18
ENDBRANCH  16  17
ENDBRANCH  15  16
ENDBRANCH  14  15
ENDBRANCH  13  14
ENDBRANCH   1  13
TORSDOF 20
ENDMDL
MODEL 7
REMARK VINA RESULT:    -3.444     13.745     16.223
REMARK INTER + INTRA:          -9.686
REMARK INTER:                  -6.086
REMARK INTRA:                  -3.600
REMARK UNBOUND:                -2.216
REMARK SMILES CCCCCCCCCCCCCCCCCCCCCC(=O)[O-]
REMARK SMILES IDX 12 1 11 2 10 3 9 4 8 5 7 6 6 7 5 8 4 9 3 10 2 11 1 12 13 13
REMARK SMILES IDX 14 14 15 15 16 16 17 17 18 18 19 19 20 20 21 21 22 22 23 23
REMARK SMILES IDX 24 24
REMARK H PARENT
REMARK Flexibility Score: inf
ROOT
ATOM      1  C   UNL     1    -110.822 -45.477 -56.703  1.00  0.00     0.000 C 
ENDROOT
BRANCH   1   2
ATOM      2  C   UNL     1    -109.757 -45.354 -55.601  1.00  0.00     0.000 C 
BRANCH   2   3
ATOM      3  C   UNL     1    -109.800 -46.562 -54.656  1.00  0.00     0.000 C 
BRANCH   3   4
ATOM      4  C   UNL     1    -108.659 -47.542 -54.967  1.00  0.00    -0.000 C 
BRANCH   4   5
ATOM      5  C   UNL     1    -107.527 -46.895 -55.780  1.00  0.00    -0.000 C 
BRANCH   5   6
ATOM      6  C   UNL     1    -107.103 -47.746 -56.987  1.00  0.00    -0.000 C 
BRANCH   6   7
ATOM      7  C   UNL     1    -108.200 -47.758 -58.062  1.00  0.00    -0.000 C 
BRANCH   7   8
ATOM      8  C   UNL     1    -108.999 -49.074 -58.086  1.00  0.00    -0.000 C 
BRANCH   8   9
ATOM      9  C   UNL     1    -110.525 -48.911 -57.945  1.00  0.00    -0.000 C 
BRANCH   9  10
ATOM     10  C   UNL     1    -111.369 -49.935 -58.731  1.00  0.00    -0.000 C 
BRANCH  10  11
ATOM     11  C   UNL     1    -110.642 -51.250 -59.063  1.00  0.00    -0.003 C 
ATOM     12  C   UNL     1    -110.968 -51.774 -60.461  1.00  0.00     0.004 C 
ENDBRANCH  10  11
ENDBRANCH   9  10
ENDBRANCH   8   9
ENDBRANCH   7   8
ENDBRANCH   6   7
ENDBRANCH   5   6
ENDBRANCH   4   5
ENDBRANCH   3   4
ENDBRANCH   2   3
ENDBRANCH   1   2
BRANCH   1  13
ATOM     13  C   UNL     1    -110.482 -44.646 -57.950  1.00  0.00     0.000 C 
BRANCH  13  14
ATOM     14  C   UNL     1    -110.696 -45.420 -59.259  1.00  0.00     0.000 C 
BRANCH  14  15
ATOM     15  C   UNL     1    -109.680 -44.983 -60.324  1.00  0.00     0.000 C 
BRANCH  15  16
ATOM     16  C   UNL     1    -109.282 -46.127 -61.270  1.00  0.00     0.000 C 
BRANCH  16  17
ATOM     17  C   UNL     1    -110.398 -47.167 -61.445  1.00  0.00     0.000 C 
BRANCH  17  18
ATOM     18  C   UNL     1    -109.809 -48.559 -61.722  1.00  0.00     0.000 C 
BRANCH  18  19
ATOM     19  C   UNL     1    -108.273 -48.574 -61.683  1.00  0.00     0.000 C 
BRANCH  19  20
ATOM     20  C   UNL     1    -107.661 -49.536 -62.714  1.00  0.00     0.006 C 
BRANCH  20  21
ATOM     21  C   UNL     1    -108.152 -49.207 -64.128  1.00  0.00     0.053 C 
BRANCH  21  22
ATOM     22  C   UNL     1    -107.241 -49.802 -65.155  1.00  0.00     0.041 C 
ATOM     23  O   UNL     1    -106.337 -50.608 -64.807  1.00  0.00    -0.550 OA
ATOM     24  O   UNL     1    -107.367 -49.440 -66.492  1.00  0.00    -0.550 OA
ENDBRANCH  21  22
ENDBRANCH  20  21
ENDBRANCH  19  20
ENDBRANCH  18  19
ENDBRANCH  17  18
ENDBRANCH  16  17
ENDBRANCH  15  16
ENDBRANCH  14  15
ENDBRANCH  13  14
ENDBRANCH   1  13
TORSDOF 20
ENDMDL
MODEL 8
REMARK VINA RESULT:    -3.443     13.491     16.271
REMARK INTER + INTRA:          -9.685
REMARK INTER:                  -5.934
REMARK INTRA:                  -3.751
REMARK UNBOUND:                -2.216
REMARK SMILES CCCCCCCCCCCCCCCCCCCCCC(=O)[O-]
REMARK SMILES IDX 12 1 11 2 10 3 9 4 8 5 7 6 6 7 5 8 4 9 3 10 2 11 1 12 13 13
REMARK SMILES IDX 14 14 15 15 16 16 17 17 18 18 19 19 20 20 21 21 22 22 23 23
REMARK SMILES IDX 24 24
REMARK H PARENT
REMARK Flexibility Score: inf
ROOT
ATOM      1  C   UNL     1    -107.105 -47.646 -57.375  1.00  0.00     0.000 C 
ENDROOT
BRANCH   1   2
ATOM      2  C   UNL     1    -107.755 -48.245 -56.117  1.00  0.00     0.000 C 
BRANCH   2   3
ATOM      3  C   UNL     1    -107.964 -49.757 -56.272  1.00  0.00     0.000 C 
BRANCH   3   4
ATOM      4  C   UNL     1    -109.243 -50.211 -55.553  1.00  0.00    -0.000 C 
BRANCH   4   5
ATOM      5  C   UNL     1    -110.511 -49.574 -56.143  1.00  0.00    -0.000 C 
BRANCH   5   6
ATOM      6  C   UNL     1    -111.163 -50.447 -57.226  1.00  0.00    -0.000 C 
BRANCH   6   7
ATOM      7  C   UNL     1    -111.054 -49.781 -58.606  1.00  0.00    -0.000 C 
BRANCH   7   8
ATOM      8  C   UNL     1    -109.859 -50.298 -59.427  1.00  0.00    -0.000 C 
BRANCH   8   9
ATOM      9  C   UNL     1    -109.796 -51.830 -59.589  1.00  0.00    -0.000 C 
BRANCH   9  10
ATOM     10  C   UNL     1    -108.513 -52.494 -59.047  1.00  0.00    -0.000 C 
BRANCH  10  11
ATOM     11  C   UNL     1    -108.670 -53.176 -57.677  1.00  0.00    -0.003 C 
ATOM     12  C   UNL     1    -109.941 -54.018 -57.572  1.00  0.00     0.004 C 
ENDBRANCH  10  11
ENDBRANCH   9  10
ENDBRANCH   8   9
ENDBRANCH   7   8
ENDBRANCH   6   7
ENDBRANCH   5   6
ENDBRANCH   4   5
ENDBRANCH   3   4
ENDBRANCH   2   3
ENDBRANCH   1   2
BRANCH   1  13
ATOM     13  C   UNL     1    -108.121 -47.389 -58.500  1.00  0.00     0.000 C 
BRANCH  13  14
ATOM     14  C   UNL     1    -109.333 -46.569 -58.033  1.00  0.00     0.000 C 
BRANCH  14  15
ATOM     15  C   UNL     1    -110.126 -46.036 -59.235  1.00  0.00     0.000 C 
BRANCH  15  16
ATOM     16  C   UNL     1    -109.386 -46.228 -60.568  1.00  0.00     0.000 C 
BRANCH  16  17
ATOM     17  C   UNL     1    -110.336 -46.536 -61.734  1.00  0.00     0.000 C 
BRANCH  17  18
ATOM     18  C   UNL     1    -109.605 -47.305 -62.845  1.00  0.00     0.000 C 
BRANCH  18  19
ATOM     19  C   UNL     1    -109.332 -48.771 -62.474  1.00  0.00     0.000 C 
BRANCH  19  20
ATOM     20  C   UNL     1    -107.837 -49.065 -62.272  1.00  0.00     0.006 C 
BRANCH  20  21
ATOM     21  C   UNL     1    -107.461 -50.425 -62.867  1.00  0.00     0.053 C 
BRANCH  21  22
ATOM     22  C   UNL     1    -107.629 -50.416 -64.354  1.00  0.00     0.041 C 
ATOM     23  O   UNL     1    -108.369 -51.270 -64.912  1.00  0.00    -0.550 OA
ATOM     24  O   UNL     1    -106.942 -49.487 -65.127  1.00  0.00    -0.550 OA
ENDBRANCH  21  22
ENDBRANCH  20  21
ENDBRANCH  19  20
ENDBRANCH  18  19
ENDBRANCH  17  18
ENDBRANCH  16  17
ENDBRANCH  15  16
ENDBRANCH  14  15
ENDBRANCH  13  14
ENDBRANCH   1  13
TORSDOF 20
ENDMDL
MODEL 9
REMARK VINA RESULT:    -3.419     13.648     16.328
REMARK INTER + INTRA:          -9.634
REMARK INTER:                  -5.829
REMARK INTRA:                  -3.805
REMARK UNBOUND:                -2.216
REMARK SMILES CCCCCCCCCCCCCCCCCCCCCC(=O)[O-]
REMARK SMILES IDX 12 1 11 2 10 3 9 4 8 5 7 6 6 7 5 8 4 9 3 10 2 11 1 12 13 13
REMARK SMILES IDX 14 14 15 15 16 16 17 17 18 18 19 19 20 20 21 21 22 22 23 23
REMARK SMILES IDX 24 24
REMARK H PARENT
REMARK Flexibility Score: inf
ROOT
ATOM      1  C   UNL     1    -106.981 -47.738 -57.195  1.00  0.00     0.000 C 
ENDROOT
BRANCH   1   2
ATOM      2  C   UNL     1    -107.414 -47.471 -55.745  1.00  0.00     0.000 C 
BRANCH   2   3
ATOM      3  C   UNL     1    -108.430 -46.323 -55.675  1.00  0.00     0.000 C 
BRANCH   3   4
ATOM      4  C   UNL     1    -109.569 -46.657 -54.702  1.00  0.00    -0.000 C 
BRANCH   4   5
ATOM      5  C   UNL     1    -110.377 -47.891 -55.136  1.00  0.00    -0.000 C 
BRANCH   5   6
ATOM      6  C   UNL     1    -111.309 -47.600 -56.324  1.00  0.00    -0.000 C 
BRANCH   6   7
ATOM      7  C   UNL     1    -111.517 -48.860 -57.178  1.00  0.00    -0.000 C 
BRANCH   7   8
ATOM      8  C   UNL     1    -112.178 -48.559 -58.535  1.00  0.00    -0.000 C 
BRANCH   8   9
ATOM      9  C   UNL     1    -111.587 -49.330 -59.733  1.00  0.00    -0.000 C 
BRANCH   9  10
ATOM     10  C   UNL     1    -111.086 -50.752 -59.413  1.00  0.00    -0.000 C 
BRANCH  10  11
ATOM     11  C   UNL     1    -109.736 -51.120 -60.052  1.00  0.00    -0.003 C 
ATOM     12  C   UNL     1    -108.952 -52.150 -59.240  1.00  0.00     0.004 C 
ENDBRANCH  10  11
ENDBRANCH   9  10
ENDBRANCH   8   9
ENDBRANCH   7   8
ENDBRANCH   6   7
ENDBRANCH   5   6
ENDBRANCH   4   5
ENDBRANCH   3   4
ENDBRANCH   2   3
ENDBRANCH   1   2
BRANCH   1  13
ATOM     13  C   UNL     1    -108.097 -48.377 -58.037  1.00  0.00     0.000 C 
BRANCH  13  14
ATOM     14  C   UNL     1    -108.285 -47.690 -59.398  1.00  0.00     0.000 C 
BRANCH  14  15
ATOM     15  C   UNL     1    -109.212 -46.472 -59.271  1.00  0.00     0.000 C 
BRANCH  15  16
ATOM     16  C   UNL     1    -109.821 -46.046 -60.616  1.00  0.00     0.000 C 
BRANCH  16  17
ATOM     17  C   UNL     1    -109.200 -46.787 -61.809  1.00  0.00     0.000 C 
BRANCH  17  18
ATOM     18  C   UNL     1    -110.272 -47.567 -62.587  1.00  0.00     0.000 C 
BRANCH  18  19
ATOM     19  C   UNL     1    -109.769 -48.927 -63.093  1.00  0.00     0.000 C 
BRANCH  19  20
ATOM     20  C   UNL     1    -108.263 -48.927 -63.400  1.00  0.00     0.006 C 
BRANCH  20  21
ATOM     21  C   UNL     1    -107.576 -50.143 -62.769  1.00  0.00     0.053 C 
BRANCH  21  22
ATOM     22  C   UNL     1    -107.257 -51.169 -63.811  1.00  0.00     0.041 C 
ATOM     23  O   UNL     1    -108.177 -51.871 -64.310  1.00  0.00    -0.550 OA
ATOM     24  O   UNL     1    -105.939 -51.373 -64.207  1.00  0.00    -0.550 OA
ENDBRANCH  21  22
ENDBRANCH  20  21
ENDBRANCH  19  20
ENDBRANCH  18  19
ENDBRANCH  17  18
ENDBRANCH  16  17
ENDBRANCH  15  16
ENDBRANCH  14  15
ENDBRANCH  13  14
ENDBRANCH   1  13
TORSDOF 20
ENDMDL
