MODEL 1
REMARK VINA RESULT:    10.169      0.000      0.000
REMARK INTER + INTRA:          17.629
REMARK INTER:                  14.925
REMARK INTRA:                   2.705
REMARK UNBOUND:                 2.705
REMARK SMILES O=c1c(O[C@@H]2O[C@@H](CO)[C@@H](O)[C@@H](O)[C@H]2O)c(-c2ccc(O)c(O)c2)oc2cc(O)cc(O)c12
REMARK SMILES IDX 4 1 3 2 16 3 25 4 2 5 26 6 1 7 33 8 27 9 31 10 28 11 30 12
REMARK SMILES IDX 17 13 18 14 19 15 20 16 24 17 22 18 21 19 23 21 32 23 29 25
REMARK SMILES IDX 5 27 14 28 6 29 12 30 7 31 10 32 15 33 13 35 8 37 9 38 11 40
REMARK H PARENT 21 20 23 22 32 24 29 26 15 34 13 36 9 39 11 41
REMARK Flexibility Score: inf
ROOT
ATOM      1  O   UNL     1       6.516   9.539   7.257  1.00  0.00    -0.454 OA
ENDROOT
BRANCH   1   2
ATOM      2  C   UNL     1       5.233  10.074   7.485  1.00  0.00     0.214 A 
ATOM      3  C   UNL     1       4.613  10.780   6.433  1.00  0.00     0.180 A 
ATOM      4  O   UNL     1       3.383  11.260   6.580  1.00  0.00    -0.452 OA
ATOM      5  C   UNL     1       4.517   9.918   8.696  1.00  0.00     0.239 A 
ATOM      6  C   UNL     1       2.680  11.137   7.698  1.00  0.00     0.146 A 
ATOM      7  O   UNL     1       5.025   9.289   9.661  1.00  0.00    -0.285 OA
ATOM      8  C   UNL     1       3.220  10.463   8.816  1.00  0.00     0.111 A 
ATOM      9  C   UNL     1       1.396  11.687   7.756  1.00  0.00     0.094 A 
ATOM     10  C   UNL     1       2.441  10.354   9.994  1.00  0.00     0.134 A 
ATOM     11  C   UNL     1       0.633  11.577   8.922  1.00  0.00     0.123 A 
ATOM     12  C   UNL     1       1.155  10.915  10.034  1.00  0.00     0.093 A 
BRANCH   3  13
ATOM     13  C   UNL     1       5.285  10.988   5.131  1.00  0.00     0.025 A 
ATOM     14  C   UNL     1       4.896  10.224   4.021  1.00  0.00     0.016 A 
ATOM     15  C   UNL     1       5.515  10.410   2.782  1.00  0.00     0.051 A 
ATOM     16  C   UNL     1       6.522  11.370   2.632  1.00  0.00     0.157 A 
ATOM     17  C   UNL     1       6.277  11.972   4.971  1.00  0.00     0.062 A 
ATOM     18  C   UNL     1       6.903  12.158   3.730  1.00  0.00     0.158 A 
BRANCH  16  19
ATOM     19  O   UNL     1       7.126  11.529   1.385  1.00  0.00    -0.504 OA
ATOM     20  H   UNL     1       7.979  11.043   1.136  1.00  0.00     0.293 HD
ENDBRANCH  16  19
BRANCH  18  21
ATOM     21  O   UNL     1       7.897  13.125   3.586  1.00  0.00    -0.504 OA
ATOM     22  H   UNL     1       8.570  13.085   2.829  1.00  0.00     0.293 HD
ENDBRANCH  18  21
ENDBRANCH   3  13
BRANCH  10  23
ATOM     23  O   UNL     1       2.933   9.698  11.124  1.00  0.00    -0.507 OA
ATOM     24  H   UNL     1       3.784   9.150  11.094  1.00  0.00     0.293 HD
ENDBRANCH  10  23
BRANCH  11  25
ATOM     25  O   UNL     1      -0.647  12.122   8.986  1.00  0.00    -0.508 OA
ATOM     26  H   UNL     1      -0.977  12.604   9.815  1.00  0.00     0.293 HD
ENDBRANCH  11  25
ENDBRANCH   1   2
BRANCH   1  27
ATOM     27  C   UNL     1       7.743   9.903   7.898  1.00  0.00     0.339 C 
ATOM     28  C   UNL     1       8.792  10.297   6.834  1.00  0.00     0.214 C 
ATOM     29  O   UNL     1       7.551  10.943   8.847  1.00  0.00    -0.332 OA
ATOM     30  C   UNL     1       8.445  11.658   6.191  1.00  0.00     0.180 C 
ATOM     31  C   UNL     1       7.052  12.124   8.238  1.00  0.00     0.179 C 
ATOM     32  C   UNL     1       8.089  12.714   7.254  1.00  0.00     0.177 C 
BRANCH  28  33
ATOM     33  O   UNL     1      10.096  10.299   7.367  1.00  0.00    -0.384 OA
ATOM     34  H   UNL     1      10.626   9.601   6.903  1.00  0.00     0.211 HD
ENDBRANCH  28  33
BRANCH  30  35
ATOM     35  O   UNL     1       9.508  12.115   5.395  1.00  0.00    -0.387 OA
ATOM     36  H   UNL     1       9.114  12.410   4.532  1.00  0.00     0.211 HD
ENDBRANCH  30  35
BRANCH  31  37
ATOM     37  C   UNL     1       6.687  13.125   9.345  1.00  0.00     0.191 C 
BRANCH  37  38
ATOM     38  O   UNL     1       7.604  13.062  10.404  1.00  0.00    -0.394 OA
ATOM     39  H   UNL     1       7.104  13.306  11.227  1.00  0.00     0.210 HD
ENDBRANCH  37  38
ENDBRANCH  31  37
BRANCH  32  40
ATOM     40  O   UNL     1       9.238  13.123   7.952  1.00  0.00    -0.387 OA
ATOM     41  H   UNL     1       8.937  13.734   8.674  1.00  0.00     0.211 HD
ENDBRANCH  32  40
ENDBRANCH   1  27
TORSDOF 12
ENDMDL
MODEL 2
REMARK VINA RESULT:    12.549      1.608      6.293
REMARK INTER + INTRA:          21.123
REMARK INTER:                  16.565
REMARK INTRA:                   4.558
REMARK UNBOUND:                 2.705
REMARK SMILES O=c1c(O[C@@H]2O[C@@H](CO)[C@@H](O)[C@@H](O)[C@H]2O)c(-c2ccc(O)c(O)c2)oc2cc(O)cc(O)c12
REMARK SMILES IDX 4 1 3 2 16 3 25 4 2 5 26 6 1 7 33 8 27 9 31 10 28 11 30 12
REMARK SMILES IDX 17 13 18 14 19 15 20 16 24 17 22 18 21 19 23 21 32 23 29 25
REMARK SMILES IDX 5 27 14 28 6 29 12 30 7 31 10 32 15 33 13 35 8 37 9 38 11 40
REMARK H PARENT 21 20 23 22 32 24 29 26 15 34 13 36 9 39 11 41
REMARK Flexibility Score: inf
ROOT
ATOM      1  O   UNL     1       5.719  12.687   8.595  1.00  0.00    -0.454 OA
ENDROOT
BRANCH   1   2
ATOM      2  C   UNL     1       6.115  12.454   7.263  1.00  0.00     0.214 A 
ATOM      3  C   UNL     1       5.144  11.982   6.356  1.00  0.00     0.180 A 
ATOM      4  O   UNL     1       5.454  11.795   5.078  1.00  0.00    -0.452 OA
ATOM      5  C   UNL     1       7.422  12.696   6.774  1.00  0.00     0.239 A 
ATOM      6  C   UNL     1       6.665  12.008   4.581  1.00  0.00     0.146 A 
ATOM      7  O   UNL     1       8.321  13.125   7.544  1.00  0.00    -0.285 OA
ATOM      8  C   UNL     1       7.712  12.464   5.413  1.00  0.00     0.111 A 
ATOM      9  C   UNL     1       6.892  11.771   3.222  1.00  0.00     0.094 A 
ATOM     10  C   UNL     1       8.994  12.676   4.848  1.00  0.00     0.134 A 
ATOM     11  C   UNL     1       8.160  11.983   2.672  1.00  0.00     0.123 A 
ATOM     12  C   UNL     1       9.203  12.431   3.482  1.00  0.00     0.093 A 
BRANCH   3  13
ATOM     13  C   UNL     1       3.752  11.705   6.778  1.00  0.00     0.025 A 
ATOM     14  C   UNL     1       3.006  10.728   6.103  1.00  0.00     0.016 A 
ATOM     15  C   UNL     1       1.692  10.448   6.490  1.00  0.00     0.051 A 
ATOM     16  C   UNL     1       1.111  11.133   7.564  1.00  0.00     0.157 A 
ATOM     17  C   UNL     1       3.176  12.372   7.874  1.00  0.00     0.062 A 
ATOM     18  C   UNL     1       1.857  12.096   8.261  1.00  0.00     0.158 A 
BRANCH  16  19
ATOM     19  O   UNL     1      -0.204  10.837   7.923  1.00  0.00    -0.504 OA
ATOM     20  H   UNL     1      -0.972  10.926   7.268  1.00  0.00     0.293 HD
ENDBRANCH  16  19
BRANCH  18  21
ATOM     21  O   UNL     1       1.288  12.775   9.339  1.00  0.00    -0.504 OA
ATOM     22  H   UNL     1       1.801  13.485   9.849  1.00  0.00     0.293 HD
ENDBRANCH  18  21
ENDBRANCH   3  13
BRANCH  10  23
ATOM     23  O   UNL     1      10.060  13.124   5.630  1.00  0.00    -0.507 OA
ATOM     24  H   UNL     1      10.371  12.616   6.450  1.00  0.00     0.293 HD
ENDBRANCH  10  23
BRANCH  11  25
ATOM     25  O   UNL     1       8.393  11.749   1.318  1.00  0.00    -0.508 OA
ATOM     26  H   UNL     1       8.941  12.391   0.756  1.00  0.00     0.293 HD
ENDBRANCH  11  25
ENDBRANCH   1   2
BRANCH   1  27
ATOM     27  C   UNL     1       5.846  11.802   9.713  1.00  0.00     0.339 C 
ATOM     28  C   UNL     1       4.564  10.951   9.854  1.00  0.00     0.214 C 
ATOM     29  O   UNL     1       7.003  10.983   9.607  1.00  0.00    -0.332 OA
ATOM     30  C   UNL     1       4.469   9.900   8.726  1.00  0.00     0.180 C 
ATOM     31  C   UNL     1       6.960  10.162   8.450  1.00  0.00     0.179 C 
ATOM     32  C   UNL     1       5.798   9.145   8.542  1.00  0.00     0.177 C 
BRANCH  28  33
ATOM     33  O   UNL     1       4.477  10.349  11.125  1.00  0.00    -0.384 OA
ATOM     34  H   UNL     1       4.331  11.061  11.800  1.00  0.00     0.211 HD
ENDBRANCH  28  33
BRANCH  30  35
ATOM     35  O   UNL     1       3.430   8.990   8.983  1.00  0.00    -0.387 OA
ATOM     36  H   UNL     1       3.840   8.085   8.994  1.00  0.00     0.211 HD
ENDBRANCH  30  35
BRANCH  31  37
ATOM     37  C   UNL     1       8.318   9.461   8.301  1.00  0.00     0.191 C 
BRANCH  37  38
ATOM     38  O   UNL     1       9.031   9.969   7.205  1.00  0.00    -0.394 OA
ATOM     39  H   UNL     1       9.971  10.080   7.504  1.00  0.00     0.210 HD
ENDBRANCH  37  38
ENDBRANCH  31  37
BRANCH  32  40
ATOM     40  O   UNL     1       6.018   8.257   9.609  1.00  0.00    -0.387 OA
ATOM     41  H   UNL     1       6.568   8.740  10.280  1.00  0.00     0.211 HD
ENDBRANCH  32  40
ENDBRANCH   1  27
TORSDOF 12
ENDMDL
