MODEL 1
REMARK VINA RESULT:    -4.498      0.000      0.000
REMARK INTER + INTRA:          -6.222
REMARK INTER:                  -5.945
REMARK INTRA:                  -0.278
REMARK UNBOUND:                -0.278
REMARK SMILES C=C[C@@H](O)CCCCC
REMARK SMILES IDX 6 1 7 2 8 3 9 4 5 5 3 6 2 7 1 8 4 9
REMARK H PARENT 4 10
REMARK Flexibility Score: inf
ROOT
ATOM      1  C   UNL     1     135.148 128.929 134.745  1.00  0.00     0.003 C 
ENDROOT
BRANCH   1   2
ATOM      2  C   UNL     1     136.294 129.923 134.987  1.00  0.00    -0.000 C 
BRANCH   2   3
ATOM      3  C   UNL     1     135.817 131.220 135.661  1.00  0.00    -0.003 C 
ATOM      4  C   UNL     1     134.302 131.262 135.857  1.00  0.00     0.004 C 
ENDBRANCH   2   3
ENDBRANCH   1   2
BRANCH   1   5
ATOM      5  C   UNL     1     135.606 127.771 133.847  1.00  0.00     0.036 C 
BRANCH   5   6
ATOM      6  C   UNL     1     135.430 126.407 134.544  1.00  0.00     0.136 C 
BRANCH   6   7
ATOM      7  C   UNL     1     136.737 125.652 134.634  1.00  0.00    -0.004 C 
ATOM      8  C   UNL     1     137.670 125.924 135.553  1.00  0.00     0.007 C 
ENDBRANCH   6   7
BRANCH   6   9
ATOM      9  O   UNL     1     134.846 126.541 135.817  1.00  0.00    -0.389 OA
ATOM     10  H   UNL     1     134.522 125.647 136.102  1.00  0.00     0.211 HD
ENDBRANCH   6   9
ENDBRANCH   5   6
ENDBRANCH   1   5
TORSDOF 6
ENDMDL
MODEL 2
REMARK VINA RESULT:    -4.483      1.734      2.575
REMARK INTER + INTRA:          -6.202
REMARK INTER:                  -5.723
REMARK INTRA:                  -0.479
REMARK UNBOUND:                -0.278
REMARK SMILES C=C[C@@H](O)CCCCC
REMARK SMILES IDX 6 1 7 2 8 3 9 4 5 5 3 6 2 7 1 8 4 9
REMARK H PARENT 4 10
REMARK Flexibility Score: inf
ROOT
ATOM      1  C   UNL     1     135.765 127.266 133.682  1.00  0.00     0.003 C 
ENDROOT
BRANCH   1   2
ATOM      2  C   UNL     1     134.531 127.784 134.435  1.00  0.00    -0.000 C 
BRANCH   2   3
ATOM      3  C   UNL     1     134.792 129.121 135.148  1.00  0.00    -0.003 C 
ATOM      4  C   UNL     1     136.149 129.725 134.791  1.00  0.00     0.004 C 
ENDBRANCH   2   3
ENDBRANCH   1   2
BRANCH   1   5
ATOM      5  C   UNL     1     136.305 125.983 134.329  1.00  0.00     0.036 C 
BRANCH   5   6
ATOM      6  C   UNL     1     137.290 126.294 135.474  1.00  0.00     0.136 C 
BRANCH   6   7
ATOM      7  C   UNL     1     136.871 125.634 136.768  1.00  0.00    -0.004 C 
ATOM      8  C   UNL     1     135.591 125.419 137.092  1.00  0.00     0.007 C 
ENDBRANCH   6   7
BRANCH   6   9
ATOM      9  O   UNL     1     138.610 125.937 135.140  1.00  0.00    -0.389 OA
ATOM     10  H   UNL     1     138.834 126.368 134.274  1.00  0.00     0.211 HD
ENDBRANCH   6   9
ENDBRANCH   5   6
ENDBRANCH   1   5
TORSDOF 6
ENDMDL
MODEL 3
REMARK VINA RESULT:    -4.420      2.320      3.466
REMARK INTER + INTRA:          -6.119
REMARK INTER:                  -5.811
REMARK INTRA:                  -0.309
REMARK UNBOUND:                -0.278
REMARK SMILES C=C[C@@H](O)CCCCC
REMARK SMILES IDX 6 1 7 2 8 3 9 4 5 5 3 6 2 7 1 8 4 9
REMARK H PARENT 4 10
REMARK Flexibility Score: inf
ROOT
ATOM      1  C   UNL     1     136.752 125.803 134.515  1.00  0.00     0.003 C 
ENDROOT
BRANCH   1   2
ATOM      2  C   UNL     1     135.469 126.584 134.190  1.00  0.00    -0.000 C 
BRANCH   2   3
ATOM      3  C   UNL     1     135.758 127.977 133.607  1.00  0.00    -0.003 C 
ATOM      4  C   UNL     1     135.774 129.072 134.672  1.00  0.00     0.004 C 
ENDBRANCH   2   3
ENDBRANCH   1   2
BRANCH   1   5
ATOM      5  C   UNL     1     136.638 125.102 135.875  1.00  0.00     0.036 C 
BRANCH   5   6
ATOM      6  C   UNL     1     135.923 125.989 136.915  1.00  0.00     0.136 C 
BRANCH   6   7
ATOM      7  C   UNL     1     135.039 125.175 137.831  1.00  0.00    -0.004 C 
ATOM      8  C   UNL     1     134.772 125.536 139.092  1.00  0.00     0.007 C 
ENDBRANCH   6   7
BRANCH   6   9
ATOM      9  O   UNL     1     136.833 126.761 137.659  1.00  0.00    -0.389 OA
ATOM     10  H   UNL     1     137.207 127.458 137.060  1.00  0.00     0.211 HD
ENDBRANCH   6   9
ENDBRANCH   5   6
ENDBRANCH   1   5
TORSDOF 6
ENDMDL
MODEL 4
REMARK VINA RESULT:    -4.414      1.541      4.264
REMARK INTER + INTRA:          -6.110
REMARK INTER:                  -5.760
REMARK INTRA:                  -0.351
REMARK UNBOUND:                -0.278
REMARK SMILES C=C[C@@H](O)CCCCC
REMARK SMILES IDX 6 1 7 2 8 3 9 4 5 5 3 6 2 7 1 8 4 9
REMARK H PARENT 4 10
REMARK Flexibility Score: inf
ROOT
ATOM      1  C   UNL     1     135.763 127.372 133.624  1.00  0.00     0.003 C 
ENDROOT
BRANCH   1   2
ATOM      2  C   UNL     1     136.123 125.945 134.063  1.00  0.00    -0.000 C 
BRANCH   2   3
ATOM      3  C   UNL     1     137.184 125.919 135.175  1.00  0.00    -0.003 C 
ATOM      4  C   UNL     1     136.931 124.822 136.208  1.00  0.00     0.004 C 
ENDBRANCH   2   3
ENDBRANCH   1   2
BRANCH   1   5
ATOM      5  C   UNL     1     134.538 127.890 134.390  1.00  0.00     0.036 C 
BRANCH   5   6
ATOM      6  C   UNL     1     134.927 128.967 135.423  1.00  0.00     0.136 C 
BRANCH   6   7
ATOM      7  C   UNL     1     136.260 129.600 135.097  1.00  0.00    -0.004 C 
ATOM      8  C   UNL     1     136.470 130.920 135.149  1.00  0.00     0.007 C 
ENDBRANCH   6   7
BRANCH   6   9
ATOM      9  O   UNL     1     133.930 129.951 135.554  1.00  0.00    -0.389 OA
ATOM     10  H   UNL     1     134.087 130.642 134.858  1.00  0.00     0.211 HD
ENDBRANCH   6   9
ENDBRANCH   5   6
ENDBRANCH   1   5
TORSDOF 6
ENDMDL
MODEL 5
REMARK VINA RESULT:    -4.393      1.275      4.616
REMARK INTER + INTRA:          -6.083
REMARK INTER:                  -5.847
REMARK INTRA:                  -0.235
REMARK UNBOUND:                -0.278
REMARK SMILES C=C[C@@H](O)CCCCC
REMARK SMILES IDX 6 1 7 2 8 3 9 4 5 5 3 6 2 7 1 8 4 9
REMARK H PARENT 4 10
REMARK Flexibility Score: inf
ROOT
ATOM      1  C   UNL     1     135.673 127.804 133.747  1.00  0.00     0.003 C 
ENDROOT
BRANCH   1   2
ATOM      2  C   UNL     1     135.573 126.403 134.370  1.00  0.00    -0.000 C 
BRANCH   2   3
ATOM      3  C   UNL     1     136.947 125.826 134.747  1.00  0.00    -0.003 C 
ATOM      4  C   UNL     1     136.891 124.921 135.977  1.00  0.00     0.004 C 
ENDBRANCH   2   3
ENDBRANCH   1   2
BRANCH   1   5
ATOM      5  C   UNL     1     135.231 128.882 134.746  1.00  0.00     0.036 C 
BRANCH   5   6
ATOM      6  C   UNL     1     136.414 129.766 135.189  1.00  0.00     0.136 C 
BRANCH   6   7
ATOM      7  C   UNL     1     135.947 131.101 135.723  1.00  0.00    -0.004 C 
ATOM      8  C   UNL     1     134.657 131.385 135.938  1.00  0.00     0.007 C 
ENDBRANCH   6   7
BRANCH   6   9
ATOM      9  O   UNL     1     137.231 129.114 136.131  1.00  0.00    -0.389 OA
ATOM     10  H   UNL     1     137.906 128.581 135.635  1.00  0.00     0.211 HD
ENDBRANCH   6   9
ENDBRANCH   5   6
ENDBRANCH   1   5
TORSDOF 6
ENDMDL
MODEL 6
REMARK VINA RESULT:    -4.269      1.911      2.975
REMARK INTER + INTRA:          -5.919
REMARK INTER:                  -5.607
REMARK INTRA:                  -0.312
REMARK UNBOUND:                -0.278
REMARK SMILES C=C[C@@H](O)CCCCC
REMARK SMILES IDX 6 1 7 2 8 3 9 4 5 5 3 6 2 7 1 8 4 9
REMARK H PARENT 4 10
REMARK Flexibility Score: inf
ROOT
ATOM      1  C   UNL     1     135.732 131.777 135.668  1.00  0.00     0.003 C 
ENDROOT
BRANCH   1   2
ATOM      2  C   UNL     1     134.543 131.194 136.445  1.00  0.00    -0.000 C 
BRANCH   2   3
ATOM      3  C   UNL     1     133.197 131.462 135.754  1.00  0.00    -0.003 C 
ATOM      4  C   UNL     1     132.018 130.829 136.491  1.00  0.00     0.004 C 
ENDBRANCH   2   3
ENDBRANCH   1   2
BRANCH   1   5
ATOM      5  C   UNL     1     136.629 130.661 135.115  1.00  0.00     0.036 C 
BRANCH   5   6
ATOM      6  C   UNL     1     136.029 129.265 135.381  1.00  0.00     0.136 C 
BRANCH   6   7
ATOM      7  C   UNL     1     135.688 128.548 134.096  1.00  0.00    -0.004 C 
ATOM      8  C   UNL     1     134.845 127.510 134.045  1.00  0.00     0.007 C 
ENDBRANCH   6   7
BRANCH   6   9
ATOM      9  O   UNL     1     136.877 128.476 136.180  1.00  0.00    -0.389 OA
ATOM     10  H   UNL     1     137.254 129.055 136.893  1.00  0.00     0.211 HD
ENDBRANCH   6   9
ENDBRANCH   5   6
ENDBRANCH   1   5
TORSDOF 6
ENDMDL
MODEL 7
REMARK VINA RESULT:    -4.099      2.943      5.521
REMARK INTER + INTRA:          -5.695
REMARK INTER:                  -5.461
REMARK INTRA:                  -0.234
REMARK UNBOUND:                -0.278
REMARK SMILES C=C[C@@H](O)CCCCC
REMARK SMILES IDX 6 1 7 2 8 3 9 4 5 5 3 6 2 7 1 8 4 9
REMARK H PARENT 4 10
REMARK Flexibility Score: inf
ROOT
ATOM      1  C   UNL     1     134.125 130.442 136.186  1.00  0.00     0.003 C 
ENDROOT
BRANCH   1   2
ATOM      2  C   UNL     1     135.385 131.188 135.722  1.00  0.00    -0.000 C 
BRANCH   2   3
ATOM      3  C   UNL     1     136.411 130.257 135.058  1.00  0.00    -0.003 C 
ATOM      4  C   UNL     1     135.781 128.977 134.512  1.00  0.00     0.004 C 
ENDBRANCH   2   3
ENDBRANCH   1   2
BRANCH   1   5
ATOM      5  C   UNL     1     132.872 131.308 135.996  1.00  0.00     0.036 C 
BRANCH   5   6
ATOM      6  C   UNL     1     131.703 130.817 136.874  1.00  0.00     0.136 C 
BRANCH   6   7
ATOM      7  C   UNL     1     131.835 131.297 138.302  1.00  0.00    -0.004 C 
ATOM      8  C   UNL     1     132.327 132.500 138.621  1.00  0.00     0.007 C 
ENDBRANCH   6   7
BRANCH   6   9
ATOM      9  O   UNL     1     130.455 131.189 136.340  1.00  0.00    -0.389 OA
ATOM     10  H   UNL     1     130.538 132.109 135.977  1.00  0.00     0.211 HD
ENDBRANCH   6   9
ENDBRANCH   5   6
ENDBRANCH   1   5
TORSDOF 6
ENDMDL
MODEL 8
REMARK VINA RESULT:    -3.994      2.004      5.098
REMARK INTER + INTRA:          -5.555
REMARK INTER:                  -5.335
REMARK INTRA:                  -0.220
REMARK UNBOUND:                -0.278
REMARK SMILES C=C[C@@H](O)CCCCC
REMARK SMILES IDX 6 1 7 2 8 3 9 4 5 5 3 6 2 7 1 8 4 9
REMARK H PARENT 4 10
REMARK Flexibility Score: inf
ROOT
ATOM      1  C   UNL     1     135.695 130.705 135.825  1.00  0.00     0.003 C 
ENDROOT
BRANCH   1   2
ATOM      2  C   UNL     1     136.059 129.642 134.778  1.00  0.00    -0.000 C 
BRANCH   2   3
ATOM      3  C   UNL     1     135.002 128.531 134.672  1.00  0.00    -0.003 C 
ATOM      4  C   UNL     1     135.343 127.490 133.607  1.00  0.00     0.004 C 
ENDBRANCH   2   3
ENDBRANCH   1   2
BRANCH   1   5
ATOM      5  C   UNL     1     134.189 131.000 135.809  1.00  0.00     0.036 C 
BRANCH   5   6
ATOM      6  C   UNL     1     133.585 130.952 137.227  1.00  0.00     0.136 C 
BRANCH   6   7
ATOM      7  C   UNL     1     132.302 131.746 137.315  1.00  0.00    -0.004 C 
ATOM      8  C   UNL     1     131.139 131.303 136.823  1.00  0.00     0.007 C 
ENDBRANCH   6   7
BRANCH   6   9
ATOM      9  O   UNL     1     133.382 129.630 137.665  1.00  0.00    -0.389 OA
ATOM     10  H   UNL     1     133.739 129.554 138.588  1.00  0.00     0.211 HD
ENDBRANCH   6   9
ENDBRANCH   5   6
ENDBRANCH   1   5
TORSDOF 6
ENDMDL
MODEL 9
REMARK VINA RESULT:    -3.980      1.941      2.797
REMARK INTER + INTRA:          -5.537
REMARK INTER:                  -4.951
REMARK INTRA:                  -0.587
REMARK UNBOUND:                -0.278
REMARK SMILES C=C[C@@H](O)CCCCC
REMARK SMILES IDX 6 1 7 2 8 3 9 4 5 5 3 6 2 7 1 8 4 9
REMARK H PARENT 4 10
REMARK Flexibility Score: inf
ROOT
ATOM      1  C   UNL     1     134.902 128.596 136.886  1.00  0.00     0.003 C 
ENDROOT
BRANCH   1   2
ATOM      2  C   UNL     1     134.596 129.029 135.444  1.00  0.00    -0.000 C 
BRANCH   2   3
ATOM      3  C   UNL     1     135.734 128.684 134.470  1.00  0.00    -0.003 C 
ATOM      4  C   UNL     1     135.375 127.541 133.522  1.00  0.00     0.004 C 
ENDBRANCH   2   3
ENDBRANCH   1   2
BRANCH   1   5
ATOM      5  C   UNL     1     134.549 127.118 137.103  1.00  0.00     0.036 C 
BRANCH   5   6
ATOM      6  C   UNL     1     135.793 126.284 137.472  1.00  0.00     0.136 C 
BRANCH   6   7
ATOM      7  C   UNL     1     136.118 125.262 136.408  1.00  0.00    -0.004 C 
ATOM      8  C   UNL     1     137.280 125.248 135.745  1.00  0.00     0.007 C 
ENDBRANCH   6   7
BRANCH   6   9
ATOM      9  O   UNL     1     136.909 127.099 137.735  1.00  0.00    -0.389 OA
ATOM     10  H   UNL     1     137.123 127.604 136.907  1.00  0.00     0.211 HD
ENDBRANCH   6   9
ENDBRANCH   5   6
ENDBRANCH   1   5
TORSDOF 6
ENDMDL
