MODEL 1
REMARK VINA RESULT:    -3.304      0.000      0.000
REMARK INTER + INTRA:          -3.325
REMARK INTER:                  -4.076
REMARK INTRA:                   0.751
REMARK UNBOUND:                 0.751
REMARK SMILES CC1=CC=CC(C)(C)CC1=O
REMARK SMILES IDX 1 1 2 2 3 3 10 4 11 5 9 6 4 8 5 9 6 10 7 11 8 12
REMARK H PARENT
REMARK Flexibility Score: 80.00
ROOT
ATOM      1  C   UNL     1       8.936  17.451  13.842  1.00  0.00     0.048 C 
ATOM      2  C   UNL     1      10.139  16.836  13.164  1.00  0.00    -0.008 C 
ATOM      3  C   UNL     1      10.998  16.132  13.931  1.00  0.00     0.007 C 
ENDROOT
BRANCH   2   4
ATOM      4  C   UNL     1      10.237  16.992  11.691  1.00  0.00     0.159 C 
ATOM      5  O   UNL     1       9.236  17.426  11.057  1.00  0.00    -0.295 OA
BRANCH   4   6
ATOM      6  C   UNL     1      11.472  16.673  10.907  1.00  0.00     0.091 CG0
ATOM      7  G   UNL     1      11.904  15.194  11.024  1.00  0.00     0.000 G0
ENDBRANCH   4   6
ENDBRANCH   2   4
BRANCH   3   8
ATOM      8  C   UNL     1      12.232  15.403  13.556  1.00  0.00    -0.003 C 
ATOM      9  C   UNL     1      12.631  14.988  12.347  1.00  0.00    -0.020 C 
BRANCH   9  10
ATOM     10  C   UNL     1      11.905  15.199  11.040  1.00  0.00    -0.010 CG0
ATOM     11  C   UNL     1      10.719  14.213  10.929  1.00  0.00     0.016 C 
ATOM     12  C   UNL     1      12.887  14.895   9.885  1.00  0.00     0.016 C 
ATOM     13  G   UNL     1      11.464  16.675  10.921  1.00  0.00     0.000 G0
ENDBRANCH   9  10
ENDBRANCH   3   8
TORSDOF 0
ENDMDL
MODEL 2
REMARK VINA RESULT:    -2.916      3.810      5.094
REMARK INTER + INTRA:          -2.847
REMARK INTER:                  -3.895
REMARK INTRA:                   1.049
REMARK UNBOUND:                 0.751
REMARK SMILES CC1=CC=CC(C)(C)CC1=O
REMARK SMILES IDX 1 1 2 2 3 3 10 4 11 5 9 6 4 8 5 9 6 10 7 11 8 12
REMARK H PARENT
REMARK Flexibility Score: 80.00
ROOT
ATOM      1  C   UNL     1      11.396  15.902  13.714  1.00  0.00     0.048 C 
ATOM      2  C   UNL     1      12.374  15.025  14.460  1.00  0.00    -0.008 C 
ATOM      3  C   UNL     1      12.012  14.583  15.683  1.00  0.00     0.007 C 
ENDROOT
BRANCH   2   4
ATOM      4  C   UNL     1      13.626  14.657  13.752  1.00  0.00     0.159 C 
ATOM      5  O   UNL     1      13.960  15.310  12.725  1.00  0.00    -0.295 OA
BRANCH   4   6
ATOM      6  C   UNL     1      14.533  13.552  14.199  1.00  0.00     0.091 CG0
ATOM      7  G   UNL     1      15.083  13.754  15.629  1.00  0.00     0.000 G0
ENDBRANCH   4   6
ENDBRANCH   2   4
BRANCH   3   8
ATOM      8  C   UNL     1      12.735  13.701  16.629  1.00  0.00    -0.003 C 
ATOM      9  C   UNL     1      14.021  13.328  16.620  1.00  0.00    -0.020 C 
BRANCH   9  10
ATOM     10  C   UNL     1      15.074  13.758  15.625  1.00  0.00    -0.010 CG0
ATOM     11  C   UNL     1      16.389  12.988  15.882  1.00  0.00     0.016 C 
ATOM     12  C   UNL     1      15.353  15.264  15.834  1.00  0.00     0.016 C 
ATOM     13  G   UNL     1      14.541  13.563  14.187  1.00  0.00     0.000 G0
ENDBRANCH   9  10
ENDBRANCH   3   8
TORSDOF 0
ENDMDL
MODEL 3
REMARK VINA RESULT:    -2.801      1.509      2.446
REMARK INTER + INTRA:          -2.706
REMARK INTER:                  -3.470
REMARK INTRA:                   0.764
REMARK UNBOUND:                 0.751
REMARK SMILES CC1=CC=CC(C)(C)CC1=O
REMARK SMILES IDX 1 1 2 2 3 3 10 4 11 5 9 6 4 8 5 9 6 10 7 11 8 12
REMARK H PARENT
REMARK Flexibility Score: 80.00
ROOT
ATOM      1  C   UNL     1      12.228  14.650  15.446  1.00  0.00     0.048 C 
ATOM      2  C   UNL     1      12.242  15.229  14.051  1.00  0.00    -0.008 C 
ATOM      3  C   UNL     1      13.319  14.972  13.277  1.00  0.00     0.007 C 
ENDROOT
BRANCH   2   4
ATOM      4  C   UNL     1      11.033  15.972  13.616  1.00  0.00     0.159 C 
ATOM      5  O   UNL     1       9.996  15.920  14.332  1.00  0.00    -0.295 OA
BRANCH   4   6
ATOM      6  C   UNL     1      10.977  16.799  12.368  1.00  0.00     0.091 CG0
ATOM      7  G   UNL     1      11.254  15.986  11.084  1.00  0.00     0.000 G0
ENDBRANCH   4   6
ENDBRANCH   2   4
BRANCH   3   8
ATOM      8  C   UNL     1      13.605  15.373  11.880  1.00  0.00    -0.003 C 
ATOM      9  C   UNL     1      12.757  15.794  10.933  1.00  0.00    -0.020 C 
BRANCH   9  10
ATOM     10  C   UNL     1      11.267  15.991  11.085  1.00  0.00    -0.010 CG0
ATOM     11  C   UNL     1      10.550  14.621  11.068  1.00  0.00     0.016 C 
ATOM     12  C   UNL     1      10.760  16.809   9.875  1.00  0.00     0.016 C 
ATOM     13  G   UNL     1      10.976  16.799  12.369  1.00  0.00     0.000 G0
ENDBRANCH   9  10
ENDBRANCH   3   8
TORSDOF 0
ENDMDL
MODEL 4
REMARK VINA RESULT:    -2.777      1.415      2.432
REMARK INTER + INTRA:          -2.676
REMARK INTER:                  -3.683
REMARK INTRA:                   1.007
REMARK UNBOUND:                 0.751
REMARK SMILES CC1=CC=CC(C)(C)CC1=O
REMARK SMILES IDX 1 1 2 2 3 3 10 4 11 5 9 6 4 8 5 9 6 10 7 11 8 12
REMARK H PARENT
REMARK Flexibility Score: 80.00
ROOT
ATOM      1  C   UNL     1       9.265  17.148  13.970  1.00  0.00     0.048 C 
ATOM      2  C   UNL     1      10.158  16.833  12.792  1.00  0.00    -0.008 C 
ATOM      3  C   UNL     1       9.876  17.433  11.616  1.00  0.00     0.007 C 
ENDROOT
BRANCH   2   4
ATOM      4  C   UNL     1      11.322  15.948  13.045  1.00  0.00     0.159 C 
ATOM      5  O   UNL     1      11.360  15.283  14.116  1.00  0.00    -0.295 OA
BRANCH   4   6
ATOM      6  C   UNL     1      12.460  15.786  12.085  1.00  0.00     0.091 CG0
ATOM      7  G   UNL     1      12.018  15.283  10.692  1.00  0.00     0.000 G0
ENDBRANCH   4   6
ENDBRANCH   2   4
BRANCH   3   8
ATOM      8  C   UNL     1      10.573  17.345  10.311  1.00  0.00    -0.003 C 
ATOM      9  C   UNL     1      11.494  16.462   9.905  1.00  0.00    -0.020 C 
BRANCH   9  10
ATOM     10  C   UNL     1      12.031  15.295  10.699  1.00  0.00    -0.010 CG0
ATOM     11  C   UNL     1      13.193  14.623   9.931  1.00  0.00     0.016 C 
ATOM     12  C   UNL     1      10.899  14.254  10.858  1.00  0.00     0.016 C 
ATOM     13  G   UNL     1      12.447  15.772  12.109  1.00  0.00     0.000 G0
ENDBRANCH   9  10
ENDBRANCH   3   8
TORSDOF 0
ENDMDL
MODEL 5
REMARK VINA RESULT:    -2.583      3.751      5.103
REMARK INTER + INTRA:          -2.436
REMARK INTER:                  -3.194
REMARK INTRA:                   0.758
REMARK UNBOUND:                 0.751
REMARK SMILES CC1=CC=CC(C)(C)CC1=O
REMARK SMILES IDX 1 1 2 2 3 3 10 4 11 5 9 6 4 8 5 9 6 10 7 11 8 12
REMARK H PARENT
REMARK Flexibility Score: 80.00
ROOT
ATOM      1  C   UNL     1      11.098  16.145  13.920  1.00  0.00     0.048 C 
ATOM      2  C   UNL     1      12.289  15.240  14.129  1.00  0.00    -0.008 C 
ATOM      3  C   UNL     1      13.292  15.307  13.227  1.00  0.00     0.007 C 
ENDROOT
BRANCH   2   4
ATOM      4  C   UNL     1      12.295  14.403  15.355  1.00  0.00     0.159 C 
ATOM      5  O   UNL     1      11.424  14.618  16.243  1.00  0.00    -0.295 OA
BRANCH   4   6
ATOM      6  C   UNL     1      13.277  13.298  15.597  1.00  0.00     0.091 CG0
ATOM      7  G   UNL     1      14.747  13.775  15.583  1.00  0.00     0.000 G0
ENDBRANCH   4   6
ENDBRANCH   2   4
BRANCH   3   8
ATOM      8  C   UNL     1      14.579  14.575  13.179  1.00  0.00    -0.003 C 
ATOM      9  C   UNL     1      15.220  13.929  14.162  1.00  0.00    -0.020 C 
BRANCH   9  10
ATOM     10  C   UNL     1      14.747  13.769  15.588  1.00  0.00    -0.010 CG0
ATOM     11  C   UNL     1      14.962  15.086  16.367  1.00  0.00     0.016 C 
ATOM     12  C   UNL     1      15.603  12.671  16.261  1.00  0.00     0.016 C 
ATOM     13  G   UNL     1      13.274  13.304  15.599  1.00  0.00     0.000 G0
ENDBRANCH   9  10
ENDBRANCH   3   8
TORSDOF 0
ENDMDL
MODEL 6
REMARK VINA RESULT:    -2.154      2.098      3.071
REMARK INTER + INTRA:          -1.907
REMARK INTER:                  -2.940
REMARK INTRA:                   1.033
REMARK UNBOUND:                 0.751
REMARK SMILES CC1=CC=CC(C)(C)CC1=O
REMARK SMILES IDX 1 1 2 2 3 3 10 4 11 5 9 6 4 8 5 9 6 10 7 11 8 12
REMARK H PARENT
REMARK Flexibility Score: 80.00
ROOT
ATOM      1  C   UNL     1      12.351  14.633  15.885  1.00  0.00     0.048 C 
ATOM      2  C   UNL     1      12.097  15.215  14.513  1.00  0.00    -0.008 C 
ATOM      3  C   UNL     1      10.991  15.971  14.349  1.00  0.00     0.007 C 
ENDROOT
BRANCH   2   4
ATOM      4  C   UNL     1      13.129  14.970  13.475  1.00  0.00     0.159 C 
ATOM      5  O   UNL     1      13.954  14.030  13.645  1.00  0.00    -0.295 OA
BRANCH   4   6
ATOM      6  C   UNL     1      13.242  15.776  12.217  1.00  0.00     0.091 CG0
ATOM      7  G   UNL     1      11.986  15.688  11.322  1.00  0.00     0.000 G0
ENDBRANCH   4   6
ENDBRANCH   2   4
BRANCH   3   8
ATOM      8  C   UNL     1      10.495  16.685  13.149  1.00  0.00    -0.003 C 
ATOM      9  C   UNL     1      10.907  16.586  11.879  1.00  0.00    -0.020 C 
BRANCH   9  10
ATOM     10  C   UNL     1      11.989  15.672  11.354  1.00  0.00    -0.010 CG0
ATOM     11  C   UNL     1      12.291  16.006   9.875  1.00  0.00     0.016 C 
ATOM     12  C   UNL     1      11.469  14.218  11.418  1.00  0.00     0.016 C 
ATOM     13  G   UNL     1      13.240  15.776  12.255  1.00  0.00     0.000 G0
ENDBRANCH   9  10
ENDBRANCH   3   8
TORSDOF 0
ENDMDL
MODEL 7
REMARK VINA RESULT:    -2.001      4.403      6.035
REMARK INTER + INTRA:          -1.718
REMARK INTER:                  -2.475
REMARK INTRA:                   0.757
REMARK UNBOUND:                 0.751
REMARK SMILES CC1=CC=CC(C)(C)CC1=O
REMARK SMILES IDX 1 1 2 2 3 3 10 4 11 5 9 6 4 8 5 9 6 10 7 11 8 12
REMARK H PARENT
REMARK Flexibility Score: 80.00
ROOT
ATOM      1  C   UNL     1      15.929  11.384  15.884  1.00  0.00     0.048 C 
ATOM      2  C   UNL     1      15.186  12.696  15.792  1.00  0.00    -0.008 C 
ATOM      3  C   UNL     1      15.871  13.774  15.354  1.00  0.00     0.007 C 
ENDROOT
BRANCH   2   4
ATOM      4  C   UNL     1      13.738  12.676  16.116  1.00  0.00     0.159 C 
ATOM      5  O   UNL     1      13.164  11.564  16.275  1.00  0.00    -0.295 OA
BRANCH   4   6
ATOM      6  C   UNL     1      12.911  13.915  16.281  1.00  0.00     0.091 CG0
ATOM      7  G   UNL     1      12.919  14.824  15.032  1.00  0.00     0.000 G0
ENDBRANCH   4   6
ENDBRANCH   2   4
BRANCH   3   8
ATOM      8  C   UNL     1      15.417  15.167  15.136  1.00  0.00    -0.003 C 
ATOM      9  C   UNL     1      14.171  15.633  14.982  1.00  0.00    -0.020 C 
BRANCH   9  10
ATOM     10  C   UNL     1      12.897  14.823  15.026  1.00  0.00    -0.010 CG0
ATOM     11  C   UNL     1      12.731  14.028  13.711  1.00  0.00     0.016 C 
ATOM     12  C   UNL     1      11.704  15.799  15.147  1.00  0.00     0.016 C 
ATOM     13  G   UNL     1      12.902  13.912  16.275  1.00  0.00     0.000 G0
ENDBRANCH   9  10
ENDBRANCH   3   8
TORSDOF 0
ENDMDL
MODEL 8
REMARK VINA RESULT:    -1.695      3.873      5.389
REMARK INTER + INTRA:          -1.340
REMARK INTER:                  -2.363
REMARK INTRA:                   1.023
REMARK UNBOUND:                 0.751
REMARK SMILES CC1=CC=CC(C)(C)CC1=O
REMARK SMILES IDX 1 1 2 2 3 3 10 4 11 5 9 6 4 8 5 9 6 10 7 11 8 12
REMARK H PARENT
REMARK Flexibility Score: 80.00
ROOT
ATOM      1  C   UNL     1      13.350  15.446  12.305  1.00  0.00     0.048 C 
ATOM      2  C   UNL     1      13.717  14.923  13.674  1.00  0.00    -0.008 C 
ATOM      3  C   UNL     1      14.961  14.425  13.840  1.00  0.00     0.007 C 
ENDROOT
BRANCH   2   4
ATOM      4  C   UNL     1      12.704  15.071  14.748  1.00  0.00     0.159 C 
ATOM      5  O   UNL     1      11.514  15.347  14.429  1.00  0.00    -0.295 OA
BRANCH   4   6
ATOM      6  C   UNL     1      13.011  14.897  16.204  1.00  0.00     0.091 CG0
ATOM      7  G   UNL     1      13.574  13.500  16.546  1.00  0.00     0.000 G0
ENDBRANCH   4   6
ENDBRANCH   2   4
BRANCH   3   8
ATOM      8  C   UNL     1      15.612  13.872  15.052  1.00  0.00    -0.003 C 
ATOM      9  C   UNL     1      15.055  13.490  16.208  1.00  0.00    -0.020 C 
BRANCH   9  10
ATOM     10  C   UNL     1      13.582  13.507  16.545  1.00  0.00    -0.010 CG0
ATOM     11  C   UNL     1      13.376  13.132  18.030  1.00  0.00     0.016 C 
ATOM     12  C   UNL     1      12.874  12.439  15.680  1.00  0.00     0.016 C 
ATOM     13  G   UNL     1      12.984  14.887  16.191  1.00  0.00     0.000 G0
ENDBRANCH   9  10
ENDBRANCH   3   8
TORSDOF 0
ENDMDL
MODEL 9
REMARK VINA RESULT:    -1.656      4.234      5.768
REMARK INTER + INTRA:          -1.292
REMARK INTER:                  -2.357
REMARK INTRA:                   1.065
REMARK UNBOUND:                 0.751
REMARK SMILES CC1=CC=CC(C)(C)CC1=O
REMARK SMILES IDX 1 1 2 2 3 3 10 4 11 5 9 6 4 8 5 9 6 10 7 11 8 12
REMARK H PARENT
REMARK Flexibility Score: 80.00
ROOT
ATOM      1  C   UNL     1      16.761  12.891  16.010  1.00  0.00     0.048 C 
ATOM      2  C   UNL     1      15.318  13.319  15.879  1.00  0.00    -0.008 C 
ATOM      3  C   UNL     1      14.372  12.357  15.945  1.00  0.00     0.007 C 
ENDROOT
BRANCH   2   4
ATOM      4  C   UNL     1      15.053  14.775  15.766  1.00  0.00     0.159 C 
ATOM      5  O   UNL     1      16.006  15.547  15.472  1.00  0.00    -0.295 OA
BRANCH   4   6
ATOM      6  C   UNL     1      13.701  15.386  15.971  1.00  0.00     0.091 CG0
ATOM      7  G   UNL     1      12.635  14.854  14.987  1.00  0.00     0.000 G0
ENDBRANCH   4   6
ENDBRANCH   2   4
BRANCH   3   8
ATOM      8  C   UNL     1      12.896  12.468  15.877  1.00  0.00    -0.003 C 
ATOM      9  C   UNL     1      12.145  13.506  15.490  1.00  0.00    -0.020 C 
BRANCH   9  10
ATOM     10  C   UNL     1      12.647  14.841  14.990  1.00  0.00    -0.010 CG0
ATOM     11  C   UNL     1      11.459  15.808  14.785  1.00  0.00     0.016 C 
ATOM     12  C   UNL     1      13.325  14.621  13.619  1.00  0.00     0.016 C 
ATOM     13  G   UNL     1      13.706  15.398  15.968  1.00  0.00     0.000 G0
ENDBRANCH   9  10
ENDBRANCH   3   8
TORSDOF 0
ENDMDL
