MODEL 1
REMARK VINA RESULT:    -4.330      0.000      0.000
REMARK INTER + INTRA:          -4.919
REMARK INTER:                  -4.710
REMARK INTRA:                  -0.209
REMARK UNBOUND:                -0.209
REMARK SMILES C=C(C)[C@H]1CC[C@H](C)C[C@@H]1O
REMARK SMILES IDX 8 1 7 2 6 3 5 4 4 5 10 6 9 7 11 8 2 10 1 11 3 12
REMARK H PARENT 11 9
REMARK Flexibility Score: inf
ROOT
ATOM      1  C   UNL     1     135.833 130.011 149.165  1.00  0.00     0.008 C 
ATOM      2  C   UNL     1     136.773 131.214 149.012  1.00  0.00    -0.012 C 
ATOM      3  C   UNL     1     136.426 132.310 150.046  1.00  0.00     0.004 C 
ATOM      4  C   UNL     1     137.635 133.200 150.341  1.00  0.00     0.011 C 
ATOM      5  C   UNL     1     138.751 132.381 151.031  1.00  0.00     0.043 C 
ATOM      6  C   UNL     1     138.902 130.933 150.459  1.00  0.00     0.121 C 
ATOM      7  C   UNL     1     138.265 130.783 149.060  1.00  0.00     0.035 C 
ENDROOT
BRANCH   6   8
ATOM      8  O   UNL     1     138.310 130.019 151.348  1.00  0.00    -0.392 OA
ATOM      9  H   UNL     1     138.946 129.893 152.100  1.00  0.00     0.210 HD
ENDBRANCH   6   8
BRANCH   5  10
ATOM     10  C   UNL     1     140.070 133.148 151.027  1.00  0.00    -0.075 C 
ATOM     11  C   UNL     1     140.173 134.354 150.443  1.00  0.00     0.008 C 
ATOM     12  C   UNL     1     141.295 132.557 151.679  1.00  0.00     0.039 C 
ENDBRANCH   5  10
TORSDOF 2
ENDMDL
MODEL 2
REMARK VINA RESULT:    -4.262     12.911     14.092
REMARK INTER + INTRA:          -4.844
REMARK INTER:                  -4.663
REMARK INTRA:                  -0.182
REMARK UNBOUND:                -0.209
REMARK SMILES C=C(C)[C@H]1CC[C@H](C)C[C@@H]1O
REMARK SMILES IDX 8 1 7 2 6 3 5 4 4 5 10 6 9 7 11 8 2 10 1 11 3 12
REMARK H PARENT 11 9
REMARK Flexibility Score: inf
ROOT
ATOM      1  C   UNL     1     140.141 143.865 146.212  1.00  0.00     0.008 C 
ATOM      2  C   UNL     1     141.391 144.325 145.451  1.00  0.00    -0.012 C 
ATOM      3  C   UNL     1     142.627 143.502 145.887  1.00  0.00     0.004 C 
ATOM      4  C   UNL     1     143.697 143.484 144.793  1.00  0.00     0.011 C 
ATOM      5  C   UNL     1     143.177 142.737 143.542  1.00  0.00     0.043 C 
ATOM      6  C   UNL     1     141.671 143.023 143.230  1.00  0.00     0.121 C 
ATOM      7  C   UNL     1     141.162 144.311 143.915  1.00  0.00     0.035 C 
ENDROOT
BRANCH   6   8
ATOM      8  O   UNL     1     140.895 141.928 143.647  1.00  0.00    -0.392 OA
ATOM      9  H   UNL     1     140.766 142.020 144.627  1.00  0.00     0.210 HD
ENDBRANCH   6   8
BRANCH   5  10
ATOM     10  C   UNL     1     144.080 142.995 142.340  1.00  0.00    -0.075 C 
ATOM     11  C   UNL     1     144.825 142.013 141.804  1.00  0.00     0.008 C 
ATOM     12  C   UNL     1     144.156 144.372 141.729  1.00  0.00     0.039 C 
ENDBRANCH   5  10
TORSDOF 2
ENDMDL
MODEL 3
REMARK VINA RESULT:    -4.146     11.524     12.847
REMARK INTER + INTRA:          -4.718
REMARK INTER:                  -4.530
REMARK INTRA:                  -0.188
REMARK UNBOUND:                -0.209
REMARK SMILES C=C(C)[C@H]1CC[C@H](C)C[C@@H]1O
REMARK SMILES IDX 8 1 7 2 6 3 5 4 4 5 10 6 9 7 11 8 2 10 1 11 3 12
REMARK H PARENT 11 9
REMARK Flexibility Score: inf
ROOT
ATOM      1  C   UNL     1     144.274 139.849 143.194  1.00  0.00     0.008 C 
ATOM      2  C   UNL     1     143.121 140.858 143.125  1.00  0.00    -0.012 C 
ATOM      3  C   UNL     1     141.944 140.401 144.019  1.00  0.00     0.004 C 
ATOM      4  C   UNL     1     141.083 141.588 144.455  1.00  0.00     0.011 C 
ATOM      5  C   UNL     1     141.895 142.536 145.369  1.00  0.00     0.043 C 
ATOM      6  C   UNL     1     143.383 142.707 144.920  1.00  0.00     0.121 C 
ATOM      7  C   UNL     1     143.604 142.300 143.446  1.00  0.00     0.035 C 
ENDROOT
BRANCH   6   8
ATOM      8  O   UNL     1     144.211 141.934 145.753  1.00  0.00    -0.392 OA
ATOM      9  H   UNL     1     144.817 141.418 145.161  1.00  0.00     0.210 HD
ENDBRANCH   6   8
BRANCH   5  10
ATOM     10  C   UNL     1     141.180 143.874 145.537  1.00  0.00    -0.075 C 
ATOM     11  C   UNL     1     139.931 143.939 146.028  1.00  0.00     0.008 C 
ATOM     12  C   UNL     1     141.868 145.157 145.145  1.00  0.00     0.039 C 
ENDBRANCH   5  10
TORSDOF 2
ENDMDL
MODEL 4
REMARK VINA RESULT:    -4.089      1.442      4.224
REMARK INTER + INTRA:          -4.656
REMARK INTER:                  -4.470
REMARK INTRA:                  -0.186
REMARK UNBOUND:                -0.209
REMARK SMILES C=C(C)[C@H]1CC[C@H](C)C[C@@H]1O
REMARK SMILES IDX 8 1 7 2 6 3 5 4 4 5 10 6 9 7 11 8 2 10 1 11 3 12
REMARK H PARENT 11 9
REMARK Flexibility Score: inf
ROOT
ATOM      1  C   UNL     1     142.461 131.937 151.990  1.00  0.00     0.008 C 
ATOM      2  C   UNL     1     141.460 131.806 150.835  1.00  0.00    -0.012 C 
ATOM      3  C   UNL     1     140.584 130.543 151.014  1.00  0.00     0.004 C 
ATOM      4  C   UNL     1     139.246 130.686 150.286  1.00  0.00     0.011 C 
ATOM      5  C   UNL     1     138.403 131.815 150.925  1.00  0.00     0.043 C 
ATOM      6  C   UNL     1     139.252 133.055 151.358  1.00  0.00     0.121 C 
ATOM      7  C   UNL     1     140.626 133.104 150.652  1.00  0.00     0.035 C 
ENDROOT
BRANCH   6   8
ATOM      8  O   UNL     1     139.438 133.027 152.751  1.00  0.00    -0.392 OA
ATOM      9  H   UNL     1     139.153 132.128 153.063  1.00  0.00     0.210 HD
ENDBRANCH   6   8
BRANCH   5  10
ATOM     10  C   UNL     1     137.234 132.198 150.022  1.00  0.00    -0.075 C 
ATOM     11  C   UNL     1     137.063 133.463 149.602  1.00  0.00     0.008 C 
ATOM     12  C   UNL     1     136.236 131.154 149.587  1.00  0.00     0.039 C 
ENDBRANCH   5  10
TORSDOF 2
ENDMDL
MODEL 5
REMARK VINA RESULT:    -4.007     13.013     14.084
REMARK INTER + INTRA:          -4.567
REMARK INTER:                  -4.359
REMARK INTRA:                  -0.207
REMARK UNBOUND:                -0.209
REMARK SMILES C=C(C)[C@H]1CC[C@H](C)C[C@@H]1O
REMARK SMILES IDX 8 1 7 2 6 3 5 4 4 5 10 6 9 7 11 8 2 10 1 11 3 12
REMARK H PARENT 11 9
REMARK Flexibility Score: inf
ROOT
ATOM      1  C   UNL     1     143.680 142.433 140.547  1.00  0.00     0.008 C 
ATOM      2  C   UNL     1     143.880 142.712 142.042  1.00  0.00    -0.012 C 
ATOM      3  C   UNL     1     143.662 144.213 142.349  1.00  0.00     0.004 C 
ATOM      4  C   UNL     1     143.257 144.430 143.809  1.00  0.00     0.011 C 
ATOM      5  C   UNL     1     141.875 143.791 144.085  1.00  0.00     0.043 C 
ATOM      6  C   UNL     1     141.667 142.422 143.357  1.00  0.00     0.121 C 
ATOM      7  C   UNL     1     143.002 141.778 142.920  1.00  0.00     0.035 C 
ENDROOT
BRANCH   6   8
ATOM      8  O   UNL     1     140.846 142.615 142.232  1.00  0.00    -0.392 OA
ATOM      9  H   UNL     1     139.909 142.477 142.530  1.00  0.00     0.210 HD
ENDBRANCH   6   8
BRANCH   5  10
ATOM     10  C   UNL     1     141.609 143.698 145.584  1.00  0.00    -0.075 C 
ATOM     11  C   UNL     1     140.372 143.862 146.083  1.00  0.00     0.008 C 
ATOM     12  C   UNL     1     142.741 143.424 146.542  1.00  0.00     0.039 C 
ENDBRANCH   5  10
TORSDOF 2
ENDMDL
MODEL 6
REMARK VINA RESULT:    -3.967      2.048      2.909
REMARK INTER + INTRA:          -4.523
REMARK INTER:                  -4.322
REMARK INTRA:                  -0.201
REMARK UNBOUND:                -0.209
REMARK SMILES C=C(C)[C@H]1CC[C@H](C)C[C@@H]1O
REMARK SMILES IDX 8 1 7 2 6 3 5 4 4 5 10 6 9 7 11 8 2 10 1 11 3 12
REMARK H PARENT 11 9
REMARK Flexibility Score: inf
ROOT
ATOM      1  C   UNL     1     136.455 131.807 150.300  1.00  0.00     0.008 C 
ATOM      2  C   UNL     1     137.280 133.085 150.098  1.00  0.00    -0.012 C 
ATOM      3  C   UNL     1     138.492 133.107 151.059  1.00  0.00     0.004 C 
ATOM      4  C   UNL     1     139.620 133.984 150.511  1.00  0.00     0.011 C 
ATOM      5  C   UNL     1     140.191 133.376 149.208  1.00  0.00     0.043 C 
ATOM      6  C   UNL     1     139.096 132.753 148.282  1.00  0.00     0.121 C 
ATOM      7  C   UNL     1     137.680 133.276 148.609  1.00  0.00     0.035 C 
ENDROOT
BRANCH   6   8
ATOM      8  O   UNL     1     139.123 131.353 148.409  1.00  0.00    -0.392 OA
ATOM      9  H   UNL     1     138.224 131.073 148.723  1.00  0.00     0.210 HD
ENDBRANCH   6   8
BRANCH   5  10
ATOM     10  C   UNL     1     141.067 134.387 148.474  1.00  0.00    -0.075 C 
ATOM     11  C   UNL     1     141.892 135.210 149.144  1.00  0.00     0.008 C 
ATOM     12  C   UNL     1     141.016 134.486 146.970  1.00  0.00     0.039 C 
ENDBRANCH   5  10
TORSDOF 2
ENDMDL
MODEL 7
REMARK VINA RESULT:    -3.966     12.797     14.455
REMARK INTER + INTRA:          -4.523
REMARK INTER:                  -4.315
REMARK INTRA:                  -0.207
REMARK UNBOUND:                -0.209
REMARK SMILES C=C(C)[C@H]1CC[C@H](C)C[C@@H]1O
REMARK SMILES IDX 8 1 7 2 6 3 5 4 4 5 10 6 9 7 11 8 2 10 1 11 3 12
REMARK H PARENT 11 9
REMARK Flexibility Score: inf
ROOT
ATOM      1  C   UNL     1     141.501 143.124 146.512  1.00  0.00     0.008 C 
ATOM      2  C   UNL     1     142.300 142.470 145.378  1.00  0.00    -0.012 C 
ATOM      3  C   UNL     1     141.452 142.400 144.085  1.00  0.00     0.004 C 
ATOM      4  C   UNL     1     142.339 142.340 142.840  1.00  0.00     0.011 C 
ATOM      5  C   UNL     1     143.141 143.653 142.686  1.00  0.00     0.043 C 
ATOM      6  C   UNL     1     143.653 144.231 144.046  1.00  0.00     0.121 C 
ATOM      7  C   UNL     1     143.671 143.170 145.168  1.00  0.00     0.035 C 
ENDROOT
BRANCH   6   8
ATOM      8  O   UNL     1     142.836 145.310 144.428  1.00  0.00    -0.392 OA
ATOM      9  H   UNL     1     142.025 145.276 143.856  1.00  0.00     0.210 HD
ENDBRANCH   6   8
BRANCH   5  10
ATOM     10  C   UNL     1     144.263 143.488 141.665  1.00  0.00    -0.075 C 
ATOM     11  C   UNL     1     144.616 144.496 140.849  1.00  0.00     0.008 C 
ATOM     12  C   UNL     1     144.999 142.177 141.550  1.00  0.00     0.039 C 
ENDBRANCH   5  10
TORSDOF 2
ENDMDL
MODEL 8
REMARK VINA RESULT:    -3.945      1.389      4.183
REMARK INTER + INTRA:          -4.500
REMARK INTER:                  -4.299
REMARK INTRA:                  -0.201
REMARK UNBOUND:                -0.209
REMARK SMILES C=C(C)[C@H]1CC[C@H](C)C[C@@H]1O
REMARK SMILES IDX 8 1 7 2 6 3 5 4 4 5 10 6 9 7 11 8 2 10 1 11 3 12
REMARK H PARENT 11 9
REMARK Flexibility Score: inf
ROOT
ATOM      1  C   UNL     1     140.004 133.926 150.274  1.00  0.00     0.008 C 
ATOM      2  C   UNL     1     138.848 133.066 150.801  1.00  0.00    -0.012 C 
ATOM      3  C   UNL     1     137.510 133.498 150.154  1.00  0.00     0.004 C 
ATOM      4  C   UNL     1     136.494 132.354 150.160  1.00  0.00     0.011 C 
ATOM      5  C   UNL     1     136.983 131.194 149.261  1.00  0.00     0.043 C 
ATOM      6  C   UNL     1     138.523 130.941 149.357  1.00  0.00     0.121 C 
ATOM      7  C   UNL     1     139.142 131.550 150.635  1.00  0.00     0.035 C 
ENDROOT
BRANCH   6   8
ATOM      8  O   UNL     1     139.154 131.481 148.223  1.00  0.00    -0.392 OA
ATOM      9  H   UNL     1     140.132 131.381 148.360  1.00  0.00     0.210 HD
ENDBRANCH   6   8
BRANCH   5  10
ATOM     10  C   UNL     1     136.168 129.929 149.515  1.00  0.00    -0.075 C 
ATOM     11  C   UNL     1     135.622 129.237 148.500  1.00  0.00     0.008 C 
ATOM     12  C   UNL     1     135.954 129.433 150.922  1.00  0.00     0.039 C 
ENDBRANCH   5  10
TORSDOF 2
ENDMDL
MODEL 9
REMARK VINA RESULT:    -3.886     12.188     13.637
REMARK INTER + INTRA:          -4.435
REMARK INTER:                  -4.253
REMARK INTRA:                  -0.182
REMARK UNBOUND:                -0.209
REMARK SMILES C=C(C)[C@H]1CC[C@H](C)C[C@@H]1O
REMARK SMILES IDX 8 1 7 2 6 3 5 4 4 5 10 6 9 7 11 8 2 10 1 11 3 12
REMARK H PARENT 11 9
REMARK Flexibility Score: inf
ROOT
ATOM      1  C   UNL     1     140.731 143.864 146.138  1.00  0.00     0.008 C 
ATOM      2  C   UNL     1     141.069 143.234 144.780  1.00  0.00    -0.012 C 
ATOM      3  C   UNL     1     141.805 144.252 143.876  1.00  0.00     0.004 C 
ATOM      4  C   UNL     1     142.663 143.545 142.826  1.00  0.00     0.011 C 
ATOM      5  C   UNL     1     143.809 142.758 143.506  1.00  0.00     0.043 C 
ATOM      6  C   UNL     1     143.377 142.060 144.837  1.00  0.00     0.121 C 
ATOM      7  C   UNL     1     141.844 141.898 144.947  1.00  0.00     0.035 C 
ENDROOT
BRANCH   6   8
ATOM      8  O   UNL     1     143.853 142.806 145.929  1.00  0.00    -0.392 OA
ATOM      9  H   UNL     1     143.082 143.320 146.287  1.00  0.00     0.210 HD
ENDBRANCH   6   8
BRANCH   5  10
ATOM     10  C   UNL     1     144.460 141.789 142.525  1.00  0.00    -0.075 C 
ATOM     11  C   UNL     1     144.491 140.467 142.768  1.00  0.00     0.008 C 
ATOM     12  C   UNL     1     145.093 142.302 141.256  1.00  0.00     0.039 C 
ENDBRANCH   5  10
TORSDOF 2
ENDMDL
