MODEL 1
REMARK VINA RESULT:    -5.295      0.000      0.000
REMARK INTER + INTRA:          -7.252
REMARK INTER:                  -6.842
REMARK INTRA:                  -0.410
REMARK UNBOUND:                -0.410
REMARK SMILES CCO[C@@H]1O[C@@H](CO)[C@@H](O)[C@@H](O)[C@@H]1O
REMARK SMILES IDX 4 1 13 2 11 3 9 4 6 5 5 6 3 7 2 8 1 9 14 10 12 12 7 14 8 15
REMARK SMILES IDX 10 17
REMARK H PARENT 14 11 12 13 8 16 10 18
REMARK Flexibility Score: inf
ROOT
ATOM      1  C   UNL     1    -143.385 102.223  33.961  1.00  0.00     0.281 C 
ATOM      2  C   UNL     1    -143.549 101.758  32.497  1.00  0.00     0.202 C 
ATOM      3  C   UNL     1    -142.572 100.612  32.178  1.00  0.00     0.179 C 
ATOM      4  C   UNL     1    -142.694  99.507  33.242  1.00  0.00     0.177 C 
ATOM      5  C   UNL     1    -142.527 100.143  34.640  1.00  0.00     0.178 C 
ATOM      6  O   UNL     1    -143.520 101.133  34.863  1.00  0.00    -0.341 OA
ENDROOT
BRANCH   1   7
ATOM      7  O   UNL     1    -142.132 102.874  34.131  1.00  0.00    -0.350 OA
BRANCH   7   8
ATOM      8  C   UNL     1    -142.261 104.097  34.830  1.00  0.00     0.160 C 
ATOM      9  C   UNL     1    -142.534 105.270  33.889  1.00  0.00     0.035 C 
ENDBRANCH   7   8
ENDBRANCH   1   7
BRANCH   2  10
ATOM     10  O   UNL     1    -143.319 102.830  31.620  1.00  0.00    -0.385 OA
ATOM     11  H   UNL     1    -142.560 103.348  31.996  1.00  0.00     0.211 HD
ENDBRANCH   2  10
BRANCH   3  12
ATOM     12  O   UNL     1    -142.845 100.076  30.909  1.00  0.00    -0.387 OA
ATOM     13  H   UNL     1    -143.542  99.382  31.031  1.00  0.00     0.211 HD
ENDBRANCH   3  12
BRANCH   5  14
ATOM     14  C   UNL     1    -142.589  99.093  35.762  1.00  0.00     0.191 C 
BRANCH  14  15
ATOM     15  O   UNL     1    -143.901  98.911  36.225  1.00  0.00    -0.394 OA
ATOM     16  H   UNL     1    -143.912  98.053  36.721  1.00  0.00     0.210 HD
ENDBRANCH  14  15
ENDBRANCH   5  14
BRANCH   4  17
ATOM     17  O   UNL     1    -143.946  98.875  33.146  1.00  0.00    -0.387 OA
ATOM     18  H   UNL     1    -143.979  98.183  33.855  1.00  0.00     0.211 HD
ENDBRANCH   4  17
TORSDOF 7
ENDMDL
MODEL 2
REMARK VINA RESULT:    -4.664      1.805      4.683
REMARK INTER + INTRA:          -6.438
REMARK INTER:                  -5.996
REMARK INTRA:                  -0.441
REMARK UNBOUND:                -0.410
REMARK SMILES CCO[C@@H]1O[C@@H](CO)[C@@H](O)[C@@H](O)[C@@H]1O
REMARK SMILES IDX 4 1 13 2 11 3 9 4 6 5 5 6 3 7 2 8 1 9 14 10 12 12 7 14 8 15
REMARK SMILES IDX 10 17
REMARK H PARENT 14 11 12 13 8 16 10 18
REMARK Flexibility Score: inf
ROOT
ATOM      1  C   UNL     1    -142.667 102.372  33.810  1.00  0.00     0.281 C 
ATOM      2  C   UNL     1    -142.948 103.046  32.448  1.00  0.00     0.202 C 
ATOM      3  C   UNL     1    -143.708 104.370  32.643  1.00  0.00     0.179 C 
ATOM      4  C   UNL     1    -142.982 105.245  33.679  1.00  0.00     0.177 C 
ATOM      5  C   UNL     1    -142.765 104.418  34.965  1.00  0.00     0.178 C 
ATOM      6  O   UNL     1    -141.991 103.258  34.691  1.00  0.00    -0.341 OA
ENDROOT
BRANCH   1   7
ATOM      7  O   UNL     1    -143.882 101.909  34.386  1.00  0.00    -0.350 OA
BRANCH   7   8
ATOM      8  C   UNL     1    -143.726 100.649  35.010  1.00  0.00     0.160 C 
ATOM      9  C   UNL     1    -143.382  99.550  34.007  1.00  0.00     0.035 C 
ENDBRANCH   7   8
ENDBRANCH   1   7
BRANCH   2  10
ATOM     10  O   UNL     1    -143.697 102.188  31.629  1.00  0.00    -0.385 OA
ATOM     11  H   UNL     1    -143.069 101.501  31.285  1.00  0.00     0.211 HD
ENDBRANCH   2  10
BRANCH   3  12
ATOM     12  O   UNL     1    -143.805 105.062  31.425  1.00  0.00    -0.387 OA
ATOM     13  H   UNL     1    -144.574 104.676  30.933  1.00  0.00     0.211 HD
ENDBRANCH   3  12
BRANCH   5  14
ATOM     14  C   UNL     1    -142.083 105.239  36.072  1.00  0.00     0.191 C 
BRANCH  14  15
ATOM     15  O   UNL     1    -142.046 106.605  35.752  1.00  0.00    -0.394 OA
ATOM     16  H   UNL     1    -142.971 106.866  35.509  1.00  0.00     0.210 HD
ENDBRANCH  14  15
ENDBRANCH   5  14
BRANCH   4  17
ATOM     17  O   UNL     1    -141.745 105.677  33.169  1.00  0.00    -0.387 OA
ATOM     18  H   UNL     1    -141.552 106.559  33.580  1.00  0.00     0.211 HD
ENDBRANCH   4  17
TORSDOF 7
ENDMDL
MODEL 3
REMARK VINA RESULT:    -4.656     21.161     22.877
REMARK INTER + INTRA:          -6.428
REMARK INTER:                  -6.204
REMARK INTRA:                  -0.223
REMARK UNBOUND:                -0.410
REMARK SMILES CCO[C@@H]1O[C@@H](CO)[C@@H](O)[C@@H](O)[C@@H]1O
REMARK SMILES IDX 4 1 13 2 11 3 9 4 6 5 5 6 3 7 2 8 1 9 14 10 12 12 7 14 8 15
REMARK SMILES IDX 10 17
REMARK H PARENT 14 11 12 13 8 16 10 18
REMARK Flexibility Score: inf
ROOT
ATOM      1  C   UNL     1    -130.122 116.418  43.250  1.00  0.00     0.281 C 
ATOM      2  C   UNL     1    -130.031 114.894  43.487  1.00  0.00     0.202 C 
ATOM      3  C   UNL     1    -129.286 114.592  44.800  1.00  0.00     0.179 C 
ATOM      4  C   UNL     1    -129.900 115.407  45.951  1.00  0.00     0.177 C 
ATOM      5  C   UNL     1    -129.933 116.897  45.543  1.00  0.00     0.178 C 
ATOM      6  O   UNL     1    -130.706 117.078  44.365  1.00  0.00    -0.341 OA
ENDROOT
BRANCH   1   7
ATOM      7  O   UNL     1    -128.833 116.946  42.962  1.00  0.00    -0.350 OA
BRANCH   7   8
ATOM      8  C   UNL     1    -128.877 118.335  42.693  1.00  0.00     0.160 C 
ATOM      9  C   UNL     1    -127.940 119.125  43.605  1.00  0.00     0.035 C 
ENDBRANCH   7   8
ENDBRANCH   1   7
BRANCH   2  10
ATOM     10  O   UNL     1    -129.367 114.276  42.416  1.00  0.00    -0.385 OA
ATOM     11  H   UNL     1    -129.713 114.697  41.586  1.00  0.00     0.211 HD
ENDBRANCH   2  10
BRANCH   3  12
ATOM     12  O   UNL     1    -129.360 113.223  45.100  1.00  0.00    -0.387 OA
ATOM     13  H   UNL     1    -128.743 113.059  45.857  1.00  0.00     0.211 HD
ENDBRANCH   3  12
BRANCH   5  14
ATOM     14  C   UNL     1    -130.493 117.790  46.663  1.00  0.00     0.191 C 
BRANCH  14  15
ATOM     15  O   UNL     1    -131.896 117.819  46.647  1.00  0.00    -0.394 OA
ATOM     16  H   UNL     1    -132.196 116.927  46.334  1.00  0.00     0.210 HD
ENDBRANCH  14  15
ENDBRANCH   5  14
BRANCH   4  17
ATOM     17  O   UNL     1    -131.202 114.954  46.229  1.00  0.00    -0.387 OA
ATOM     18  H   UNL     1    -131.156 114.433  47.071  1.00  0.00     0.211 HD
ENDBRANCH   4  17
TORSDOF 7
ENDMDL
MODEL 4
REMARK VINA RESULT:    -4.513     20.701     22.862
REMARK INTER + INTRA:          -6.242
REMARK INTER:                  -6.078
REMARK INTRA:                  -0.164
REMARK UNBOUND:                -0.410
REMARK SMILES CCO[C@@H]1O[C@@H](CO)[C@@H](O)[C@@H](O)[C@@H]1O
REMARK SMILES IDX 4 1 13 2 11 3 9 4 6 5 5 6 3 7 2 8 1 9 14 10 12 12 7 14 8 15
REMARK SMILES IDX 10 17
REMARK H PARENT 14 11 12 13 8 16 10 18
REMARK Flexibility Score: inf
ROOT
ATOM      1  C   UNL     1    -129.316 115.342  45.239  1.00  0.00     0.281 C 
ATOM      2  C   UNL     1    -129.373 114.430  43.993  1.00  0.00     0.202 C 
ATOM      3  C   UNL     1    -130.207 115.086  42.877  1.00  0.00     0.179 C 
ATOM      4  C   UNL     1    -129.713 116.521  42.628  1.00  0.00     0.177 C 
ATOM      5  C   UNL     1    -129.700 117.283  43.971  1.00  0.00     0.178 C 
ATOM      6  O   UNL     1    -128.845 116.640  44.905  1.00  0.00    -0.341 OA
ENDROOT
BRANCH   1   7
ATOM      7  O   UNL     1    -130.597 115.407  45.856  1.00  0.00    -0.350 OA
BRANCH   7   8
ATOM      8  C   UNL     1    -130.563 116.130  47.072  1.00  0.00     0.160 C 
ATOM      9  C   UNL     1    -131.372 117.423  46.992  1.00  0.00     0.035 C 
ENDBRANCH   7   8
ENDBRANCH   1   7
BRANCH   2  10
ATOM     10  O   UNL     1    -129.930 113.186  44.328  1.00  0.00    -0.385 OA
ATOM     11  H   UNL     1    -130.239 112.775  43.479  1.00  0.00     0.211 HD
ENDBRANCH   2  10
BRANCH   3  12
ATOM     12  O   UNL     1    -130.109 114.340  41.692  1.00  0.00    -0.387 OA
ATOM     13  H   UNL     1    -129.867 114.975  40.970  1.00  0.00     0.211 HD
ENDBRANCH   3  12
BRANCH   5  14
ATOM     14  C   UNL     1    -129.260 118.747  43.800  1.00  0.00     0.191 C 
BRANCH  14  15
ATOM     15  O   UNL     1    -127.875 118.850  43.600  1.00  0.00    -0.394 OA
ATOM     16  H   UNL     1    -127.613 119.763  43.881  1.00  0.00     0.210 HD
ENDBRANCH  14  15
ENDBRANCH   5  14
BRANCH   4  17
ATOM     17  O   UNL     1    -128.423 116.502  42.071  1.00  0.00    -0.387 OA
ATOM     18  H   UNL     1    -128.529 116.533  41.085  1.00  0.00     0.211 HD
ENDBRANCH   4  17
TORSDOF 7
ENDMDL
MODEL 5
REMARK VINA RESULT:    -4.180     14.766     16.717
REMARK INTER + INTRA:          -5.811
REMARK INTER:                  -5.445
REMARK INTRA:                  -0.366
REMARK UNBOUND:                -0.410
REMARK SMILES CCO[C@@H]1O[C@@H](CO)[C@@H](O)[C@@H](O)[C@@H]1O
REMARK SMILES IDX 4 1 13 2 11 3 9 4 6 5 5 6 3 7 2 8 1 9 14 10 12 12 7 14 8 15
REMARK SMILES IDX 10 17
REMARK H PARENT 14 11 12 13 8 16 10 18
REMARK Flexibility Score: inf
ROOT
ATOM      1  C   UNL     1    -129.662 109.195  40.100  1.00  0.00     0.281 C 
ATOM      2  C   UNL     1    -129.062 109.349  41.516  1.00  0.00     0.202 C 
ATOM      3  C   UNL     1    -129.520 108.195  42.427  1.00  0.00     0.179 C 
ATOM      4  C   UNL     1    -129.258 106.845  41.738  1.00  0.00     0.177 C 
ATOM      5  C   UNL     1    -129.904 106.869  40.336  1.00  0.00     0.178 C 
ATOM      6  O   UNL     1    -129.361 107.921  39.550  1.00  0.00    -0.341 OA
ENDROOT
BRANCH   1   7
ATOM      7  O   UNL     1    -131.067 109.416  40.137  1.00  0.00    -0.350 OA
BRANCH   7   8
ATOM      8  C   UNL     1    -131.589 109.722  38.859  1.00  0.00     0.160 C 
ATOM      9  C   UNL     1    -132.480 108.604  38.320  1.00  0.00     0.035 C 
ENDBRANCH   7   8
ENDBRANCH   1   7
BRANCH   2  10
ATOM     10  O   UNL     1    -129.451 110.575  42.076  1.00  0.00    -0.385 OA
ATOM     11  H   UNL     1    -129.768 111.143  41.326  1.00  0.00     0.211 HD
ENDBRANCH   2  10
BRANCH   3  12
ATOM     12  O   UNL     1    -128.836 108.240  43.653  1.00  0.00    -0.387 OA
ATOM     13  H   UNL     1    -129.448 108.659  44.311  1.00  0.00     0.211 HD
ENDBRANCH   3  12
BRANCH   5  14
ATOM     14  C   UNL     1    -129.727 105.533  39.595  1.00  0.00     0.191 C 
BRANCH  14  15
ATOM     15  O   UNL     1    -129.701 104.449  40.486  1.00  0.00    -0.394 OA
ATOM     16  H   UNL     1    -128.966 104.626  41.128  1.00  0.00     0.210 HD
ENDBRANCH  14  15
ENDBRANCH   5  14
BRANCH   4  17
ATOM     17  O   UNL     1    -127.875 106.616  41.628  1.00  0.00    -0.387 OA
ATOM     18  H   UNL     1    -127.688 106.413  40.675  1.00  0.00     0.211 HD
ENDBRANCH   4  17
TORSDOF 7
ENDMDL
MODEL 6
REMARK VINA RESULT:    -4.178     15.046     16.792
REMARK INTER + INTRA:          -5.809
REMARK INTER:                  -5.397
REMARK INTRA:                  -0.412
REMARK UNBOUND:                -0.410
REMARK SMILES CCO[C@@H]1O[C@@H](CO)[C@@H](O)[C@@H](O)[C@@H]1O
REMARK SMILES IDX 4 1 13 2 11 3 9 4 6 5 5 6 3 7 2 8 1 9 14 10 12 12 7 14 8 15
REMARK SMILES IDX 10 17
REMARK H PARENT 14 11 12 13 8 16 10 18
REMARK Flexibility Score: inf
ROOT
ATOM      1  C   UNL     1    -129.902 106.690  39.913  1.00  0.00     0.281 C 
ATOM      2  C   UNL     1    -129.098 106.975  41.202  1.00  0.00     0.202 C 
ATOM      3  C   UNL     1    -128.453 108.371  41.143  1.00  0.00     0.179 C 
ATOM      4  C   UNL     1    -129.512 109.424  40.776  1.00  0.00     0.177 C 
ATOM      5  C   UNL     1    -130.229 108.978  39.483  1.00  0.00     0.178 C 
ATOM      6  O   UNL     1    -130.854 107.715  39.665  1.00  0.00    -0.341 OA
ENDROOT
BRANCH   1   7
ATOM      7  O   UNL     1    -129.017 106.538  38.809  1.00  0.00    -0.350 OA
BRANCH   7   8
ATOM      8  C   UNL     1    -129.348 105.414  38.016  1.00  0.00     0.160 C 
ATOM      9  C   UNL     1    -129.379 104.124  38.834  1.00  0.00     0.035 C 
ENDBRANCH   7   8
ENDBRANCH   1   7
BRANCH   2  10
ATOM     10  O   UNL     1    -128.102 106.002  41.376  1.00  0.00    -0.385 OA
ATOM     11  H   UNL     1    -128.405 105.413  42.115  1.00  0.00     0.211 HD
ENDBRANCH   2  10
BRANCH   3  12
ATOM     12  O   UNL     1    -127.875 108.695  42.381  1.00  0.00    -0.387 OA
ATOM     13  H   UNL     1    -128.075 107.945  42.999  1.00  0.00     0.211 HD
ENDBRANCH   3  12
BRANCH   5  14
ATOM     14  C   UNL     1    -131.277 110.004  39.020  1.00  0.00     0.191 C 
BRANCH  14  15
ATOM     15  O   UNL     1    -132.390 110.026  39.874  1.00  0.00    -0.394 OA
ATOM     16  H   UNL     1    -133.105 109.506  39.423  1.00  0.00     0.210 HD
ENDBRANCH  14  15
ENDBRANCH   5  14
BRANCH   4  17
ATOM     17  O   UNL     1    -130.443 109.563  41.820  1.00  0.00    -0.387 OA
ATOM     18  H   UNL     1    -131.344 109.588  41.407  1.00  0.00     0.211 HD
ENDBRANCH   4  17
TORSDOF 7
ENDMDL
MODEL 7
REMARK VINA RESULT:    -4.114     14.821     16.836
REMARK INTER + INTRA:          -5.727
REMARK INTER:                  -5.423
REMARK INTRA:                  -0.304
REMARK UNBOUND:                -0.410
REMARK SMILES CCO[C@@H]1O[C@@H](CO)[C@@H](O)[C@@H](O)[C@@H]1O
REMARK SMILES IDX 4 1 13 2 11 3 9 4 6 5 5 6 3 7 2 8 1 9 14 10 12 12 7 14 8 15
REMARK SMILES IDX 10 17
REMARK H PARENT 14 11 12 13 8 16 10 18
REMARK Flexibility Score: inf
ROOT
ATOM      1  C   UNL     1    -129.194 108.703  41.837  1.00  0.00     0.281 C 
ATOM      2  C   UNL     1    -128.433 107.462  41.320  1.00  0.00     0.202 C 
ATOM      3  C   UNL     1    -129.374 106.541  40.522  1.00  0.00     0.179 C 
ATOM      4  C   UNL     1    -130.122 107.354  39.452  1.00  0.00     0.177 C 
ATOM      5  C   UNL     1    -130.806 108.560  40.133  1.00  0.00     0.178 C 
ATOM      6  O   UNL     1    -129.845 109.386  40.775  1.00  0.00    -0.341 OA
ENDROOT
BRANCH   1   7
ATOM      7  O   UNL     1    -130.123 108.322  42.845  1.00  0.00    -0.350 OA
BRANCH   7   8
ATOM      8  C   UNL     1    -130.001 109.118  44.007  1.00  0.00     0.160 C 
ATOM      9  C   UNL     1    -130.911 108.632  45.134  1.00  0.00     0.035 C 
ENDBRANCH   7   8
ENDBRANCH   1   7
BRANCH   2  10
ATOM     10  O   UNL     1    -127.877 106.751  42.395  1.00  0.00    -0.385 OA
ATOM     11  H   UNL     1    -127.188 107.340  42.800  1.00  0.00     0.211 HD
ENDBRANCH   2  10
BRANCH   3  12
ATOM     12  O   UNL     1    -128.644 105.511  39.907  1.00  0.00    -0.387 OA
ATOM     13  H   UNL     1    -129.174 104.680  40.009  1.00  0.00     0.211 HD
ENDBRANCH   3  12
BRANCH   5  14
ATOM     14  C   UNL     1    -131.618 109.403  39.135  1.00  0.00     0.191 C 
BRANCH  14  15
ATOM     15  O   UNL     1    -132.361 108.593  38.262  1.00  0.00    -0.394 OA
ATOM     16  H   UNL     1    -132.693 109.184  37.538  1.00  0.00     0.210 HD
ENDBRANCH  14  15
ENDBRANCH   5  14
BRANCH   4  17
ATOM     17  O   UNL     1    -129.226 107.801  38.466  1.00  0.00    -0.387 OA
ATOM     18  H   UNL     1    -128.449 108.201  38.936  1.00  0.00     0.211 HD
ENDBRANCH   4  17
TORSDOF 7
ENDMDL
MODEL 8
REMARK VINA RESULT:    -4.035     15.197     17.066
REMARK INTER + INTRA:          -5.624
REMARK INTER:                  -5.645
REMARK INTRA:                   0.021
REMARK UNBOUND:                -0.410
REMARK SMILES CCO[C@@H]1O[C@@H](CO)[C@@H](O)[C@@H](O)[C@@H]1O
REMARK SMILES IDX 4 1 13 2 11 3 9 4 6 5 5 6 3 7 2 8 1 9 14 10 12 12 7 14 8 15
REMARK SMILES IDX 10 17
REMARK H PARENT 14 11 12 13 8 16 10 18
REMARK Flexibility Score: inf
ROOT
ATOM      1  C   UNL     1    -128.980 107.754  41.719  1.00  0.00     0.281 C 
ATOM      2  C   UNL     1    -129.050 106.741  40.555  1.00  0.00     0.202 C 
ATOM      3  C   UNL     1    -130.154 107.136  39.556  1.00  0.00     0.179 C 
ATOM      4  C   UNL     1    -129.987 108.608  39.145  1.00  0.00     0.177 C 
ATOM      5  C   UNL     1    -129.915 109.476  40.420  1.00  0.00     0.178 C 
ATOM      6  O   UNL     1    -128.821 109.081  41.236  1.00  0.00    -0.341 OA
ENDROOT
BRANCH   1   7
ATOM      7  O   UNL     1    -130.139 107.644  42.534  1.00  0.00    -0.350 OA
BRANCH   7   8
ATOM      8  C   UNL     1    -130.125 108.569  43.604  1.00  0.00     0.160 C 
ATOM      9  C   UNL     1    -131.285 108.345  44.572  1.00  0.00     0.035 C 
ENDBRANCH   7   8
ENDBRANCH   1   7
BRANCH   2  10
ATOM     10  O   UNL     1    -129.301 105.452  41.049  1.00  0.00    -0.385 OA
ATOM     11  H   UNL     1    -128.489 105.174  41.547  1.00  0.00     0.211 HD
ENDBRANCH   2  10
BRANCH   3  12
ATOM     12  O   UNL     1    -130.097 106.318  38.416  1.00  0.00    -0.387 OA
ATOM     13  H   UNL     1    -130.880 106.550  37.855  1.00  0.00     0.211 HD
ENDBRANCH   3  12
BRANCH   5  14
ATOM     14  C   UNL     1    -129.794 110.974  40.094  1.00  0.00     0.191 C 
BRANCH  14  15
ATOM     15  O   UNL     1    -129.783 111.756  41.259  1.00  0.00    -0.394 OA
ATOM     16  H   UNL     1    -130.064 111.164  42.002  1.00  0.00     0.210 HD
ENDBRANCH  14  15
ENDBRANCH   5  14
BRANCH   4  17
ATOM     17  O   UNL     1    -128.816 108.771  38.383  1.00  0.00    -0.387 OA
ATOM     18  H   UNL     1    -128.061 108.848  39.022  1.00  0.00     0.211 HD
ENDBRANCH   4  17
TORSDOF 7
ENDMDL
