MODEL 1
REMARK VINA RESULT:    -1.638      0.000      0.000
REMARK INTER + INTRA:          -1.638
REMARK INTER:                  -1.638
REMARK INTRA:                   0.000
REMARK UNBOUND:                 0.000
REMARK SMILES CC(=O)[O-]
REMARK SMILES IDX 1 1 2 2 3 3 4 4
REMARK H PARENT
REMARK Flexibility Score: inf
ROOT
ATOM      1  C   UNL     1     -96.401  28.133 -38.880  1.00  0.00     0.063 C 
ATOM      2  C   UNL     1     -95.305  27.369 -39.543  1.00  0.00     0.038 C 
ATOM      3  O   UNL     1     -95.520  26.775 -40.632  1.00  0.00    -0.550 OA
ATOM      4  O   UNL     1     -94.061  27.266 -38.935  1.00  0.00    -0.550 OA
ENDROOT
TORSDOF 0
ENDMDL
MODEL 2
REMARK VINA RESULT:    -1.603      1.383      1.710
REMARK INTER + INTRA:          -1.603
REMARK INTER:                  -1.603
REMARK INTRA:                   0.000
REMARK UNBOUND:                 0.000
REMARK SMILES CC(=O)[O-]
REMARK SMILES IDX 1 1 2 2 3 3 4 4
REMARK H PARENT
REMARK Flexibility Score: inf
ROOT
ATOM      1  C   UNL     1     -96.692  27.956 -38.355  1.00  0.00     0.063 C 
ATOM      2  C   UNL     1     -95.706  28.147 -39.458  1.00  0.00     0.038 C 
ATOM      3  O   UNL     1     -95.268  29.297 -39.720  1.00  0.00    -0.550 OA
ATOM      4  O   UNL     1     -95.310  27.065 -40.232  1.00  0.00    -0.550 OA
ENDROOT
TORSDOF 0
ENDMDL
MODEL 3
REMARK VINA RESULT:    -1.564      1.401      1.401
REMARK INTER + INTRA:          -1.564
REMARK INTER:                  -1.564
REMARK INTRA:                   0.000
REMARK UNBOUND:                 0.000
REMARK SMILES CC(=O)[O-]
REMARK SMILES IDX 1 1 2 2 3 3 4 4
REMARK H PARENT
REMARK Flexibility Score: inf
ROOT
ATOM      1  C   UNL     1     -96.401  27.615 -38.266  1.00  0.00     0.063 C 
ATOM      2  C   UNL     1     -95.642  28.010 -39.487  1.00  0.00     0.038 C 
ATOM      3  O   UNL     1     -95.272  27.133 -40.311  1.00  0.00    -0.550 OA
ATOM      4  O   UNL     1     -95.294  29.338 -39.692  1.00  0.00    -0.550 OA
ENDROOT
TORSDOF 0
ENDMDL
MODEL 4
REMARK VINA RESULT:    -1.493      1.403      1.962
REMARK INTER + INTRA:          -1.493
REMARK INTER:                  -1.493
REMARK INTRA:                   0.000
REMARK UNBOUND:                 0.000
REMARK SMILES CC(=O)[O-]
REMARK SMILES IDX 1 1 2 2 3 3 4 4
REMARK H PARENT
REMARK Flexibility Score: inf
ROOT
ATOM      1  C   UNL     1     -95.806  26.297 -40.197  1.00  0.00     0.063 C 
ATOM      2  C   UNL     1     -94.994  27.366 -39.549  1.00  0.00     0.038 C 
ATOM      3  O   UNL     1     -93.963  27.066 -38.893  1.00  0.00    -0.550 OA
ATOM      4  O   UNL     1     -95.402  28.692 -39.622  1.00  0.00    -0.550 OA
ENDROOT
TORSDOF 0
ENDMDL
MODEL 5
REMARK VINA RESULT:    -1.472     11.750     12.196
REMARK INTER + INTRA:          -1.472
REMARK INTER:                  -1.472
REMARK INTRA:                   0.000
REMARK UNBOUND:                 0.000
REMARK SMILES CC(=O)[O-]
REMARK SMILES IDX 1 1 2 2 3 3 4 4
REMARK H PARENT
REMARK Flexibility Score: inf
ROOT
ATOM      1  C   UNL     1     -97.853  23.034 -28.712  1.00  0.00     0.063 C 
ATOM      2  C   UNL     1     -96.492  23.278 -28.153  1.00  0.00     0.038 C 
ATOM      3  O   UNL     1     -96.356  23.933 -27.087  1.00  0.00    -0.550 OA
ATOM      4  O   UNL     1     -95.369  22.830 -28.835  1.00  0.00    -0.550 OA
ENDROOT
TORSDOF 0
ENDMDL
MODEL 6
REMARK VINA RESULT:    -1.455     11.974     12.281
REMARK INTER + INTRA:          -1.455
REMARK INTER:                  -1.455
REMARK INTRA:                   0.000
REMARK UNBOUND:                 0.000
REMARK SMILES CC(=O)[O-]
REMARK SMILES IDX 1 1 2 2 3 3 4 4
REMARK H PARENT
REMARK Flexibility Score: inf
ROOT
ATOM      1  C   UNL     1     -95.108  23.272 -28.976  1.00  0.00     0.063 C 
ATOM      2  C   UNL     1     -96.283  23.308 -28.059  1.00  0.00     0.038 C 
ATOM      3  O   UNL     1     -97.249  22.522 -28.240  1.00  0.00    -0.550 OA
ATOM      4  O   UNL     1     -96.339  24.245 -27.036  1.00  0.00    -0.550 OA
ENDROOT
TORSDOF 0
ENDMDL
MODEL 7
REMARK VINA RESULT:    -1.391     11.602     12.029
REMARK INTER + INTRA:          -1.391
REMARK INTER:                  -1.391
REMARK INTRA:                   0.000
REMARK UNBOUND:                 0.000
REMARK SMILES CC(=O)[O-]
REMARK SMILES IDX 1 1 2 2 3 3 4 4
REMARK H PARENT
REMARK Flexibility Score: inf
ROOT
ATOM      1  C   UNL     1     -97.660  23.255 -29.098  1.00  0.00     0.063 C 
ATOM      2  C   UNL     1     -96.386  23.301 -28.323  1.00  0.00     0.038 C 
ATOM      3  O   UNL     1     -95.334  22.810 -28.810  1.00  0.00    -0.550 OA
ATOM      4  O   UNL     1     -96.369  23.835 -27.042  1.00  0.00    -0.550 OA
ENDROOT
TORSDOF 0
ENDMDL
MODEL 8
REMARK VINA RESULT:    -1.348      2.160      2.582
REMARK INTER + INTRA:          -1.348
REMARK INTER:                  -1.348
REMARK INTRA:                   0.000
REMARK UNBOUND:                 0.000
REMARK SMILES CC(=O)[O-]
REMARK SMILES IDX 1 1 2 2 3 3 4 4
REMARK H PARENT
REMARK Flexibility Score: inf
ROOT
ATOM      1  C   UNL     1     -98.376  27.999 -38.926  1.00  0.00     0.063 C 
ATOM      2  C   UNL     1     -96.967  27.952 -38.441  1.00  0.00     0.038 C 
ATOM      3  O   UNL     1     -96.724  27.720 -37.228  1.00  0.00    -0.550 OA
ATOM      4  O   UNL     1     -95.920  28.218 -39.314  1.00  0.00    -0.550 OA
ENDROOT
TORSDOF 0
ENDMDL
MODEL 9
REMARK VINA RESULT:    -1.236      2.093      2.395
REMARK INTER + INTRA:          -1.236
REMARK INTER:                  -1.236
REMARK INTRA:                   0.000
REMARK UNBOUND:                 0.000
REMARK SMILES CC(=O)[O-]
REMARK SMILES IDX 1 1 2 2 3 3 4 4
REMARK H PARENT
REMARK Flexibility Score: inf
ROOT
ATOM      1  C   UNL     1     -95.381  27.562 -39.670  1.00  0.00     0.063 C 
ATOM      2  C   UNL     1     -96.780  27.191 -39.312  1.00  0.00     0.038 C 
ATOM      3  O   UNL     1     -97.164  25.998 -39.419  1.00  0.00    -0.550 OA
ATOM      4  O   UNL     1     -97.679  28.171 -38.910  1.00  0.00    -0.550 OA
ENDROOT
TORSDOF 0
ENDMDL
