MODEL 1
REMARK VINA RESULT:    -3.426      0.000      0.000
REMARK INTER + INTRA:          -4.088
REMARK INTER:                  -4.026
REMARK INTRA:                  -0.061
REMARK UNBOUND:                -0.061
REMARK SMILES CCCCC(=O)[O-]
REMARK SMILES IDX 4 1 5 2 6 3 7 4 3 5 2 6 1 7
REMARK H PARENT
REMARK Flexibility Score: inf
ROOT
ATOM      1  C   UNL     1      50.113  39.838  58.981  1.00  0.00     0.053 C 
ENDROOT
BRANCH   1   2
ATOM      2  C   UNL     1      50.780  38.863  58.062  1.00  0.00     0.041 C 
ATOM      3  O   UNL     1      52.031  38.878  57.922  1.00  0.00    -0.550 OA
ATOM      4  O   UNL     1      50.024  37.903  57.400  1.00  0.00    -0.550 OA
ENDBRANCH   1   2
BRANCH   1   5
ATOM      5  C   UNL     1      48.667  39.415  59.253  1.00  0.00     0.006 C 
BRANCH   5   6
ATOM      6  C   UNL     1      47.725  40.624  59.216  1.00  0.00    -0.003 C 
ATOM      7  C   UNL     1      48.501  41.921  59.004  1.00  0.00     0.004 C 
ENDBRANCH   5   6
ENDBRANCH   1   5
TORSDOF 3
ENDMDL
MODEL 2
REMARK VINA RESULT:    -3.345     11.154     11.778
REMARK INTER + INTRA:          -3.993
REMARK INTER:                  -3.942
REMARK INTRA:                  -0.051
REMARK UNBOUND:                -0.061
REMARK SMILES CCCCC(=O)[O-]
REMARK SMILES IDX 4 1 5 2 6 3 7 4 3 5 2 6 1 7
REMARK H PARENT
REMARK Flexibility Score: inf
ROOT
ATOM      1  C   UNL     1      52.040  40.781  48.095  1.00  0.00     0.053 C 
ENDROOT
BRANCH   1   2
ATOM      2  C   UNL     1      53.214  39.962  47.659  1.00  0.00     0.041 C 
ATOM      3  O   UNL     1      53.277  39.521  46.482  1.00  0.00    -0.550 OA
ATOM      4  O   UNL     1      54.264  39.729  48.539  1.00  0.00    -0.550 OA
ENDBRANCH   1   2
BRANCH   1   5
ATOM      5  C   UNL     1      52.366  42.274  48.008  1.00  0.00     0.006 C 
BRANCH   5   6
ATOM      6  C   UNL     1      51.903  42.861  46.670  1.00  0.00    -0.003 C 
ATOM      7  C   UNL     1      52.082  44.376  46.640  1.00  0.00     0.004 C 
ENDBRANCH   5   6
ENDBRANCH   1   5
TORSDOF 3
ENDMDL
MODEL 3
REMARK VINA RESULT:    -3.242     10.508     11.160
REMARK INTER + INTRA:          -3.872
REMARK INTER:                  -3.796
REMARK INTRA:                  -0.076
REMARK UNBOUND:                -0.061
REMARK SMILES CCCCC(=O)[O-]
REMARK SMILES IDX 4 1 5 2 6 3 7 4 3 5 2 6 1 7
REMARK H PARENT
REMARK Flexibility Score: inf
ROOT
ATOM      1  C   UNL     1      52.160  40.786  48.315  1.00  0.00     0.053 C 
ENDROOT
BRANCH   1   2
ATOM      2  C   UNL     1      53.289  39.963  47.780  1.00  0.00     0.041 C 
ATOM      3  O   UNL     1      54.186  39.539  48.555  1.00  0.00    -0.550 OA
ATOM      4  O   UNL     1      53.323  39.621  46.434  1.00  0.00    -0.550 OA
ENDBRANCH   1   2
BRANCH   1   5
ATOM      5  C   UNL     1      52.028  42.092  47.527  1.00  0.00     0.006 C 
BRANCH   5   6
ATOM      6  C   UNL     1      52.722  43.247  48.258  1.00  0.00    -0.003 C 
ATOM      7  C   UNL     1      52.791  42.987  49.760  1.00  0.00     0.004 C 
ENDBRANCH   5   6
ENDBRANCH   1   5
TORSDOF 3
ENDMDL
MODEL 4
REMARK VINA RESULT:    -3.217     10.012     10.719
REMARK INTER + INTRA:          -3.843
REMARK INTER:                  -3.776
REMARK INTRA:                  -0.066
REMARK UNBOUND:                -0.061
REMARK SMILES CCCCC(=O)[O-]
REMARK SMILES IDX 4 1 5 2 6 3 7 4 3 5 2 6 1 7
REMARK H PARENT
REMARK Flexibility Score: inf
ROOT
ATOM      1  C   UNL     1      51.864  40.366  48.347  1.00  0.00     0.053 C 
ENDROOT
BRANCH   1   2
ATOM      2  C   UNL     1      52.481  40.341  49.710  1.00  0.00     0.041 C 
ATOM      3  O   UNL     1      53.734  40.322  49.838  1.00  0.00    -0.550 OA
ATOM      4  O   UNL     1      51.673  40.392  50.839  1.00  0.00    -0.550 OA
ENDBRANCH   1   2
BRANCH   1   5
ATOM      5  C   UNL     1      52.645  41.304  47.422  1.00  0.00     0.006 C 
BRANCH   5   6
ATOM      6  C   UNL     1      52.267  42.767  47.678  1.00  0.00    -0.003 C 
ATOM      7  C   UNL     1      51.861  43.467  46.384  1.00  0.00     0.004 C 
ENDBRANCH   5   6
ENDBRANCH   1   5
TORSDOF 3
ENDMDL
MODEL 5
REMARK VINA RESULT:    -3.190      9.777     10.774
REMARK INTER + INTRA:          -3.811
REMARK INTER:                  -3.714
REMARK INTRA:                  -0.097
REMARK UNBOUND:                -0.061
REMARK SMILES CCCCC(=O)[O-]
REMARK SMILES IDX 4 1 5 2 6 3 7 4 3 5 2 6 1 7
REMARK H PARENT
REMARK Flexibility Score: inf
ROOT
ATOM      1  C   UNL     1      51.962  40.404  48.707  1.00  0.00     0.053 C 
ENDROOT
BRANCH   1   2
ATOM      2  C   UNL     1      52.382  40.774  50.094  1.00  0.00     0.041 C 
ATOM      3  O   UNL     1      53.484  41.351  50.290  1.00  0.00    -0.550 OA
ATOM      4  O   UNL     1      51.533  40.529  51.167  1.00  0.00    -0.550 OA
ENDBRANCH   1   2
BRANCH   1   5
ATOM      5  C   UNL     1      52.222  41.563  47.741  1.00  0.00     0.006 C 
BRANCH   5   6
ATOM      6  C   UNL     1      53.293  41.189  46.710  1.00  0.00    -0.003 C 
ATOM      7  C   UNL     1      53.565  39.687  46.718  1.00  0.00     0.004 C 
ENDBRANCH   5   6
ENDBRANCH   1   5
TORSDOF 3
ENDMDL
MODEL 6
REMARK VINA RESULT:    -3.177     10.324     11.378
REMARK INTER + INTRA:          -3.796
REMARK INTER:                  -3.693
REMARK INTRA:                  -0.103
REMARK UNBOUND:                -0.061
REMARK SMILES CCCCC(=O)[O-]
REMARK SMILES IDX 4 1 5 2 6 3 7 4 3 5 2 6 1 7
REMARK H PARENT
REMARK Flexibility Score: inf
ROOT
ATOM      1  C   UNL     1      52.184  41.897  47.874  1.00  0.00     0.053 C 
ENDROOT
BRANCH   1   2
ATOM      2  C   UNL     1      52.793  42.526  49.088  1.00  0.00     0.041 C 
ATOM      3  O   UNL     1      52.850  43.779  49.192  1.00  0.00    -0.550 OA
ATOM      4  O   UNL     1      53.252  41.726  50.128  1.00  0.00    -0.550 OA
ENDBRANCH   1   2
BRANCH   1   5
ATOM      5  C   UNL     1      52.264  40.371  47.962  1.00  0.00     0.006 C 
BRANCH   5   6
ATOM      6  C   UNL     1      53.231  39.810  46.914  1.00  0.00    -0.003 C 
ATOM      7  C   UNL     1      54.493  39.255  47.568  1.00  0.00     0.004 C 
ENDBRANCH   5   6
ENDBRANCH   1   5
TORSDOF 3
ENDMDL
MODEL 7
REMARK VINA RESULT:    -3.171     10.413     11.470
REMARK INTER + INTRA:          -3.788
REMARK INTER:                  -3.683
REMARK INTRA:                  -0.105
REMARK UNBOUND:                -0.061
REMARK SMILES CCCCC(=O)[O-]
REMARK SMILES IDX 4 1 5 2 6 3 7 4 3 5 2 6 1 7
REMARK H PARENT
REMARK Flexibility Score: inf
ROOT
ATOM      1  C   UNL     1      52.170  41.913  47.793  1.00  0.00     0.053 C 
ENDROOT
BRANCH   1   2
ATOM      2  C   UNL     1      52.770  42.573  48.995  1.00  0.00     0.041 C 
ATOM      3  O   UNL     1      53.222  41.876  49.941  1.00  0.00    -0.550 OA
ATOM      4  O   UNL     1      52.878  43.957  49.046  1.00  0.00    -0.550 OA
ENDBRANCH   1   2
BRANCH   1   5
ATOM      5  C   UNL     1      52.252  40.389  47.921  1.00  0.00     0.006 C 
BRANCH   5   6
ATOM      6  C   UNL     1      53.226  39.804  46.892  1.00  0.00    -0.003 C 
ATOM      7  C   UNL     1      54.478  39.254  47.569  1.00  0.00     0.004 C 
ENDBRANCH   5   6
ENDBRANCH   1   5
TORSDOF 3
ENDMDL
MODEL 8
REMARK VINA RESULT:    -3.088      9.471     10.262
REMARK INTER + INTRA:          -3.690
REMARK INTER:                  -3.629
REMARK INTRA:                  -0.061
REMARK UNBOUND:                -0.061
REMARK SMILES CCCCC(=O)[O-]
REMARK SMILES IDX 4 1 5 2 6 3 7 4 3 5 2 6 1 7
REMARK H PARENT
REMARK Flexibility Score: inf
ROOT
ATOM      1  C   UNL     1      53.695  40.202  49.866  1.00  0.00     0.053 C 
ENDROOT
BRANCH   1   2
ATOM      2  C   UNL     1      54.442  38.961  49.489  1.00  0.00     0.041 C 
ATOM      3  O   UNL     1      54.847  38.799  48.307  1.00  0.00    -0.550 OA
ATOM      4  O   UNL     1      54.735  38.005  50.454  1.00  0.00    -0.550 OA
ENDBRANCH   1   2
BRANCH   1   5
ATOM      5  C   UNL     1      52.200  40.034  49.583  1.00  0.00     0.006 C 
BRANCH   5   6
ATOM      6  C   UNL     1      51.859  40.469  48.153  1.00  0.00    -0.003 C 
ATOM      7  C   UNL     1      52.279  41.915  47.902  1.00  0.00     0.004 C 
ENDBRANCH   5   6
ENDBRANCH   1   5
TORSDOF 3
ENDMDL
MODEL 9
REMARK VINA RESULT:    -3.011     10.779     11.600
REMARK INTER + INTRA:          -3.600
REMARK INTER:                  -3.494
REMARK INTRA:                  -0.107
REMARK UNBOUND:                -0.061
REMARK SMILES CCCCC(=O)[O-]
REMARK SMILES IDX 4 1 5 2 6 3 7 4 3 5 2 6 1 7
REMARK H PARENT
REMARK Flexibility Score: inf
ROOT
ATOM      1  C   UNL     1      52.220  41.755  47.591  1.00  0.00     0.053 C 
ENDROOT
BRANCH   1   2
ATOM      2  C   UNL     1      53.354  41.630  46.623  1.00  0.00     0.041 C 
ATOM      3  O   UNL     1      53.921  42.661  46.174  1.00  0.00    -0.550 OA
ATOM      4  O   UNL     1      53.819  40.373  46.255  1.00  0.00    -0.550 OA
ENDBRANCH   1   2
BRANCH   1   5
ATOM      5  C   UNL     1      51.858  40.386  48.172  1.00  0.00     0.006 C 
BRANCH   5   6
ATOM      6  C   UNL     1      52.187  40.320  49.668  1.00  0.00    -0.003 C 
ATOM      7  C   UNL     1      53.534  39.645  49.906  1.00  0.00     0.004 C 
ENDBRANCH   5   6
ENDBRANCH   1   5
TORSDOF 3
ENDMDL
