MODEL 1
REMARK VINA RESULT:    -5.658      0.000      0.000
REMARK INTER + INTRA:          -5.803
REMARK INTER:                  -6.154
REMARK INTRA:                   0.351
REMARK UNBOUND:                 0.351
REMARK SMILES CC1(C)CC[C@]2(C(=O)[O-])CC[C@@]3(C)C(=CC[C@@H]4[C@@]5(C)CC[C@@H](O)C(C)(C)[C@H]5CC[C@@]43C)[C@H]2C1
REMARK SMILES IDX 6 1 5 2 10 3 32 4 4 5 11 6 14 7 33 8 2 9 12 10 15 11 1 12
REMARK SMILES IDX 3 13 13 14 30 15 16 16 17 17 29 18 31 19 18 20 28 21 27 22
REMARK SMILES IDX 20 23 19 24 24 25 21 26 22 27 25 28 26 29 7 30 8 31 9 32
REMARK SMILES IDX 23 33
REMARK H PARENT 23 34
REMARK Flexibility Score: inf
ROOT
ATOM      1  C   UNL     1      -0.325  17.731  74.227  1.00  0.00     0.017 C 
ATOM      2  C   UNL     1      -0.822  18.748  75.299  1.00  0.00     0.014 C 
ATOM      3  C   UNL     1      -0.750  16.280  74.625  1.00  0.00     0.014 C 
ATOM      4  C   UNL     1       1.234  17.820  74.253  1.00  0.00     0.028 C 
ATOM      5  C   UNL     1      -0.375  20.186  74.958  1.00  0.00     0.007 C 
ATOM      6  C   UNL     1       0.117  15.092  74.070  1.00  0.00     0.013 C 
ATOM      7  C   UNL     1       1.999  16.623  73.665  1.00  0.00    -0.064 C 
ATOM      8  C   UNL     1       1.779  19.216  73.870  1.00  0.00     0.015 C 
ATOM      9  C   UNL     1       1.163  20.357  74.746  1.00  0.00    -0.035 C 
ATOM     10  C   UNL     1       1.241  15.442  73.032  1.00  0.00    -0.006 C 
ATOM     11  C   UNL     1       3.228  16.455  74.182  1.00  0.00    -0.027 C 
ATOM     12  C   UNL     1       1.870  20.415  76.124  1.00  0.00     0.011 C 
ATOM     13  C   UNL     1       1.406  21.699  74.035  1.00  0.00     0.011 C 
ATOM     14  C   UNL     1       0.560  15.890  71.697  1.00  0.00     0.017 C 
ATOM     15  C   UNL     1       2.202  14.163  72.712  1.00  0.00    -0.020 C 
ATOM     16  C   UNL     1       3.991  15.186  74.228  1.00  0.00     0.032 C 
ATOM     17  C   UNL     1       3.204  13.883  73.903  1.00  0.00     0.006 C 
ATOM     18  C   UNL     1       3.097  14.398  71.450  1.00  0.00     0.008 C 
ATOM     19  C   UNL     1       1.271  12.938  72.437  1.00  0.00     0.012 C 
ATOM     20  C   UNL     1       4.246  12.672  73.690  1.00  0.00    -0.025 C 
ATOM     21  C   UNL     1       4.065  13.248  71.137  1.00  0.00     0.005 C 
ATOM     22  C   UNL     1       5.011  12.810  72.298  1.00  0.00     0.003 C 
ATOM     23  C   UNL     1       3.553  11.269  73.875  1.00  0.00     0.010 C 
ATOM     24  C   UNL     1       5.300  12.750  74.845  1.00  0.00     0.012 C 
ATOM     25  C   UNL     1       5.943  11.549  71.915  1.00  0.00    -0.006 C 
ATOM     26  C   UNL     1       3.927  10.230  72.814  1.00  0.00     0.033 C 
ATOM     27  C   UNL     1       5.435  10.213  72.580  1.00  0.00     0.120 C 
ATOM     28  C   UNL     1       7.404  11.812  72.378  1.00  0.00     0.014 C 
ATOM     29  C   UNL     1       6.053  11.344  70.373  1.00  0.00     0.014 C 
ENDROOT
BRANCH   1  30
ATOM     30  C   UNL     1      -1.036  18.138  72.930  1.00  0.00     0.048 C 
ATOM     31  O   UNL     1      -0.479  18.847  72.050  1.00  0.00    -0.550 OA
ATOM     32  O   UNL     1      -2.384  17.817  72.765  1.00  0.00    -0.550 OA
ENDBRANCH   1  30
BRANCH  27  33
ATOM     33  O   UNL     1       5.751   9.092  71.792  1.00  0.00    -0.393 OA
ATOM     34  H   UNL     1       4.890   8.642  71.568  1.00  0.00     0.210 HD
ENDBRANCH  27  33
TORSDOF 2
ENDMDL
MODEL 2
REMARK VINA RESULT:    -5.495      2.419      8.527
REMARK INTER + INTRA:          -5.625
REMARK INTER:                  -5.976
REMARK INTRA:                   0.350
REMARK UNBOUND:                 0.351
REMARK SMILES CC1(C)CC[C@]2(C(=O)[O-])CC[C@@]3(C)C(=CC[C@@H]4[C@@]5(C)CC[C@@H](O)C(C)(C)[C@H]5CC[C@@]43C)[C@H]2C1
REMARK SMILES IDX 6 1 5 2 10 3 32 4 4 5 11 6 14 7 33 8 2 9 12 10 15 11 1 12
REMARK SMILES IDX 3 13 13 14 30 15 16 16 17 17 29 18 31 19 18 20 28 21 27 22
REMARK SMILES IDX 20 23 19 24 24 25 21 26 22 27 25 28 26 29 7 30 8 31 9 32
REMARK SMILES IDX 23 33
REMARK H PARENT 23 34
REMARK Flexibility Score: inf
ROOT
ATOM      1  C   UNL     1       7.044  14.811  71.761  1.00  0.00     0.017 C 
ATOM      2  C   UNL     1       8.340  14.078  72.224  1.00  0.00     0.014 C 
ATOM      3  C   UNL     1       7.270  16.359  71.772  1.00  0.00     0.014 C 
ATOM      4  C   UNL     1       5.957  14.456  72.824  1.00  0.00     0.028 C 
ATOM      5  C   UNL     1       8.133  12.548  72.270  1.00  0.00     0.007 C 
ATOM      6  C   UNL     1       6.004  17.274  71.941  1.00  0.00     0.013 C 
ATOM      7  C   UNL     1       4.741  15.395  72.899  1.00  0.00    -0.064 C 
ATOM      8  C   UNL     1       5.642  12.944  72.904  1.00  0.00     0.015 C 
ATOM      9  C   UNL     1       6.925  12.081  73.143  1.00  0.00    -0.035 C 
ATOM     10  C   UNL     1       4.599  16.575  71.922  1.00  0.00    -0.006 C 
ATOM     11  C   UNL     1       4.150  15.425  74.106  1.00  0.00    -0.027 C 
ATOM     12  C   UNL     1       7.324  12.118  74.640  1.00  0.00     0.011 C 
ATOM     13  C   UNL     1       6.601  10.622  72.777  1.00  0.00     0.011 C 
ATOM     14  C   UNL     1       4.327  16.049  70.474  1.00  0.00     0.017 C 
ATOM     15  C   UNL     1       3.396  17.601  72.328  1.00  0.00    -0.020 C 
ATOM     16  C   UNL     1       3.331  16.532  74.651  1.00  0.00     0.032 C 
ATOM     17  C   UNL     1       3.382  17.885  73.883  1.00  0.00     0.006 C 
ATOM     18  C   UNL     1       1.984  17.018  71.989  1.00  0.00     0.008 C 
ATOM     19  C   UNL     1       3.602  18.910  71.500  1.00  0.00     0.012 C 
ATOM     20  C   UNL     1       2.207  18.847  74.423  1.00  0.00    -0.025 C 
ATOM     21  C   UNL     1       0.812  17.918  72.405  1.00  0.00     0.005 C 
ATOM     22  C   UNL     1       0.781  18.361  73.900  1.00  0.00     0.003 C 
ATOM     23  C   UNL     1       2.499  20.360  74.096  1.00  0.00     0.010 C 
ATOM     24  C   UNL     1       2.216  18.769  75.986  1.00  0.00     0.012 C 
ATOM     25  C   UNL     1      -0.437  19.364  74.240  1.00  0.00    -0.006 C 
ATOM     26  C   UNL     1       1.294  21.139  73.558  1.00  0.00     0.033 C 
ATOM     27  C   UNL     1       0.048  20.856  74.394  1.00  0.00     0.120 C 
ATOM     28  C   UNL     1      -1.129  18.926  75.562  1.00  0.00     0.014 C 
ATOM     29  C   UNL     1      -1.568  19.302  73.168  1.00  0.00     0.014 C 
ENDROOT
BRANCH   1  30
ATOM     30  C   UNL     1       6.810  14.336  70.321  1.00  0.00     0.048 C 
ATOM     31  O   UNL     1       6.004  13.409  70.041  1.00  0.00    -0.550 OA
ATOM     32  O   UNL     1       7.598  14.860  69.296  1.00  0.00    -0.550 OA
ENDBRANCH   1  30
BRANCH  27  33
ATOM     33  O   UNL     1      -0.955  21.766  74.020  1.00  0.00    -0.393 OA
ATOM     34  H   UNL     1      -0.495  22.586  73.690  1.00  0.00     0.210 HD
ENDBRANCH  27  33
TORSDOF 2
ENDMDL
MODEL 3
REMARK VINA RESULT:    -5.215     12.827     14.880
REMARK INTER + INTRA:          -5.321
REMARK INTER:                  -5.668
REMARK INTRA:                   0.347
REMARK UNBOUND:                 0.351
REMARK SMILES CC1(C)CC[C@]2(C(=O)[O-])CC[C@@]3(C)C(=CC[C@@H]4[C@@]5(C)CC[C@@H](O)C(C)(C)[C@H]5CC[C@@]43C)[C@H]2C1
REMARK SMILES IDX 6 1 5 2 10 3 32 4 4 5 11 6 14 7 33 8 2 9 12 10 15 11 1 12
REMARK SMILES IDX 3 13 13 14 30 15 16 16 17 17 29 18 31 19 18 20 28 21 27 22
REMARK SMILES IDX 20 23 19 24 24 25 21 26 22 27 25 28 26 29 7 30 8 31 9 32
REMARK SMILES IDX 23 33
REMARK H PARENT 23 34
REMARK Flexibility Score: inf
ROOT
ATOM      1  C   UNL     1      -2.941  17.517  61.454  1.00  0.00     0.017 C 
ATOM      2  C   UNL     1      -4.294  17.859  62.150  1.00  0.00     0.014 C 
ATOM      3  C   UNL     1      -1.792  17.461  62.512  1.00  0.00     0.014 C 
ATOM      4  C   UNL     1      -2.662  18.700  60.473  1.00  0.00     0.028 C 
ATOM      5  C   UNL     1      -5.442  17.970  61.123  1.00  0.00     0.007 C 
ATOM      6  C   UNL     1      -0.329  17.738  62.009  1.00  0.00     0.013 C 
ATOM      7  C   UNL     1      -1.206  18.879  60.014  1.00  0.00    -0.064 C 
ATOM      8  C   UNL     1      -3.736  18.856  59.372  1.00  0.00     0.015 C 
ATOM      9  C   UNL     1      -5.180  18.980  59.961  1.00  0.00    -0.035 C 
ATOM     10  C   UNL     1      -0.114  17.890  60.461  1.00  0.00    -0.006 C 
ATOM     11  C   UNL     1      -0.893  20.142  59.673  1.00  0.00    -0.027 C 
ATOM     12  C   UNL     1      -5.431  20.424  60.465  1.00  0.00     0.011 C 
ATOM     13  C   UNL     1      -6.189  18.692  58.835  1.00  0.00     0.011 C 
ATOM     14  C   UNL     1      -0.341  16.496  59.791  1.00  0.00     0.017 C 
ATOM     15  C   UNL     1       1.394  18.394  60.097  1.00  0.00    -0.020 C 
ATOM     16  C   UNL     1       0.461  20.740  59.683  1.00  0.00     0.032 C 
ATOM     17  C   UNL     1       1.579  19.933  60.408  1.00  0.00     0.006 C 
ATOM     18  C   UNL     1       1.721  18.226  58.575  1.00  0.00     0.008 C 
ATOM     19  C   UNL     1       2.390  17.513  60.917  1.00  0.00     0.012 C 
ATOM     20  C   UNL     1       3.014  20.569  60.044  1.00  0.00    -0.025 C 
ATOM     21  C   UNL     1       3.108  18.740  58.166  1.00  0.00     0.005 C 
ATOM     22  C   UNL     1       3.435  20.217  58.547  1.00  0.00     0.003 C 
ATOM     23  C   UNL     1       4.111  20.171  61.102  1.00  0.00     0.010 C 
ATOM     24  C   UNL     1       2.886  22.124  60.170  1.00  0.00     0.012 C 
ATOM     25  C   UNL     1       4.936  20.657  58.150  1.00  0.00    -0.006 C 
ATOM     26  C   UNL     1       5.452  19.744  60.497  1.00  0.00     0.033 C 
ATOM     27  C   UNL     1       5.889  20.716  59.405  1.00  0.00     0.120 C 
ATOM     28  C   UNL     1       4.915  22.058  57.475  1.00  0.00     0.014 C 
ATOM     29  C   UNL     1       5.563  19.715  57.076  1.00  0.00     0.014 C 
ENDROOT
BRANCH   1  30
ATOM     30  C   UNL     1      -3.148  16.125  60.843  1.00  0.00     0.048 C 
ATOM     31  O   UNL     1      -3.460  15.960  59.633  1.00  0.00    -0.550 OA
ATOM     32  O   UNL     1      -3.108  15.006  61.675  1.00  0.00    -0.550 OA
ENDBRANCH   1  30
BRANCH  27  33
ATOM     33  O   UNL     1       7.220  20.427  59.056  1.00  0.00    -0.393 OA
ATOM     34  H   UNL     1       7.573  19.805  59.750  1.00  0.00     0.210 HD
ENDBRANCH  27  33
TORSDOF 2
ENDMDL
MODEL 4
REMARK VINA RESULT:    -5.179      1.628      8.383
REMARK INTER + INTRA:          -5.283
REMARK INTER:                  -5.637
REMARK INTRA:                   0.355
REMARK UNBOUND:                 0.351
REMARK SMILES CC1(C)CC[C@]2(C(=O)[O-])CC[C@@]3(C)C(=CC[C@@H]4[C@@]5(C)CC[C@@H](O)C(C)(C)[C@H]5CC[C@@]43C)[C@H]2C1
REMARK SMILES IDX 6 1 5 2 10 3 32 4 4 5 11 6 14 7 33 8 2 9 12 10 15 11 1 12
REMARK SMILES IDX 3 13 13 14 30 15 16 16 17 17 29 18 31 19 18 20 28 21 27 22
REMARK SMILES IDX 20 23 19 24 24 25 21 26 22 27 25 28 26 29 7 30 8 31 9 32
REMARK SMILES IDX 23 33
REMARK H PARENT 23 34
REMARK Flexibility Score: inf
ROOT
ATOM      1  C   UNL     1       5.108  11.394  71.483  1.00  0.00     0.017 C 
ATOM      2  C   UNL     1       5.527  10.566  70.230  1.00  0.00     0.014 C 
ATOM      3  C   UNL     1       3.562  11.299  71.697  1.00  0.00     0.014 C 
ATOM      4  C   UNL     1       5.478  12.875  71.152  1.00  0.00     0.028 C 
ATOM      5  C   UNL     1       7.044  10.680  69.964  1.00  0.00     0.007 C 
ATOM      6  C   UNL     1       2.864  12.477  72.468  1.00  0.00     0.013 C 
ATOM      7  C   UNL     1       4.763  13.959  71.974  1.00  0.00    -0.064 C 
ATOM      8  C   UNL     1       6.991  13.097  70.921  1.00  0.00     0.015 C 
ATOM      9  C   UNL     1       7.573  12.143  69.826  1.00  0.00    -0.035 C 
ATOM     10  C   UNL     1       3.789  13.575  73.103  1.00  0.00    -0.006 C 
ATOM     11  C   UNL     1       4.650  15.139  71.339  1.00  0.00    -0.027 C 
ATOM     12  C   UNL     1       7.238  12.682  68.412  1.00  0.00     0.011 C 
ATOM     13  C   UNL     1       9.105  12.118  69.971  1.00  0.00     0.011 C 
ATOM     14  C   UNL     1       4.570  12.933  74.296  1.00  0.00     0.017 C 
ATOM     15  C   UNL     1       2.936  14.844  73.672  1.00  0.00    -0.020 C 
ATOM     16  C   UNL     1       3.630  16.180  71.603  1.00  0.00     0.032 C 
ATOM     17  C   UNL     1       2.422  15.767  72.496  1.00  0.00     0.006 C 
ATOM     18  C   UNL     1       3.799  15.769  74.594  1.00  0.00     0.008 C 
ATOM     19  C   UNL     1       1.754  14.268  74.517  1.00  0.00     0.012 C 
ATOM     20  C   UNL     1       1.607  17.088  72.929  1.00  0.00    -0.025 C 
ATOM     21  C   UNL     1       3.062  17.013  75.110  1.00  0.00     0.005 C 
ATOM     22  C   UNL     1       2.406  17.923  74.027  1.00  0.00     0.003 C 
ATOM     23  C   UNL     1       0.134  16.743  73.370  1.00  0.00     0.010 C 
ATOM     24  C   UNL     1       1.440  17.978  71.652  1.00  0.00     0.012 C 
ATOM     25  C   UNL     1       1.587  19.165  74.653  1.00  0.00    -0.006 C 
ATOM     26  C   UNL     1      -0.333  17.456  74.642  1.00  0.00     0.033 C 
ATOM     27  C   UNL     1       0.029  18.938  74.597  1.00  0.00     0.120 C 
ATOM     28  C   UNL     1       1.929  20.469  73.876  1.00  0.00     0.014 C 
ATOM     29  C   UNL     1       2.008  19.467  76.125  1.00  0.00     0.014 C 
ENDROOT
BRANCH   1  30
ATOM     30  C   UNL     1       5.833  10.730  72.661  1.00  0.00     0.048 C 
ATOM     31  O   UNL     1       6.890  11.204  73.155  1.00  0.00    -0.550 OA
ATOM     32  O   UNL     1       5.379   9.496  73.128  1.00  0.00    -0.550 OA
ENDBRANCH   1  30
BRANCH  27  33
ATOM     33  O   UNL     1      -0.626  19.589  75.656  1.00  0.00    -0.393 OA
ATOM     34  H   UNL     1       0.050  19.726  76.376  1.00  0.00     0.210 HD
ENDBRANCH  27  33
TORSDOF 2
ENDMDL
MODEL 5
REMARK VINA RESULT:    -5.163      2.040      8.461
REMARK INTER + INTRA:          -5.265
REMARK INTER:                  -5.640
REMARK INTRA:                   0.375
REMARK UNBOUND:                 0.351
REMARK SMILES CC1(C)CC[C@]2(C(=O)[O-])CC[C@@]3(C)C(=CC[C@@H]4[C@@]5(C)CC[C@@H](O)C(C)(C)[C@H]5CC[C@@]43C)[C@H]2C1
REMARK SMILES IDX 6 1 5 2 10 3 32 4 4 5 11 6 14 7 33 8 2 9 12 10 15 11 1 12
REMARK SMILES IDX 3 13 13 14 30 15 16 16 17 17 29 18 31 19 18 20 28 21 27 22
REMARK SMILES IDX 20 23 19 24 24 25 21 26 22 27 25 28 26 29 7 30 8 31 9 32
REMARK SMILES IDX 23 33
REMARK H PARENT 23 34
REMARK Flexibility Score: inf
ROOT
ATOM      1  C   UNL     1       5.693  12.866  71.711  1.00  0.00     0.017 C 
ATOM      2  C   UNL     1       6.407  12.125  70.539  1.00  0.00     0.014 C 
ATOM      3  C   UNL     1       4.144  12.828  71.506  1.00  0.00     0.014 C 
ATOM      4  C   UNL     1       6.173  14.350  71.624  1.00  0.00     0.028 C 
ATOM      5  C   UNL     1       7.943  12.187  70.688  1.00  0.00     0.007 C 
ATOM      6  C   UNL     1       3.296  13.971  72.174  1.00  0.00     0.013 C 
ATOM      7  C   UNL     1       5.294  15.396  72.329  1.00  0.00    -0.064 C 
ATOM      8  C   UNL     1       7.699  14.518  71.816  1.00  0.00     0.015 C 
ATOM      9  C   UNL     1       8.525  13.630  70.828  1.00  0.00    -0.035 C 
ATOM     10  C   UNL     1       4.049  14.967  73.125  1.00  0.00    -0.006 C 
ATOM     11  C   UNL     1       5.381  16.628  71.797  1.00  0.00    -0.027 C 
ATOM     12  C   UNL     1       8.587  14.299  69.431  1.00  0.00     0.011 C 
ATOM     13  C   UNL     1       9.964  13.520  71.362  1.00  0.00     0.011 C 
ATOM     14  C   UNL     1       4.472  14.193  74.416  1.00  0.00     0.017 C 
ATOM     15  C   UNL     1       3.107  16.224  73.568  1.00  0.00    -0.020 C 
ATOM     16  C   UNL     1       4.353  17.691  71.882  1.00  0.00     0.032 C 
ATOM     17  C   UNL     1       2.944  17.265  72.389  1.00  0.00     0.006 C 
ATOM     18  C   UNL     1       3.720  17.028  74.763  1.00  0.00     0.008 C 
ATOM     19  C   UNL     1       1.731  15.639  74.020  1.00  0.00     0.012 C 
ATOM     20  C   UNL     1       2.076  18.583  72.714  1.00  0.00    -0.025 C 
ATOM     21  C   UNL     1       2.904  18.259  75.182  1.00  0.00     0.005 C 
ATOM     22  C   UNL     1       2.578  19.286  74.054  1.00  0.00     0.003 C 
ATOM     23  C   UNL     1       0.531  18.273  72.723  1.00  0.00     0.010 C 
ATOM     24  C   UNL     1       2.273  19.582  71.525  1.00  0.00     0.012 C 
ATOM     25  C   UNL     1       1.655  20.510  74.557  1.00  0.00    -0.006 C 
ATOM     26  C   UNL     1      -0.236  18.901  73.891  1.00  0.00     0.033 C 
ATOM     27  C   UNL     1       0.161  20.363  74.077  1.00  0.00     0.120 C 
ATOM     28  C   UNL     1       2.221  21.855  74.019  1.00  0.00     0.014 C 
ATOM     29  C   UNL     1       1.681  20.669  76.109  1.00  0.00     0.014 C 
ENDROOT
BRANCH   1  30
ATOM     30  C   UNL     1       6.066  12.074  72.971  1.00  0.00     0.048 C 
ATOM     31  O   UNL     1       6.895  12.504  73.816  1.00  0.00    -0.550 OA
ATOM     32  O   UNL     1       5.566  10.781  73.132  1.00  0.00    -0.550 OA
ENDBRANCH   1  30
BRANCH  27  33
ATOM     33  O   UNL     1      -0.734  20.955  74.985  1.00  0.00    -0.393 OA
ATOM     34  H   UNL     1      -1.061  20.230  75.586  1.00  0.00     0.210 HD
ENDBRANCH  27  33
TORSDOF 2
ENDMDL
MODEL 6
REMARK VINA RESULT:    -5.130      2.318      8.994
REMARK INTER + INTRA:          -5.229
REMARK INTER:                  -5.653
REMARK INTRA:                   0.424
REMARK UNBOUND:                 0.351
REMARK SMILES CC1(C)CC[C@]2(C(=O)[O-])CC[C@@]3(C)C(=CC[C@@H]4[C@@]5(C)CC[C@@H](O)C(C)(C)[C@H]5CC[C@@]43C)[C@H]2C1
REMARK SMILES IDX 6 1 5 2 10 3 32 4 4 5 11 6 14 7 33 8 2 9 12 10 15 11 1 12
REMARK SMILES IDX 3 13 13 14 30 15 16 16 17 17 29 18 31 19 18 20 28 21 27 22
REMARK SMILES IDX 20 23 19 24 24 25 21 26 22 27 25 28 26 29 7 30 8 31 9 32
REMARK SMILES IDX 23 33
REMARK H PARENT 23 34
REMARK Flexibility Score: inf
ROOT
ATOM      1  C   UNL     1       7.463  10.662  72.967  1.00  0.00     0.017 C 
ATOM      2  C   UNL     1       8.432   9.737  73.765  1.00  0.00     0.014 C 
ATOM      3  C   UNL     1       7.440  12.091  73.602  1.00  0.00     0.014 C 
ATOM      4  C   UNL     1       6.047  10.022  73.122  1.00  0.00     0.028 C 
ATOM      5  C   UNL     1       8.440   8.303  73.190  1.00  0.00     0.007 C 
ATOM      6  C   UNL     1       6.152  12.963  73.377  1.00  0.00     0.013 C 
ATOM      7  C   UNL     1       4.846  10.945  72.858  1.00  0.00    -0.064 C 
ATOM      8  C   UNL     1       5.943   8.599  72.525  1.00  0.00     0.015 C 
ATOM      9  C   UNL     1       7.033   7.632  73.097  1.00  0.00    -0.035 C 
ATOM     10  C   UNL     1       5.059  12.399  72.401  1.00  0.00    -0.006 C 
ATOM     11  C   UNL     1       3.728  10.585  73.512  1.00  0.00    -0.027 C 
ATOM     12  C   UNL     1       6.611   7.118  74.497  1.00  0.00     0.011 C 
ATOM     13  C   UNL     1       7.140   6.416  72.160  1.00  0.00     0.011 C 
ATOM     14  C   UNL     1       5.631  12.431  70.946  1.00  0.00     0.017 C 
ATOM     15  C   UNL     1       3.690  13.287  72.433  1.00  0.00    -0.020 C 
ATOM     16  C   UNL     1       2.605  11.477  73.880  1.00  0.00     0.032 C 
ATOM     17  C   UNL     1       2.853  13.009  73.746  1.00  0.00     0.006 C 
ATOM     18  C   UNL     1       2.737  12.945  71.240  1.00  0.00     0.008 C 
ATOM     19  C   UNL     1       4.107  14.789  72.318  1.00  0.00     0.012 C 
ATOM     20  C   UNL     1       1.449  13.788  73.876  1.00  0.00    -0.025 C 
ATOM     21  C   UNL     1       1.406  13.709  71.255  1.00  0.00     0.005 C 
ATOM     22  C   UNL     1       0.564  13.602  72.563  1.00  0.00     0.003 C 
ATOM     23  C   UNL     1       1.658  15.300  74.268  1.00  0.00     0.010 C 
ATOM     24  C   UNL     1       0.677  13.167  75.088  1.00  0.00     0.012 C 
ATOM     25  C   UNL     1      -0.781  14.492  72.527  1.00  0.00    -0.006 C 
ATOM     26  C   UNL     1       0.797  16.287  73.473  1.00  0.00     0.033 C 
ATOM     27  C   UNL     1      -0.648  15.804  73.391  1.00  0.00     0.120 C 
ATOM     28  C   UNL     1      -1.980  13.661  73.066  1.00  0.00     0.014 C 
ATOM     29  C   UNL     1      -1.195  14.877  71.073  1.00  0.00     0.014 C 
ENDROOT
BRANCH   1  30
ATOM     30  C   UNL     1       8.056  10.736  71.553  1.00  0.00     0.048 C 
ATOM     31  O   UNL     1       7.804   9.872  70.672  1.00  0.00    -0.550 OA
ATOM     32  O   UNL     1       8.999  11.722  71.263  1.00  0.00    -0.550 OA
ENDBRANCH   1  30
BRANCH  27  33
ATOM     33  O   UNL     1      -1.437  16.845  72.873  1.00  0.00    -0.393 OA
ATOM     34  H   UNL     1      -2.045  16.440  72.196  1.00  0.00     0.210 HD
ENDBRANCH  27  33
TORSDOF 2
ENDMDL
MODEL 7
REMARK VINA RESULT:    -5.105      2.979      5.570
REMARK INTER + INTRA:          -5.201
REMARK INTER:                  -5.559
REMARK INTRA:                   0.358
REMARK UNBOUND:                 0.351
REMARK SMILES CC1(C)CC[C@]2(C(=O)[O-])CC[C@@]3(C)C(=CC[C@@H]4[C@@]5(C)CC[C@@H](O)C(C)(C)[C@H]5CC[C@@]43C)[C@H]2C1
REMARK SMILES IDX 6 1 5 2 10 3 32 4 4 5 11 6 14 7 33 8 2 9 12 10 15 11 1 12
REMARK SMILES IDX 3 13 13 14 30 15 16 16 17 17 29 18 31 19 18 20 28 21 27 22
REMARK SMILES IDX 20 23 19 24 24 25 21 26 22 27 25 28 26 29 7 30 8 31 9 32
REMARK SMILES IDX 23 33
REMARK H PARENT 23 34
REMARK Flexibility Score: inf
ROOT
ATOM      1  C   UNL     1       4.641  15.707  71.432  1.00  0.00     0.017 C 
ATOM      2  C   UNL     1       3.393  16.606  71.176  1.00  0.00     0.014 C 
ATOM      3  C   UNL     1       4.886  14.767  70.207  1.00  0.00     0.014 C 
ATOM      4  C   UNL     1       4.280  14.830  72.673  1.00  0.00     0.028 C 
ATOM      5  C   UNL     1       3.096  17.513  72.390  1.00  0.00     0.007 C 
ATOM      6  C   UNL     1       5.652  13.420  70.470  1.00  0.00     0.013 C 
ATOM      7  C   UNL     1       5.100  13.543  72.863  1.00  0.00    -0.064 C 
ATOM      8  C   UNL     1       4.017  15.653  73.956  1.00  0.00     0.015 C 
ATOM      9  C   UNL     1       2.926  16.754  73.744  1.00  0.00    -0.035 C 
ATOM     10  C   UNL     1       6.252  13.197  71.903  1.00  0.00    -0.006 C 
ATOM     11  C   UNL     1       4.449  12.576  73.534  1.00  0.00    -0.027 C 
ATOM     12  C   UNL     1       1.511  16.125  73.810  1.00  0.00     0.011 C 
ATOM     13  C   UNL     1       3.042  17.776  74.888  1.00  0.00     0.011 C 
ATOM     14  C   UNL     1       7.440  14.195  72.102  1.00  0.00     0.017 C 
ATOM     15  C   UNL     1       6.819  11.680  72.103  1.00  0.00    -0.020 C 
ATOM     16  C   UNL     1       4.717  11.122  73.452  1.00  0.00     0.032 C 
ATOM     17  C   UNL     1       5.639  10.644  72.291  1.00  0.00     0.006 C 
ATOM     18  C   UNL     1       7.710  11.547  73.383  1.00  0.00     0.008 C 
ATOM     19  C   UNL     1       7.695  11.341  70.854  1.00  0.00     0.012 C 
ATOM     20  C   UNL     1       6.067   9.112  72.550  1.00  0.00    -0.025 C 
ATOM     21  C   UNL     1       8.221  10.125  73.653  1.00  0.00     0.005 C 
ATOM     22  C   UNL     1       7.137   9.006  73.727  1.00  0.00     0.003 C 
ATOM     23  C   UNL     1       6.541   8.410  71.222  1.00  0.00     0.010 C 
ATOM     24  C   UNL     1       4.780   8.330  72.976  1.00  0.00     0.012 C 
ATOM     25  C   UNL     1       7.760   7.532  73.938  1.00  0.00    -0.006 C 
ATOM     26  C   UNL     1       7.812   7.566  71.368  1.00  0.00     0.033 C 
ATOM     27  C   UNL     1       7.736   6.683  72.610  1.00  0.00     0.120 C 
ATOM     28  C   UNL     1       6.957   6.770  75.030  1.00  0.00     0.014 C 
ATOM     29  C   UNL     1       9.218   7.581  74.489  1.00  0.00     0.014 C 
ENDROOT
BRANCH   1  30
ATOM     30  C   UNL     1       5.815  16.685  71.574  1.00  0.00     0.048 C 
ATOM     31  O   UNL     1       6.199  17.119  72.692  1.00  0.00    -0.550 OA
ATOM     32  O   UNL     1       6.405  17.209  70.422  1.00  0.00    -0.550 OA
ENDBRANCH   1  30
BRANCH  27  33
ATOM     33  O   UNL     1       8.799   5.763  72.567  1.00  0.00    -0.393 OA
ATOM     34  H   UNL     1       8.737   5.209  73.394  1.00  0.00     0.210 HD
ENDBRANCH  27  33
TORSDOF 2
ENDMDL
MODEL 8
REMARK VINA RESULT:    -5.083     12.027     14.015
REMARK INTER + INTRA:          -5.177
REMARK INTER:                  -5.528
REMARK INTRA:                   0.351
REMARK UNBOUND:                 0.351
REMARK SMILES CC1(C)CC[C@]2(C(=O)[O-])CC[C@@]3(C)C(=CC[C@@H]4[C@@]5(C)CC[C@@H](O)C(C)(C)[C@H]5CC[C@@]43C)[C@H]2C1
REMARK SMILES IDX 6 1 5 2 10 3 32 4 4 5 11 6 14 7 33 8 2 9 12 10 15 11 1 12
REMARK SMILES IDX 3 13 13 14 30 15 16 16 17 17 29 18 31 19 18 20 28 21 27 22
REMARK SMILES IDX 20 23 19 24 24 25 21 26 22 27 25 28 26 29 7 30 8 31 9 32
REMARK SMILES IDX 23 33
REMARK H PARENT 23 34
REMARK Flexibility Score: inf
ROOT
ATOM      1  C   UNL     1      -2.105  17.457  60.461  1.00  0.00     0.017 C 
ATOM      2  C   UNL     1      -2.444  18.692  59.571  1.00  0.00     0.014 C 
ATOM      3  C   UNL     1      -0.843  16.722  59.902  1.00  0.00     0.014 C 
ATOM      4  C   UNL     1      -3.335  16.502  60.341  1.00  0.00     0.028 C 
ATOM      5  C   UNL     1      -3.717  19.411  60.070  1.00  0.00     0.007 C 
ATOM      6  C   UNL     1      -0.689  15.194  60.233  1.00  0.00     0.013 C 
ATOM      7  C   UNL     1      -3.096  15.028  60.710  1.00  0.00    -0.064 C 
ATOM      8  C   UNL     1      -4.651  17.119  60.868  1.00  0.00     0.015 C 
ATOM      9  C   UNL     1      -4.975  18.495  60.196  1.00  0.00    -0.035 C 
ATOM     10  C   UNL     1      -1.724  14.562  61.229  1.00  0.00    -0.006 C 
ATOM     11  C   UNL     1      -3.926  14.170  60.092  1.00  0.00    -0.027 C 
ATOM     12  C   UNL     1      -5.596  18.272  58.794  1.00  0.00     0.011 C 
ATOM     13  C   UNL     1      -6.017  19.223  61.063  1.00  0.00     0.011 C 
ATOM     14  C   UNL     1      -1.458  15.147  62.655  1.00  0.00     0.017 C 
ATOM     15  C   UNL     1      -1.588  12.938  61.309  1.00  0.00    -0.020 C 
ATOM     16  C   UNL     1      -3.663  12.737  59.825  1.00  0.00     0.032 C 
ATOM     17  C   UNL     1      -2.199  12.245  60.026  1.00  0.00     0.006 C 
ATOM     18  C   UNL     1      -2.367  12.339  62.527  1.00  0.00     0.008 C 
ATOM     19  C   UNL     1      -0.071  12.606  61.481  1.00  0.00     0.012 C 
ATOM     20  C   UNL     1      -2.173  10.634  60.003  1.00  0.00    -0.025 C 
ATOM     21  C   UNL     1      -2.322  10.807  62.616  1.00  0.00     0.005 C 
ATOM     22  C   UNL     1      -2.786  10.030  61.346  1.00  0.00     0.003 C 
ATOM     23  C   UNL     1      -0.734  10.080  59.680  1.00  0.00     0.010 C 
ATOM     24  C   UNL     1      -3.059  10.166  58.800  1.00  0.00     0.012 C 
ATOM     25  C   UNL     1      -2.638   8.430  61.492  1.00  0.00    -0.006 C 
ATOM     26  C   UNL     1      -0.289   8.912  60.565  1.00  0.00     0.033 C 
ATOM     27  C   UNL     1      -1.400   7.873  60.691  1.00  0.00     0.120 C 
ATOM     28  C   UNL     1      -3.925   7.730  60.970  1.00  0.00     0.014 C 
ATOM     29  C   UNL     1      -2.527   7.981  62.982  1.00  0.00     0.014 C 
ENDROOT
BRANCH   1  30
ATOM     30  C   UNL     1      -1.792  18.038  61.846  1.00  0.00     0.048 C 
ATOM     31  O   UNL     1      -2.643  18.061  62.774  1.00  0.00    -0.550 OA
ATOM     32  O   UNL     1      -0.566  18.671  62.055  1.00  0.00    -0.550 OA
ENDBRANCH   1  30
BRANCH  27  33
ATOM     33  O   UNL     1      -0.867   6.723  61.299  1.00  0.00    -0.393 OA
ATOM     34  H   UNL     1      -1.266   5.937  60.834  1.00  0.00     0.210 HD
ENDBRANCH  27  33
TORSDOF 2
ENDMDL
MODEL 9
REMARK VINA RESULT:    -5.041     11.730     15.009
REMARK INTER + INTRA:          -5.132
REMARK INTER:                  -5.486
REMARK INTRA:                   0.354
REMARK UNBOUND:                 0.351
REMARK SMILES CC1(C)CC[C@]2(C(=O)[O-])CC[C@@]3(C)C(=CC[C@@H]4[C@@]5(C)CC[C@@H](O)C(C)(C)[C@H]5CC[C@@]43C)[C@H]2C1
REMARK SMILES IDX 6 1 5 2 10 3 32 4 4 5 11 6 14 7 33 8 2 9 12 10 15 11 1 12
REMARK SMILES IDX 3 13 13 14 30 15 16 16 17 17 29 18 31 19 18 20 28 21 27 22
REMARK SMILES IDX 20 23 19 24 24 25 21 26 22 27 25 28 26 29 7 30 8 31 9 32
REMARK SMILES IDX 23 33
REMARK H PARENT 23 34
REMARK Flexibility Score: inf
ROOT
ATOM      1  C   UNL     1      -2.193  10.391  59.884  1.00  0.00     0.017 C 
ATOM      2  C   UNL     1      -1.631   8.960  59.621  1.00  0.00     0.014 C 
ATOM      3  C   UNL     1      -1.916  11.311  58.650  1.00  0.00     0.014 C 
ATOM      4  C   UNL     1      -1.392  10.940  61.107  1.00  0.00     0.028 C 
ATOM      5  C   UNL     1      -1.846   8.040  60.843  1.00  0.00     0.007 C 
ATOM      6  C   UNL     1      -1.830  12.859  58.905  1.00  0.00     0.013 C 
ATOM      7  C   UNL     1      -1.385  12.466  61.292  1.00  0.00    -0.064 C 
ATOM      8  C   UNL     1      -1.590  10.109  62.397  1.00  0.00     0.015 C 
ATOM      9  C   UNL     1      -1.268   8.593  62.184  1.00  0.00    -0.035 C 
ATOM     10  C   UNL     1      -2.188  13.376  60.344  1.00  0.00    -0.006 C 
ATOM     11  C   UNL     1      -0.304  12.932  61.941  1.00  0.00    -0.027 C 
ATOM     12  C   UNL     1       0.264   8.360  62.221  1.00  0.00     0.011 C 
ATOM     13  C   UNL     1      -1.894   7.798  63.344  1.00  0.00     0.011 C 
ATOM     14  C   UNL     1      -3.722  13.176  60.573  1.00  0.00     0.017 C 
ATOM     15  C   UNL     1      -1.844  14.959  60.532  1.00  0.00    -0.020 C 
ATOM     16  C   UNL     1       0.253  14.301  61.843  1.00  0.00     0.032 C 
ATOM     17  C   UNL     1      -0.289  15.196  60.689  1.00  0.00     0.006 C 
ATOM     18  C   UNL     1      -2.498  15.556  61.823  1.00  0.00     0.008 C 
ATOM     19  C   UNL     1      -2.423  15.712  59.291  1.00  0.00     0.012 C 
ATOM     20  C   UNL     1       0.181  16.718  60.934  1.00  0.00    -0.025 C 
ATOM     21  C   UNL     1      -2.157  17.030  62.081  1.00  0.00     0.005 C 
ATOM     22  C   UNL     1      -0.639  17.389  62.125  1.00  0.00     0.003 C 
ATOM     23  C   UNL     1       0.135  17.561  59.604  1.00  0.00     0.010 C 
ATOM     24  C   UNL     1       1.695  16.685  61.331  1.00  0.00     0.012 C 
ATOM     25  C   UNL     1      -0.366  18.967  62.325  1.00  0.00    -0.006 C 
ATOM     26  C   UNL     1      -0.477  18.957  59.757  1.00  0.00     0.033 C 
ATOM     27  C   UNL     1       0.086  19.665  60.986  1.00  0.00     0.120 C 
ATOM     28  C   UNL     1       0.742  19.179  63.395  1.00  0.00     0.014 C 
ATOM     29  C   UNL     1      -1.610  19.713  62.897  1.00  0.00     0.014 C 
ENDROOT
BRANCH   1  30
ATOM     30  C   UNL     1      -3.706  10.201  60.055  1.00  0.00     0.048 C 
ATOM     31  O   UNL     1      -4.252  10.132  61.188  1.00  0.00    -0.550 OA
ATOM     32  O   UNL     1      -4.494   9.976  58.925  1.00  0.00    -0.550 OA
ENDBRANCH   1  30
BRANCH  27  33
ATOM     33  O   UNL     1      -0.314  21.012  60.946  1.00  0.00    -0.393 OA
ATOM     34  H   UNL     1      -0.088  21.409  61.832  1.00  0.00     0.210 HD
ENDBRANCH  27  33
TORSDOF 2
ENDMDL
