MODEL 1
REMARK VINA RESULT:    10.640      0.000      0.000
REMARK INTER + INTRA:          15.389
REMARK INTER:                  15.616
REMARK INTRA:                  -0.227
REMARK UNBOUND:                -0.227
REMARK SMILES O=C([O-])CCCCCCCC(=O)[O-]
REMARK SMILES IDX 7 1 6 2 5 3 4 4 2 5 1 6 3 7 8 8 9 9 10 10 11 11 12 12 13 13
REMARK H PARENT
REMARK Flexibility Score: inf
ROOT
ATOM      1  C   UNL     1       4.785 -17.008  13.824  1.00  0.00     0.000 C 
ENDROOT
BRANCH   1   2
ATOM      2  C   UNL     1       4.403 -17.937  12.657  1.00  0.00     0.000 C 
BRANCH   2   3
ATOM      3  C   UNL     1       3.920 -19.319  13.132  1.00  0.00     0.006 C 
BRANCH   3   4
ATOM      4  C   UNL     1       3.266 -20.175  12.035  1.00  0.00     0.053 C 
BRANCH   4   5
ATOM      5  C   UNL     1       1.785 -19.965  11.963  1.00  0.00     0.041 C 
ATOM      6  O   UNL     1       1.000 -20.937  12.114  1.00  0.00    -0.550 OA
ATOM      7  O   UNL     1       1.270 -18.689  11.766  1.00  0.00    -0.550 OA
ENDBRANCH   4   5
ENDBRANCH   3   4
ENDBRANCH   2   3
ENDBRANCH   1   2
BRANCH   1   8
ATOM      8  C   UNL     1       4.773 -17.730  15.180  1.00  0.00     0.000 C 
BRANCH   8   9
ATOM      9  C   UNL     1       5.124 -16.800  16.352  1.00  0.00     0.006 C 
BRANCH   9  10
ATOM     10  C   UNL     1       4.797 -17.462  17.693  1.00  0.00     0.053 C 
BRANCH  10  11
ATOM     11  C   UNL     1       4.111 -16.493  18.603  1.00  0.00     0.041 C 
ATOM     12  O   UNL     1       3.092 -16.846  19.253  1.00  0.00    -0.550 OA
ATOM     13  O   UNL     1       4.568 -15.184  18.696  1.00  0.00    -0.550 OA
ENDBRANCH  10  11
ENDBRANCH   9  10
ENDBRANCH   8   9
ENDBRANCH   1   8
TORSDOF 8
ENDMDL
MODEL 2
REMARK VINA RESULT:    10.746     13.019     14.238
REMARK INTER + INTRA:          15.545
REMARK INTER:                  15.844
REMARK INTRA:                  -0.299
REMARK UNBOUND:                -0.227
REMARK SMILES O=C([O-])CCCCCCCC(=O)[O-]
REMARK SMILES IDX 7 1 6 2 5 3 4 4 2 5 1 6 3 7 8 8 9 9 10 10 11 11 12 12 13 13
REMARK H PARENT
REMARK Flexibility Score: inf
ROOT
ATOM      1  C   UNL     1      -2.169  -7.539  23.134  1.00  0.00     0.000 C 
ENDROOT
BRANCH   1   2
ATOM      2  C   UNL     1      -3.590  -6.993  22.907  1.00  0.00     0.000 C 
BRANCH   2   3
ATOM      3  C   UNL     1      -3.950  -6.876  21.415  1.00  0.00     0.006 C 
BRANCH   3   4
ATOM      4  C   UNL     1      -2.778  -7.137  20.456  1.00  0.00     0.053 C 
BRANCH   4   5
ATOM      5  C   UNL     1      -3.220  -7.817  19.197  1.00  0.00     0.041 C 
ATOM      6  O   UNL     1      -4.229  -7.397  18.572  1.00  0.00    -0.550 OA
ATOM      7  O   UNL     1      -2.498  -8.892  18.694  1.00  0.00    -0.550 OA
ENDBRANCH   4   5
ENDBRANCH   3   4
ENDBRANCH   2   3
ENDBRANCH   1   2
BRANCH   1   8
ATOM      8  C   UNL     1      -2.170  -8.973  23.687  1.00  0.00     0.000 C 
BRANCH   8   9
ATOM      9  C   UNL     1      -0.866  -9.330  24.417  1.00  0.00     0.006 C 
BRANCH   9  10
ATOM     10  C   UNL     1      -0.933  -8.920  25.890  1.00  0.00     0.053 C 
BRANCH  10  11
ATOM     11  C   UNL     1       0.398  -8.423  26.358  1.00  0.00     0.041 C 
ATOM     12  O   UNL     1       1.178  -9.190  26.981  1.00  0.00    -0.550 OA
ATOM     13  O   UNL     1       0.759  -7.097  26.148  1.00  0.00    -0.550 OA
ENDBRANCH  10  11
ENDBRANCH   9  10
ENDBRANCH   8   9
ENDBRANCH   1   8
TORSDOF 8
ENDMDL
MODEL 3
REMARK VINA RESULT:    10.876      0.191      6.507
REMARK INTER + INTRA:          15.736
REMARK INTER:                  15.997
REMARK INTRA:                  -0.261
REMARK UNBOUND:                -0.227
REMARK SMILES O=C([O-])CCCCCCCC(=O)[O-]
REMARK SMILES IDX 7 1 6 2 5 3 4 4 2 5 1 6 3 7 8 8 9 9 10 10 11 11 12 12 13 13
REMARK H PARENT
REMARK Flexibility Score: inf
ROOT
ATOM      1  C   UNL     1       4.729 -17.129  13.650  1.00  0.00     0.000 C 
ENDROOT
BRANCH   1   2
ATOM      2  C   UNL     1       4.839 -17.766  15.046  1.00  0.00     0.000 C 
BRANCH   2   3
ATOM      3  C   UNL     1       4.765 -16.728  16.181  1.00  0.00     0.006 C 
BRANCH   3   4
ATOM      4  C   UNL     1       4.795 -17.329  17.595  1.00  0.00     0.053 C 
BRANCH   4   5
ATOM      5  C   UNL     1       4.144 -16.432  18.603  1.00  0.00     0.041 C 
ATOM      6  O   UNL     1       3.155 -16.840  19.267  1.00  0.00    -0.550 OA
ATOM      7  O   UNL     1       4.651 -15.159  18.834  1.00  0.00    -0.550 OA
ENDBRANCH   4   5
ENDBRANCH   3   4
ENDBRANCH   2   3
ENDBRANCH   1   2
BRANCH   1   8
ATOM      8  C   UNL     1       4.522 -18.172  12.540  1.00  0.00     0.000 C 
BRANCH   8   9
ATOM      9  C   UNL     1       3.849 -19.456  13.050  1.00  0.00     0.006 C 
BRANCH   9  10
ATOM     10  C   UNL     1       3.160 -20.205  11.906  1.00  0.00     0.053 C 
BRANCH  10  11
ATOM     11  C   UNL     1       1.684 -19.965  11.936  1.00  0.00     0.041 C 
ATOM     12  O   UNL     1       0.889 -20.925  12.112  1.00  0.00    -0.550 OA
ATOM     13  O   UNL     1       1.183 -18.686  11.722  1.00  0.00    -0.550 OA
ENDBRANCH  10  11
ENDBRANCH   9  10
ENDBRANCH   8   9
ENDBRANCH   1   8
TORSDOF 8
ENDMDL
MODEL 4
REMARK VINA RESULT:    11.056     14.430     15.070
REMARK INTER + INTRA:          16.000
REMARK INTER:                  16.305
REMARK INTRA:                  -0.306
REMARK UNBOUND:                -0.227
REMARK SMILES O=C([O-])CCCCCCCC(=O)[O-]
REMARK SMILES IDX 7 1 6 2 5 3 4 4 2 5 1 6 3 7 8 8 9 9 10 10 11 11 12 12 13 13
REMARK H PARENT
REMARK Flexibility Score: inf
ROOT
ATOM      1  C   UNL     1      -3.416  -9.123  24.779  1.00  0.00     0.000 C 
ENDROOT
BRANCH   1   2
ATOM      2  C   UNL     1      -4.888  -8.704  24.943  1.00  0.00     0.000 C 
BRANCH   2   3
ATOM      3  C   UNL     1      -5.848  -9.907  24.975  1.00  0.00     0.006 C 
BRANCH   3   4
ATOM      4  C   UNL     1      -5.798 -10.793  23.721  1.00  0.00     0.053 C 
BRANCH   4   5
ATOM      5  C   UNL     1      -6.552 -12.074  23.905  1.00  0.00     0.041 C 
ATOM      6  O   UNL     1      -7.101 -12.632  22.919  1.00  0.00    -0.550 OA
ATOM      7  O   UNL     1      -6.619 -12.670  25.158  1.00  0.00    -0.550 OA
ENDBRANCH   4   5
ENDBRANCH   3   4
ENDBRANCH   2   3
ENDBRANCH   1   2
BRANCH   1   8
ATOM      8  C   UNL     1      -2.617  -8.139  23.910  1.00  0.00     0.000 C 
BRANCH   8   9
ATOM      9  C   UNL     1      -1.100  -8.248  24.130  1.00  0.00     0.006 C 
BRANCH   9  10
ATOM     10  C   UNL     1      -0.784  -9.158  25.321  1.00  0.00     0.053 C 
BRANCH  10  11
ATOM     11  C   UNL     1       0.277  -8.547  26.180  1.00  0.00     0.041 C 
ATOM     12  O   UNL     1       0.785  -9.206  27.125  1.00  0.00    -0.550 OA
ATOM     13  O   UNL     1       0.672  -7.232  25.968  1.00  0.00    -0.550 OA
ENDBRANCH  10  11
ENDBRANCH   9  10
ENDBRANCH   8   9
ENDBRANCH   1   8
TORSDOF 8
ENDMDL
MODEL 5
REMARK VINA RESULT:    11.133     14.454     15.978
REMARK INTER + INTRA:          16.113
REMARK INTER:                  16.406
REMARK INTRA:                  -0.293
REMARK UNBOUND:                -0.227
REMARK SMILES O=C([O-])CCCCCCCC(=O)[O-]
REMARK SMILES IDX 7 1 6 2 5 3 4 4 2 5 1 6 3 7 8 8 9 9 10 10 11 11 12 12 13 13
REMARK H PARENT
REMARK Flexibility Score: inf
ROOT
ATOM      1  C   UNL     1      -3.395  -9.149  24.867  1.00  0.00     0.000 C 
ENDROOT
BRANCH   1   2
ATOM      2  C   UNL     1      -2.515  -8.382  23.865  1.00  0.00     0.000 C 
BRANCH   2   3
ATOM      3  C   UNL     1      -1.036  -8.332  24.289  1.00  0.00     0.006 C 
BRANCH   3   4
ATOM      4  C   UNL     1      -0.698  -9.190  25.519  1.00  0.00     0.053 C 
BRANCH   4   5
ATOM      5  C   UNL     1       0.374  -8.570  26.361  1.00  0.00     0.041 C 
ATOM      6  O   UNL     1       1.072  -9.287  27.125  1.00  0.00    -0.550 OA
ATOM      7  O   UNL     1       0.626  -7.206  26.277  1.00  0.00    -0.550 OA
ENDBRANCH   4   5
ENDBRANCH   3   4
ENDBRANCH   2   3
ENDBRANCH   1   2
BRANCH   1   8
ATOM      8  C   UNL     1      -4.861  -8.688  24.838  1.00  0.00     0.000 C 
BRANCH   8   9
ATOM      9  C   UNL     1      -5.853  -9.858  24.922  1.00  0.00     0.006 C 
BRANCH   9  10
ATOM     10  C   UNL     1      -5.691 -10.800  23.725  1.00  0.00     0.053 C 
BRANCH  10  11
ATOM     11  C   UNL     1      -6.515 -12.035  23.915  1.00  0.00     0.041 C 
ATOM     12  O   UNL     1      -7.170 -12.514  22.952  1.00  0.00    -0.550 OA
ATOM     13  O   UNL     1      -6.598 -12.629  25.168  1.00  0.00    -0.550 OA
ENDBRANCH  10  11
ENDBRANCH   9  10
ENDBRANCH   8   9
ENDBRANCH   1   8
TORSDOF 8
ENDMDL
MODEL 6
REMARK VINA RESULT:    12.715     12.819     14.818
REMARK INTER + INTRA:          18.435
REMARK INTER:                  17.925
REMARK INTRA:                   0.511
REMARK UNBOUND:                -0.227
REMARK SMILES O=C([O-])CCCCCCCC(=O)[O-]
REMARK SMILES IDX 7 1 6 2 5 3 4 4 2 5 1 6 3 7 8 8 9 9 10 10 11 11 12 12 13 13
REMARK H PARENT
REMARK Flexibility Score: inf
ROOT
ATOM      1  C   UNL     1      -5.084 -15.867  26.941  1.00  0.00     0.000 C 
ENDROOT
BRANCH   1   2
ATOM      2  C   UNL     1      -4.866 -14.387  26.579  1.00  0.00     0.000 C 
BRANCH   2   3
ATOM      3  C   UNL     1      -5.492 -14.007  25.225  1.00  0.00     0.006 C 
BRANCH   3   4
ATOM      4  C   UNL     1      -6.503 -12.851  25.294  1.00  0.00     0.053 C 
BRANCH   4   5
ATOM      5  C   UNL     1      -6.553 -12.069  24.018  1.00  0.00     0.041 C 
ATOM      6  O   UNL     1      -5.970 -10.957  23.933  1.00  0.00    -0.550 OA
ATOM      7  O   UNL     1      -7.214 -12.585  22.910  1.00  0.00    -0.550 OA
ENDBRANCH   4   5
ENDBRANCH   3   4
ENDBRANCH   2   3
ENDBRANCH   1   2
BRANCH   1   8
ATOM      8  C   UNL     1      -4.893 -16.803  25.737  1.00  0.00     0.000 C 
BRANCH   8   9
ATOM      9  C   UNL     1      -5.332 -18.246  26.030  1.00  0.00     0.006 C 
BRANCH   9  10
ATOM     10  C   UNL     1      -5.891 -18.914  24.770  1.00  0.00     0.053 C 
BRANCH  10  11
ATOM     11  C   UNL     1      -5.523 -18.126  23.552  1.00  0.00     0.041 C 
ATOM     12  O   UNL     1      -6.377 -17.915  22.652  1.00  0.00    -0.550 OA
ATOM     13  O   UNL     1      -4.221 -17.667  23.388  1.00  0.00    -0.550 OA
ENDBRANCH  10  11
ENDBRANCH   9  10
ENDBRANCH   8   9
ENDBRANCH   1   8
TORSDOF 8
ENDMDL
MODEL 7
REMARK VINA RESULT:    12.720     12.718     14.297
REMARK INTER + INTRA:          18.442
REMARK INTER:                  18.163
REMARK INTRA:                   0.280
REMARK UNBOUND:                -0.227
REMARK SMILES O=C([O-])CCCCCCCC(=O)[O-]
REMARK SMILES IDX 7 1 6 2 5 3 4 4 2 5 1 6 3 7 8 8 9 9 10 10 11 11 12 12 13 13
REMARK H PARENT
REMARK Flexibility Score: inf
ROOT
ATOM      1  C   UNL     1      -5.289 -15.884  26.928  1.00  0.00     0.000 C 
ENDROOT
BRANCH   1   2
ATOM      2  C   UNL     1      -4.819 -16.852  25.828  1.00  0.00     0.000 C 
BRANCH   2   3
ATOM      3  C   UNL     1      -5.408 -18.266  25.989  1.00  0.00     0.006 C 
BRANCH   3   4
ATOM      4  C   UNL     1      -5.843 -18.927  24.671  1.00  0.00     0.053 C 
BRANCH   4   5
ATOM      5  C   UNL     1      -5.457 -18.111  23.476  1.00  0.00     0.041 C 
ATOM      6  O   UNL     1      -6.331 -17.757  22.642  1.00  0.00    -0.550 OA
ATOM      7  O   UNL     1      -4.138 -17.712  23.302  1.00  0.00    -0.550 OA
ENDBRANCH   4   5
ENDBRANCH   3   4
ENDBRANCH   2   3
ENDBRANCH   1   2
BRANCH   1   8
ATOM      8  C   UNL     1      -4.923 -14.423  26.623  1.00  0.00     0.000 C 
BRANCH   8   9
ATOM      9  C   UNL     1      -5.412 -13.964  25.240  1.00  0.00     0.006 C 
BRANCH   9  10
ATOM     10  C   UNL     1      -6.450 -12.846  25.370  1.00  0.00     0.053 C 
BRANCH  10  11
ATOM     11  C   UNL     1      -6.530 -12.055  24.102  1.00  0.00     0.041 C 
ATOM     12  O   UNL     1      -7.069 -12.551  23.079  1.00  0.00    -0.550 OA
ATOM     13  O   UNL     1      -5.965 -10.787  24.037  1.00  0.00    -0.550 OA
ENDBRANCH  10  11
ENDBRANCH   9  10
ENDBRANCH   8   9
ENDBRANCH   1   8
TORSDOF 8
ENDMDL
