MODEL 1
REMARK VINA RESULT:    -5.772      0.000      0.000
REMARK INTER + INTRA:          -6.200
REMARK INTER:                  -6.110
REMARK INTRA:                  -0.090
REMARK UNBOUND:                -0.090
REMARK SMILES C=C(C)[C@@H]1CC=C(C)C(=O)C1
REMARK SMILES IDX 8 1 7 2 6 3 5 4 4 5 11 6 9 7 10 8 2 9 1 10 3 11
REMARK H PARENT
REMARK Flexibility Score: inf
ROOT
ATOM      1  C   UNL     1      19.710  -0.227  23.450  1.00  0.00     0.048 C 
ATOM      2  C   UNL     1      19.699   0.641  22.222  1.00  0.00    -0.012 C 
ATOM      3  C   UNL     1      19.739   1.978  22.348  1.00  0.00    -0.019 C 
ATOM      4  C   UNL     1      19.750   2.892  21.152  1.00  0.00     0.036 C 
ATOM      5  C   UNL     1      18.944   2.290  19.986  1.00  0.00     0.025 C 
ATOM      6  C   UNL     1      19.467   0.881  19.647  1.00  0.00     0.089 C 
ATOM      7  C   UNL     1      19.519   0.026  20.884  1.00  0.00     0.158 C 
ATOM      8  O   UNL     1      19.444  -1.228  20.766  1.00  0.00    -0.295 OA
ENDROOT
BRANCH   5   9
ATOM      9  C   UNL     1      18.964   3.199  18.765  1.00  0.00    -0.077 C 
ATOM     10  C   UNL     1      17.897   3.260  17.954  1.00  0.00     0.008 C 
ATOM     11  C   UNL     1      20.170   4.045  18.434  1.00  0.00     0.039 C 
ENDBRANCH   5   9
TORSDOF 1
ENDMDL
MODEL 2
REMARK VINA RESULT:    -5.356      1.398      2.044
REMARK INTER + INTRA:          -5.759
REMARK INTER:                  -5.662
REMARK INTRA:                  -0.097
REMARK UNBOUND:                -0.090
REMARK SMILES C=C(C)[C@@H]1CC=C(C)C(=O)C1
REMARK SMILES IDX 8 1 7 2 6 3 5 4 4 5 11 6 9 7 10 8 2 9 1 10 3 11
REMARK H PARENT
REMARK Flexibility Score: inf
ROOT
ATOM      1  C   UNL     1      20.009  -0.888  23.227  1.00  0.00     0.048 C 
ATOM      2  C   UNL     1      19.646   0.093  22.147  1.00  0.00    -0.012 C 
ATOM      3  C   UNL     1      19.594  -0.312  20.867  1.00  0.00    -0.019 C 
ATOM      4  C   UNL     1      19.218   0.624  19.748  1.00  0.00     0.036 C 
ATOM      5  C   UNL     1      19.689   2.060  20.045  1.00  0.00     0.025 C 
ATOM      6  C   UNL     1      19.144   2.530  21.406  1.00  0.00     0.089 C 
ATOM      7  C   UNL     1      19.469   1.528  22.480  1.00  0.00     0.158 C 
ATOM      8  O   UNL     1      19.553   1.917  23.677  1.00  0.00    -0.295 OA
ENDROOT
BRANCH   5   9
ATOM      9  C   UNL     1      19.297   3.017  18.928  1.00  0.00    -0.077 C 
ATOM     10  C   UNL     1      18.047   3.005  18.439  1.00  0.00     0.008 C 
ATOM     11  C   UNL     1      20.290   3.993  18.344  1.00  0.00     0.039 C 
ENDBRANCH   5   9
TORSDOF 1
ENDMDL
MODEL 3
REMARK VINA RESULT:    -5.274      2.076      4.747
REMARK INTER + INTRA:          -5.672
REMARK INTER:                  -5.574
REMARK INTRA:                  -0.098
REMARK UNBOUND:                -0.090
REMARK SMILES C=C(C)[C@@H]1CC=C(C)C(=O)C1
REMARK SMILES IDX 8 1 7 2 6 3 5 4 4 5 11 6 9 7 10 8 2 9 1 10 3 11
REMARK H PARENT
REMARK Flexibility Score: inf
ROOT
ATOM      1  C   UNL     1      18.585   3.362  17.260  1.00  0.00     0.048 C 
ATOM      2  C   UNL     1      19.031   2.701  18.535  1.00  0.00    -0.012 C 
ATOM      3  C   UNL     1      19.032   1.361  18.629  1.00  0.00    -0.019 C 
ATOM      4  C   UNL     1      19.486   0.648  19.875  1.00  0.00     0.036 C 
ATOM      5  C   UNL     1      19.159   1.471  21.135  1.00  0.00     0.025 C 
ATOM      6  C   UNL     1      19.759   2.884  21.021  1.00  0.00     0.089 C 
ATOM      7  C   UNL     1      19.348   3.529  19.725  1.00  0.00     0.158 C 
ATOM      8  O   UNL     1      19.313   4.788  19.650  1.00  0.00    -0.295 OA
ENDROOT
BRANCH   5   9
ATOM      9  C   UNL     1      19.631   0.767  22.399  1.00  0.00    -0.077 C 
ATOM     10  C   UNL     1      19.902   1.478  23.505  1.00  0.00     0.008 C 
ATOM     11  C   UNL     1      19.808  -0.732  22.445  1.00  0.00     0.039 C 
ENDBRANCH   5   9
TORSDOF 1
ENDMDL
MODEL 4
REMARK VINA RESULT:    -4.976      1.407      4.368
REMARK INTER + INTRA:          -5.357
REMARK INTER:                  -5.259
REMARK INTRA:                  -0.098
REMARK UNBOUND:                -0.090
REMARK SMILES C=C(C)[C@@H]1CC=C(C)C(=O)C1
REMARK SMILES IDX 8 1 7 2 6 3 5 4 4 5 11 6 9 7 10 8 2 9 1 10 3 11
REMARK H PARENT
REMARK Flexibility Score: inf
ROOT
ATOM      1  C   UNL     1      19.864   3.793  19.153  1.00  0.00     0.048 C 
ATOM      2  C   UNL     1      19.588   2.649  20.087  1.00  0.00    -0.012 C 
ATOM      3  C   UNL     1      19.711   2.825  21.414  1.00  0.00    -0.019 C 
ATOM      4  C   UNL     1      19.428   1.718  22.395  1.00  0.00     0.036 C 
ATOM      5  C   UNL     1      19.789   0.343  21.801  1.00  0.00     0.025 C 
ATOM      6  C   UNL     1      19.061   0.133  20.461  1.00  0.00     0.089 C 
ATOM      7  C   UNL     1      19.302   1.299  19.540  1.00  0.00     0.158 C 
ATOM      8  O   UNL     1      19.221   1.124  18.294  1.00  0.00    -0.295 OA
ENDROOT
BRANCH   5   9
ATOM      9  C   UNL     1      19.489  -0.783  22.779  1.00  0.00    -0.077 C 
ATOM     10  C   UNL     1      18.648  -0.578  23.806  1.00  0.00     0.008 C 
ATOM     11  C   UNL     1      20.122  -2.146  22.628  1.00  0.00     0.039 C 
ENDBRANCH   5   9
TORSDOF 1
ENDMDL
MODEL 5
REMARK VINA RESULT:    -4.799      1.821      4.779
REMARK INTER + INTRA:          -5.169
REMARK INTER:                  -5.071
REMARK INTRA:                  -0.098
REMARK UNBOUND:                -0.090
REMARK SMILES C=C(C)[C@@H]1CC=C(C)C(=O)C1
REMARK SMILES IDX 8 1 7 2 6 3 5 4 4 5 11 6 9 7 10 8 2 9 1 10 3 11
REMARK H PARENT
REMARK Flexibility Score: inf
ROOT
ATOM      1  C   UNL     1      18.755   2.813  17.956  1.00  0.00     0.048 C 
ATOM      2  C   UNL     1      19.182   2.043  19.174  1.00  0.00    -0.012 C 
ATOM      3  C   UNL     1      19.205   0.700  19.142  1.00  0.00    -0.019 C 
ATOM      4  C   UNL     1      19.643  -0.120  20.327  1.00  0.00     0.036 C 
ATOM      5  C   UNL     1      19.271   0.576  21.650  1.00  0.00     0.025 C 
ATOM      6  C   UNL     1      19.848   2.003  21.684  1.00  0.00     0.089 C 
ATOM      7  C   UNL     1      19.457   2.760  20.444  1.00  0.00     0.158 C 
ATOM      8  O   UNL     1      19.401   4.019  20.486  1.00  0.00    -0.295 OA
ENDROOT
BRANCH   5   9
ATOM      9  C   UNL     1      19.725  -0.237  22.854  1.00  0.00    -0.077 C 
ATOM     10  C   UNL     1      19.969   0.374  24.025  1.00  0.00     0.008 C 
ATOM     11  C   UNL     1      19.916  -1.732  22.768  1.00  0.00     0.039 C 
ENDBRANCH   5   9
TORSDOF 1
ENDMDL
MODEL 6
REMARK VINA RESULT:    -4.742      2.039      4.696
REMARK INTER + INTRA:          -5.109
REMARK INTER:                  -5.014
REMARK INTRA:                  -0.094
REMARK UNBOUND:                -0.090
REMARK SMILES C=C(C)[C@@H]1CC=C(C)C(=O)C1
REMARK SMILES IDX 8 1 7 2 6 3 5 4 4 5 11 6 9 7 10 8 2 9 1 10 3 11
REMARK H PARENT
REMARK Flexibility Score: inf
ROOT
ATOM      1  C   UNL     1      19.095   1.395  18.407  1.00  0.00     0.048 C 
ATOM      2  C   UNL     1      19.409   1.364  19.876  1.00  0.00    -0.012 C 
ATOM      3  C   UNL     1      19.440   0.189  20.528  1.00  0.00    -0.019 C 
ATOM      4  C   UNL     1      19.768   0.100  21.995  1.00  0.00     0.036 C 
ATOM      5  C   UNL     1      19.271   1.346  22.752  1.00  0.00     0.025 C 
ATOM      6  C   UNL     1      19.836   2.624  22.106  1.00  0.00     0.089 C 
ATOM      7  C   UNL     1      19.560   2.635  20.627  1.00  0.00     0.158 C 
ATOM      8  O   UNL     1      19.495   3.740  20.023  1.00  0.00    -0.295 OA
ENDROOT
BRANCH   5   9
ATOM      9  C   UNL     1      19.613   1.272  24.233  1.00  0.00    -0.077 C 
ATOM     10  C   UNL     1      19.147   2.204  25.079  1.00  0.00     0.008 C 
ATOM     11  C   UNL     1      20.479   0.166  24.786  1.00  0.00     0.039 C 
ENDBRANCH   5   9
TORSDOF 1
ENDMDL
MODEL 7
REMARK VINA RESULT:    -4.590      2.546      4.412
REMARK INTER + INTRA:          -4.948
REMARK INTER:                  -4.850
REMARK INTRA:                  -0.099
REMARK UNBOUND:                -0.090
REMARK SMILES C=C(C)[C@@H]1CC=C(C)C(=O)C1
REMARK SMILES IDX 8 1 7 2 6 3 5 4 4 5 11 6 9 7 10 8 2 9 1 10 3 11
REMARK H PARENT
REMARK Flexibility Score: inf
ROOT
ATOM      1  C   UNL     1      19.934   3.913  23.639  1.00  0.00     0.048 C 
ATOM      2  C   UNL     1      19.730   2.497  23.180  1.00  0.00    -0.012 C 
ATOM      3  C   UNL     1      19.773   1.492  24.072  1.00  0.00    -0.019 C 
ATOM      4  C   UNL     1      19.557   0.058  23.669  1.00  0.00     0.036 C 
ATOM      5  C   UNL     1      20.080  -0.204  22.245  1.00  0.00     0.025 C 
ATOM      6  C   UNL     1      19.440   0.783  21.251  1.00  0.00     0.089 C 
ATOM      7  C   UNL     1      19.606   2.199  21.732  1.00  0.00     0.158 C 
ATOM      8  O   UNL     1      19.601   3.137  20.889  1.00  0.00    -0.295 OA
ENDROOT
BRANCH   5   9
ATOM      9  C   UNL     1      19.848  -1.648  21.822  1.00  0.00    -0.077 C 
ATOM     10  C   UNL     1      19.385  -1.923  20.592  1.00  0.00     0.008 C 
ATOM     11  C   UNL     1      20.127  -2.797  22.761  1.00  0.00     0.039 C 
ENDBRANCH   5   9
TORSDOF 1
ENDMDL
MODEL 8
REMARK VINA RESULT:    -4.562      2.495      4.041
REMARK INTER + INTRA:          -4.918
REMARK INTER:                  -4.831
REMARK INTRA:                  -0.087
REMARK UNBOUND:                -0.090
REMARK SMILES C=C(C)[C@@H]1CC=C(C)C(=O)C1
REMARK SMILES IDX 8 1 7 2 6 3 5 4 4 5 11 6 9 7 10 8 2 9 1 10 3 11
REMARK H PARENT
REMARK Flexibility Score: inf
ROOT
ATOM      1  C   UNL     1      19.829  -1.975  20.545  1.00  0.00     0.048 C 
ATOM      2  C   UNL     1      19.654  -0.791  21.455  1.00  0.00    -0.012 C 
ATOM      3  C   UNL     1      19.308   0.401  20.941  1.00  0.00    -0.019 C 
ATOM      4  C   UNL     1      19.101   1.614  21.809  1.00  0.00     0.036 C 
ATOM      5  C   UNL     1      20.035   1.587  23.033  1.00  0.00     0.025 C 
ATOM      6  C   UNL     1      19.852   0.273  23.815  1.00  0.00     0.089 C 
ATOM      7  C   UNL     1      19.984  -0.912  22.897  1.00  0.00     0.158 C 
ATOM      8  O   UNL     1      20.344  -2.021  23.375  1.00  0.00    -0.295 OA
ENDROOT
BRANCH   5   9
ATOM      9  C   UNL     1      19.820   2.800  23.926  1.00  0.00    -0.077 C 
ATOM     10  C   UNL     1      20.747   3.769  23.980  1.00  0.00     0.008 C 
ATOM     11  C   UNL     1      18.576   2.946  24.769  1.00  0.00     0.039 C 
ENDBRANCH   5   9
TORSDOF 1
ENDMDL
MODEL 9
REMARK VINA RESULT:    -4.545      2.239      3.957
REMARK INTER + INTRA:          -4.900
REMARK INTER:                  -4.813
REMARK INTRA:                  -0.087
REMARK UNBOUND:                -0.090
REMARK SMILES C=C(C)[C@@H]1CC=C(C)C(=O)C1
REMARK SMILES IDX 8 1 7 2 6 3 5 4 4 5 11 6 9 7 10 8 2 9 1 10 3 11
REMARK H PARENT
REMARK Flexibility Score: inf
ROOT
ATOM      1  C   UNL     1      19.372  -1.254  20.736  1.00  0.00     0.048 C 
ATOM      2  C   UNL     1      19.610  -0.056  21.611  1.00  0.00    -0.012 C 
ATOM      3  C   UNL     1      19.778  -0.217  22.935  1.00  0.00    -0.019 C 
ATOM      4  C   UNL     1      20.038   0.947  23.854  1.00  0.00     0.036 C 
ATOM      5  C   UNL     1      19.327   2.218  23.355  1.00  0.00     0.025 C 
ATOM      6  C   UNL     1      19.734   2.522  21.901  1.00  0.00     0.089 C 
ATOM      7  C   UNL     1      19.536   1.309  21.033  1.00  0.00     0.158 C 
ATOM      8  O   UNL     1      19.343   1.464  19.797  1.00  0.00    -0.295 OA
ENDROOT
BRANCH   5   9
ATOM      9  C   UNL     1      19.599   3.405  24.268  1.00  0.00    -0.077 C 
ATOM     10  C   UNL     1      18.654   3.828  25.123  1.00  0.00     0.008 C 
ATOM     11  C   UNL     1      20.921   4.134  24.238  1.00  0.00     0.039 C 
ENDBRANCH   5   9
TORSDOF 1
ENDMDL
