MODEL 1
REMARK VINA RESULT:    -4.862      0.000      0.000
REMARK INTER + INTRA:          -5.750
REMARK INTER:                  -5.715
REMARK INTRA:                  -0.035
REMARK UNBOUND:                -0.035
REMARK SMILES CCCCC(=O)[O-]
REMARK SMILES IDX 4 1 5 2 6 3 7 4 3 5 2 6 1 7
REMARK H PARENT
REMARK Flexibility Score: inf
ROOT
ATOM      1  C   UNL     1      -5.500   5.296   4.715  1.00  0.00     0.053 C 
ENDROOT
BRANCH   1   2
ATOM      2  C   UNL     1      -4.132   4.987   5.235  1.00  0.00     0.041 C 
ATOM      3  O   UNL     1      -3.120   5.527   4.715  1.00  0.00    -0.550 OA
ATOM      4  O   UNL     1      -3.977   4.139   6.325  1.00  0.00    -0.550 OA
ENDBRANCH   1   2
BRANCH   1   5
ATOM      5  C   UNL     1      -5.460   6.515   3.790  1.00  0.00     0.006 C 
BRANCH   5   6
ATOM      6  C   UNL     1      -6.352   6.302   2.562  1.00  0.00    -0.003 C 
ATOM      7  C   UNL     1      -5.802   7.043   1.345  1.00  0.00     0.004 C 
ENDBRANCH   5   6
ENDBRANCH   1   5
TORSDOF 3
ENDMDL
MODEL 2
REMARK VINA RESULT:    -4.597     10.353     10.735
REMARK INTER + INTRA:          -5.438
REMARK INTER:                  -5.353
REMARK INTRA:                  -0.085
REMARK UNBOUND:                -0.035
REMARK SMILES CCCCC(=O)[O-]
REMARK SMILES IDX 4 1 5 2 6 3 7 4 3 5 2 6 1 7
REMARK H PARENT
REMARK Flexibility Score: inf
ROOT
ATOM      1  C   UNL     1      -4.702  -1.678  -3.554  1.00  0.00     0.053 C 
ENDROOT
BRANCH   1   2
ATOM      2  C   UNL     1      -4.338  -3.123  -3.417  1.00  0.00     0.041 C 
ATOM      3  O   UNL     1      -3.283  -3.455  -2.815  1.00  0.00    -0.550 OA
ATOM      4  O   UNL     1      -5.188  -4.103  -3.913  1.00  0.00    -0.550 OA
ENDBRANCH   1   2
BRANCH   1   5
ATOM      5  C   UNL     1      -3.448  -0.801  -3.501  1.00  0.00     0.006 C 
BRANCH   5   6
ATOM      6  C   UNL     1      -3.673   0.427  -2.612  1.00  0.00    -0.003 C 
ATOM      7  C   UNL     1      -4.575   0.091  -1.427  1.00  0.00     0.004 C 
ENDBRANCH   5   6
ENDBRANCH   1   5
TORSDOF 3
ENDMDL
MODEL 3
REMARK VINA RESULT:    -4.422     10.559     11.115
REMARK INTER + INTRA:          -5.233
REMARK INTER:                  -5.201
REMARK INTRA:                  -0.032
REMARK UNBOUND:                -0.035
REMARK SMILES CCCCC(=O)[O-]
REMARK SMILES IDX 4 1 5 2 6 3 7 4 3 5 2 6 1 7
REMARK H PARENT
REMARK Flexibility Score: inf
ROOT
ATOM      1  C   UNL     1      -2.058  -0.753  -4.338  1.00  0.00     0.053 C 
ENDROOT
BRANCH   1   2
ATOM      2  C   UNL     1      -1.417  -2.096  -4.484  1.00  0.00     0.041 C 
ATOM      3  O   UNL     1      -1.784  -3.055  -3.756  1.00  0.00    -0.550 OA
ATOM      4  O   UNL     1      -0.447  -2.301  -5.458  1.00  0.00    -0.550 OA
ENDBRANCH   1   2
BRANCH   1   5
ATOM      5  C   UNL     1      -3.381  -0.869  -3.575  1.00  0.00     0.006 C 
BRANCH   5   6
ATOM      6  C   UNL     1      -3.593   0.340  -2.656  1.00  0.00    -0.003 C 
ATOM      7  C   UNL     1      -4.645   0.044  -1.590  1.00  0.00     0.004 C 
ENDBRANCH   5   6
ENDBRANCH   1   5
TORSDOF 3
ENDMDL
MODEL 4
REMARK VINA RESULT:    -4.418     10.363     10.700
REMARK INTER + INTRA:          -5.228
REMARK INTER:                  -5.130
REMARK INTRA:                  -0.098
REMARK UNBOUND:                -0.035
REMARK SMILES CCCCC(=O)[O-]
REMARK SMILES IDX 4 1 5 2 6 3 7 4 3 5 2 6 1 7
REMARK H PARENT
REMARK Flexibility Score: inf
ROOT
ATOM      1  C   UNL     1      -2.157  -1.544  -3.577  1.00  0.00     0.053 C 
ENDROOT
BRANCH   1   2
ATOM      2  C   UNL     1      -2.363  -2.975  -3.195  1.00  0.00     0.041 C 
ATOM      3  O   UNL     1      -1.384  -3.766  -3.154  1.00  0.00    -0.550 OA
ATOM      4  O   UNL     1      -3.627  -3.424  -2.835  1.00  0.00    -0.550 OA
ENDBRANCH   1   2
BRANCH   1   5
ATOM      5  C   UNL     1      -3.503  -0.823  -3.704  1.00  0.00     0.006 C 
BRANCH   5   6
ATOM      6  C   UNL     1      -3.628   0.294  -2.661  1.00  0.00    -0.003 C 
ATOM      7  C   UNL     1      -4.725  -0.018  -1.648  1.00  0.00     0.004 C 
ENDBRANCH   5   6
ENDBRANCH   1   5
TORSDOF 3
ENDMDL
MODEL 5
REMARK VINA RESULT:    -4.272      8.007      8.724
REMARK INTER + INTRA:          -5.057
REMARK INTER:                  -5.023
REMARK INTRA:                  -0.034
REMARK UNBOUND:                -0.035
REMARK SMILES CCCCC(=O)[O-]
REMARK SMILES IDX 4 1 5 2 6 3 7 4 3 5 2 6 1 7
REMARK H PARENT
REMARK Flexibility Score: inf
ROOT
ATOM      1  C   UNL     1       2.046   6.081  -1.631  1.00  0.00     0.053 C 
ENDROOT
BRANCH   1   2
ATOM      2  C   UNL     1       1.881   6.155  -0.146  1.00  0.00     0.041 C 
ATOM      3  O   UNL     1       0.807   6.585   0.351  1.00  0.00    -0.550 OA
ATOM      4  O   UNL     1       2.895   5.702   0.689  1.00  0.00    -0.550 OA
ENDBRANCH   1   2
BRANCH   1   5
ATOM      5  C   UNL     1       0.780   5.519  -2.285  1.00  0.00     0.006 C 
BRANCH   5   6
ATOM      6  C   UNL     1       0.856   5.628  -3.812  1.00  0.00    -0.003 C 
ATOM      7  C   UNL     1       1.292   7.026  -4.244  1.00  0.00     0.004 C 
ENDBRANCH   5   6
ENDBRANCH   1   5
TORSDOF 3
ENDMDL
MODEL 6
REMARK VINA RESULT:    -4.108     11.205     11.594
REMARK INTER + INTRA:          -4.864
REMARK INTER:                  -4.806
REMARK INTRA:                  -0.058
REMARK UNBOUND:                -0.035
REMARK SMILES CCCCC(=O)[O-]
REMARK SMILES IDX 4 1 5 2 6 3 7 4 3 5 2 6 1 7
REMARK H PARENT
REMARK Flexibility Score: inf
ROOT
ATOM      1  C   UNL     1      -2.864  -2.215  -3.010  1.00  0.00     0.053 C 
ENDROOT
BRANCH   1   2
ATOM      2  C   UNL     1      -4.220  -2.759  -3.334  1.00  0.00     0.041 C 
ATOM      3  O   UNL     1      -4.557  -3.902  -2.926  1.00  0.00    -0.550 OA
ATOM      4  O   UNL     1      -5.128  -1.984  -4.044  1.00  0.00    -0.550 OA
ENDBRANCH   1   2
BRANCH   1   5
ATOM      5  C   UNL     1      -2.694  -0.812  -3.600  1.00  0.00     0.006 C 
BRANCH   5   6
ATOM      6  C   UNL     1      -1.712  -0.825  -4.776  1.00  0.00    -0.003 C 
ATOM      7  C   UNL     1      -0.988  -2.166  -4.874  1.00  0.00     0.004 C 
ENDBRANCH   5   6
ENDBRANCH   1   5
TORSDOF 3
ENDMDL
MODEL 7
REMARK VINA RESULT:    -4.024      2.540      4.161
REMARK INTER + INTRA:          -4.765
REMARK INTER:                  -4.737
REMARK INTRA:                  -0.028
REMARK UNBOUND:                -0.035
REMARK SMILES CCCCC(=O)[O-]
REMARK SMILES IDX 4 1 5 2 6 3 7 4 3 5 2 6 1 7
REMARK H PARENT
REMARK Flexibility Score: inf
ROOT
ATOM      1  C   UNL     1      -5.084   6.372   4.249  1.00  0.00     0.053 C 
ENDROOT
BRANCH   1   2
ATOM      2  C   UNL     1      -6.252   6.215   3.327  1.00  0.00     0.041 C 
ATOM      3  O   UNL     1      -7.298   5.637   3.722  1.00  0.00    -0.550 OA
ATOM      4  O   UNL     1      -6.203   6.752   2.046  1.00  0.00    -0.550 OA
ENDBRANCH   1   2
BRANCH   1   5
ATOM      5  C   UNL     1      -4.924   5.129   5.128  1.00  0.00     0.006 C 
BRANCH   5   6
ATOM      6  C   UNL     1      -3.557   4.471   4.905  1.00  0.00    -0.003 C 
ATOM      7  C   UNL     1      -3.296   3.379   5.939  1.00  0.00     0.004 C 
ENDBRANCH   5   6
ENDBRANCH   1   5
TORSDOF 3
ENDMDL
MODEL 8
REMARK VINA RESULT:    -3.984      4.184      5.670
REMARK INTER + INTRA:          -4.718
REMARK INTER:                  -4.700
REMARK INTRA:                  -0.018
REMARK UNBOUND:                -0.035
REMARK SMILES CCCCC(=O)[O-]
REMARK SMILES IDX 4 1 5 2 6 3 7 4 3 5 2 6 1 7
REMARK H PARENT
REMARK Flexibility Score: inf
ROOT
ATOM      1  C   UNL     1      -2.537   1.700   7.872  1.00  0.00     0.053 C 
ENDROOT
BRANCH   1   2
ATOM      2  C   UNL     1      -1.822   1.793   9.183  1.00  0.00     0.041 C 
ATOM      3  O   UNL     1      -2.418   1.495  10.251  1.00  0.00    -0.550 OA
ATOM      4  O   UNL     1      -0.483   2.161   9.219  1.00  0.00    -0.550 OA
ENDBRANCH   1   2
BRANCH   1   5
ATOM      5  C   UNL     1      -3.218   3.030   7.536  1.00  0.00     0.006 C 
BRANCH   5   6
ATOM      6  C   UNL     1      -3.201   3.290   6.025  1.00  0.00    -0.003 C 
ATOM      7  C   UNL     1      -4.202   4.376   5.642  1.00  0.00     0.004 C 
ENDBRANCH   5   6
ENDBRANCH   1   5
TORSDOF 3
ENDMDL
MODEL 9
REMARK VINA RESULT:    -3.981     15.796     16.446
REMARK INTER + INTRA:          -4.714
REMARK INTER:                  -4.694
REMARK INTRA:                  -0.020
REMARK UNBOUND:                -0.035
REMARK SMILES CCCCC(=O)[O-]
REMARK SMILES IDX 4 1 5 2 6 3 7 4 3 5 2 6 1 7
REMARK H PARENT
REMARK Flexibility Score: inf
ROOT
ATOM      1  C   UNL     1       5.033  -2.409  -6.535  1.00  0.00     0.053 C 
ENDROOT
BRANCH   1   2
ATOM      2  C   UNL     1       3.999  -2.744  -7.564  1.00  0.00     0.041 C 
ATOM      3  O   UNL     1       2.785  -2.825  -7.238  1.00  0.00    -0.550 OA
ATOM      4  O   UNL     1       4.370  -2.917  -8.891  1.00  0.00    -0.550 OA
ENDBRANCH   1   2
BRANCH   1   5
ATOM      5  C   UNL     1       4.440  -1.501  -5.454  1.00  0.00     0.006 C 
BRANCH   5   6
ATOM      6  C   UNL     1       5.470  -1.208  -4.357  1.00  0.00    -0.003 C 
ATOM      7  C   UNL     1       5.065  -1.854  -3.034  1.00  0.00     0.004 C 
ENDBRANCH   5   6
ENDBRANCH   1   5
TORSDOF 3
ENDMDL
