MODEL 1
REMARK VINA RESULT:    -3.234      0.000      0.000
REMARK INTER + INTRA:          -4.207
REMARK INTER:                  -3.990
REMARK INTRA:                  -0.217
REMARK UNBOUND:                -0.217
REMARK SMILES CCCCCC(=O)[O-]
REMARK SMILES IDX 4 1 5 2 6 3 7 4 8 5 3 6 2 7 1 8
REMARK H PARENT
REMARK Flexibility Score: inf
ROOT
ATOM      1  C   UNL     1      15.478  12.327  26.543  1.00  0.00     0.006 C 
ENDROOT
BRANCH   1   2
ATOM      2  C   UNL     1      16.647  12.092  27.509  1.00  0.00     0.053 C 
BRANCH   2   3
ATOM      3  C   UNL     1      17.727  11.263  26.885  1.00  0.00     0.041 C 
ATOM      4  O   UNL     1      18.903  11.707  26.809  1.00  0.00    -0.550 OA
ATOM      5  O   UNL     1      17.427  10.013  26.356  1.00  0.00    -0.550 OA
ENDBRANCH   2   3
ENDBRANCH   1   2
BRANCH   1   6
ATOM      6  C   UNL     1      15.863  13.254  25.379  1.00  0.00     0.000 C 
BRANCH   6   7
ATOM      7  C   UNL     1      16.387  14.597  25.898  1.00  0.00    -0.003 C 
ATOM      8  C   UNL     1      17.850  14.804  25.513  1.00  0.00     0.004 C 
ENDBRANCH   6   7
ENDBRANCH   1   6
TORSDOF 4
ENDMDL
MODEL 2
REMARK VINA RESULT:    -2.973     12.085     13.033
REMARK INTER + INTRA:          -3.885
REMARK INTER:                  -3.665
REMARK INTRA:                  -0.220
REMARK UNBOUND:                -0.217
REMARK SMILES CCCCCC(=O)[O-]
REMARK SMILES IDX 4 1 5 2 6 3 7 4 8 5 3 6 2 7 1 8
REMARK H PARENT
REMARK Flexibility Score: inf
ROOT
ATOM      1  C   UNL     1       8.770  22.974  28.681  1.00  0.00     0.006 C 
ENDROOT
BRANCH   1   2
ATOM      2  C   UNL     1       9.536  23.110  30.004  1.00  0.00     0.053 C 
BRANCH   2   3
ATOM      3  C   UNL     1      10.544  22.017  30.179  1.00  0.00     0.041 C 
ATOM      4  O   UNL     1      11.565  21.973  29.442  1.00  0.00    -0.550 OA
ATOM      5  O   UNL     1      10.340  21.027  31.132  1.00  0.00    -0.550 OA
ENDBRANCH   2   3
ENDBRANCH   1   2
BRANCH   1   6
ATOM      6  C   UNL     1       8.112  21.593  28.530  1.00  0.00     0.000 C 
BRANCH   6   7
ATOM      7  C   UNL     1       6.696  21.594  29.118  1.00  0.00    -0.003 C 
ATOM      8  C   UNL     1       6.655  20.858  30.455  1.00  0.00     0.004 C 
ENDBRANCH   6   7
ENDBRANCH   1   6
TORSDOF 4
ENDMDL
MODEL 3
REMARK VINA RESULT:    -2.910     17.389     18.376
REMARK INTER + INTRA:          -3.807
REMARK INTER:                  -3.692
REMARK INTRA:                  -0.115
REMARK UNBOUND:                -0.217
REMARK SMILES CCCCCC(=O)[O-]
REMARK SMILES IDX 4 1 5 2 6 3 7 4 8 5 3 6 2 7 1 8
REMARK H PARENT
REMARK Flexibility Score: inf
ROOT
ATOM      1  C   UNL     1       1.806  12.986  16.828  1.00  0.00     0.006 C 
ENDROOT
BRANCH   1   2
ATOM      2  C   UNL     1       1.803  14.325  16.078  1.00  0.00     0.053 C 
BRANCH   2   3
ATOM      3  C   UNL     1       2.725  15.320  16.714  1.00  0.00     0.041 C 
ATOM      4  O   UNL     1       2.928  15.291  17.956  1.00  0.00    -0.550 OA
ATOM      5  O   UNL     1       3.333  16.300  15.938  1.00  0.00    -0.550 OA
ENDBRANCH   2   3
ENDBRANCH   1   2
BRANCH   1   6
ATOM      6  C   UNL     1       0.668  12.060  16.370  1.00  0.00     0.000 C 
BRANCH   6   7
ATOM      7  C   UNL     1      -0.107  11.509  17.572  1.00  0.00    -0.003 C 
ATOM      8  C   UNL     1       0.235  12.277  18.847  1.00  0.00     0.004 C 
ENDBRANCH   6   7
ENDBRANCH   1   6
TORSDOF 4
ENDMDL
MODEL 4
REMARK VINA RESULT:    -2.905     11.744     12.506
REMARK INTER + INTRA:          -3.801
REMARK INTER:                  -3.648
REMARK INTRA:                  -0.153
REMARK UNBOUND:                -0.217
REMARK SMILES CCCCCC(=O)[O-]
REMARK SMILES IDX 4 1 5 2 6 3 7 4 8 5 3 6 2 7 1 8
REMARK H PARENT
REMARK Flexibility Score: inf
ROOT
ATOM      1  C   UNL     1      10.283  21.183  30.905  1.00  0.00     0.006 C 
ENDROOT
BRANCH   1   2
ATOM      2  C   UNL     1      10.416  22.513  30.152  1.00  0.00     0.053 C 
BRANCH   2   3
ATOM      3  C   UNL     1      11.465  22.446  29.085  1.00  0.00     0.041 C 
ATOM      4  O   UNL     1      12.683  22.546  29.387  1.00  0.00    -0.550 OA
ATOM      5  O   UNL     1      11.095  22.306  27.753  1.00  0.00    -0.550 OA
ENDBRANCH   2   3
ENDBRANCH   1   2
BRANCH   1   6
ATOM      6  C   UNL     1       9.023  20.405  30.493  1.00  0.00     0.000 C 
BRANCH   6   7
ATOM      7  C   UNL     1       7.927  21.357  30.003  1.00  0.00    -0.003 C 
ATOM      8  C   UNL     1       6.546  20.885  30.450  1.00  0.00     0.004 C 
ENDBRANCH   6   7
ENDBRANCH   1   6
TORSDOF 4
ENDMDL
MODEL 5
REMARK VINA RESULT:    -2.885     12.066     13.117
REMARK INTER + INTRA:          -3.777
REMARK INTER:                  -3.621
REMARK INTRA:                  -0.156
REMARK UNBOUND:                -0.217
REMARK SMILES CCCCCC(=O)[O-]
REMARK SMILES IDX 4 1 5 2 6 3 7 4 8 5 3 6 2 7 1 8
REMARK H PARENT
REMARK Flexibility Score: inf
ROOT
ATOM      1  C   UNL     1      11.486  22.106  18.303  1.00  0.00     0.006 C 
ENDROOT
BRANCH   1   2
ATOM      2  C   UNL     1      11.914  21.704  19.720  1.00  0.00     0.053 C 
BRANCH   2   3
ATOM      3  C   UNL     1      10.998  20.673  20.306  1.00  0.00     0.041 C 
ATOM      4  O   UNL     1      10.781  19.596  19.691  1.00  0.00    -0.550 OA
ATOM      5  O   UNL     1      10.358  20.917  21.515  1.00  0.00    -0.550 OA
ENDBRANCH   2   3
ENDBRANCH   1   2
BRANCH   1   6
ATOM      6  C   UNL     1      12.688  22.427  17.401  1.00  0.00     0.000 C 
BRANCH   6   7
ATOM      7  C   UNL     1      12.784  21.429  16.242  1.00  0.00    -0.003 C 
ATOM      8  C   UNL     1      11.502  20.611  16.111  1.00  0.00     0.004 C 
ENDBRANCH   6   7
ENDBRANCH   1   6
TORSDOF 4
ENDMDL
MODEL 6
REMARK VINA RESULT:    -2.882     12.001     13.141
REMARK INTER + INTRA:          -3.773
REMARK INTER:                  -3.537
REMARK INTRA:                  -0.236
REMARK UNBOUND:                -0.217
REMARK SMILES CCCCCC(=O)[O-]
REMARK SMILES IDX 4 1 5 2 6 3 7 4 8 5 3 6 2 7 1 8
REMARK H PARENT
REMARK Flexibility Score: inf
ROOT
ATOM      1  C   UNL     1      10.154   4.837  35.871  1.00  0.00     0.006 C 
ENDROOT
BRANCH   1   2
ATOM      2  C   UNL     1       9.282   5.755  35.003  1.00  0.00     0.053 C 
BRANCH   2   3
ATOM      3  C   UNL     1       9.959   6.112  33.716  1.00  0.00     0.041 C 
ATOM      4  O   UNL     1      10.247   5.214  32.882  1.00  0.00    -0.550 OA
ATOM      5  O   UNL     1      10.302   7.432  33.452  1.00  0.00    -0.550 OA
ENDBRANCH   2   3
ENDBRANCH   1   2
BRANCH   1   6
ATOM      6  C   UNL     1      11.556   5.420  36.108  1.00  0.00     0.000 C 
BRANCH   6   7
ATOM      7  C   UNL     1      12.615   4.313  36.125  1.00  0.00    -0.003 C 
ATOM      8  C   UNL     1      12.533   3.452  34.866  1.00  0.00     0.004 C 
ENDBRANCH   6   7
ENDBRANCH   1   6
TORSDOF 4
ENDMDL
MODEL 7
REMARK VINA RESULT:    -2.875     12.129     12.847
REMARK INTER + INTRA:          -3.764
REMARK INTER:                  -3.533
REMARK INTRA:                  -0.231
REMARK UNBOUND:                -0.217
REMARK SMILES CCCCCC(=O)[O-]
REMARK SMILES IDX 4 1 5 2 6 3 7 4 8 5 3 6 2 7 1 8
REMARK H PARENT
REMARK Flexibility Score: inf
ROOT
ATOM      1  C   UNL     1      10.120  21.464  28.260  1.00  0.00     0.006 C 
ENDROOT
BRANCH   1   2
ATOM      2  C   UNL     1       8.970  22.467  28.103  1.00  0.00     0.053 C 
BRANCH   2   3
ATOM      3  C   UNL     1       7.639  21.783  28.035  1.00  0.00     0.041 C 
ATOM      4  O   UNL     1       7.026  21.698  26.939  1.00  0.00    -0.550 OA
ATOM      5  O   UNL     1       7.062  21.269  29.190  1.00  0.00    -0.550 OA
ENDBRANCH   2   3
ENDBRANCH   1   2
BRANCH   1   6
ATOM      6  C   UNL     1      11.049  21.821  29.431  1.00  0.00     0.000 C 
BRANCH   6   7
ATOM      7  C   UNL     1      10.357  21.571  30.775  1.00  0.00    -0.003 C 
ATOM      8  C   UNL     1       9.952  20.106  30.922  1.00  0.00     0.004 C 
ENDBRANCH   6   7
ENDBRANCH   1   6
TORSDOF 4
ENDMDL
MODEL 8
REMARK VINA RESULT:    -2.839     11.262     12.644
REMARK INTER + INTRA:          -3.720
REMARK INTER:                  -3.554
REMARK INTRA:                  -0.166
REMARK UNBOUND:                -0.217
REMARK SMILES CCCCCC(=O)[O-]
REMARK SMILES IDX 4 1 5 2 6 3 7 4 8 5 3 6 2 7 1 8
REMARK H PARENT
REMARK Flexibility Score: inf
ROOT
ATOM      1  C   UNL     1      11.362   3.583  34.059  1.00  0.00     0.006 C 
ENDROOT
BRANCH   1   2
ATOM      2  C   UNL     1      11.861   3.982  32.664  1.00  0.00     0.053 C 
BRANCH   2   3
ATOM      3  C   UNL     1      10.966   4.996  32.021  1.00  0.00     0.041 C 
ATOM      4  O   UNL     1      10.378   5.859  32.725  1.00  0.00    -0.550 OA
ATOM      5  O   UNL     1      10.754   4.966  30.648  1.00  0.00    -0.550 OA
ENDBRANCH   2   3
ENDBRANCH   1   2
BRANCH   1   6
ATOM      6  C   UNL     1      12.517   3.290  35.029  1.00  0.00     0.000 C 
BRANCH   6   7
ATOM      7  C   UNL     1      12.619   4.377  36.104  1.00  0.00    -0.003 C 
ATOM      8  C   UNL     1      11.368   5.251  36.124  1.00  0.00     0.004 C 
ENDBRANCH   6   7
ENDBRANCH   1   6
TORSDOF 4
ENDMDL
MODEL 9
REMARK VINA RESULT:    -0.375     12.594     13.542
REMARK INTER + INTRA:          -0.680
REMARK INTER:                  -0.409
REMARK INTRA:                  -0.271
REMARK UNBOUND:                -0.217
REMARK SMILES CCCCCC(=O)[O-]
REMARK SMILES IDX 4 1 5 2 6 3 7 4 8 5 3 6 2 7 1 8
REMARK H PARENT
REMARK Flexibility Score: inf
ROOT
ATOM      1  C   UNL     1      10.410  21.160  16.514  1.00  0.00     0.006 C 
ENDROOT
BRANCH   1   2
ATOM      2  C   UNL     1       9.540  20.153  17.278  1.00  0.00     0.053 C 
BRANCH   2   3
ATOM      3  C   UNL     1      10.298  19.493  18.389  1.00  0.00     0.041 C 
ATOM      4  O   UNL     1      10.455  18.244  18.394  1.00  0.00    -0.550 OA
ATOM      5  O   UNL     1      10.802  20.255  19.436  1.00  0.00    -0.550 OA
ENDBRANCH   2   3
ENDBRANCH   1   2
BRANCH   1   6
ATOM      6  C   UNL     1      11.641  20.499  15.875  1.00  0.00     0.000 C 
BRANCH   6   7
ATOM      7  C   UNL     1      12.910  21.309  16.161  1.00  0.00    -0.003 C 
ATOM      8  C   UNL     1      12.652  22.381  17.217  1.00  0.00     0.004 C 
ENDBRANCH   6   7
ENDBRANCH   1   6
TORSDOF 4
ENDMDL
