MODEL 1
REMARK VINA RESULT:    -4.045      0.000      0.000
REMARK INTER + INTRA:          -4.931
REMARK INTER:                  -4.754
REMARK INTRA:                  -0.177
REMARK UNBOUND:                -0.177
REMARK SMILES O=C([O-])CCC(=O)[O-]
REMARK SMILES IDX 4 1 2 2 1 3 3 4 5 5 6 6 7 7 8 8
REMARK H PARENT
REMARK Flexibility Score: inf
ROOT
ATOM      1  C   UNL     1      18.554  -6.900  20.839  1.00  0.00     0.059 C 
ENDROOT
BRANCH   1   2
ATOM      2  C   UNL     1      19.131  -5.608  21.335  1.00  0.00     0.042 C 
ATOM      3  O   UNL     1      18.417  -4.807  21.993  1.00  0.00    -0.550 OA
ATOM      4  O   UNL     1      20.445  -5.273  21.035  1.00  0.00    -0.550 OA
ENDBRANCH   1   2
BRANCH   1   5
ATOM      5  C   UNL     1      19.211  -8.107  21.515  1.00  0.00     0.059 C 
BRANCH   5   6
ATOM      6  C   UNL     1      19.033  -8.072  23.002  1.00  0.00     0.042 C 
ATOM      7  O   UNL     1      20.037  -8.037  23.761  1.00  0.00    -0.550 OA
ATOM      8  O   UNL     1      17.756  -8.039  23.548  1.00  0.00    -0.550 OA
ENDBRANCH   5   6
ENDBRANCH   1   5
TORSDOF 3
ENDMDL
MODEL 2
REMARK VINA RESULT:    -4.045      0.141      1.622
REMARK INTER + INTRA:          -4.931
REMARK INTER:                  -4.758
REMARK INTRA:                  -0.174
REMARK UNBOUND:                -0.177
REMARK SMILES O=C([O-])CCC(=O)[O-]
REMARK SMILES IDX 4 1 2 2 1 3 3 4 5 5 6 6 7 7 8 8
REMARK H PARENT
REMARK Flexibility Score: inf
ROOT
ATOM      1  C   UNL     1      18.577  -6.810  20.745  1.00  0.00     0.059 C 
ENDROOT
BRANCH   1   2
ATOM      2  C   UNL     1      19.234  -5.567  21.266  1.00  0.00     0.042 C 
ATOM      3  O   UNL     1      20.437  -5.322  20.987  1.00  0.00    -0.550 OA
ATOM      4  O   UNL     1      18.528  -4.701  22.091  1.00  0.00    -0.550 OA
ENDBRANCH   1   2
BRANCH   1   5
ATOM      5  C   UNL     1      19.121  -8.065  21.433  1.00  0.00     0.059 C 
BRANCH   5   6
ATOM      6  C   UNL     1      18.886  -8.030  22.912  1.00  0.00     0.042 C 
ATOM      7  O   UNL     1      17.713  -8.041  23.369  1.00  0.00    -0.550 OA
ATOM      8  O   UNL     1      19.965  -8.026  23.787  1.00  0.00    -0.550 OA
ENDBRANCH   5   6
ENDBRANCH   1   5
TORSDOF 3
ENDMDL
MODEL 3
REMARK VINA RESULT:    -4.026      0.115      3.489
REMARK INTER + INTRA:          -4.909
REMARK INTER:                  -4.729
REMARK INTRA:                  -0.179
REMARK UNBOUND:                -0.177
REMARK SMILES O=C([O-])CCC(=O)[O-]
REMARK SMILES IDX 4 1 2 2 1 3 3 4 5 5 6 6 7 7 8 8
REMARK H PARENT
REMARK Flexibility Score: inf
ROOT
ATOM      1  C   UNL     1      19.308  -8.126  21.511  1.00  0.00     0.059 C 
ENDROOT
BRANCH   1   2
ATOM      2  C   UNL     1      19.179  -8.084  23.004  1.00  0.00     0.042 C 
ATOM      3  O   UNL     1      20.208  -8.058  23.728  1.00  0.00    -0.550 OA
ATOM      4  O   UNL     1      17.922  -8.115  23.595  1.00  0.00    -0.550 OA
ENDBRANCH   1   2
BRANCH   1   5
ATOM      5  C   UNL     1      18.584  -6.948  20.850  1.00  0.00     0.059 C 
BRANCH   5   6
ATOM      6  C   UNL     1      19.138  -5.633  21.306  1.00  0.00     0.042 C 
ATOM      7  O   UNL     1      18.430  -4.848  21.989  1.00  0.00    -0.550 OA
ATOM      8  O   UNL     1      20.453  -5.293  21.010  1.00  0.00    -0.550 OA
ENDBRANCH   5   6
ENDBRANCH   1   5
TORSDOF 3
ENDMDL
MODEL 4
REMARK VINA RESULT:    -3.981      1.230      1.764
REMARK INTER + INTRA:          -4.856
REMARK INTER:                  -4.671
REMARK INTRA:                  -0.185
REMARK UNBOUND:                -0.177
REMARK SMILES O=C([O-])CCC(=O)[O-]
REMARK SMILES IDX 4 1 2 2 1 3 3 4 5 5 6 6 7 7 8 8
REMARK H PARENT
REMARK Flexibility Score: inf
ROOT
ATOM      1  C   UNL     1      18.540  -5.383  22.408  1.00  0.00     0.059 C 
ENDROOT
BRANCH   1   2
ATOM      2  C   UNL     1      19.248  -5.735  21.135  1.00  0.00     0.042 C 
ATOM      3  O   UNL     1      20.434  -5.358  20.945  1.00  0.00    -0.550 OA
ATOM      4  O   UNL     1      18.583  -6.445  20.143  1.00  0.00    -0.550 OA
ENDBRANCH   1   2
BRANCH   1   5
ATOM      5  C   UNL     1      19.131  -6.130  23.608  1.00  0.00     0.059 C 
BRANCH   5   6
ATOM      6  C   UNL     1      19.039  -7.615  23.433  1.00  0.00     0.042 C 
ATOM      7  O   UNL     1      20.083  -8.319  23.423  1.00  0.00    -0.550 OA
ATOM      8  O   UNL     1      17.796  -8.226  23.323  1.00  0.00    -0.550 OA
ENDBRANCH   5   6
ENDBRANCH   1   5
TORSDOF 3
ENDMDL
MODEL 5
REMARK VINA RESULT:    -3.967      1.256      3.589
REMARK INTER + INTRA:          -4.840
REMARK INTER:                  -4.648
REMARK INTRA:                  -0.192
REMARK UNBOUND:                -0.177
REMARK SMILES O=C([O-])CCC(=O)[O-]
REMARK SMILES IDX 4 1 2 2 1 3 3 4 5 5 6 6 7 7 8 8
REMARK H PARENT
REMARK Flexibility Score: inf
ROOT
ATOM      1  C   UNL     1      19.254  -6.157  23.619  1.00  0.00     0.059 C 
ENDROOT
BRANCH   1   2
ATOM      2  C   UNL     1      19.122  -7.635  23.408  1.00  0.00     0.042 C 
ATOM      3  O   UNL     1      20.150  -8.356  23.317  1.00  0.00    -0.550 OA
ATOM      4  O   UNL     1      17.864  -8.209  23.273  1.00  0.00    -0.550 OA
ENDBRANCH   1   2
BRANCH   1   5
ATOM      5  C   UNL     1      18.636  -5.365  22.463  1.00  0.00     0.059 C 
BRANCH   5   6
ATOM      6  C   UNL     1      19.312  -5.669  21.161  1.00  0.00     0.042 C 
ATOM      7  O   UNL     1      20.521  -5.363  20.987  1.00  0.00    -0.550 OA
ATOM      8  O   UNL     1      18.617  -6.329  20.155  1.00  0.00    -0.550 OA
ENDBRANCH   5   6
ENDBRANCH   1   5
TORSDOF 3
ENDMDL
MODEL 6
REMARK VINA RESULT:    -3.931      1.249      3.599
REMARK INTER + INTRA:          -4.797
REMARK INTER:                  -4.615
REMARK INTRA:                  -0.181
REMARK UNBOUND:                -0.177
REMARK SMILES O=C([O-])CCC(=O)[O-]
REMARK SMILES IDX 4 1 2 2 1 3 3 4 5 5 6 6 7 7 8 8
REMARK H PARENT
REMARK Flexibility Score: inf
ROOT
ATOM      1  C   UNL     1      19.074  -6.106  23.562  1.00  0.00     0.059 C 
ENDROOT
BRANCH   1   2
ATOM      2  C   UNL     1      18.971  -7.582  23.324  1.00  0.00     0.042 C 
ATOM      3  O   UNL     1      17.842  -8.124  23.191  1.00  0.00    -0.550 OA
ATOM      4  O   UNL     1      20.119  -8.363  23.288  1.00  0.00    -0.550 OA
ENDBRANCH   1   2
BRANCH   1   5
ATOM      5  C   UNL     1      18.590  -5.304  22.350  1.00  0.00     0.059 C 
BRANCH   5   6
ATOM      6  C   UNL     1      19.418  -5.588  21.133  1.00  0.00     0.042 C 
ATOM      7  O   UNL     1      18.863  -5.900  20.047  1.00  0.00    -0.550 OA
ATOM      8  O   UNL     1      20.801  -5.468  21.191  1.00  0.00    -0.550 OA
ENDBRANCH   5   6
ENDBRANCH   1   5
TORSDOF 3
ENDMDL
MODEL 7
REMARK VINA RESULT:    -3.568      1.880      2.500
REMARK INTER + INTRA:          -4.370
REMARK INTER:                  -4.380
REMARK INTRA:                   0.009
REMARK UNBOUND:                -0.177
REMARK SMILES O=C([O-])CCC(=O)[O-]
REMARK SMILES IDX 4 1 2 2 1 3 3 4 5 5 6 6 7 7 8 8
REMARK H PARENT
REMARK Flexibility Score: inf
ROOT
ATOM      1  C   UNL     1      19.339  -5.817  21.299  1.00  0.00     0.059 C 
ENDROOT
BRANCH   1   2
ATOM      2  C   UNL     1      18.901  -7.148  20.768  1.00  0.00     0.042 C 
ATOM      3  O   UNL     1      17.956  -7.219  19.939  1.00  0.00    -0.550 OA
ATOM      4  O   UNL     1      19.510  -8.312  21.220  1.00  0.00    -0.550 OA
ENDBRANCH   1   2
BRANCH   1   5
ATOM      5  C   UNL     1      18.605  -5.457  22.595  1.00  0.00     0.059 C 
BRANCH   5   6
ATOM      6  C   UNL     1      18.839  -6.480  23.664  1.00  0.00     0.042 C 
ATOM      7  O   UNL     1      17.877  -7.150  24.123  1.00  0.00    -0.550 OA
ATOM      8  O   UNL     1      20.127  -6.721  24.125  1.00  0.00    -0.550 OA
ENDBRANCH   5   6
ENDBRANCH   1   5
TORSDOF 3
ENDMDL
MODEL 8
REMARK VINA RESULT:    -3.127      1.537      3.333
REMARK INTER + INTRA:          -3.852
REMARK INTER:                  -3.947
REMARK INTRA:                   0.095
REMARK UNBOUND:                -0.177
REMARK SMILES O=C([O-])CCC(=O)[O-]
REMARK SMILES IDX 4 1 2 2 1 3 3 4 5 5 6 6 7 7 8 8
REMARK H PARENT
REMARK Flexibility Score: inf
ROOT
ATOM      1  C   UNL     1      18.554  -7.509  23.060  1.00  0.00     0.059 C 
ENDROOT
BRANCH   1   2
ATOM      2  C   UNL     1      18.898  -8.039  21.701  1.00  0.00     0.042 C 
ATOM      3  O   UNL     1      18.082  -7.922  20.750  1.00  0.00    -0.550 OA
ATOM      4  O   UNL     1      20.104  -8.698  21.496  1.00  0.00    -0.550 OA
ENDBRANCH   1   2
BRANCH   1   5
ATOM      5  C   UNL     1      19.251  -6.173  23.337  1.00  0.00     0.059 C 
BRANCH   5   6
ATOM      6  C   UNL     1      19.239  -5.284  22.132  1.00  0.00     0.042 C 
ATOM      7  O   UNL     1      18.257  -4.527  21.912  1.00  0.00    -0.550 OA
ATOM      8  O   UNL     1      20.331  -5.261  21.274  1.00  0.00    -0.550 OA
ENDBRANCH   5   6
ENDBRANCH   1   5
TORSDOF 3
ENDMDL
MODEL 9
REMARK VINA RESULT:    -2.498     14.525     15.636
REMARK INTER + INTRA:          -3.113
REMARK INTER:                  -3.076
REMARK INTRA:                  -0.037
REMARK UNBOUND:                -0.177
REMARK SMILES O=C([O-])CCC(=O)[O-]
REMARK SMILES IDX 4 1 2 2 1 3 3 4 5 5 6 6 7 7 8 8
REMARK H PARENT
REMARK Flexibility Score: inf
ROOT
ATOM      1  C   UNL     1      17.860  -7.087   6.282  1.00  0.00     0.059 C 
ENDROOT
BRANCH   1   2
ATOM      2  C   UNL     1      18.925  -7.243   7.326  1.00  0.00     0.042 C 
ATOM      3  O   UNL     1      19.753  -8.188   7.248  1.00  0.00    -0.550 OA
ATOM      4  O   UNL     1      18.976  -6.369   8.404  1.00  0.00    -0.550 OA
ENDBRANCH   1   2
BRANCH   1   5
ATOM      5  C   UNL     1      16.527  -6.651   6.899  1.00  0.00     0.059 C 
BRANCH   5   6
ATOM      6  C   UNL     1      15.394  -7.512   6.429  1.00  0.00     0.042 C 
ATOM      7  O   UNL     1      15.347  -7.902   5.233  1.00  0.00    -0.550 OA
ATOM      8  O   UNL     1      14.411  -7.915   7.323  1.00  0.00    -0.550 OA
ENDBRANCH   5   6
ENDBRANCH   1   5
TORSDOF 3
ENDMDL
