MODEL 1
REMARK VINA RESULT:    -5.223      0.000      0.000
REMARK INTER + INTRA:          -5.376
REMARK INTER:                  -5.376
REMARK INTRA:                   0.000
REMARK UNBOUND:                 0.000
REMARK SMILES Oc1ccc2[nH]ccc2c1
REMARK SMILES IDX 3 1 4 2 5 3 9 4 8 5 7 6 6 7 10 8 2 9 1 11
REMARK H PARENT 6 10 1 12
REMARK Flexibility Score: inf
ROOT
ATOM      1  C   UNL     1      32.110   6.588  12.334  1.00  0.00     0.048 A 
ATOM      2  C   UNL     1      32.880   5.771  11.484  1.00  0.00     0.030 A 
ATOM      3  C   UNL     1      34.138   6.232  11.102  1.00  0.00     0.046 A 
ATOM      4  C   UNL     1      34.622   7.439  11.529  1.00  0.00     0.003 A 
ATOM      5  C   UNL     1      35.876   7.598  10.979  1.00  0.00     0.028 A 
ATOM      6  C   UNL     1      36.090   6.448  10.226  1.00  0.00     0.083 A 
ATOM      7  N   UNL     1      35.025   5.616  10.304  1.00  0.00    -0.361 N 
ATOM      8  C   UNL     1      33.887   8.272  12.369  1.00  0.00     0.056 A 
ATOM      9  C   UNL     1      32.610   7.835  12.777  1.00  0.00     0.116 A 
ATOM     10  H   UNL     1      34.920   4.687   9.838  1.00  0.00     0.166 HD
ENDROOT
BRANCH   9  11
ATOM     11  O   UNL     1      31.828   8.626  13.617  1.00  0.00    -0.508 OA
ATOM     12  H   UNL     1      31.150   9.281  13.245  1.00  0.00     0.293 HD
ENDBRANCH   9  11
TORSDOF 1
ENDMDL
MODEL 2
REMARK VINA RESULT:    -5.217      2.628      3.851
REMARK INTER + INTRA:          -5.370
REMARK INTER:                  -5.370
REMARK INTRA:                   0.000
REMARK UNBOUND:                 0.000
REMARK SMILES Oc1ccc2[nH]ccc2c1
REMARK SMILES IDX 3 1 4 2 5 3 9 4 8 5 7 6 6 7 10 8 2 9 1 11
REMARK H PARENT 6 10 1 12
REMARK Flexibility Score: inf
ROOT
ATOM      1  C   UNL     1      36.321   5.567   9.926  1.00  0.00     0.048 A 
ATOM      2  C   UNL     1      35.023   5.267  10.379  1.00  0.00     0.030 A 
ATOM      3  C   UNL     1      34.363   6.225  11.146  1.00  0.00     0.046 A 
ATOM      4  C   UNL     1      34.946   7.423  11.458  1.00  0.00     0.003 A 
ATOM      5  C   UNL     1      34.044   8.135  12.219  1.00  0.00     0.028 A 
ATOM      6  C   UNL     1      32.931   7.308  12.331  1.00  0.00     0.083 A 
ATOM      7  N   UNL     1      33.131   6.141  11.673  1.00  0.00    -0.361 N 
ATOM      8  C   UNL     1      36.229   7.753  11.027  1.00  0.00     0.056 A 
ATOM      9  C   UNL     1      36.925   6.806  10.247  1.00  0.00     0.116 A 
ATOM     10  H   UNL     1      32.461   5.343  11.596  1.00  0.00     0.166 HD
ENDROOT
BRANCH   9  11
ATOM     11  O   UNL     1      38.212   7.079   9.788  1.00  0.00    -0.508 OA
ATOM     12  H   UNL     1      38.669   6.479   9.111  1.00  0.00     0.293 HD
ENDBRANCH   9  11
TORSDOF 1
ENDMDL
MODEL 3
REMARK VINA RESULT:    -5.060      1.456      1.806
REMARK INTER + INTRA:          -5.208
REMARK INTER:                  -5.208
REMARK INTRA:                   0.000
REMARK UNBOUND:                 0.000
REMARK SMILES Oc1ccc2[nH]ccc2c1
REMARK SMILES IDX 3 1 4 2 5 3 9 4 8 5 7 6 6 7 10 8 2 9 1 11
REMARK H PARENT 6 10 1 12
REMARK Flexibility Score: inf
ROOT
ATOM      1  C   UNL     1      33.271   7.780  10.759  1.00  0.00     0.048 A 
ATOM      2  C   UNL     1      34.239   7.505   9.775  1.00  0.00     0.030 A 
ATOM      3  C   UNL     1      35.491   7.063  10.199  1.00  0.00     0.046 A 
ATOM      4  C   UNL     1      35.785   6.898  11.525  1.00  0.00     0.003 A 
ATOM      5  C   UNL     1      37.088   6.457  11.608  1.00  0.00     0.028 A 
ATOM      6  C   UNL     1      37.527   6.375  10.290  1.00  0.00     0.083 A 
ATOM      7  N   UNL     1      36.548   6.747   9.433  1.00  0.00    -0.361 N 
ATOM      8  C   UNL     1      34.851   7.161  12.525  1.00  0.00     0.056 A 
ATOM      9  C   UNL     1      33.573   7.609  12.131  1.00  0.00     0.116 A 
ATOM     10  H   UNL     1      36.607   6.780   8.390  1.00  0.00     0.166 HD
ENDROOT
BRANCH   9  11
ATOM     11  O   UNL     1      32.598   7.889  13.086  1.00  0.00    -0.508 OA
ATOM     12  H   UNL     1      31.975   8.683  12.987  1.00  0.00     0.293 HD
ENDBRANCH   9  11
TORSDOF 1
ENDMDL
MODEL 4
REMARK VINA RESULT:    -5.030      1.657      2.768
REMARK INTER + INTRA:          -5.177
REMARK INTER:                  -5.177
REMARK INTRA:                   0.000
REMARK UNBOUND:                 0.000
REMARK SMILES Oc1ccc2[nH]ccc2c1
REMARK SMILES IDX 3 1 4 2 5 3 9 4 8 5 7 6 6 7 10 8 2 9 1 11
REMARK H PARENT 6 10 1 12
REMARK Flexibility Score: inf
ROOT
ATOM      1  C   UNL     1      35.713   7.781  11.529  1.00  0.00     0.048 A 
ATOM      2  C   UNL     1      36.313   6.998  10.525  1.00  0.00     0.030 A 
ATOM      3  C   UNL     1      35.476   6.292   9.663  1.00  0.00     0.046 A 
ATOM      4  C   UNL     1      34.114   6.348   9.777  1.00  0.00     0.003 A 
ATOM      5  C   UNL     1      33.584   5.547   8.788  1.00  0.00     0.028 A 
ATOM      6  C   UNL     1      34.684   5.035   8.108  1.00  0.00     0.083 A 
ATOM      7  N   UNL     1      35.839   5.493   8.647  1.00  0.00    -0.361 N 
ATOM      8  C   UNL     1      33.487   7.112  10.758  1.00  0.00     0.056 A 
ATOM      9  C   UNL     1      34.304   7.841  11.647  1.00  0.00     0.116 A 
ATOM     10  H   UNL     1      36.809   5.267   8.333  1.00  0.00     0.166 HD
ENDROOT
BRANCH   9  11
ATOM     11  O   UNL     1      33.735   8.623  12.650  1.00  0.00    -0.508 OA
ATOM     12  H   UNL     1      32.768   8.504  12.927  1.00  0.00     0.293 HD
ENDBRANCH   9  11
TORSDOF 1
ENDMDL
MODEL 5
REMARK VINA RESULT:    -5.025      0.923      2.348
REMARK INTER + INTRA:          -5.172
REMARK INTER:                  -5.172
REMARK INTRA:                   0.000
REMARK UNBOUND:                 0.000
REMARK SMILES Oc1ccc2[nH]ccc2c1
REMARK SMILES IDX 3 1 4 2 5 3 9 4 8 5 7 6 6 7 10 8 2 9 1 11
REMARK H PARENT 6 10 1 12
REMARK Flexibility Score: inf
ROOT
ATOM      1  C   UNL     1      33.680   8.394  12.241  1.00  0.00     0.048 A 
ATOM      2  C   UNL     1      34.398   7.600  11.327  1.00  0.00     0.030 A 
ATOM      3  C   UNL     1      33.896   6.335  11.027  1.00  0.00     0.046 A 
ATOM      4  C   UNL     1      32.743   5.866  11.598  1.00  0.00     0.003 A 
ATOM      5  C   UNL     1      32.523   4.599  11.101  1.00  0.00     0.028 A 
ATOM      6  C   UNL     1      33.583   4.362  10.231  1.00  0.00     0.083 A 
ATOM      7  N   UNL     1      34.419   5.426  10.190  1.00  0.00    -0.361 N 
ATOM      8  C   UNL     1      32.009   6.624  12.507  1.00  0.00     0.056 A 
ATOM      9  C   UNL     1      32.489   7.910  12.831  1.00  0.00     0.116 A 
ATOM     10  H   UNL     1      35.292   5.515   9.622  1.00  0.00     0.166 HD
ENDROOT
BRANCH   9  11
ATOM     11  O   UNL     1      31.797   8.715  13.734  1.00  0.00    -0.508 OA
ATOM     12  H   UNL     1      31.433   8.341  14.603  1.00  0.00     0.293 HD
ENDBRANCH   9  11
TORSDOF 1
ENDMDL
MODEL 6
REMARK VINA RESULT:    -5.018      2.870      4.063
REMARK INTER + INTRA:          -5.164
REMARK INTER:                  -5.164
REMARK INTRA:                   0.000
REMARK UNBOUND:                 0.000
REMARK SMILES Oc1ccc2[nH]ccc2c1
REMARK SMILES IDX 3 1 4 2 5 3 9 4 8 5 7 6 6 7 10 8 2 9 1 11
REMARK H PARENT 6 10 1 12
REMARK Flexibility Score: inf
ROOT
ATOM      1  C   UNL     1      36.165   5.733  10.033  1.00  0.00     0.048 A 
ATOM      2  C   UNL     1      35.948   6.273  11.315  1.00  0.00     0.030 A 
ATOM      3  C   UNL     1      34.821   7.070  11.503  1.00  0.00     0.046 A 
ATOM      4  C   UNL     1      33.944   7.329  10.484  1.00  0.00     0.003 A 
ATOM      5  C   UNL     1      32.950   8.139  10.990  1.00  0.00     0.028 A 
ATOM      6  C   UNL     1      33.286   8.333  12.326  1.00  0.00     0.083 A 
ATOM      7  N   UNL     1      34.430   7.678  12.635  1.00  0.00    -0.361 N 
ATOM      8  C   UNL     1      34.129   6.812   9.203  1.00  0.00     0.056 A 
ATOM      9  C   UNL     1      35.260   5.999   8.979  1.00  0.00     0.116 A 
ATOM     10  H   UNL     1      34.907   7.654  13.564  1.00  0.00     0.166 HD
ENDROOT
BRANCH   9  11
ATOM     11  O   UNL     1      35.498   5.454   7.719  1.00  0.00    -0.508 OA
ATOM     12  H   UNL     1      36.195   4.731   7.580  1.00  0.00     0.293 HD
ENDBRANCH   9  11
TORSDOF 1
ENDMDL
MODEL 7
REMARK VINA RESULT:    -5.016      2.933      4.168
REMARK INTER + INTRA:          -5.163
REMARK INTER:                  -5.163
REMARK INTRA:                   0.000
REMARK UNBOUND:                 0.000
REMARK SMILES Oc1ccc2[nH]ccc2c1
REMARK SMILES IDX 3 1 4 2 5 3 9 4 8 5 7 6 6 7 10 8 2 9 1 11
REMARK H PARENT 6 10 1 12
REMARK Flexibility Score: inf
ROOT
ATOM      1  C   UNL     1      36.364   7.579  11.129  1.00  0.00     0.048 A 
ATOM      2  C   UNL     1      35.114   7.213  11.662  1.00  0.00     0.030 A 
ATOM      3  C   UNL     1      34.529   6.035  11.201  1.00  0.00     0.046 A 
ATOM      4  C   UNL     1      35.139   5.250  10.260  1.00  0.00     0.003 A 
ATOM      5  C   UNL     1      34.312   4.173  10.022  1.00  0.00     0.028 A 
ATOM      6  C   UNL     1      33.215   4.368  10.855  1.00  0.00     0.083 A 
ATOM      7  N   UNL     1      33.352   5.508  11.573  1.00  0.00    -0.361 N 
ATOM      8  C   UNL     1      36.375   5.582   9.711  1.00  0.00     0.056 A 
ATOM      9  C   UNL     1      36.996   6.768  10.157  1.00  0.00     0.116 A 
ATOM     10  H   UNL     1      32.678   5.893  12.272  1.00  0.00     0.166 HD
ENDROOT
BRANCH   9  11
ATOM     11  O   UNL     1      38.233   7.153   9.644  1.00  0.00    -0.508 OA
ATOM     12  H   UNL     1      38.880   7.710  10.189  1.00  0.00     0.293 HD
ENDBRANCH   9  11
TORSDOF 1
ENDMDL
MODEL 8
REMARK VINA RESULT:    -4.906      2.577      3.623
REMARK INTER + INTRA:          -5.049
REMARK INTER:                  -5.049
REMARK INTRA:                   0.000
REMARK UNBOUND:                 0.000
REMARK SMILES Oc1ccc2[nH]ccc2c1
REMARK SMILES IDX 3 1 4 2 5 3 9 4 8 5 7 6 6 7 10 8 2 9 1 11
REMARK H PARENT 6 10 1 12
REMARK Flexibility Score: inf
ROOT
ATOM      1  C   UNL     1      34.381   8.311  11.711  1.00  0.00     0.048 A 
ATOM      2  C   UNL     1      33.164   7.836  12.234  1.00  0.00     0.030 A 
ATOM      3  C   UNL     1      33.115   6.513  12.671  1.00  0.00     0.046 A 
ATOM      4  C   UNL     1      34.207   5.691  12.597  1.00  0.00     0.003 A 
ATOM      5  C   UNL     1      33.834   4.464  13.101  1.00  0.00     0.028 A 
ATOM      6  C   UNL     1      32.499   4.612  13.464  1.00  0.00     0.083 A 
ATOM      7  N   UNL     1      32.064   5.866  13.198  1.00  0.00    -0.361 N 
ATOM      8  C   UNL     1      35.426   6.128  12.084  1.00  0.00     0.056 A 
ATOM      9  C   UNL     1      35.511   7.463  11.635  1.00  0.00     0.116 A 
ATOM     10  H   UNL     1      31.106   6.246  13.370  1.00  0.00     0.166 HD
ENDROOT
BRANCH   9  11
ATOM     11  O   UNL     1      36.703   7.957  11.111  1.00  0.00    -0.508 OA
ATOM     12  H   UNL     1      37.520   8.094  11.695  1.00  0.00     0.293 HD
ENDBRANCH   9  11
TORSDOF 1
ENDMDL
MODEL 9
REMARK VINA RESULT:    -4.882      2.974      3.609
REMARK INTER + INTRA:          -5.024
REMARK INTER:                  -5.024
REMARK INTRA:                   0.000
REMARK UNBOUND:                 0.000
REMARK SMILES Oc1ccc2[nH]ccc2c1
REMARK SMILES IDX 3 1 4 2 5 3 9 4 8 5 7 6 6 7 10 8 2 9 1 11
REMARK H PARENT 6 10 1 12
REMARK Flexibility Score: inf
ROOT
ATOM      1  C   UNL     1      33.658   5.111   8.368  1.00  0.00     0.048 A 
ATOM      2  C   UNL     1      33.948   4.701   9.683  1.00  0.00     0.030 A 
ATOM      3  C   UNL     1      34.273   5.685  10.615  1.00  0.00     0.046 A 
ATOM      4  C   UNL     1      34.315   7.011  10.277  1.00  0.00     0.003 A 
ATOM      5  C   UNL     1      34.665   7.715  11.409  1.00  0.00     0.028 A 
ATOM      6  C   UNL     1      34.821   6.751  12.401  1.00  0.00     0.083 A 
ATOM      7  N   UNL     1      34.581   5.512  11.910  1.00  0.00    -0.361 N 
ATOM      8  C   UNL     1      34.034   7.451   8.985  1.00  0.00     0.056 A 
ATOM      9  C   UNL     1      33.700   6.481   8.017  1.00  0.00     0.116 A 
ATOM     10  H   UNL     1      34.628   4.611  12.436  1.00  0.00     0.166 HD
ENDROOT
BRANCH   9  11
ATOM     11  O   UNL     1      33.410   6.861   6.708  1.00  0.00    -0.508 OA
ATOM     12  H   UNL     1      33.654   7.780   6.359  1.00  0.00     0.293 HD
ENDBRANCH   9  11
TORSDOF 1
ENDMDL
