MODEL 1
REMARK VINA RESULT:    -4.887      0.000      0.000
REMARK INTER + INTRA:          -6.855
REMARK INTER:                  -6.602
REMARK INTRA:                  -0.253
REMARK UNBOUND:                -0.253
REMARK SMILES CCCCCCC=CC(=O)[O-]
REMARK SMILES IDX 5 1 6 2 7 3 8 4 9 5 10 6 11 7 4 8 3 9 2 10 1 11
REMARK H PARENT
REMARK Flexibility Score: inf
ROOT
ATOM      1  C   UNL     1       7.676 -13.736  -2.013  1.00  0.00     0.004 C 
ENDROOT
BRANCH   1   2
ATOM      2  C   UNL     1       7.349 -13.324  -3.456  1.00  0.00     0.027 C 
BRANCH   2   3
ATOM      3  C   UNL     1       5.866 -13.294  -3.688  1.00  0.00    -0.025 C 
ATOM      4  C   UNL     1       5.354 -13.055  -4.900  1.00  0.00     0.020 C 
BRANCH   4   5
ATOM      5  C   UNL     1       3.904 -13.009  -5.139  1.00  0.00     0.064 C 
ATOM      6  O   UNL     1       3.159 -13.878  -4.616  1.00  0.00    -0.545 OA
ATOM      7  O   UNL     1       3.341 -12.018  -5.936  1.00  0.00    -0.545 OA
ENDBRANCH   4   5
ENDBRANCH   2   3
ENDBRANCH   1   2
BRANCH   1   8
ATOM      8  C   UNL     1       7.619 -12.554  -1.033  1.00  0.00     0.000 C 
BRANCH   8   9
ATOM      9  C   UNL     1       8.907 -12.410  -0.208  1.00  0.00    -0.000 C 
BRANCH   9  10
ATOM     10  C   UNL     1       9.081 -10.970   0.289  1.00  0.00    -0.003 C 
ATOM     11  C   UNL     1       7.943 -10.077  -0.200  1.00  0.00     0.004 C 
ENDBRANCH   9  10
ENDBRANCH   8   9
ENDBRANCH   1   8
TORSDOF 6
ENDMDL
MODEL 2
REMARK VINA RESULT:    -4.798      1.052      1.539
REMARK INTER + INTRA:          -6.734
REMARK INTER:                  -6.309
REMARK INTRA:                  -0.425
REMARK UNBOUND:                -0.253
REMARK SMILES CCCCCCC=CC(=O)[O-]
REMARK SMILES IDX 5 1 6 2 7 3 8 4 9 5 10 6 11 7 4 8 3 9 2 10 1 11
REMARK H PARENT
REMARK Flexibility Score: inf
ROOT
ATOM      1  C   UNL     1       7.381 -12.840  -1.229  1.00  0.00     0.004 C 
ENDROOT
BRANCH   1   2
ATOM      2  C   UNL     1       7.791 -13.772  -2.379  1.00  0.00     0.027 C 
BRANCH   2   3
ATOM      3  C   UNL     1       7.128 -13.370  -3.664  1.00  0.00    -0.025 C 
ATOM      4  C   UNL     1       5.902 -12.837  -3.682  1.00  0.00     0.020 C 
BRANCH   4   5
ATOM      5  C   UNL     1       5.235 -12.451  -4.934  1.00  0.00     0.064 C 
ATOM      6  O   UNL     1       4.791 -13.343  -5.703  1.00  0.00    -0.545 OA
ATOM      7  O   UNL     1       5.088 -11.114  -5.284  1.00  0.00    -0.545 OA
ENDBRANCH   4   5
ENDBRANCH   2   3
ENDBRANCH   1   2
BRANCH   1   8
ATOM      8  C   UNL     1       8.553 -12.501  -0.295  1.00  0.00     0.000 C 
BRANCH   8   9
ATOM      9  C   UNL     1       8.803 -10.990  -0.185  1.00  0.00    -0.000 C 
BRANCH   9  10
ATOM     10  C   UNL     1       7.697 -10.198  -0.893  1.00  0.00    -0.003 C 
ATOM     11  C   UNL     1       7.277  -8.982  -0.072  1.00  0.00     0.004 C 
ENDBRANCH   9  10
ENDBRANCH   8   9
ENDBRANCH   1   8
TORSDOF 6
ENDMDL
MODEL 3
REMARK VINA RESULT:    -4.670      3.104      5.154
REMARK INTER + INTRA:          -6.561
REMARK INTER:                  -6.058
REMARK INTRA:                  -0.503
REMARK UNBOUND:                -0.253
REMARK SMILES CCCCCCC=CC(=O)[O-]
REMARK SMILES IDX 5 1 6 2 7 3 8 4 9 5 10 6 11 7 4 8 3 9 2 10 1 11
REMARK H PARENT
REMARK Flexibility Score: inf
ROOT
ATOM      1  C   UNL     1       8.770 -12.453  -0.225  1.00  0.00     0.004 C 
ENDROOT
BRANCH   1   2
ATOM      2  C   UNL     1       8.923 -10.966   0.132  1.00  0.00     0.027 C 
BRANCH   2   3
ATOM      3  C   UNL     1       7.965 -10.120  -0.656  1.00  0.00    -0.025 C 
ATOM      4  C   UNL     1       7.321  -9.090  -0.098  1.00  0.00     0.020 C 
BRANCH   4   5
ATOM      5  C   UNL     1       6.371  -8.260  -0.853  1.00  0.00     0.064 C 
ATOM      6  O   UNL     1       5.810  -8.732  -1.876  1.00  0.00    -0.545 OA
ATOM      7  O   UNL     1       6.082  -6.959  -0.456  1.00  0.00    -0.545 OA
ENDBRANCH   4   5
ENDBRANCH   2   3
ENDBRANCH   1   2
BRANCH   1   8
ATOM      8  C   UNL     1       7.520 -12.733  -1.073  1.00  0.00     0.000 C 
BRANCH   8   9
ATOM      9  C   UNL     1       7.746 -13.842  -2.110  1.00  0.00    -0.000 C 
BRANCH   9  10
ATOM     10  C   UNL     1       7.316 -13.383  -3.507  1.00  0.00    -0.003 C 
ATOM     11  C   UNL     1       6.366 -12.190  -3.428  1.00  0.00     0.004 C 
ENDBRANCH   9  10
ENDBRANCH   8   9
ENDBRANCH   1   8
TORSDOF 6
ENDMDL
MODEL 4
REMARK VINA RESULT:    -4.642      1.627      2.304
REMARK INTER + INTRA:          -6.523
REMARK INTER:                  -6.278
REMARK INTRA:                  -0.245
REMARK UNBOUND:                -0.253
REMARK SMILES CCCCCCC=CC(=O)[O-]
REMARK SMILES IDX 5 1 6 2 7 3 8 4 9 5 10 6 11 7 4 8 3 9 2 10 1 11
REMARK H PARENT
REMARK Flexibility Score: inf
ROOT
ATOM      1  C   UNL     1       7.227 -13.373  -3.475  1.00  0.00     0.004 C 
ENDROOT
BRANCH   1   2
ATOM      2  C   UNL     1       5.714 -13.298  -3.730  1.00  0.00     0.027 C 
BRANCH   2   3
ATOM      3  C   UNL     1       5.400 -12.346  -4.848  1.00  0.00    -0.025 C 
ATOM      4  C   UNL     1       4.910 -11.126  -4.609  1.00  0.00     0.020 C 
BRANCH   4   5
ATOM      5  C   UNL     1       4.585 -10.188  -5.694  1.00  0.00     0.064 C 
ATOM      6  O   UNL     1       4.359 -10.630  -6.851  1.00  0.00    -0.545 OA
ATOM      7  O   UNL     1       4.525  -8.818  -5.463  1.00  0.00    -0.545 OA
ENDBRANCH   4   5
ENDBRANCH   2   3
ENDBRANCH   1   2
BRANCH   1   8
ATOM      8  C   UNL     1       7.567 -13.595  -1.993  1.00  0.00     0.000 C 
BRANCH   8   9
ATOM      9  C   UNL     1       7.624 -12.283  -1.197  1.00  0.00    -0.000 C 
BRANCH   9  10
ATOM     10  C   UNL     1       8.755 -12.317  -0.164  1.00  0.00    -0.003 C 
ATOM     11  C   UNL     1       9.147 -10.907   0.272  1.00  0.00     0.004 C 
ENDBRANCH   9  10
ENDBRANCH   8   9
ENDBRANCH   1   8
TORSDOF 6
ENDMDL
MODEL 5
REMARK VINA RESULT:    -4.617      3.558      5.864
REMARK INTER + INTRA:          -6.489
REMARK INTER:                  -6.093
REMARK INTRA:                  -0.396
REMARK UNBOUND:                -0.253
REMARK SMILES CCCCCCC=CC(=O)[O-]
REMARK SMILES IDX 5 1 6 2 7 3 8 4 9 5 10 6 11 7 4 8 3 9 2 10 1 11
REMARK H PARENT
REMARK Flexibility Score: inf
ROOT
ATOM      1  C   UNL     1       7.286 -12.834  -3.622  1.00  0.00     0.004 C 
ENDROOT
BRANCH   1   2
ATOM      2  C   UNL     1       7.576 -13.744  -2.420  1.00  0.00     0.027 C 
BRANCH   2   3
ATOM      3  C   UNL     1       7.857 -12.938  -1.185  1.00  0.00    -0.025 C 
ATOM      4  C   UNL     1       7.870 -11.601  -1.212  1.00  0.00     0.020 C 
BRANCH   4   5
ATOM      5  C   UNL     1       8.157 -10.798  -0.014  1.00  0.00     0.064 C 
ATOM      6  O   UNL     1       7.235 -10.133   0.525  1.00  0.00    -0.545 OA
ATOM      7  O   UNL     1       9.435 -10.761   0.534  1.00  0.00    -0.545 OA
ENDBRANCH   4   5
ENDBRANCH   2   3
ENDBRANCH   1   2
BRANCH   1   8
ATOM      8  C   UNL     1       5.913 -13.108  -4.255  1.00  0.00     0.000 C 
BRANCH   8   9
ATOM      9  C   UNL     1       4.833 -13.425  -3.210  1.00  0.00    -0.000 C 
BRANCH   9  10
ATOM     10  C   UNL     1       3.482 -13.694  -3.882  1.00  0.00    -0.003 C 
ATOM     11  C   UNL     1       3.565 -13.482  -5.391  1.00  0.00     0.004 C 
ENDBRANCH   9  10
ENDBRANCH   8   9
ENDBRANCH   1   8
TORSDOF 6
ENDMDL
MODEL 6
REMARK VINA RESULT:    -4.612      3.950      5.873
REMARK INTER + INTRA:          -6.483
REMARK INTER:                  -6.054
REMARK INTRA:                  -0.428
REMARK UNBOUND:                -0.253
REMARK SMILES CCCCCCC=CC(=O)[O-]
REMARK SMILES IDX 5 1 6 2 7 3 8 4 9 5 10 6 11 7 4 8 3 9 2 10 1 11
REMARK H PARENT
REMARK Flexibility Score: inf
ROOT
ATOM      1  C   UNL     1       8.198 -12.391  -0.536  1.00  0.00     0.004 C 
ENDROOT
BRANCH   1   2
ATOM      2  C   UNL     1       8.253 -10.986  -1.153  1.00  0.00     0.027 C 
BRANCH   2   3
ATOM      3  C   UNL     1       7.819  -9.943  -0.163  1.00  0.00    -0.025 C 
ATOM      4  C   UNL     1       7.056  -8.908  -0.529  1.00  0.00     0.020 C 
BRANCH   4   5
ATOM      5  C   UNL     1       6.634  -7.872   0.425  1.00  0.00     0.064 C 
ATOM      6  O   UNL     1       7.239  -6.770   0.455  1.00  0.00    -0.545 OA
ATOM      7  O   UNL     1       5.575  -8.092   1.299  1.00  0.00    -0.545 OA
ENDBRANCH   4   5
ENDBRANCH   2   3
ENDBRANCH   1   2
BRANCH   1   8
ATOM      8  C   UNL     1       7.626 -13.440  -1.501  1.00  0.00     0.000 C 
BRANCH   8   9
ATOM      9  C   UNL     1       6.162 -13.164  -1.873  1.00  0.00    -0.000 C 
BRANCH   9  10
ATOM     10  C   UNL     1       5.946 -13.295  -3.385  1.00  0.00    -0.003 C 
ATOM     11  C   UNL     1       7.270 -13.213  -4.140  1.00  0.00     0.004 C 
ENDBRANCH   9  10
ENDBRANCH   8   9
ENDBRANCH   1   8
TORSDOF 6
ENDMDL
MODEL 7
REMARK VINA RESULT:    -4.502      1.943      2.702
REMARK INTER + INTRA:          -6.335
REMARK INTER:                  -6.008
REMARK INTRA:                  -0.327
REMARK UNBOUND:                -0.253
REMARK SMILES CCCCCCC=CC(=O)[O-]
REMARK SMILES IDX 5 1 6 2 7 3 8 4 9 5 10 6 11 7 4 8 3 9 2 10 1 11
REMARK H PARENT
REMARK Flexibility Score: inf
ROOT
ATOM      1  C   UNL     1       7.269 -12.990  -4.076  1.00  0.00     0.004 C 
ENDROOT
BRANCH   1   2
ATOM      2  C   UNL     1       5.807 -13.128  -4.526  1.00  0.00     0.027 C 
BRANCH   2   3
ATOM      3  C   UNL     1       5.210 -11.787  -4.844  1.00  0.00    -0.025 C 
ATOM      4  C   UNL     1       4.888 -11.444  -6.096  1.00  0.00     0.020 C 
BRANCH   4   5
ATOM      5  C   UNL     1       4.315 -10.131  -6.423  1.00  0.00     0.064 C 
ATOM      6  O   UNL     1       4.648  -9.121  -5.749  1.00  0.00    -0.545 OA
ATOM      7  O   UNL     1       3.408  -9.985  -7.467  1.00  0.00    -0.545 OA
ENDBRANCH   4   5
ENDBRANCH   2   3
ENDBRANCH   1   2
BRANCH   1   8
ATOM      8  C   UNL     1       7.524 -13.610  -2.694  1.00  0.00     0.000 C 
BRANCH   8   9
ATOM      9  C   UNL     1       6.725 -12.917  -1.580  1.00  0.00    -0.000 C 
BRANCH   9  10
ATOM     10  C   UNL     1       7.519 -11.751  -0.981  1.00  0.00    -0.003 C 
ATOM     11  C   UNL     1       8.723 -12.252  -0.187  1.00  0.00     0.004 C 
ENDBRANCH   9  10
ENDBRANCH   8   9
ENDBRANCH   1   8
TORSDOF 6
ENDMDL
MODEL 8
REMARK VINA RESULT:    -4.483      1.892      2.517
REMARK INTER + INTRA:          -6.309
REMARK INTER:                  -6.131
REMARK INTRA:                  -0.177
REMARK UNBOUND:                -0.253
REMARK SMILES CCCCCCC=CC(=O)[O-]
REMARK SMILES IDX 5 1 6 2 7 3 8 4 9 5 10 6 11 7 4 8 3 9 2 10 1 11
REMARK H PARENT
REMARK Flexibility Score: inf
ROOT
ATOM      1  C   UNL     1       7.262 -13.299  -3.404  1.00  0.00     0.004 C 
ENDROOT
BRANCH   1   2
ATOM      2  C   UNL     1       5.821 -12.791  -3.553  1.00  0.00     0.027 C 
BRANCH   2   3
ATOM      3  C   UNL     1       4.870 -13.609  -2.728  1.00  0.00    -0.025 C 
ATOM      4  C   UNL     1       3.707 -14.041  -3.226  1.00  0.00     0.020 C 
BRANCH   4   5
ATOM      5  C   UNL     1       2.760 -14.832  -2.425  1.00  0.00     0.064 C 
ATOM      6  O   UNL     1       3.127 -15.308  -1.320  1.00  0.00    -0.545 OA
ATOM      7  O   UNL     1       1.464 -15.063  -2.872  1.00  0.00    -0.545 OA
ENDBRANCH   4   5
ENDBRANCH   2   3
ENDBRANCH   1   2
BRANCH   1   8
ATOM      8  C   UNL     1       7.626 -13.630  -1.949  1.00  0.00     0.000 C 
BRANCH   8   9
ATOM      9  C   UNL     1       7.636 -12.387  -1.045  1.00  0.00    -0.000 C 
BRANCH   9  10
ATOM     10  C   UNL     1       8.870 -12.379  -0.137  1.00  0.00    -0.003 C 
ATOM     11  C   UNL     1       9.214 -10.961   0.314  1.00  0.00     0.004 C 
ENDBRANCH   9  10
ENDBRANCH   8   9
ENDBRANCH   1   8
TORSDOF 6
ENDMDL
MODEL 9
REMARK VINA RESULT:    -4.481      2.041      3.291
REMARK INTER + INTRA:          -6.306
REMARK INTER:                  -6.055
REMARK INTRA:                  -0.251
REMARK UNBOUND:                -0.253
REMARK SMILES CCCCCCC=CC(=O)[O-]
REMARK SMILES IDX 5 1 6 2 7 3 8 4 9 5 10 6 11 7 4 8 3 9 2 10 1 11
REMARK H PARENT
REMARK Flexibility Score: inf
ROOT
ATOM      1  C   UNL     1       5.890 -12.667  -3.821  1.00  0.00     0.004 C 
ENDROOT
BRANCH   1   2
ATOM      2  C   UNL     1       5.036 -13.016  -5.049  1.00  0.00     0.027 C 
BRANCH   2   3
ATOM      3  C   UNL     1       4.324 -11.804  -5.575  1.00  0.00    -0.025 C 
ATOM      4  C   UNL     1       4.890 -10.999  -6.481  1.00  0.00     0.020 C 
BRANCH   4   5
ATOM      5  C   UNL     1       4.210  -9.801  -6.995  1.00  0.00     0.064 C 
ATOM      6  O   UNL     1       4.708  -8.665  -6.783  1.00  0.00    -0.545 OA
ATOM      7  O   UNL     1       3.024  -9.904  -7.713  1.00  0.00    -0.545 OA
ENDBRANCH   4   5
ENDBRANCH   2   3
ENDBRANCH   1   2
BRANCH   1   8
ATOM      8  C   UNL     1       7.277 -13.328  -3.857  1.00  0.00     0.000 C 
BRANCH   8   9
ATOM      9  C   UNL     1       7.740 -13.804  -2.473  1.00  0.00    -0.000 C 
BRANCH   9  10
ATOM     10  C   UNL     1       7.182 -12.902  -1.367  1.00  0.00    -0.003 C 
ATOM     11  C   UNL     1       8.300 -12.358  -0.481  1.00  0.00     0.004 C 
ENDBRANCH   9  10
ENDBRANCH   8   9
ENDBRANCH   1   8
TORSDOF 6
ENDMDL
