MODEL 1
REMARK VINA RESULT:    -5.250      0.000      0.000
REMARK INTER + INTRA:          -6.525
REMARK INTER:                  -6.324
REMARK INTRA:                  -0.201
REMARK UNBOUND:                -0.201
REMARK SMILES C=CCc1ccc(O)c(OC)c1
REMARK SMILES IDX 9 1 7 2 6 3 5 4 4 5 12 6 10 7 11 8 8 9 3 11 2 12 1 13
REMARK H PARENT 8 10
REMARK Flexibility Score: inf
ROOT
ATOM      1  C   UNL     1     130.194 130.525 143.326  1.00  0.00     0.160 A 
ATOM      2  C   UNL     1     131.295 131.227 142.801  1.00  0.00     0.157 A 
ATOM      3  C   UNL     1     131.180 131.903 141.583  1.00  0.00     0.050 A 
ATOM      4  C   UNL     1     129.975 131.887 140.877  1.00  0.00     0.008 A 
ATOM      5  C   UNL     1     128.871 131.186 141.380  1.00  0.00    -0.040 A 
ATOM      6  C   UNL     1     128.981 130.513 142.608  1.00  0.00     0.054 A 
ENDROOT
BRANCH   1   7
ATOM      7  O   UNL     1     130.337 129.859 144.553  1.00  0.00    -0.493 OA
ATOM      8  C   UNL     1     129.657 130.216 145.752  1.00  0.00     0.278 C 
ENDBRANCH   1   7
BRANCH   2   9
ATOM      9  O   UNL     1     132.514 131.264 143.479  1.00  0.00    -0.504 OA
ATOM     10  H   UNL     1     133.170 130.493 143.453  1.00  0.00     0.293 HD
ENDBRANCH   2   9
BRANCH   5  11
ATOM     11  C   UNL     1     127.562 131.190 140.635  1.00  0.00     0.062 C 
BRANCH  11  12
ATOM     12  C   UNL     1     126.481 130.539 141.453  1.00  0.00    -0.030 C 
ATOM     13  C   UNL     1     125.195 130.608 141.099  1.00  0.00     0.004 C 
ENDBRANCH  11  12
ENDBRANCH   5  11
TORSDOF 4
ENDMDL
MODEL 2
REMARK VINA RESULT:    -5.141      4.456      6.965
REMARK INTER + INTRA:          -6.394
REMARK INTER:                  -6.183
REMARK INTRA:                  -0.211
REMARK UNBOUND:                -0.201
REMARK SMILES C=CCc1ccc(O)c(OC)c1
REMARK SMILES IDX 9 1 7 2 6 3 5 4 4 5 12 6 10 7 11 8 8 9 3 11 2 12 1 13
REMARK H PARENT 8 10
REMARK Flexibility Score: inf
ROOT
ATOM      1  C   UNL     1     129.193 132.507 149.372  1.00  0.00     0.160 A 
ATOM      2  C   UNL     1     127.864 132.732 149.774  1.00  0.00     0.157 A 
ATOM      3  C   UNL     1     126.826 131.981 149.216  1.00  0.00     0.050 A 
ATOM      4  C   UNL     1     127.097 131.005 148.254  1.00  0.00     0.008 A 
ATOM      5  C   UNL     1     128.414 130.774 147.834  1.00  0.00    -0.040 A 
ATOM      6  C   UNL     1     129.460 131.521 148.400  1.00  0.00     0.054 A 
ENDROOT
BRANCH   1   7
ATOM      7  O   UNL     1     130.217 133.273 149.952  1.00  0.00    -0.493 OA
ATOM      8  C   UNL     1     131.266 132.743 150.756  1.00  0.00     0.278 C 
ENDBRANCH   1   7
BRANCH   2   9
ATOM      9  O   UNL     1     127.556 133.699 150.732  1.00  0.00    -0.504 OA
ATOM     10  H   UNL     1     126.654 133.737 151.190  1.00  0.00     0.293 HD
ENDBRANCH   2   9
BRANCH   5  11
ATOM     11  C   UNL     1     128.713 129.704 146.817  1.00  0.00     0.062 C 
BRANCH  11  12
ATOM     12  C   UNL     1     129.013 130.312 145.476  1.00  0.00    -0.030 C 
ATOM     13  C   UNL     1     130.104 129.977 144.781  1.00  0.00     0.004 C 
ENDBRANCH  11  12
ENDBRANCH   5  11
TORSDOF 4
ENDMDL
MODEL 3
REMARK VINA RESULT:    -5.136      2.309      4.170
REMARK INTER + INTRA:          -6.388
REMARK INTER:                  -6.210
REMARK INTRA:                  -0.178
REMARK UNBOUND:                -0.201
REMARK SMILES C=CCc1ccc(O)c(OC)c1
REMARK SMILES IDX 9 1 7 2 6 3 5 4 4 5 12 6 10 7 11 8 8 9 3 11 2 12 1 13
REMARK H PARENT 8 10
REMARK Flexibility Score: inf
ROOT
ATOM      1  C   UNL     1     128.305 131.041 141.217  1.00  0.00     0.160 A 
ATOM      2  C   UNL     1     129.265 131.828 140.554  1.00  0.00     0.157 A 
ATOM      3  C   UNL     1     130.513 132.053 141.140  1.00  0.00     0.050 A 
ATOM      4  C   UNL     1     130.819 131.503 142.386  1.00  0.00     0.008 A 
ATOM      5  C   UNL     1     129.873 130.723 143.066  1.00  0.00    -0.040 A 
ATOM      6  C   UNL     1     128.620 130.488 142.475  1.00  0.00     0.054 A 
ENDROOT
BRANCH   1   7
ATOM      7  O   UNL     1     127.061 130.827 140.603  1.00  0.00    -0.493 OA
ATOM      8  C   UNL     1     125.865 130.487 141.296  1.00  0.00     0.278 C 
ENDBRANCH   1   7
BRANCH   2   9
ATOM      9  O   UNL     1     128.994 132.395 139.308  1.00  0.00    -0.504 OA
ATOM     10  H   UNL     1     129.585 132.236 138.502  1.00  0.00     0.293 HD
ENDBRANCH   2   9
BRANCH   5  11
ATOM     11  C   UNL     1     130.209 130.105 144.397  1.00  0.00     0.062 C 
BRANCH  11  12
ATOM     12  C   UNL     1     129.011 130.109 145.304  1.00  0.00    -0.030 C 
ATOM     13  C   UNL     1     129.133 129.995 146.630  1.00  0.00     0.004 C 
ENDBRANCH  11  12
ENDBRANCH   5  11
TORSDOF 4
ENDMDL
MODEL 4
REMARK VINA RESULT:    -5.107      6.684      9.358
REMARK INTER + INTRA:          -6.353
REMARK INTER:                  -6.140
REMARK INTRA:                  -0.213
REMARK UNBOUND:                -0.201
REMARK SMILES C=CCc1ccc(O)c(OC)c1
REMARK SMILES IDX 9 1 7 2 6 3 5 4 4 5 12 6 10 7 11 8 8 9 3 11 2 12 1 13
REMARK H PARENT 8 10
REMARK Flexibility Score: inf
ROOT
ATOM      1  C   UNL     1     131.991 132.963 148.681  1.00  0.00     0.160 A 
ATOM      2  C   UNL     1     133.259 133.325 148.189  1.00  0.00     0.157 A 
ATOM      3  C   UNL     1     134.002 134.320 148.832  1.00  0.00     0.050 A 
ATOM      4  C   UNL     1     133.494 134.963 149.962  1.00  0.00     0.008 A 
ATOM      5  C   UNL     1     132.229 134.622 150.461  1.00  0.00    -0.040 A 
ATOM      6  C   UNL     1     131.484 133.616 149.823  1.00  0.00     0.054 A 
ENDROOT
BRANCH   1   7
ATOM      7  O   UNL     1     131.268 131.957 148.020  1.00  0.00    -0.493 OA
ATOM      8  C   UNL     1     129.868 131.743 148.159  1.00  0.00     0.278 C 
ENDBRANCH   1   7
BRANCH   2   9
ATOM      9  O   UNL     1     133.797 132.705 147.062  1.00  0.00    -0.504 OA
ATOM     10  H   UNL     1     134.332 133.213 146.369  1.00  0.00     0.293 HD
ENDBRANCH   2   9
BRANCH   5  11
ATOM     11  C   UNL     1     131.691 135.294 151.696  1.00  0.00     0.062 C 
BRANCH  11  12
ATOM     12  C   UNL     1     132.798 135.960 152.465  1.00  0.00    -0.030 C 
ATOM     13  C   UNL     1     132.579 137.045 153.213  1.00  0.00     0.004 C 
ENDBRANCH  11  12
ENDBRANCH   5  11
TORSDOF 4
ENDMDL
MODEL 5
REMARK VINA RESULT:    -4.990     11.190     12.890
REMARK INTER + INTRA:          -6.212
REMARK INTER:                  -6.005
REMARK INTRA:                  -0.207
REMARK UNBOUND:                -0.201
REMARK SMILES C=CCc1ccc(O)c(OC)c1
REMARK SMILES IDX 9 1 7 2 6 3 5 4 4 5 12 6 10 7 11 8 8 9 3 11 2 12 1 13
REMARK H PARENT 8 10
REMARK Flexibility Score: inf
ROOT
ATOM      1  C   UNL     1     137.266 124.224 150.803  1.00  0.00     0.160 A 
ATOM      2  C   UNL     1     137.275 123.170 149.871  1.00  0.00     0.157 A 
ATOM      3  C   UNL     1     137.647 123.409 148.546  1.00  0.00     0.050 A 
ATOM      4  C   UNL     1     138.010 124.693 148.133  1.00  0.00     0.008 A 
ATOM      5  C   UNL     1     137.998 125.758 149.045  1.00  0.00    -0.040 A 
ATOM      6  C   UNL     1     137.633 125.518 150.380  1.00  0.00     0.054 A 
ENDROOT
BRANCH   1   7
ATOM      7  O   UNL     1     136.893 123.955 152.130  1.00  0.00    -0.493 OA
ATOM      8  C   UNL     1     137.045 124.866 153.213  1.00  0.00     0.278 C 
ENDBRANCH   1   7
BRANCH   2   9
ATOM      9  O   UNL     1     136.917 121.875 150.247  1.00  0.00    -0.504 OA
ATOM     10  H   UNL     1     137.598 121.132 150.340  1.00  0.00     0.293 HD
ENDBRANCH   2   9
BRANCH   5  11
ATOM     11  C   UNL     1     138.416 127.137 148.611  1.00  0.00     0.062 C 
BRANCH  11  12
ATOM     12  C   UNL     1     138.973 127.110 147.215  1.00  0.00    -0.030 C 
ATOM     13  C   UNL     1     138.379 127.758 146.208  1.00  0.00     0.004 C 
ENDBRANCH  11  12
ENDBRANCH   5  11
TORSDOF 4
ENDMDL
MODEL 6
REMARK VINA RESULT:    -4.940      5.438      8.770
REMARK INTER + INTRA:          -6.152
REMARK INTER:                  -5.930
REMARK INTRA:                  -0.222
REMARK UNBOUND:                -0.201
REMARK SMILES C=CCc1ccc(O)c(OC)c1
REMARK SMILES IDX 9 1 7 2 6 3 5 4 4 5 12 6 10 7 11 8 8 9 3 11 2 12 1 13
REMARK H PARENT 8 10
REMARK Flexibility Score: inf
ROOT
ATOM      1  C   UNL     1     128.568 132.255 148.843  1.00  0.00     0.160 A 
ATOM      2  C   UNL     1     128.385 131.361 149.915  1.00  0.00     0.157 A 
ATOM      3  C   UNL     1     129.400 131.181 150.858  1.00  0.00     0.050 A 
ATOM      4  C   UNL     1     130.603 131.881 150.745  1.00  0.00     0.008 A 
ATOM      5  C   UNL     1     130.807 132.768 149.679  1.00  0.00    -0.040 A 
ATOM      6  C   UNL     1     129.785 132.958 148.735  1.00  0.00     0.054 A 
ENDROOT
BRANCH   1   7
ATOM      7  O   UNL     1     127.530 132.421 147.913  1.00  0.00    -0.493 OA
ATOM      8  C   UNL     1     127.575 131.972 146.562  1.00  0.00     0.278 C 
ENDBRANCH   1   7
BRANCH   2   9
ATOM      9  O   UNL     1     127.197 130.644 150.058  1.00  0.00    -0.504 OA
ATOM     10  H   UNL     1     127.105 129.877 150.712  1.00  0.00     0.293 HD
ENDBRANCH   2   9
BRANCH   5  11
ATOM     11  C   UNL     1     132.092 133.546 149.570  1.00  0.00     0.062 C 
BRANCH  11  12
ATOM     12  C   UNL     1     132.285 134.426 150.774  1.00  0.00    -0.030 C 
ATOM     13  C   UNL     1     132.715 135.686 150.661  1.00  0.00     0.004 C 
ENDBRANCH  11  12
ENDBRANCH   5  11
TORSDOF 4
ENDMDL
MODEL 7
REMARK VINA RESULT:    -4.925      6.732      9.339
REMARK INTER + INTRA:          -6.134
REMARK INTER:                  -5.885
REMARK INTRA:                  -0.248
REMARK UNBOUND:                -0.201
REMARK SMILES C=CCc1ccc(O)c(OC)c1
REMARK SMILES IDX 9 1 7 2 6 3 5 4 4 5 12 6 10 7 11 8 8 9 3 11 2 12 1 13
REMARK H PARENT 8 10
REMARK Flexibility Score: inf
ROOT
ATOM      1  C   UNL     1     129.159 132.618 149.839  1.00  0.00     0.160 A 
ATOM      2  C   UNL     1     129.366 131.452 150.600  1.00  0.00     0.157 A 
ATOM      3  C   UNL     1     130.622 131.193 151.155  1.00  0.00     0.050 A 
ATOM      4  C   UNL     1     131.680 132.082 150.960  1.00  0.00     0.008 A 
ATOM      5  C   UNL     1     131.494 133.244 150.198  1.00  0.00    -0.040 A 
ATOM      6  C   UNL     1     130.231 133.513 149.646  1.00  0.00     0.054 A 
ENDROOT
BRANCH   1   7
ATOM      7  O   UNL     1     127.886 132.857 149.296  1.00  0.00    -0.493 OA
ATOM      8  C   UNL     1     127.438 132.364 148.038  1.00  0.00     0.278 C 
ENDBRANCH   1   7
BRANCH   2   9
ATOM      9  O   UNL     1     128.333 130.540 150.814  1.00  0.00    -0.504 OA
ATOM     10  H   UNL     1     128.323 129.912 151.608  1.00  0.00     0.293 HD
ENDBRANCH   2   9
BRANCH   5  11
ATOM     11  C   UNL     1     132.625 134.220 150.009  1.00  0.00     0.062 C 
BRANCH  11  12
ATOM     12  C   UNL     1     132.300 135.542 150.649  1.00  0.00    -0.030 C 
ATOM     13  C   UNL     1     132.509 135.761 151.951  1.00  0.00     0.004 C 
ENDBRANCH  11  12
ENDBRANCH   5  11
TORSDOF 4
ENDMDL
MODEL 8
REMARK VINA RESULT:    -4.920      6.862      8.698
REMARK INTER + INTRA:          -6.128
REMARK INTER:                  -5.899
REMARK INTRA:                  -0.229
REMARK UNBOUND:                -0.201
REMARK SMILES C=CCc1ccc(O)c(OC)c1
REMARK SMILES IDX 9 1 7 2 6 3 5 4 4 5 12 6 10 7 11 8 8 9 3 11 2 12 1 13
REMARK H PARENT 8 10
REMARK Flexibility Score: inf
ROOT
ATOM      1  C   UNL     1     131.271 133.064 151.360  1.00  0.00     0.160 A 
ATOM      2  C   UNL     1     131.301 131.738 151.832  1.00  0.00     0.157 A 
ATOM      3  C   UNL     1     130.266 130.856 151.510  1.00  0.00     0.050 A 
ATOM      4  C   UNL     1     129.194 131.280 150.722  1.00  0.00     0.008 A 
ATOM      5  C   UNL     1     129.143 132.599 150.251  1.00  0.00    -0.040 A 
ATOM      6  C   UNL     1     130.185 133.486 150.565  1.00  0.00     0.054 A 
ENDROOT
BRANCH   1   7
ATOM      7  O   UNL     1     132.325 133.928 151.695  1.00  0.00    -0.493 OA
ATOM      8  C   UNL     1     132.748 135.032 150.903  1.00  0.00     0.278 C 
ENDBRANCH   1   7
BRANCH   2   9
ATOM      9  O   UNL     1     132.355 131.280 152.623  1.00  0.00    -0.504 OA
ATOM     10  H   UNL     1     132.559 130.295 152.732  1.00  0.00     0.293 HD
ENDBRANCH   2   9
BRANCH   5  11
ATOM     11  C   UNL     1     128.003 133.052 149.377  1.00  0.00     0.062 C 
BRANCH  11  12
ATOM     12  C   UNL     1     127.130 131.888 148.996  1.00  0.00    -0.030 C 
ATOM     13  C   UNL     1     126.828 131.625 147.721  1.00  0.00     0.004 C 
ENDBRANCH  11  12
ENDBRANCH   5  11
TORSDOF 4
ENDMDL
MODEL 9
REMARK VINA RESULT:    -4.892      7.139      8.389
REMARK INTER + INTRA:          -6.094
REMARK INTER:                  -5.875
REMARK INTRA:                  -0.219
REMARK UNBOUND:                -0.201
REMARK SMILES C=CCc1ccc(O)c(OC)c1
REMARK SMILES IDX 9 1 7 2 6 3 5 4 4 5 12 6 10 7 11 8 8 9 3 11 2 12 1 13
REMARK H PARENT 8 10
REMARK Flexibility Score: inf
ROOT
ATOM      1  C   UNL     1     132.264 134.471 150.263  1.00  0.00     0.160 A 
ATOM      2  C   UNL     1     132.833 133.704 149.230  1.00  0.00     0.157 A 
ATOM      3  C   UNL     1     132.061 132.753 148.557  1.00  0.00     0.050 A 
ATOM      4  C   UNL     1     130.723 132.554 148.903  1.00  0.00     0.008 A 
ATOM      5  C   UNL     1     130.142 133.303 149.936  1.00  0.00    -0.040 A 
ATOM      6  C   UNL     1     130.913 134.265 150.609  1.00  0.00     0.054 A 
ENDROOT
BRANCH   1   7
ATOM      7  O   UNL     1     133.061 135.423 150.920  1.00  0.00    -0.493 OA
ATOM      8  C   UNL     1     132.713 136.064 152.143  1.00  0.00     0.278 C 
ENDBRANCH   1   7
BRANCH   2   9
ATOM      9  O   UNL     1     134.166 133.875 148.858  1.00  0.00    -0.504 OA
ATOM     10  H   UNL     1     134.454 134.575 148.186  1.00  0.00     0.293 HD
ENDBRANCH   2   9
BRANCH   5  11
ATOM     11  C   UNL     1     128.692 133.110 150.293  1.00  0.00     0.062 C 
BRANCH  11  12
ATOM     12  C   UNL     1     128.252 131.704 149.995  1.00  0.00    -0.030 C 
ATOM     13  C   UNL     1     127.105 131.447 149.360  1.00  0.00     0.004 C 
ENDBRANCH  11  12
ENDBRANCH   5  11
TORSDOF 4
ENDMDL
