MODEL 1
REMARK VINA RESULT:    -4.099      0.000      0.000
REMARK INTER + INTRA:          -5.721
REMARK INTER:                  -5.297
REMARK INTRA:                  -0.424
REMARK UNBOUND:                -0.424
REMARK SMILES CCO[C@@H]1O[C@H](CO)[C@H](O)[C@@H](O)[C@@H]1O
REMARK SMILES IDX 4 1 13 2 11 3 9 4 6 5 5 6 3 7 2 8 1 9 14 10 12 12 7 14 8 15
REMARK SMILES IDX 10 17
REMARK H PARENT 14 11 12 13 8 16 10 18
REMARK Flexibility Score: inf
ROOT
ATOM      1  C   UNL     1      32.858  -5.820  -2.813  1.00  0.00     0.281 C 
ATOM      2  C   UNL     1      31.642  -5.076  -3.416  1.00  0.00     0.202 C 
ATOM      3  C   UNL     1      32.103  -3.842  -4.218  1.00  0.00     0.179 C 
ATOM      4  C   UNL     1      33.472  -4.084  -4.909  1.00  0.00     0.177 C 
ATOM      5  C   UNL     1      33.746  -5.603  -5.038  1.00  0.00     0.178 C 
ATOM      6  O   UNL     1      33.815  -6.263  -3.779  1.00  0.00    -0.341 OA
ENDROOT
BRANCH   1   7
ATOM      7  O   UNL     1      33.490  -4.977  -1.867  1.00  0.00    -0.350 OA
BRANCH   7   8
ATOM      8  C   UNL     1      34.549  -5.659  -1.227  1.00  0.00     0.160 C 
ATOM      9  C   UNL     1      34.800  -5.024   0.132  1.00  0.00     0.035 C 
ENDBRANCH   7   8
ENDBRANCH   1   7
BRANCH   2  10
ATOM     10  O   UNL     1      30.763  -4.671  -2.398  1.00  0.00    -0.385 OA
ATOM     11  H   UNL     1      29.854  -4.965  -2.668  1.00  0.00     0.211 HD
ENDBRANCH   2  10
BRANCH   3  12
ATOM     12  O   UNL     1      31.124  -3.534  -5.178  1.00  0.00    -0.387 OA
ATOM     13  H   UNL     1      30.353  -3.144  -4.689  1.00  0.00     0.211 HD
ENDBRANCH   3  12
BRANCH   5  14
ATOM     14  C   UNL     1      35.037  -5.884  -5.819  1.00  0.00     0.191 C 
BRANCH  14  15
ATOM     15  O   UNL     1      36.120  -6.040  -4.943  1.00  0.00    -0.394 OA
ATOM     16  H   UNL     1      36.888  -6.326  -5.502  1.00  0.00     0.210 HD
ENDBRANCH  14  15
ENDBRANCH   5  14
BRANCH   4  17
ATOM     17  O   UNL     1      34.498  -3.481  -4.162  1.00  0.00    -0.387 OA
ATOM     18  H   UNL     1      34.265  -2.519  -4.078  1.00  0.00     0.211 HD
ENDBRANCH   4  17
TORSDOF 7
ENDMDL
MODEL 2
REMARK VINA RESULT:    -4.085      1.515      4.032
REMARK INTER + INTRA:          -5.704
REMARK INTER:                  -5.472
REMARK INTRA:                  -0.231
REMARK UNBOUND:                -0.424
REMARK SMILES CCO[C@@H]1O[C@H](CO)[C@H](O)[C@@H](O)[C@@H]1O
REMARK SMILES IDX 4 1 13 2 11 3 9 4 6 5 5 6 3 7 2 8 1 9 14 10 12 12 7 14 8 15
REMARK SMILES IDX 10 17
REMARK H PARENT 14 11 12 13 8 16 10 18
REMARK Flexibility Score: inf
ROOT
ATOM      1  C   UNL     1      33.600  -6.003  -3.091  1.00  0.00     0.281 C 
ATOM      2  C   UNL     1      34.036  -5.501  -1.694  1.00  0.00     0.202 C 
ATOM      3  C   UNL     1      34.069  -3.959  -1.656  1.00  0.00     0.179 C 
ATOM      4  C   UNL     1      32.969  -3.338  -2.557  1.00  0.00     0.177 C 
ATOM      5  C   UNL     1      31.849  -4.374  -2.827  1.00  0.00     0.178 C 
ATOM      6  O   UNL     1      32.317  -5.530  -3.512  1.00  0.00    -0.341 OA
ENDROOT
BRANCH   1   7
ATOM      7  O   UNL     1      34.581  -5.630  -4.042  1.00  0.00    -0.350 OA
BRANCH   7   8
ATOM      8  C   UNL     1      34.174  -5.996  -5.343  1.00  0.00     0.160 C 
ATOM      9  C   UNL     1      35.295  -6.774  -6.015  1.00  0.00     0.035 C 
ENDBRANCH   7   8
ENDBRANCH   1   7
BRANCH   2  10
ATOM     10  O   UNL     1      35.306  -6.005  -1.368  1.00  0.00    -0.385 OA
ATOM     11  H   UNL     1      35.819  -5.255  -0.968  1.00  0.00     0.211 HD
ENDBRANCH   2  10
BRANCH   3  12
ATOM     12  O   UNL     1      33.903  -3.535  -0.326  1.00  0.00    -0.387 OA
ATOM     13  H   UNL     1      34.589  -4.007   0.214  1.00  0.00     0.211 HD
ENDBRANCH   3  12
BRANCH   5  14
ATOM     14  C   UNL     1      30.686  -3.762  -3.619  1.00  0.00     0.191 C 
BRANCH  14  15
ATOM     15  O   UNL     1      30.006  -4.752  -4.341  1.00  0.00    -0.394 OA
ATOM     16  H   UNL     1      29.131  -4.872  -3.888  1.00  0.00     0.210 HD
ENDBRANCH  14  15
ENDBRANCH   5  14
BRANCH   4  17
ATOM     17  O   UNL     1      33.528  -2.919  -3.776  1.00  0.00    -0.387 OA
ATOM     18  H   UNL     1      33.270  -3.596  -4.457  1.00  0.00     0.211 HD
ENDBRANCH   4  17
TORSDOF 7
ENDMDL
MODEL 3
REMARK VINA RESULT:    -4.029      1.656      3.889
REMARK INTER + INTRA:          -5.630
REMARK INTER:                  -5.123
REMARK INTRA:                  -0.507
REMARK UNBOUND:                -0.424
REMARK SMILES CCO[C@@H]1O[C@H](CO)[C@H](O)[C@@H](O)[C@@H]1O
REMARK SMILES IDX 4 1 13 2 11 3 9 4 6 5 5 6 3 7 2 8 1 9 14 10 12 12 7 14 8 15
REMARK SMILES IDX 10 17
REMARK H PARENT 14 11 12 13 8 16 10 18
REMARK Flexibility Score: inf
ROOT
ATOM      1  C   UNL     1      33.879  -3.127  -4.040  1.00  0.00     0.281 C 
ATOM      2  C   UNL     1      34.853  -4.081  -4.771  1.00  0.00     0.202 C 
ATOM      3  C   UNL     1      34.954  -5.429  -4.027  1.00  0.00     0.179 C 
ATOM      4  C   UNL     1      33.609  -5.818  -3.359  1.00  0.00     0.177 C 
ATOM      5  C   UNL     1      32.438  -5.052  -4.024  1.00  0.00     0.178 C 
ATOM      6  O   UNL     1      32.553  -3.640  -3.891  1.00  0.00    -0.341 OA
ENDROOT
BRANCH   1   7
ATOM      7  O   UNL     1      34.413  -2.809  -2.767  1.00  0.00    -0.350 OA
BRANCH   7   8
ATOM      8  C   UNL     1      33.481  -2.063  -2.012  1.00  0.00     0.160 C 
ATOM      9  C   UNL     1      33.825  -2.186  -0.536  1.00  0.00     0.035 C 
ENDBRANCH   7   8
ENDBRANCH   1   7
BRANCH   2  10
ATOM     10  O   UNL     1      36.129  -3.501  -4.863  1.00  0.00    -0.385 OA
ATOM     11  H   UNL     1      36.007  -2.520  -4.774  1.00  0.00     0.211 HD
ENDBRANCH   2  10
BRANCH   3  12
ATOM     12  O   UNL     1      35.347  -6.422  -4.941  1.00  0.00    -0.387 OA
ATOM     13  H   UNL     1      34.703  -7.171  -4.846  1.00  0.00     0.211 HD
ENDBRANCH   3  12
BRANCH   5  14
ATOM     14  C   UNL     1      31.078  -5.497  -3.469  1.00  0.00     0.191 C 
BRANCH  14  15
ATOM     15  O   UNL     1      30.757  -4.771  -2.314  1.00  0.00    -0.394 OA
ATOM     16  H   UNL     1      30.886  -3.815  -2.544  1.00  0.00     0.210 HD
ENDBRANCH  14  15
ENDBRANCH   5  14
BRANCH   4  17
ATOM     17  O   UNL     1      33.650  -5.517  -1.987  1.00  0.00    -0.387 OA
ATOM     18  H   UNL     1      34.275  -4.752  -1.880  1.00  0.00     0.211 HD
ENDBRANCH   4  17
TORSDOF 7
ENDMDL
MODEL 4
REMARK VINA RESULT:    -3.984     13.453     14.592
REMARK INTER + INTRA:          -5.572
REMARK INTER:                  -5.126
REMARK INTRA:                  -0.446
REMARK UNBOUND:                -0.424
REMARK SMILES CCO[C@@H]1O[C@H](CO)[C@H](O)[C@@H](O)[C@@H]1O
REMARK SMILES IDX 4 1 13 2 11 3 9 4 6 5 5 6 3 7 2 8 1 9 14 10 12 12 7 14 8 15
REMARK SMILES IDX 10 17
REMARK H PARENT 14 11 12 13 8 16 10 18
REMARK Flexibility Score: inf
ROOT
ATOM      1  C   UNL     1      34.356  -5.484  11.094  1.00  0.00     0.281 C 
ATOM      2  C   UNL     1      33.606  -4.233  10.577  1.00  0.00     0.202 C 
ATOM      3  C   UNL     1      32.396  -4.642   9.714  1.00  0.00     0.179 C 
ATOM      4  C   UNL     1      31.751  -5.961  10.216  1.00  0.00     0.177 C 
ATOM      5  C   UNL     1      32.146  -6.223  11.691  1.00  0.00     0.178 C 
ATOM      6  O   UNL     1      33.550  -6.374  11.871  1.00  0.00    -0.341 OA
ENDROOT
BRANCH   1   7
ATOM      7  O   UNL     1      34.906  -6.180   9.990  1.00  0.00    -0.350 OA
BRANCH   7   8
ATOM      8  C   UNL     1      36.181  -6.694  10.315  1.00  0.00     0.160 C 
ATOM      9  C   UNL     1      37.231  -5.627  10.046  1.00  0.00     0.035 C 
ENDBRANCH   7   8
ENDBRANCH   1   7
BRANCH   2  10
ATOM     10  O   UNL     1      34.470  -3.424   9.819  1.00  0.00    -0.385 OA
ATOM     11  H   UNL     1      34.627  -3.896   8.961  1.00  0.00     0.211 HD
ENDBRANCH   2  10
BRANCH   3  12
ATOM     12  O   UNL     1      31.451  -3.602   9.736  1.00  0.00    -0.387 OA
ATOM     13  H   UNL     1      30.601  -3.977   9.385  1.00  0.00     0.211 HD
ENDBRANCH   3  12
BRANCH   5  14
ATOM     14  C   UNL     1      31.435  -7.458  12.260  1.00  0.00     0.191 C 
BRANCH  14  15
ATOM     15  O   UNL     1      30.248  -7.711  11.558  1.00  0.00    -0.394 OA
ATOM     16  H   UNL     1      30.074  -8.683  11.651  1.00  0.00     0.210 HD
ENDBRANCH  14  15
ENDBRANCH   5  14
BRANCH   4  17
ATOM     17  O   UNL     1      32.174  -7.037   9.417  1.00  0.00    -0.387 OA
ATOM     18  H   UNL     1      33.092  -6.818   9.105  1.00  0.00     0.211 HD
ENDBRANCH   4  17
TORSDOF 7
ENDMDL
MODEL 5
REMARK VINA RESULT:    -3.945     16.108     17.414
REMARK INTER + INTRA:          -5.522
REMARK INTER:                  -5.207
REMARK INTRA:                  -0.315
REMARK UNBOUND:                -0.424
REMARK SMILES CCO[C@@H]1O[C@H](CO)[C@H](O)[C@@H](O)[C@@H]1O
REMARK SMILES IDX 4 1 13 2 11 3 9 4 6 5 5 6 3 7 2 8 1 9 14 10 12 12 7 14 8 15
REMARK SMILES IDX 10 17
REMARK H PARENT 14 11 12 13 8 16 10 18
REMARK Flexibility Score: inf
ROOT
ATOM      1  C   UNL     1      32.612  -9.402  14.022  1.00  0.00     0.281 C 
ATOM      2  C   UNL     1      31.671  -8.374  13.348  1.00  0.00     0.202 C 
ATOM      3  C   UNL     1      31.290  -8.835  11.927  1.00  0.00     0.179 C 
ATOM      4  C   UNL     1      31.186 -10.380  11.833  1.00  0.00     0.177 C 
ATOM      5  C   UNL     1      30.984 -10.991  13.242  1.00  0.00     0.178 C 
ATOM      6  O   UNL     1      32.066 -10.719  14.125  1.00  0.00    -0.341 OA
ENDROOT
BRANCH   1   7
ATOM      7  O   UNL     1      33.834  -9.446  13.306  1.00  0.00    -0.350 OA
BRANCH   7   8
ATOM      8  C   UNL     1      34.900  -9.005  14.121  1.00  0.00     0.160 C 
ATOM      9  C   UNL     1      35.667  -7.915  13.389  1.00  0.00     0.035 C 
ENDBRANCH   7   8
ENDBRANCH   1   7
BRANCH   2  10
ATOM     10  O   UNL     1      32.291  -7.114  13.281  1.00  0.00    -0.385 OA
ATOM     11  H   UNL     1      31.623  -6.448  13.590  1.00  0.00     0.211 HD
ENDBRANCH   2  10
BRANCH   3  12
ATOM     12  O   UNL     1      30.065  -8.244  11.572  1.00  0.00    -0.387 OA
ATOM     13  H   UNL     1      29.375  -8.955  11.631  1.00  0.00     0.211 HD
ENDBRANCH   3  12
BRANCH   5  14
ATOM     14  C   UNL     1      30.760 -12.508  13.179  1.00  0.00     0.191 C 
BRANCH  14  15
ATOM     15  O   UNL     1      30.047 -12.853  12.023  1.00  0.00    -0.394 OA
ATOM     16  H   UNL     1      30.074 -12.055  11.433  1.00  0.00     0.210 HD
ENDBRANCH  14  15
ENDBRANCH   5  14
BRANCH   4  17
ATOM     17  O   UNL     1      32.355 -10.906  11.255  1.00  0.00    -0.387 OA
ATOM     18  H   UNL     1      33.075 -10.238  11.408  1.00  0.00     0.211 HD
ENDBRANCH   4  17
TORSDOF 7
ENDMDL
MODEL 6
REMARK VINA RESULT:    -3.920      1.665      3.699
REMARK INTER + INTRA:          -5.490
REMARK INTER:                  -5.031
REMARK INTRA:                  -0.459
REMARK UNBOUND:                -0.424
REMARK SMILES CCO[C@@H]1O[C@H](CO)[C@H](O)[C@@H](O)[C@@H]1O
REMARK SMILES IDX 4 1 13 2 11 3 9 4 6 5 5 6 3 7 2 8 1 9 14 10 12 12 7 14 8 15
REMARK SMILES IDX 10 17
REMARK H PARENT 14 11 12 13 8 16 10 18
REMARK Flexibility Score: inf
ROOT
ATOM      1  C   UNL     1      33.650  -2.978  -2.756  1.00  0.00     0.281 C 
ATOM      2  C   UNL     1      34.326  -3.574  -1.498  1.00  0.00     0.202 C 
ATOM      3  C   UNL     1      34.174  -5.109  -1.476  1.00  0.00     0.179 C 
ATOM      4  C   UNL     1      34.196  -5.709  -2.907  1.00  0.00     0.177 C 
ATOM      5  C   UNL     1      34.859  -4.717  -3.895  1.00  0.00     0.178 C 
ATOM      6  O   UNL     1      34.160  -3.482  -3.993  1.00  0.00    -0.341 OA
ENDROOT
BRANCH   1   7
ATOM      7  O   UNL     1      32.255  -3.212  -2.684  1.00  0.00    -0.350 OA
BRANCH   7   8
ATOM      8  C   UNL     1      31.611  -2.721  -3.841  1.00  0.00     0.160 C 
ATOM      9  C   UNL     1      30.338  -3.519  -4.079  1.00  0.00     0.035 C 
ENDBRANCH   7   8
ENDBRANCH   1   7
BRANCH   2  10
ATOM     10  O   UNL     1      33.757  -3.031  -0.334  1.00  0.00    -0.385 OA
ATOM     11  H   UNL     1      33.327  -3.781   0.154  1.00  0.00     0.211 HD
ENDBRANCH   2  10
BRANCH   3  12
ATOM     12  O   UNL     1      35.215  -5.656  -0.706  1.00  0.00    -0.387 OA
ATOM     13  H   UNL     1      36.002  -5.741  -1.304  1.00  0.00     0.211 HD
ENDBRANCH   3  12
BRANCH   5  14
ATOM     14  C   UNL     1      35.003  -5.322  -5.298  1.00  0.00     0.191 C 
BRANCH  14  15
ATOM     15  O   UNL     1      35.257  -6.698  -5.217  1.00  0.00    -0.394 OA
ATOM     16  H   UNL     1      36.192  -6.825  -5.526  1.00  0.00     0.210 HD
ENDBRANCH  14  15
ENDBRANCH   5  14
BRANCH   4  17
ATOM     17  O   UNL     1      32.885  -5.989  -3.329  1.00  0.00    -0.387 OA
ATOM     18  H   UNL     1      32.399  -5.122  -3.349  1.00  0.00     0.211 HD
ENDBRANCH   4  17
TORSDOF 7
ENDMDL
MODEL 7
REMARK VINA RESULT:    -3.853      1.549      2.326
REMARK INTER + INTRA:          -5.404
REMARK INTER:                  -4.921
REMARK INTRA:                  -0.482
REMARK UNBOUND:                -0.424
REMARK SMILES CCO[C@@H]1O[C@H](CO)[C@H](O)[C@@H](O)[C@@H]1O
REMARK SMILES IDX 4 1 13 2 11 3 9 4 6 5 5 6 3 7 2 8 1 9 14 10 12 12 7 14 8 15
REMARK SMILES IDX 10 17
REMARK H PARENT 14 11 12 13 8 16 10 18
REMARK Flexibility Score: inf
ROOT
ATOM      1  C   UNL     1      33.089  -5.432  -3.517  1.00  0.00     0.281 C 
ATOM      2  C   UNL     1      31.658  -5.002  -3.918  1.00  0.00     0.202 C 
ATOM      3  C   UNL     1      31.322  -3.616  -3.331  1.00  0.00     0.179 C 
ATOM      4  C   UNL     1      32.574  -2.702  -3.264  1.00  0.00     0.177 C 
ATOM      5  C   UNL     1      33.663  -3.211  -4.241  1.00  0.00     0.178 C 
ATOM      6  O   UNL     1      34.114  -4.525  -3.933  1.00  0.00    -0.341 OA
ENDROOT
BRANCH   1   7
ATOM      7  O   UNL     1      33.144  -5.601  -2.112  1.00  0.00    -0.350 OA
BRANCH   7   8
ATOM      8  C   UNL     1      34.434  -6.012  -1.713  1.00  0.00     0.160 C 
ATOM      9  C   UNL     1      34.809  -5.294  -0.425  1.00  0.00     0.035 C 
ENDBRANCH   7   8
ENDBRANCH   1   7
BRANCH   2  10
ATOM     10  O   UNL     1      30.719  -5.944  -3.462  1.00  0.00    -0.385 OA
ATOM     11  H   UNL     1      30.507  -6.534  -4.230  1.00  0.00     0.211 HD
ENDBRANCH   2  10
BRANCH   3  12
ATOM     12  O   UNL     1      30.327  -3.018  -4.124  1.00  0.00    -0.387 OA
ATOM     13  H   UNL     1      30.380  -2.040  -3.963  1.00  0.00     0.211 HD
ENDBRANCH   3  12
BRANCH   5  14
ATOM     14  C   UNL     1      34.871  -2.267  -4.289  1.00  0.00     0.191 C 
BRANCH  14  15
ATOM     15  O   UNL     1      34.496  -0.967  -3.921  1.00  0.00    -0.394 OA
ATOM     16  H   UNL     1      33.509  -0.982  -3.822  1.00  0.00     0.210 HD
ENDBRANCH  14  15
ENDBRANCH   5  14
BRANCH   4  17
ATOM     17  O   UNL     1      33.086  -2.686  -1.955  1.00  0.00    -0.387 OA
ATOM     18  H   UNL     1      32.708  -3.478  -1.490  1.00  0.00     0.211 HD
ENDBRANCH   4  17
TORSDOF 7
ENDMDL
MODEL 8
REMARK VINA RESULT:    -3.734      1.582      3.695
REMARK INTER + INTRA:          -5.250
REMARK INTER:                  -4.800
REMARK INTRA:                  -0.450
REMARK UNBOUND:                -0.424
REMARK SMILES CCO[C@@H]1O[C@H](CO)[C@H](O)[C@@H](O)[C@@H]1O
REMARK SMILES IDX 4 1 13 2 11 3 9 4 6 5 5 6 3 7 2 8 1 9 14 10 12 12 7 14 8 15
REMARK SMILES IDX 10 17
REMARK H PARENT 14 11 12 13 8 16 10 18
REMARK Flexibility Score: inf
ROOT
ATOM      1  C   UNL     1      31.836  -3.824  -4.217  1.00  0.00     0.281 C 
ATOM      2  C   UNL     1      31.957  -4.371  -2.774  1.00  0.00     0.202 C 
ATOM      3  C   UNL     1      33.028  -5.478  -2.700  1.00  0.00     0.179 C 
ATOM      4  C   UNL     1      34.196  -5.215  -3.687  1.00  0.00     0.177 C 
ATOM      5  C   UNL     1      34.235  -3.718  -4.084  1.00  0.00     0.178 C 
ATOM      6  O   UNL     1      33.051  -3.288  -4.746  1.00  0.00    -0.341 OA
ENDROOT
BRANCH   1   7
ATOM      7  O   UNL     1      31.361  -4.857  -5.062  1.00  0.00    -0.350 OA
BRANCH   7   8
ATOM      8  C   UNL     1      30.493  -4.331  -6.044  1.00  0.00     0.160 C 
ATOM      9  C   UNL     1      29.353  -3.595  -5.358  1.00  0.00     0.035 C 
ENDBRANCH   7   8
ENDBRANCH   1   7
BRANCH   2  10
ATOM     10  O   UNL     1      30.723  -4.884  -2.340  1.00  0.00    -0.385 OA
ATOM     11  H   UNL     1      30.578  -5.736  -2.827  1.00  0.00     0.211 HD
ENDBRANCH   2  10
BRANCH   3  12
ATOM     12  O   UNL     1      33.514  -5.551  -1.383  1.00  0.00    -0.387 OA
ATOM     13  H   UNL     1      33.906  -6.456  -1.271  1.00  0.00     0.211 HD
ENDBRANCH   3  12
BRANCH   5  14
ATOM     14  C   UNL     1      35.447  -3.395  -4.969  1.00  0.00     0.191 C 
BRANCH  14  15
ATOM     15  O   UNL     1      36.341  -4.474  -4.992  1.00  0.00    -0.394 OA
ATOM     16  H   UNL     1      36.431  -4.738  -5.945  1.00  0.00     0.210 HD
ENDBRANCH  14  15
ENDBRANCH   5  14
BRANCH   4  17
ATOM     17  O   UNL     1      34.037  -6.004  -4.840  1.00  0.00    -0.387 OA
ATOM     18  H   UNL     1      33.961  -5.378  -5.607  1.00  0.00     0.211 HD
ENDBRANCH   4  17
TORSDOF 7
ENDMDL
MODEL 9
REMARK VINA RESULT:    -1.917     14.679     16.781
REMARK INTER + INTRA:          -2.902
REMARK INTER:                  -2.400
REMARK INTRA:                  -0.501
REMARK UNBOUND:                -0.424
REMARK SMILES CCO[C@@H]1O[C@H](CO)[C@H](O)[C@@H](O)[C@@H]1O
REMARK SMILES IDX 4 1 13 2 11 3 9 4 6 5 5 6 3 7 2 8 1 9 14 10 12 12 7 14 8 15
REMARK SMILES IDX 10 17
REMARK H PARENT 14 11 12 13 8 16 10 18
REMARK Flexibility Score: inf
ROOT
ATOM      1  C   UNL     1      33.185  -8.021  12.963  1.00  0.00     0.281 C 
ATOM      2  C   UNL     1      33.102  -6.922  11.876  1.00  0.00     0.202 C 
ATOM      3  C   UNL     1      31.870  -7.141  10.975  1.00  0.00     0.179 C 
ATOM      4  C   UNL     1      30.680  -7.748  11.765  1.00  0.00     0.177 C 
ATOM      5  C   UNL     1      30.859  -7.495  13.283  1.00  0.00     0.178 C 
ATOM      6  O   UNL     1      32.035  -8.097  13.811  1.00  0.00    -0.341 OA
ENDROOT
BRANCH   1   7
ATOM      7  O   UNL     1      33.401  -9.273  12.338  1.00  0.00    -0.350 OA
BRANCH   7   8
ATOM      8  C   UNL     1      33.370 -10.314  13.291  1.00  0.00     0.160 C 
ATOM      9  C   UNL     1      32.910 -11.595  12.614  1.00  0.00     0.035 C 
ENDBRANCH   7   8
ENDBRANCH   1   7
BRANCH   2  10
ATOM     10  O   UNL     1      34.265  -6.926  11.088  1.00  0.00    -0.385 OA
ATOM     11  H   UNL     1      34.830  -6.174  11.406  1.00  0.00     0.211 HD
ENDBRANCH   2  10
BRANCH   3  12
ATOM     12  O   UNL     1      31.498  -5.910  10.409  1.00  0.00    -0.387 OA
ATOM     13  H   UNL     1      31.547  -5.233  11.134  1.00  0.00     0.211 HD
ENDBRANCH   3  12
BRANCH   5  14
ATOM     14  C   UNL     1      29.646  -7.979  14.088  1.00  0.00     0.191 C 
BRANCH  14  15
ATOM     15  O   UNL     1      29.606  -9.379  14.125  1.00  0.00    -0.394 OA
ATOM     16  H   UNL     1      29.951  -9.688  13.248  1.00  0.00     0.210 HD
ENDBRANCH  14  15
ENDBRANCH   5  14
BRANCH   4  17
ATOM     17  O   UNL     1      30.600  -9.131  11.525  1.00  0.00    -0.387 OA
ATOM     18  H   UNL     1      30.563  -9.248  10.539  1.00  0.00     0.211 HD
ENDBRANCH   4  17
TORSDOF 7
ENDMDL
