MODEL 1
REMARK VINA RESULT:    -6.170      0.000      0.000
REMARK INTER + INTRA:          -6.170
REMARK INTER:                  -6.170
REMARK INTRA:                   0.000
REMARK UNBOUND:                 0.000
REMARK SMILES CC(C)=C1CC[C@H](C)CC1=O
REMARK SMILES IDX 8 1 7 2 6 3 5 4 4 5 2 6 1 7 3 8 10 9 11 10 9 11
REMARK H PARENT
REMARK Flexibility Score: inf
ROOT
ATOM      1  C   UNL     1     -14.801 -30.744  28.364  1.00  0.00     0.008 C 
ATOM      2  C   UNL     1     -14.010 -31.980  28.803  1.00  0.00    -0.006 C 
ATOM      3  C   UNL     1     -14.479 -32.461  30.185  1.00  0.00     0.008 C 
ATOM      4  C   UNL     1     -13.629 -33.637  30.684  1.00  0.00     0.039 C 
ATOM      5  C   UNL     1     -13.542 -34.768  29.670  1.00  0.00    -0.006 C 
ATOM      6  C   UNL     1     -13.432 -36.070  30.066  1.00  0.00    -0.070 C 
ATOM      7  C   UNL     1     -13.401 -37.207  29.069  1.00  0.00     0.039 C 
ATOM      8  C   UNL     1     -13.371 -36.441  31.530  1.00  0.00     0.039 C 
ATOM      9  C   UNL     1     -13.470 -34.359  28.235  1.00  0.00     0.159 C 
ATOM     10  O   UNL     1     -12.828 -35.040  27.392  1.00  0.00    -0.295 OA
ATOM     11  C   UNL     1     -14.163 -33.110  27.773  1.00  0.00     0.084 C 
ENDROOT
TORSDOF 0
ENDMDL
MODEL 2
REMARK VINA RESULT:    -5.871      1.784      3.051
REMARK INTER + INTRA:          -5.871
REMARK INTER:                  -5.871
REMARK INTRA:                   0.000
REMARK UNBOUND:                 0.000
REMARK SMILES CC(C)=C1CC[C@H](C)CC1=O
REMARK SMILES IDX 8 1 7 2 6 3 5 4 4 5 2 6 1 7 3 8 10 9 11 10 9 11
REMARK H PARENT
REMARK Flexibility Score: inf
ROOT
ATOM      1  C   UNL     1     -14.930 -31.918  33.229  1.00  0.00     0.008 C 
ATOM      2  C   UNL     1     -14.191 -32.483  32.012  1.00  0.00    -0.006 C 
ATOM      3  C   UNL     1     -14.301 -34.015  31.977  1.00  0.00     0.008 C 
ATOM      4  C   UNL     1     -13.481 -34.606  30.821  1.00  0.00     0.039 C 
ATOM      5  C   UNL     1     -13.814 -33.965  29.481  1.00  0.00    -0.006 C 
ATOM      6  C   UNL     1     -13.743 -34.675  28.317  1.00  0.00    -0.070 C 
ATOM      7  C   UNL     1     -14.124 -34.066  26.987  1.00  0.00     0.039 C 
ATOM      8  C   UNL     1     -13.312 -36.124  28.308  1.00  0.00     0.039 C 
ATOM      9  C   UNL     1     -14.106 -32.500  29.509  1.00  0.00     0.159 C 
ATOM     10  O   UNL     1     -13.811 -31.755  28.537  1.00  0.00    -0.295 OA
ATOM     11  C   UNL     1     -14.757 -31.885  30.714  1.00  0.00     0.084 C 
ENDROOT
TORSDOF 0
ENDMDL
MODEL 3
REMARK VINA RESULT:    -5.845      2.256      3.689
REMARK INTER + INTRA:          -5.845
REMARK INTER:                  -5.845
REMARK INTRA:                   0.000
REMARK UNBOUND:                 0.000
REMARK SMILES CC(C)=C1CC[C@H](C)CC1=O
REMARK SMILES IDX 8 1 7 2 6 3 5 4 4 5 2 6 1 7 3 8 10 9 11 10 9 11
REMARK H PARENT
REMARK Flexibility Score: inf
ROOT
ATOM      1  C   UNL     1     -11.359 -34.578  25.781  1.00  0.00     0.008 C 
ATOM      2  C   UNL     1     -11.625 -33.825  27.089  1.00  0.00    -0.006 C 
ATOM      3  C   UNL     1     -13.102 -33.409  27.182  1.00  0.00     0.008 C 
ATOM      4  C   UNL     1     -13.365 -32.566  28.438  1.00  0.00     0.039 C 
ATOM      5  C   UNL     1     -12.866 -33.239  29.708  1.00  0.00    -0.006 C 
ATOM      6  C   UNL     1     -13.498 -33.055  30.904  1.00  0.00    -0.070 C 
ATOM      7  C   UNL     1     -13.046 -33.763  32.162  1.00  0.00     0.039 C 
ATOM      8  C   UNL     1     -14.710 -32.160  31.020  1.00  0.00     0.039 C 
ATOM      9  C   UNL     1     -11.591 -34.009  29.587  1.00  0.00     0.159 C 
ATOM     10  O   UNL     1     -10.782 -34.091  30.548  1.00  0.00    -0.295 OA
ATOM     11  C   UNL     1     -11.248 -34.697  28.297  1.00  0.00     0.084 C 
ENDROOT
TORSDOF 0
ENDMDL
MODEL 4
REMARK VINA RESULT:    -5.774      1.723      4.484
REMARK INTER + INTRA:          -5.774
REMARK INTER:                  -5.774
REMARK INTRA:                   0.000
REMARK UNBOUND:                 0.000
REMARK SMILES CC(C)=C1CC[C@H](C)CC1=O
REMARK SMILES IDX 8 1 7 2 6 3 5 4 4 5 2 6 1 7 3 8 10 9 11 10 9 11
REMARK H PARENT
REMARK Flexibility Score: inf
ROOT
ATOM      1  C   UNL     1     -13.279 -37.643  28.757  1.00  0.00     0.008 C 
ATOM      2  C   UNL     1     -13.155 -36.165  29.141  1.00  0.00    -0.006 C 
ATOM      3  C   UNL     1     -14.060 -35.297  28.252  1.00  0.00     0.008 C 
ATOM      4  C   UNL     1     -13.873 -33.804  28.554  1.00  0.00     0.039 C 
ATOM      5  C   UNL     1     -14.025 -33.483  30.034  1.00  0.00    -0.006 C 
ATOM      6  C   UNL     1     -14.526 -32.284  30.452  1.00  0.00    -0.070 C 
ATOM      7  C   UNL     1     -14.735 -31.975  31.918  1.00  0.00     0.039 C 
ATOM      8  C   UNL     1     -14.932 -31.216  29.463  1.00  0.00     0.039 C 
ATOM      9  C   UNL     1     -13.492 -34.504  30.986  1.00  0.00     0.159 C 
ATOM     10  O   UNL     1     -13.008 -34.171  32.100  1.00  0.00    -0.295 OA
ATOM     11  C   UNL     1     -13.518 -35.960  30.620  1.00  0.00     0.084 C 
ENDROOT
TORSDOF 0
ENDMDL
MODEL 5
REMARK VINA RESULT:    -5.755      1.566      4.663
REMARK INTER + INTRA:          -5.755
REMARK INTER:                  -5.755
REMARK INTRA:                   0.000
REMARK UNBOUND:                 0.000
REMARK SMILES CC(C)=C1CC[C@H](C)CC1=O
REMARK SMILES IDX 8 1 7 2 6 3 5 4 4 5 2 6 1 7 3 8 10 9 11 10 9 11
REMARK H PARENT
REMARK Flexibility Score: inf
ROOT
ATOM      1  C   UNL     1     -12.615 -37.968  31.388  1.00  0.00     0.008 C 
ATOM      2  C   UNL     1     -12.464 -36.700  30.542  1.00  0.00    -0.006 C 
ATOM      3  C   UNL     1     -13.111 -36.890  29.161  1.00  0.00     0.008 C 
ATOM      4  C   UNL     1     -12.880 -35.666  28.264  1.00  0.00     0.039 C 
ATOM      5  C   UNL     1     -13.300 -34.364  28.932  1.00  0.00    -0.006 C 
ATOM      6  C   UNL     1     -13.786 -33.318  28.203  1.00  0.00    -0.070 C 
ATOM      7  C   UNL     1     -14.259 -32.041  28.860  1.00  0.00     0.039 C 
ATOM      8  C   UNL     1     -13.910 -33.400  26.699  1.00  0.00     0.039 C 
ATOM      9  C   UNL     1     -13.040 -34.266  30.399  1.00  0.00     0.159 C 
ATOM     10  O   UNL     1     -12.764 -33.164  30.943  1.00  0.00    -0.295 OA
ATOM     11  C   UNL     1     -13.098 -35.497  31.258  1.00  0.00     0.084 C 
ENDROOT
TORSDOF 0
ENDMDL
MODEL 6
REMARK VINA RESULT:    -5.634      1.052      4.006
REMARK INTER + INTRA:          -5.634
REMARK INTER:                  -5.634
REMARK INTRA:                   0.000
REMARK UNBOUND:                 0.000
REMARK SMILES CC(C)=C1CC[C@H](C)CC1=O
REMARK SMILES IDX 8 1 7 2 6 3 5 4 4 5 2 6 1 7 3 8 10 9 11 10 9 11
REMARK H PARENT
REMARK Flexibility Score: inf
ROOT
ATOM      1  C   UNL     1     -12.125 -36.675  31.750  1.00  0.00     0.008 C 
ATOM      2  C   UNL     1     -13.118 -35.788  30.993  1.00  0.00    -0.006 C 
ATOM      3  C   UNL     1     -12.943 -34.315  31.395  1.00  0.00     0.008 C 
ATOM      4  C   UNL     1     -13.997 -33.425  30.723  1.00  0.00     0.039 C 
ATOM      5  C   UNL     1     -14.048 -33.616  29.214  1.00  0.00    -0.006 C 
ATOM      6  C   UNL     1     -14.375 -32.587  28.378  1.00  0.00    -0.070 C 
ATOM      7  C   UNL     1     -14.374 -32.750  26.875  1.00  0.00     0.039 C 
ATOM      8  C   UNL     1     -14.720 -31.218  28.918  1.00  0.00     0.039 C 
ATOM      9  C   UNL     1     -13.833 -35.010  28.722  1.00  0.00     0.159 C 
ATOM     10  O   UNL     1     -14.402 -35.431  27.680  1.00  0.00    -0.295 OA
ATOM     11  C   UNL     1     -12.931 -35.944  29.476  1.00  0.00     0.084 C 
ENDROOT
TORSDOF 0
ENDMDL
MODEL 7
REMARK VINA RESULT:    -5.630      2.234      2.958
REMARK INTER + INTRA:          -5.630
REMARK INTER:                  -5.630
REMARK INTRA:                   0.000
REMARK UNBOUND:                 0.000
REMARK SMILES CC(C)=C1CC[C@H](C)CC1=O
REMARK SMILES IDX 8 1 7 2 6 3 5 4 4 5 2 6 1 7 3 8 10 9 11 10 9 11
REMARK H PARENT
REMARK Flexibility Score: inf
ROOT
ATOM      1  C   UNL     1     -15.915 -29.989  29.074  1.00  0.00     0.008 C 
ATOM      2  C   UNL     1     -15.249 -31.364  29.192  1.00  0.00    -0.006 C 
ATOM      3  C   UNL     1     -14.019 -31.451  28.274  1.00  0.00     0.008 C 
ATOM      4  C   UNL     1     -13.400 -32.854  28.303  1.00  0.00     0.039 C 
ATOM      5  C   UNL     1     -13.109 -33.336  29.718  1.00  0.00    -0.006 C 
ATOM      6  C   UNL     1     -12.057 -34.164  29.983  1.00  0.00    -0.070 C 
ATOM      7  C   UNL     1     -11.724 -34.604  31.391  1.00  0.00     0.039 C 
ATOM      8  C   UNL     1     -11.147 -34.654  28.880  1.00  0.00     0.039 C 
ATOM      9  C   UNL     1     -14.102 -32.943  30.762  1.00  0.00     0.159 C 
ATOM     10  O   UNL     1     -14.346 -33.690  31.747  1.00  0.00    -0.295 OA
ATOM     11  C   UNL     1     -14.840 -31.640  30.647  1.00  0.00     0.084 C 
ENDROOT
TORSDOF 0
ENDMDL
MODEL 8
REMARK VINA RESULT:    -5.620      2.404      3.600
REMARK INTER + INTRA:          -5.620
REMARK INTER:                  -5.620
REMARK INTRA:                   0.000
REMARK UNBOUND:                 0.000
REMARK SMILES CC(C)=C1CC[C@H](C)CC1=O
REMARK SMILES IDX 8 1 7 2 6 3 5 4 4 5 2 6 1 7 3 8 10 9 11 10 9 11
REMARK H PARENT
REMARK Flexibility Score: inf
ROOT
ATOM      1  C   UNL     1     -15.038 -32.166  32.876  1.00  0.00     0.008 C 
ATOM      2  C   UNL     1     -14.358 -33.047  31.824  1.00  0.00    -0.006 C 
ATOM      3  C   UNL     1     -14.384 -32.364  30.447  1.00  0.00     0.008 C 
ATOM      4  C   UNL     1     -13.798 -33.276  29.361  1.00  0.00     0.039 C 
ATOM      5  C   UNL     1     -12.418 -33.806  29.724  1.00  0.00    -0.006 C 
ATOM      6  C   UNL     1     -11.480 -34.059  28.766  1.00  0.00    -0.070 C 
ATOM      7  C   UNL     1     -10.087 -34.532  29.118  1.00  0.00     0.039 C 
ATOM      8  C   UNL     1     -11.779 -33.843  27.300  1.00  0.00     0.039 C 
ATOM      9  C   UNL     1     -12.200 -34.135  31.165  1.00  0.00     0.159 C 
ATOM     10  O   UNL     1     -11.432 -35.072  31.513  1.00  0.00    -0.295 OA
ATOM     11  C   UNL     1     -12.908 -33.351  32.232  1.00  0.00     0.084 C 
ENDROOT
TORSDOF 0
ENDMDL
MODEL 9
REMARK VINA RESULT:    -5.428      1.595      2.452
REMARK INTER + INTRA:          -5.428
REMARK INTER:                  -5.428
REMARK INTRA:                   0.000
REMARK UNBOUND:                 0.000
REMARK SMILES CC(C)=C1CC[C@H](C)CC1=O
REMARK SMILES IDX 8 1 7 2 6 3 5 4 4 5 2 6 1 7 3 8 10 9 11 10 9 11
REMARK H PARENT
REMARK Flexibility Score: inf
ROOT
ATOM      1  C   UNL     1     -14.127 -31.348  28.324  1.00  0.00     0.008 C 
ATOM      2  C   UNL     1     -14.372 -32.783  28.802  1.00  0.00    -0.006 C 
ATOM      3  C   UNL     1     -14.022 -33.790  27.694  1.00  0.00     0.008 C 
ATOM      4  C   UNL     1     -14.357 -35.226  28.120  1.00  0.00     0.039 C 
ATOM      5  C   UNL     1     -13.742 -35.596  29.462  1.00  0.00    -0.006 C 
ATOM      6  C   UNL     1     -13.352 -36.875  29.735  1.00  0.00    -0.070 C 
ATOM      7  C   UNL     1     -12.688 -37.245  31.043  1.00  0.00     0.039 C 
ATOM      8  C   UNL     1     -13.532 -37.983  28.722  1.00  0.00     0.039 C 
ATOM      9  C   UNL     1     -13.700 -34.510  30.487  1.00  0.00     0.159 C 
ATOM     10  O   UNL     1     -13.802 -34.767  31.717  1.00  0.00    -0.295 OA
ATOM     11  C   UNL     1     -13.543 -33.079  30.062  1.00  0.00     0.084 C 
ENDROOT
TORSDOF 0
ENDMDL
