MODEL 1
REMARK VINA RESULT:    -3.860      0.000      0.000
REMARK INTER + INTRA:          -5.018
REMARK INTER:                  -4.762
REMARK INTRA:                  -0.256
REMARK UNBOUND:                -0.256
REMARK SMILES C=CCc1ccc(OC)c(OC)c1
REMARK SMILES IDX 7 1 10 2 13 3 4 4 5 5 6 6 8 7 9 8 11 9 12 10 3 11 2 12 1 13
REMARK H PARENT
REMARK Flexibility Score: inf
ROOT
ATOM      1  C   UNL     1      18.940   9.466  37.862  1.00  0.00     0.160 A 
ATOM      2  C   UNL     1      18.950  10.851  38.090  1.00  0.00     0.160 A 
ATOM      3  C   UNL     1      19.070  11.339  39.406  1.00  0.00     0.054 A 
ATOM      4  C   UNL     1      19.184  10.454  40.488  1.00  0.00    -0.040 A 
ATOM      5  C   UNL     1      19.163   9.072  40.252  1.00  0.00     0.008 A 
ATOM      6  C   UNL     1      19.046   8.580  38.952  1.00  0.00     0.051 A 
ENDROOT
BRANCH   1   7
ATOM      7  O   UNL     1      18.821   9.008  36.540  1.00  0.00    -0.493 OA
ATOM      8  C   UNL     1      19.279   7.741  36.081  1.00  0.00     0.278 C 
ENDBRANCH   1   7
BRANCH   2   9
ATOM      9  O   UNL     1      18.838  11.709  36.985  1.00  0.00    -0.493 OA
ATOM     10  C   UNL     1      19.936  12.360  36.353  1.00  0.00     0.278 C 
ENDBRANCH   2   9
BRANCH   4  11
ATOM     11  C   UNL     1      19.281  10.985  41.894  1.00  0.00     0.062 C 
BRANCH  11  12
ATOM     12  C   UNL     1      18.868  12.428  41.949  1.00  0.00    -0.030 C 
ATOM     13  C   UNL     1      18.095  12.901  42.931  1.00  0.00     0.004 C 
ENDBRANCH  11  12
ENDBRANCH   4  11
TORSDOF 4
ENDMDL
MODEL 2
REMARK VINA RESULT:    -3.783      1.355      2.811
REMARK INTER + INTRA:          -4.923
REMARK INTER:                  -4.686
REMARK INTRA:                  -0.236
REMARK UNBOUND:                -0.256
REMARK SMILES C=CCc1ccc(OC)c(OC)c1
REMARK SMILES IDX 7 1 10 2 13 3 4 4 5 5 6 6 8 7 9 8 11 9 12 10 3 11 2 12 1 13
REMARK H PARENT
REMARK Flexibility Score: inf
ROOT
ATOM      1  C   UNL     1      18.858   9.380  38.098  1.00  0.00     0.160 A 
ATOM      2  C   UNL     1      19.219   9.157  39.436  1.00  0.00     0.160 A 
ATOM      3  C   UNL     1      19.296  10.245  40.327  1.00  0.00     0.054 A 
ATOM      4  C   UNL     1      19.011  11.547  39.890  1.00  0.00    -0.040 A 
ATOM      5  C   UNL     1      18.662  11.762  38.550  1.00  0.00     0.008 A 
ATOM      6  C   UNL     1      18.582  10.690  37.661  1.00  0.00     0.051 A 
ENDROOT
BRANCH   1   7
ATOM      7  O   UNL     1      18.787   8.277  37.233  1.00  0.00    -0.493 OA
ATOM      8  C   UNL     1      19.057   8.327  35.836  1.00  0.00     0.278 C 
ENDBRANCH   1   7
BRANCH   2   9
ATOM      9  O   UNL     1      19.493   7.841  39.841  1.00  0.00    -0.493 OA
ATOM     10  C   UNL     1      19.514   7.402  41.195  1.00  0.00     0.278 C 
ENDBRANCH   2   9
BRANCH   4  11
ATOM     11  C   UNL     1      19.126  12.708  40.843  1.00  0.00     0.062 C 
BRANCH  11  12
ATOM     12  C   UNL     1      18.798  12.281  42.245  1.00  0.00    -0.030 C 
ATOM     13  C   UNL     1      18.020  13.020  43.042  1.00  0.00     0.004 C 
ENDBRANCH  11  12
ENDBRANCH   4  11
TORSDOF 4
ENDMDL
MODEL 3
REMARK VINA RESULT:    -3.762      8.407     10.924
REMARK INTER + INTRA:          -4.897
REMARK INTER:                  -4.622
REMARK INTRA:                  -0.275
REMARK UNBOUND:                -0.256
REMARK SMILES C=CCc1ccc(OC)c(OC)c1
REMARK SMILES IDX 7 1 10 2 13 3 4 4 5 5 6 6 8 7 9 8 11 9 12 10 3 11 2 12 1 13
REMARK H PARENT
REMARK Flexibility Score: inf
ROOT
ATOM      1  C   UNL     1      21.267  12.373  27.481  1.00  0.00     0.160 A 
ATOM      2  C   UNL     1      22.382  11.652  27.937  1.00  0.00     0.160 A 
ATOM      3  C   UNL     1      22.304  10.944  29.152  1.00  0.00     0.054 A 
ATOM      4  C   UNL     1      21.121  10.948  29.906  1.00  0.00    -0.040 A 
ATOM      5  C   UNL     1      20.016  11.679  29.449  1.00  0.00     0.008 A 
ATOM      6  C   UNL     1      20.085  12.383  28.246  1.00  0.00     0.051 A 
ENDROOT
BRANCH   1   7
ATOM      7  O   UNL     1      21.374  13.069  26.266  1.00  0.00    -0.493 OA
ATOM      8  C   UNL     1      20.972  12.552  25.003  1.00  0.00     0.278 C 
ENDBRANCH   1   7
BRANCH   2   9
ATOM      9  O   UNL     1      23.549  11.665  27.157  1.00  0.00    -0.493 OA
ATOM     10  C   UNL     1      24.839  12.023  27.639  1.00  0.00     0.278 C 
ENDBRANCH   2   9
BRANCH   4  11
ATOM     11  C   UNL     1      21.057  10.212  31.218  1.00  0.00     0.062 C 
BRANCH  11  12
ATOM     12  C   UNL     1      19.661  10.233  31.774  1.00  0.00    -0.030 C 
ATOM     13  C   UNL     1      19.427  10.362  33.083  1.00  0.00     0.004 C 
ENDBRANCH  11  12
ENDBRANCH   4  11
TORSDOF 4
ENDMDL
MODEL 4
REMARK VINA RESULT:    -3.759      2.172      4.375
REMARK INTER + INTRA:          -4.893
REMARK INTER:                  -4.557
REMARK INTRA:                  -0.337
REMARK UNBOUND:                -0.256
REMARK SMILES C=CCc1ccc(OC)c(OC)c1
REMARK SMILES IDX 7 1 10 2 13 3 4 4 5 5 6 6 8 7 9 8 11 9 12 10 3 11 2 12 1 13
REMARK H PARENT
REMARK Flexibility Score: inf
ROOT
ATOM      1  C   UNL     1      19.145   8.722  39.892  1.00  0.00     0.160 A 
ATOM      2  C   UNL     1      19.350  10.046  40.312  1.00  0.00     0.160 A 
ATOM      3  C   UNL     1      19.163  11.103  39.400  1.00  0.00     0.054 A 
ATOM      4  C   UNL     1      18.768  10.845  38.079  1.00  0.00    -0.040 A 
ATOM      5  C   UNL     1      18.575   9.520  37.665  1.00  0.00     0.008 A 
ATOM      6  C   UNL     1      18.758   8.467  38.562  1.00  0.00     0.051 A 
ENDROOT
BRANCH   1   7
ATOM      7  O   UNL     1      19.338   7.689  40.822  1.00  0.00    -0.493 OA
ATOM      8  C   UNL     1      20.531   6.923  40.942  1.00  0.00     0.278 C 
ENDBRANCH   1   7
BRANCH   2   9
ATOM      9  O   UNL     1      19.740  10.269  41.642  1.00  0.00    -0.493 OA
ATOM     10  C   UNL     1      18.893  10.805  42.653  1.00  0.00     0.278 C 
ENDBRANCH   2   9
BRANCH   4  11
ATOM     11  C   UNL     1      18.599  11.980  37.104  1.00  0.00     0.062 C 
BRANCH  11  12
ATOM     12  C   UNL     1      19.705  11.977  36.087  1.00  0.00    -0.030 C 
ATOM     13  C   UNL     1      20.960  12.300  36.411  1.00  0.00     0.004 C 
ENDBRANCH  11  12
ENDBRANCH   4  11
TORSDOF 4
ENDMDL
MODEL 5
REMARK VINA RESULT:    -3.743      2.359      6.028
REMARK INTER + INTRA:          -4.874
REMARK INTER:                  -4.593
REMARK INTRA:                  -0.281
REMARK UNBOUND:                -0.256
REMARK SMILES C=CCc1ccc(OC)c(OC)c1
REMARK SMILES IDX 7 1 10 2 13 3 4 4 5 5 6 6 8 7 9 8 11 9 12 10 3 11 2 12 1 13
REMARK H PARENT
REMARK Flexibility Score: inf
ROOT
ATOM      1  C   UNL     1      19.045  11.201  37.530  1.00  0.00     0.160 A 
ATOM      2  C   UNL     1      18.904   9.862  37.131  1.00  0.00     0.160 A 
ATOM      3  C   UNL     1      19.261   9.485  35.822  1.00  0.00     0.054 A 
ATOM      4  C   UNL     1      19.761  10.432  34.917  1.00  0.00    -0.040 A 
ATOM      5  C   UNL     1      19.889  11.769  35.320  1.00  0.00     0.008 A 
ATOM      6  C   UNL     1      19.538  12.151  36.615  1.00  0.00     0.051 A 
ENDROOT
BRANCH   1   7
ATOM      7  O   UNL     1      18.683  11.548  38.841  1.00  0.00    -0.493 OA
ATOM      8  C   UNL     1      19.603  11.916  39.862  1.00  0.00     0.278 C 
ENDBRANCH   1   7
BRANCH   2   9
ATOM      9  O   UNL     1      18.405   8.939  38.063  1.00  0.00    -0.493 OA
ATOM     10  C   UNL     1      19.199   8.256  39.027  1.00  0.00     0.278 C 
ENDBRANCH   2   9
BRANCH   4  11
ATOM     11  C   UNL     1      20.112  10.025  33.510  1.00  0.00     0.062 C 
BRANCH  11  12
ATOM     12  C   UNL     1      18.871   9.837  32.685  1.00  0.00    -0.030 C 
ATOM     13  C   UNL     1      18.435  10.782  31.846  1.00  0.00     0.004 C 
ENDBRANCH  11  12
ENDBRANCH   4  11
TORSDOF 4
ENDMDL
MODEL 6
REMARK VINA RESULT:    -3.739      1.326      2.720
REMARK INTER + INTRA:          -4.868
REMARK INTER:                  -4.604
REMARK INTRA:                  -0.265
REMARK UNBOUND:                -0.256
REMARK SMILES C=CCc1ccc(OC)c(OC)c1
REMARK SMILES IDX 7 1 10 2 13 3 4 4 5 5 6 6 8 7 9 8 11 9 12 10 3 11 2 12 1 13
REMARK H PARENT
REMARK Flexibility Score: inf
ROOT
ATOM      1  C   UNL     1      19.256  10.049  36.577  1.00  0.00     0.160 A 
ATOM      2  C   UNL     1      19.301   8.973  37.479  1.00  0.00     0.160 A 
ATOM      3  C   UNL     1      19.255   9.225  38.864  1.00  0.00     0.054 A 
ATOM      4  C   UNL     1      19.160  10.537  39.349  1.00  0.00    -0.040 A 
ATOM      5  C   UNL     1      19.126  11.605  38.442  1.00  0.00     0.008 A 
ATOM      6  C   UNL     1      19.170  11.366  37.069  1.00  0.00     0.051 A 
ENDROOT
BRANCH   1   7
ATOM      7  O   UNL     1      19.302   9.769  35.202  1.00  0.00    -0.493 OA
ATOM      8  C   UNL     1      20.084  10.492  34.257  1.00  0.00     0.278 C 
ENDBRANCH   1   7
BRANCH   2   9
ATOM      9  O   UNL     1      19.392   7.673  36.960  1.00  0.00    -0.493 OA
ATOM     10  C   UNL     1      20.611   6.962  36.772  1.00  0.00     0.278 C 
ENDBRANCH   2   9
BRANCH   4  11
ATOM     11  C   UNL     1      19.142  10.797  40.832  1.00  0.00     0.062 C 
BRANCH  11  12
ATOM     12  C   UNL     1      18.765  12.223  41.120  1.00  0.00    -0.030 C 
ATOM     13  C   UNL     1      18.407  12.623  42.343  1.00  0.00     0.004 C 
ENDBRANCH  11  12
ENDBRANCH   4  11
TORSDOF 4
ENDMDL
MODEL 7
REMARK VINA RESULT:    -3.732      1.416      3.684
REMARK INTER + INTRA:          -4.860
REMARK INTER:                  -4.558
REMARK INTRA:                  -0.301
REMARK UNBOUND:                -0.256
REMARK SMILES C=CCc1ccc(OC)c(OC)c1
REMARK SMILES IDX 7 1 10 2 13 3 4 4 5 5 6 6 8 7 9 8 11 9 12 10 3 11 2 12 1 13
REMARK H PARENT
REMARK Flexibility Score: inf
ROOT
ATOM      1  C   UNL     1      18.915  10.826  38.228  1.00  0.00     0.160 A 
ATOM      2  C   UNL     1      18.752   9.473  37.888  1.00  0.00     0.160 A 
ATOM      3  C   UNL     1      18.908   8.483  38.878  1.00  0.00     0.054 A 
ATOM      4  C   UNL     1      19.217   8.837  40.199  1.00  0.00    -0.040 A 
ATOM      5  C   UNL     1      19.388  10.189  40.528  1.00  0.00     0.008 A 
ATOM      6  C   UNL     1      19.234  11.176  39.554  1.00  0.00     0.051 A 
ENDROOT
BRANCH   1   7
ATOM      7  O   UNL     1      18.752  11.791  37.222  1.00  0.00    -0.493 OA
ATOM      8  C   UNL     1      19.808  12.299  36.413  1.00  0.00     0.278 C 
ENDBRANCH   1   7
BRANCH   2   9
ATOM      9  O   UNL     1      18.439   9.154  36.558  1.00  0.00    -0.493 OA
ATOM     10  C   UNL     1      19.339   8.540  35.641  1.00  0.00     0.278 C 
ENDBRANCH   2   9
BRANCH   4  11
ATOM     11  C   UNL     1      19.411   7.769  41.243  1.00  0.00     0.062 C 
BRANCH  11  12
ATOM     12  C   UNL     1      20.847   7.332  41.298  1.00  0.00    -0.030 C 
ATOM     13  C   UNL     1      21.218   6.093  40.961  1.00  0.00     0.004 C 
ENDBRANCH  11  12
ENDBRANCH   4  11
TORSDOF 4
ENDMDL
MODEL 8
REMARK VINA RESULT:    -3.664      2.339      5.324
REMARK INTER + INTRA:          -4.776
REMARK INTER:                  -4.491
REMARK INTRA:                  -0.285
REMARK UNBOUND:                -0.256
REMARK SMILES C=CCc1ccc(OC)c(OC)c1
REMARK SMILES IDX 7 1 10 2 13 3 4 4 5 5 6 6 8 7 9 8 11 9 12 10 3 11 2 12 1 13
REMARK H PARENT
REMARK Flexibility Score: inf
ROOT
ATOM      1  C   UNL     1      18.946   9.079  38.161  1.00  0.00     0.160 A 
ATOM      2  C   UNL     1      19.177  10.459  38.042  1.00  0.00     0.160 A 
ATOM      3  C   UNL     1      19.521  11.001  36.788  1.00  0.00     0.054 A 
ATOM      4  C   UNL     1      19.628  10.177  35.658  1.00  0.00    -0.040 A 
ATOM      5  C   UNL     1      19.406   8.799  35.788  1.00  0.00     0.008 A 
ATOM      6  C   UNL     1      19.064   8.253  37.026  1.00  0.00     0.051 A 
ENDROOT
BRANCH   1   7
ATOM      7  O   UNL     1      18.604   8.566  39.422  1.00  0.00    -0.493 OA
ATOM      8  C   UNL     1      19.516   7.926  40.308  1.00  0.00     0.278 C 
ENDBRANCH   1   7
BRANCH   2   9
ATOM      9  O   UNL     1      19.057  11.256  39.191  1.00  0.00    -0.493 OA
ATOM     10  C   UNL     1      20.083  12.104  39.696  1.00  0.00     0.278 C 
ENDBRANCH   2   9
BRANCH   4  11
ATOM     11  C   UNL     1      20.025  10.762  34.329  1.00  0.00     0.062 C 
BRANCH  11  12
ATOM     12  C   UNL     1      19.300  10.076  33.206  1.00  0.00    -0.030 C 
ATOM     13  C   UNL     1      19.654  10.250  31.930  1.00  0.00     0.004 C 
ENDBRANCH  11  12
ENDBRANCH   4  11
TORSDOF 4
ENDMDL
MODEL 9
REMARK VINA RESULT:    -3.610      2.242      5.521
REMARK INTER + INTRA:          -4.709
REMARK INTER:                  -4.440
REMARK INTRA:                  -0.269
REMARK UNBOUND:                -0.256
REMARK SMILES C=CCc1ccc(OC)c(OC)c1
REMARK SMILES IDX 7 1 10 2 13 3 4 4 5 5 6 6 8 7 9 8 11 9 12 10 3 11 2 12 1 13
REMARK H PARENT
REMARK Flexibility Score: inf
ROOT
ATOM      1  C   UNL     1      19.044  10.312  39.646  1.00  0.00     0.160 A 
ATOM      2  C   UNL     1      19.170   8.956  39.304  1.00  0.00     0.160 A 
ATOM      3  C   UNL     1      19.223   8.582  37.947  1.00  0.00     0.054 A 
ATOM      4  C   UNL     1      19.155   9.552  36.936  1.00  0.00    -0.040 A 
ATOM      5  C   UNL     1      19.018  10.902  37.286  1.00  0.00     0.008 A 
ATOM      6  C   UNL     1      18.967  11.281  38.628  1.00  0.00     0.051 A 
ENDROOT
BRANCH   1   7
ATOM      7  O   UNL     1      18.996  10.655  41.006  1.00  0.00    -0.493 OA
ATOM      8  C   UNL     1      18.797  11.976  41.499  1.00  0.00     0.278 C 
ENDBRANCH   1   7
BRANCH   2   9
ATOM      9  O   UNL     1      19.240   8.011  40.340  1.00  0.00    -0.493 OA
ATOM     10  C   UNL     1      20.423   7.318  40.722  1.00  0.00     0.278 C 
ENDBRANCH   2   9
BRANCH   4  11
ATOM     11  C   UNL     1      19.182   9.140  35.488  1.00  0.00     0.062 C 
BRANCH  11  12
ATOM     12  C   UNL     1      19.900  10.163  34.655  1.00  0.00    -0.030 C 
ATOM     13  C   UNL     1      19.627  10.332  33.358  1.00  0.00     0.004 C 
ENDBRANCH  11  12
ENDBRANCH   4  11
TORSDOF 4
ENDMDL
