MODEL 1
REMARK VINA RESULT:    -6.230      0.000      0.000
REMARK INTER + INTRA:          -7.636
REMARK INTER:                  -7.322
REMARK INTRA:                  -0.313
REMARK UNBOUND:                -0.313
REMARK SMILES O=c1c(O)c(-c2ccc(O)c(O)c2)oc2cc(O)ccc12
REMARK SMILES IDX 5 1 3 2 2 3 1 4 21 5 15 6 14 7 16 8 17 9 19 10 20 11 6 12
REMARK SMILES IDX 7 13 8 14 9 15 13 16 11 17 10 18 12 20 4 22 18 24
REMARK H PARENT 10 19 12 21 4 23 18 25
REMARK Flexibility Score: inf
ROOT
ATOM      1  C   UNL     1       2.400 -15.846   8.763  1.00  0.00     0.180 A 
ATOM      2  C   UNL     1       3.660 -16.385   8.431  1.00  0.00     0.208 A 
ATOM      3  C   UNL     1       4.687 -15.513   8.039  1.00  0.00     0.235 A 
ATOM      4  O   UNL     1       5.827 -15.970   7.747  1.00  0.00    -0.285 OA
ATOM      5  C   UNL     1       4.432 -14.135   7.967  1.00  0.00     0.069 A 
ATOM      6  C   UNL     1       3.137 -13.675   8.292  1.00  0.00     0.142 A 
ATOM      7  O   UNL     1       2.196 -14.534   8.668  1.00  0.00    -0.452 OA
ATOM      8  C   UNL     1       2.841 -12.310   8.223  1.00  0.00     0.094 A 
ATOM      9  C   UNL     1       3.824 -11.393   7.835  1.00  0.00     0.119 A 
ATOM     10  C   UNL     1       5.111 -11.845   7.513  1.00  0.00     0.047 A 
ATOM     11  C   UNL     1       5.416 -13.208   7.577  1.00  0.00     0.020 A 
ENDROOT
BRANCH   1  12
ATOM     12  C   UNL     1       1.272 -16.698   9.202  1.00  0.00     0.025 A 
ATOM     13  C   UNL     1       0.411 -17.310   8.275  1.00  0.00     0.016 A 
ATOM     14  C   UNL     1      -0.632 -18.130   8.714  1.00  0.00     0.051 A 
ATOM     15  C   UNL     1      -0.822 -18.362  10.083  1.00  0.00     0.157 A 
ATOM     16  C   UNL     1       1.090 -16.950  10.572  1.00  0.00     0.062 A 
ATOM     17  C   UNL     1       0.045 -17.770  11.016  1.00  0.00     0.158 A 
BRANCH  15  18
ATOM     18  O   UNL     1      -1.865 -19.179  10.517  1.00  0.00    -0.504 OA
ATOM     19  H   UNL     1      -2.130 -20.016  10.010  1.00  0.00     0.293 HD
ENDBRANCH  15  18
BRANCH  17  20
ATOM     20  O   UNL     1      -0.112 -17.986  12.384  1.00  0.00    -0.504 OA
ATOM     21  H   UNL     1       0.449 -17.500  13.074  1.00  0.00     0.293 HD
ENDBRANCH  17  20
ENDBRANCH   1  12
BRANCH   2  22
ATOM     22  O   UNL     1       3.870 -17.766   8.464  1.00  0.00    -0.502 OA
ATOM     23  H   UNL     1       3.387 -18.372   9.116  1.00  0.00     0.293 HD
ENDBRANCH   2  22
BRANCH   9  24
ATOM     24  O   UNL     1       3.511 -10.037   7.772  1.00  0.00    -0.508 OA
ATOM     25  H   UNL     1       3.170  -9.612   6.918  1.00  0.00     0.293 HD
ENDBRANCH   9  24
TORSDOF 5
ENDMDL
MODEL 2
REMARK VINA RESULT:    -6.170      3.306      7.037
REMARK INTER + INTRA:          -7.566
REMARK INTER:                  -7.250
REMARK INTRA:                  -0.315
REMARK UNBOUND:                -0.313
REMARK SMILES O=c1c(O)c(-c2ccc(O)c(O)c2)oc2cc(O)ccc12
REMARK SMILES IDX 5 1 3 2 2 3 1 4 21 5 15 6 14 7 16 8 17 9 19 10 20 11 6 12
REMARK SMILES IDX 7 13 8 14 9 15 13 16 11 17 10 18 12 20 4 22 18 24
REMARK H PARENT 10 19 12 21 4 23 18 25
REMARK Flexibility Score: inf
ROOT
ATOM      1  C   UNL     1       4.316 -15.327   6.956  1.00  0.00     0.180 A 
ATOM      2  C   UNL     1       3.041 -15.747   6.523  1.00  0.00     0.208 A 
ATOM      3  C   UNL     1       2.782 -17.122   6.415  1.00  0.00     0.235 A 
ATOM      4  O   UNL     1       1.647 -17.524   6.040  1.00  0.00    -0.285 OA
ATOM      5  C   UNL     1       3.800 -18.041   6.718  1.00  0.00     0.069 A 
ATOM      6  C   UNL     1       5.056 -17.541   7.122  1.00  0.00     0.142 A 
ATOM      7  O   UNL     1       5.256 -16.231   7.221  1.00  0.00    -0.452 OA
ATOM      8  C   UNL     1       6.098 -18.424   7.423  1.00  0.00     0.094 A 
ATOM      9  C   UNL     1       5.901 -19.806   7.329  1.00  0.00     0.119 A 
ATOM     10  C   UNL     1       4.654 -20.307   6.930  1.00  0.00     0.047 A 
ATOM     11  C   UNL     1       3.607 -19.432   6.625  1.00  0.00     0.020 A 
ENDROOT
BRANCH   1  12
ATOM     12  C   UNL     1       4.659 -13.895   7.114  1.00  0.00     0.025 A 
ATOM     13  C   UNL     1       5.225 -13.157   6.060  1.00  0.00     0.016 A 
ATOM     14  C   UNL     1       5.518 -11.801   6.225  1.00  0.00     0.051 A 
ATOM     15  C   UNL     1       5.238 -11.158   7.438  1.00  0.00     0.157 A 
ATOM     16  C   UNL     1       4.361 -13.242   8.321  1.00  0.00     0.062 A 
ATOM     17  C   UNL     1       4.654 -11.884   8.490  1.00  0.00     0.158 A 
BRANCH  15  18
ATOM     18  O   UNL     1       5.533  -9.806   7.600  1.00  0.00    -0.504 OA
ATOM     19  H   UNL     1       6.257  -9.494   8.237  1.00  0.00     0.293 HD
ENDBRANCH  15  18
BRANCH  17  20
ATOM     20  O   UNL     1       4.356 -11.273   9.708  1.00  0.00    -0.504 OA
ATOM     21  H   UNL     1       4.679 -10.340   9.935  1.00  0.00     0.293 HD
ENDBRANCH  17  20
ENDBRANCH   1  12
BRANCH   2  22
ATOM     22  O   UNL     1       2.064 -14.809   6.181  1.00  0.00    -0.502 OA
ATOM     23  H   UNL     1       1.240 -15.054   5.646  1.00  0.00     0.293 HD
ENDBRANCH   2  22
BRANCH   9  24
ATOM     24  O   UNL     1       6.949 -20.671   7.633  1.00  0.00    -0.508 OA
ATOM     25  H   UNL     1       7.886 -20.512   7.282  1.00  0.00     0.293 HD
ENDBRANCH   9  24
TORSDOF 5
ENDMDL
MODEL 3
REMARK VINA RESULT:    -6.079      3.652      6.711
REMARK INTER + INTRA:          -7.459
REMARK INTER:                  -7.252
REMARK INTRA:                  -0.207
REMARK UNBOUND:                -0.313
REMARK SMILES O=c1c(O)c(-c2ccc(O)c(O)c2)oc2cc(O)ccc12
REMARK SMILES IDX 5 1 3 2 2 3 1 4 21 5 15 6 14 7 16 8 17 9 19 10 20 11 6 12
REMARK SMILES IDX 7 13 8 14 9 15 13 16 11 17 10 18 12 20 4 22 18 24
REMARK H PARENT 10 19 12 21 4 23 18 25
REMARK Flexibility Score: inf
ROOT
ATOM      1  C   UNL     1       4.456 -14.869   7.486  1.00  0.00     0.180 A 
ATOM      2  C   UNL     1       5.579 -15.076   8.313  1.00  0.00     0.208 A 
ATOM      3  C   UNL     1       6.062 -16.382   8.485  1.00  0.00     0.235 A 
ATOM      4  O   UNL     1       7.072 -16.592   9.211  1.00  0.00    -0.285 OA
ATOM      5  C   UNL     1       5.406 -17.449   7.850  1.00  0.00     0.069 A 
ATOM      6  C   UNL     1       4.274 -17.163   7.058  1.00  0.00     0.142 A 
ATOM      7  O   UNL     1       3.855 -15.910   6.913  1.00  0.00    -0.452 OA
ATOM      8  C   UNL     1       3.587 -18.199   6.417  1.00  0.00     0.094 A 
ATOM      9  C   UNL     1       4.020 -19.523   6.554  1.00  0.00     0.119 A 
ATOM     10  C   UNL     1       5.144 -19.811   7.339  1.00  0.00     0.047 A 
ATOM     11  C   UNL     1       5.836 -18.782   7.985  1.00  0.00     0.020 A 
ENDROOT
BRANCH   1  12
ATOM     12  C   UNL     1       3.899 -13.520   7.241  1.00  0.00     0.025 A 
ATOM     13  C   UNL     1       2.670 -13.121   7.797  1.00  0.00     0.016 A 
ATOM     14  C   UNL     1       2.177 -11.833   7.571  1.00  0.00     0.051 A 
ATOM     15  C   UNL     1       2.908 -10.921   6.799  1.00  0.00     0.157 A 
ATOM     16  C   UNL     1       4.638 -12.595   6.486  1.00  0.00     0.062 A 
ATOM     17  C   UNL     1       4.146 -11.304   6.256  1.00  0.00     0.158 A 
BRANCH  15  18
ATOM     18  O   UNL     1       2.412  -9.638   6.574  1.00  0.00    -0.504 OA
ATOM     19  H   UNL     1       2.805  -9.035   5.859  1.00  0.00     0.293 HD
ENDBRANCH  15  18
BRANCH  17  20
ATOM     20  O   UNL     1       4.901 -10.417   5.489  1.00  0.00    -0.504 OA
ATOM     21  H   UNL     1       5.021  -9.447   5.751  1.00  0.00     0.293 HD
ENDBRANCH  17  20
ENDBRANCH   1  12
BRANCH   2  22
ATOM     22  O   UNL     1       6.181 -14.001   8.972  1.00  0.00    -0.502 OA
ATOM     23  H   UNL     1       6.946 -13.476   8.566  1.00  0.00     0.293 HD
ENDBRANCH   2  22
BRANCH   9  24
ATOM     24  O   UNL     1       3.324 -20.543   5.909  1.00  0.00    -0.508 OA
ATOM     25  H   UNL     1       3.507 -20.777   4.941  1.00  0.00     0.293 HD
ENDBRANCH   9  24
TORSDOF 5
ENDMDL
MODEL 4
REMARK VINA RESULT:    -6.022      4.066      5.209
REMARK INTER + INTRA:          -7.391
REMARK INTER:                  -7.076
REMARK INTRA:                  -0.315
REMARK UNBOUND:                -0.313
REMARK SMILES O=c1c(O)c(-c2ccc(O)c(O)c2)oc2cc(O)ccc12
REMARK SMILES IDX 5 1 3 2 2 3 1 4 21 5 15 6 14 7 16 8 17 9 19 10 20 11 6 12
REMARK SMILES IDX 7 13 8 14 9 15 13 16 11 17 10 18 12 20 4 22 18 24
REMARK H PARENT 10 19 12 21 4 23 18 25
REMARK Flexibility Score: inf
ROOT
ATOM      1  C   UNL     1       5.229 -17.685   6.414  1.00  0.00     0.180 A 
ATOM      2  C   UNL     1       5.370 -17.165   5.110  1.00  0.00     0.208 A 
ATOM      3  C   UNL     1       5.440 -15.773   4.940  1.00  0.00     0.235 A 
ATOM      4  O   UNL     1       5.577 -15.284   3.786  1.00  0.00    -0.285 OA
ATOM      5  C   UNL     1       5.349 -14.936   6.064  1.00  0.00     0.069 A 
ATOM      6  C   UNL     1       5.185 -15.533   7.333  1.00  0.00     0.142 A 
ATOM      7  O   UNL     1       5.132 -16.855   7.450  1.00  0.00    -0.452 OA
ATOM      8  C   UNL     1       5.079 -14.732   8.475  1.00  0.00     0.094 A 
ATOM      9  C   UNL     1       5.139 -13.339   8.367  1.00  0.00     0.119 A 
ATOM     10  C   UNL     1       5.303 -12.743   7.110  1.00  0.00     0.047 A 
ATOM     11  C   UNL     1       5.407 -13.534   5.962  1.00  0.00     0.020 A 
ENDROOT
BRANCH   1  12
ATOM     12  C   UNL     1       5.166 -19.140   6.676  1.00  0.00     0.025 A 
ATOM     13  C   UNL     1       3.950 -19.844   6.614  1.00  0.00     0.016 A 
ATOM     14  C   UNL     1       3.920 -21.223   6.841  1.00  0.00     0.051 A 
ATOM     15  C   UNL     1       5.103 -21.921   7.120  1.00  0.00     0.157 A 
ATOM     16  C   UNL     1       6.351 -19.847   6.934  1.00  0.00     0.062 A 
ATOM     17  C   UNL     1       6.324 -21.229   7.164  1.00  0.00     0.158 A 
BRANCH  15  18
ATOM     18  O   UNL     1       5.068 -23.295   7.348  1.00  0.00    -0.504 OA
ATOM     19  H   UNL     1       5.906 -23.863   7.294  1.00  0.00     0.293 HD
ENDBRANCH  15  18
BRANCH  17  20
ATOM     20  O   UNL     1       7.520 -21.894   7.431  1.00  0.00    -0.504 OA
ATOM     21  H   UNL     1       8.279 -21.454   7.937  1.00  0.00     0.293 HD
ENDBRANCH  17  20
ENDBRANCH   1  12
BRANCH   2  22
ATOM     22  O   UNL     1       5.408 -18.020   4.006  1.00  0.00    -0.502 OA
ATOM     23  H   UNL     1       5.378 -19.028   4.101  1.00  0.00     0.293 HD
ENDBRANCH   2  22
BRANCH   9  24
ATOM     24  O   UNL     1       5.033 -12.556   9.516  1.00  0.00    -0.508 OA
ATOM     25  H   UNL     1       4.849 -12.969  10.422  1.00  0.00     0.293 HD
ENDBRANCH   9  24
TORSDOF 5
ENDMDL
MODEL 5
REMARK VINA RESULT:    -5.962      4.278      5.538
REMARK INTER + INTRA:          -7.321
REMARK INTER:                  -7.124
REMARK INTRA:                  -0.197
REMARK UNBOUND:                -0.313
REMARK SMILES O=c1c(O)c(-c2ccc(O)c(O)c2)oc2cc(O)ccc12
REMARK SMILES IDX 5 1 3 2 2 3 1 4 21 5 15 6 14 7 16 8 17 9 19 10 20 11 6 12
REMARK SMILES IDX 7 13 8 14 9 15 13 16 11 17 10 18 12 20 4 22 18 24
REMARK H PARENT 10 19 12 21 4 23 18 25
REMARK Flexibility Score: inf
ROOT
ATOM      1  C   UNL     1       5.239 -18.369   6.899  1.00  0.00     0.180 A 
ATOM      2  C   UNL     1       5.959 -18.159   8.093  1.00  0.00     0.208 A 
ATOM      3  C   UNL     1       6.129 -16.845   8.558  1.00  0.00     0.235 A 
ATOM      4  O   UNL     1       6.760 -16.632   9.630  1.00  0.00    -0.285 OA
ATOM      5  C   UNL     1       5.599 -15.777   7.817  1.00  0.00     0.069 A 
ATOM      6  C   UNL     1       4.911 -16.069   6.620  1.00  0.00     0.142 A 
ATOM      7  O   UNL     1       4.764 -17.327   6.220  1.00  0.00    -0.452 OA
ATOM      8  C   UNL     1       4.377 -15.031   5.848  1.00  0.00     0.094 A 
ATOM      9  C   UNL     1       4.518 -13.702   6.260  1.00  0.00     0.119 A 
ATOM     10  C   UNL     1       5.199 -13.408   7.449  1.00  0.00     0.047 A 
ATOM     11  C   UNL     1       5.738 -14.438   8.226  1.00  0.00     0.020 A 
ENDROOT
BRANCH   1  12
ATOM     12  C   UNL     1       5.001 -19.725   6.354  1.00  0.00     0.025 A 
ATOM     13  C   UNL     1       3.711 -20.282   6.310  1.00  0.00     0.016 A 
ATOM     14  C   UNL     1       3.509 -21.554   5.768  1.00  0.00     0.051 A 
ATOM     15  C   UNL     1       4.588 -22.282   5.249  1.00  0.00     0.157 A 
ATOM     16  C   UNL     1       6.076 -20.450   5.813  1.00  0.00     0.062 A 
ATOM     17  C   UNL     1       5.877 -21.725   5.271  1.00  0.00     0.158 A 
BRANCH  15  18
ATOM     18  O   UNL     1       4.383 -23.551   4.712  1.00  0.00    -0.504 OA
ATOM     19  H   UNL     1       3.675 -23.721   4.006  1.00  0.00     0.293 HD
ENDBRANCH  15  18
BRANCH  17  20
ATOM     20  O   UNL     1       6.971 -22.421   4.756  1.00  0.00    -0.504 OA
ATOM     21  H   UNL     1       6.869 -23.135   4.045  1.00  0.00     0.293 HD
ENDBRANCH  17  20
ENDBRANCH   1  12
BRANCH   2  22
ATOM     22  O   UNL     1       6.518 -19.237   8.783  1.00  0.00    -0.502 OA
ATOM     23  H   UNL     1       7.187 -19.113   9.534  1.00  0.00     0.293 HD
ENDBRANCH   2  22
BRANCH   9  24
ATOM     24  O   UNL     1       3.980 -12.681   5.479  1.00  0.00    -0.508 OA
ATOM     25  H   UNL     1       4.566 -12.092   4.900  1.00  0.00     0.293 HD
ENDBRANCH   9  24
TORSDOF 5
ENDMDL
MODEL 6
REMARK VINA RESULT:    -5.951      3.518      4.829
REMARK INTER + INTRA:          -7.308
REMARK INTER:                  -6.987
REMARK INTRA:                  -0.321
REMARK UNBOUND:                -0.313
REMARK SMILES O=c1c(O)c(-c2ccc(O)c(O)c2)oc2cc(O)ccc12
REMARK SMILES IDX 5 1 3 2 2 3 1 4 21 5 15 6 14 7 16 8 17 9 19 10 20 11 6 12
REMARK SMILES IDX 7 13 8 14 9 15 13 16 11 17 10 18 12 20 4 22 18 24
REMARK H PARENT 10 19 12 21 4 23 18 25
REMARK Flexibility Score: inf
ROOT
ATOM      1  C   UNL     1       4.255 -14.075   7.801  1.00  0.00     0.180 A 
ATOM      2  C   UNL     1       4.682 -13.202   6.779  1.00  0.00     0.208 A 
ATOM      3  C   UNL     1       4.115 -11.921   6.701  1.00  0.00     0.235 A 
ATOM      4  O   UNL     1       4.488 -11.118   5.803  1.00  0.00    -0.285 OA
ATOM      5  C   UNL     1       3.126 -11.548   7.626  1.00  0.00     0.069 A 
ATOM      6  C   UNL     1       2.735 -12.487   8.605  1.00  0.00     0.142 A 
ATOM      7  O   UNL     1       3.304 -13.686   8.648  1.00  0.00    -0.452 OA
ATOM      8  C   UNL     1       1.746 -12.157   9.536  1.00  0.00     0.094 A 
ATOM      9  C   UNL     1       1.142 -10.895   9.507  1.00  0.00     0.119 A 
ATOM     10  C   UNL     1       1.528  -9.960   8.538  1.00  0.00     0.047 A 
ATOM     11  C   UNL     1       2.514 -10.281   7.600  1.00  0.00     0.020 A 
ENDROOT
BRANCH   1  12
ATOM     12  C   UNL     1       4.818 -15.435   7.959  1.00  0.00     0.025 A 
ATOM     13  C   UNL     1       6.007 -15.657   8.675  1.00  0.00     0.016 A 
ATOM     14  C   UNL     1       6.506 -16.953   8.832  1.00  0.00     0.051 A 
ATOM     15  C   UNL     1       5.819 -18.046   8.289  1.00  0.00     0.157 A 
ATOM     16  C   UNL     1       4.122 -16.536   7.435  1.00  0.00     0.062 A 
ATOM     17  C   UNL     1       4.620 -17.836   7.589  1.00  0.00     0.158 A 
BRANCH  15  18
ATOM     18  O   UNL     1       6.321 -19.337   8.445  1.00  0.00    -0.504 OA
ATOM     19  H   UNL     1       6.227 -20.035   7.716  1.00  0.00     0.293 HD
ENDBRANCH  15  18
BRANCH  17  20
ATOM     20  O   UNL     1       3.908 -18.903   7.042  1.00  0.00    -0.504 OA
ATOM     21  H   UNL     1       3.193 -18.768   6.338  1.00  0.00     0.293 HD
ENDBRANCH  17  20
ENDBRANCH   1  12
BRANCH   2  22
ATOM     22  O   UNL     1       5.633 -13.619   5.843  1.00  0.00    -0.502 OA
ATOM     23  H   UNL     1       6.614 -13.715   6.073  1.00  0.00     0.293 HD
ENDBRANCH   2  22
BRANCH   9  24
ATOM     24  O   UNL     1       0.158 -10.583  10.443  1.00  0.00    -0.508 OA
ATOM     25  H   UNL     1      -0.456 -11.293  10.823  1.00  0.00     0.293 HD
ENDBRANCH   9  24
TORSDOF 5
ENDMDL
MODEL 7
REMARK VINA RESULT:    -5.848      4.333      5.393
REMARK INTER + INTRA:          -7.187
REMARK INTER:                  -6.948
REMARK INTRA:                  -0.239
REMARK UNBOUND:                -0.313
REMARK SMILES O=c1c(O)c(-c2ccc(O)c(O)c2)oc2cc(O)ccc12
REMARK SMILES IDX 5 1 3 2 2 3 1 4 21 5 15 6 14 7 16 8 17 9 19 10 20 11 6 12
REMARK SMILES IDX 7 13 8 14 9 15 13 16 11 17 10 18 12 20 4 22 18 24
REMARK H PARENT 10 19 12 21 4 23 18 25
REMARK Flexibility Score: inf
ROOT
ATOM      1  C   UNL     1       5.415 -17.893   6.481  1.00  0.00     0.180 A 
ATOM      2  C   UNL     1       6.001 -17.869   7.764  1.00  0.00     0.208 A 
ATOM      3  C   UNL     1       6.133 -16.638   8.424  1.00  0.00     0.235 A 
ATOM      4  O   UNL     1       6.643 -16.591   9.577  1.00  0.00    -0.285 OA
ATOM      5  C   UNL     1       5.699 -15.464   7.788  1.00  0.00     0.069 A 
ATOM      6  C   UNL     1       5.145 -15.569   6.494  1.00  0.00     0.142 A 
ATOM      7  O   UNL     1       5.030 -16.755   5.908  1.00  0.00    -0.452 OA
ATOM      8  C   UNL     1       4.712 -14.421   5.823  1.00  0.00     0.094 A 
ATOM      9  C   UNL     1       4.821 -13.165   6.430  1.00  0.00     0.119 A 
ATOM     10  C   UNL     1       5.369 -13.057   7.715  1.00  0.00     0.047 A 
ATOM     11  C   UNL     1       5.807 -14.198   8.393  1.00  0.00     0.020 A 
ENDROOT
BRANCH   1  12
ATOM     12  C   UNL     1       5.225 -19.154   5.728  1.00  0.00     0.025 A 
ATOM     13  C   UNL     1       6.053 -19.491   4.643  1.00  0.00     0.016 A 
ATOM     14  C   UNL     1       5.869 -20.699   3.963  1.00  0.00     0.051 A 
ATOM     15  C   UNL     1       4.866 -21.592   4.365  1.00  0.00     0.157 A 
ATOM     16  C   UNL     1       4.235 -20.061   6.140  1.00  0.00     0.062 A 
ATOM     17  C   UNL     1       4.047 -21.271   5.460  1.00  0.00     0.158 A 
BRANCH  15  18
ATOM     18  O   UNL     1       4.685 -22.794   3.683  1.00  0.00    -0.504 OA
ATOM     19  H   UNL     1       4.986 -22.910   2.723  1.00  0.00     0.293 HD
ENDBRANCH  15  18
BRANCH  17  20
ATOM     20  O   UNL     1       3.045 -22.141   5.889  1.00  0.00    -0.504 OA
ATOM     21  H   UNL     1       2.388 -22.564   5.245  1.00  0.00     0.293 HD
ENDBRANCH  17  20
ENDBRANCH   1  12
BRANCH   2  22
ATOM     22  O   UNL     1       6.468 -19.048   8.351  1.00  0.00    -0.502 OA
ATOM     23  H   UNL     1       6.243 -19.303   9.305  1.00  0.00     0.293 HD
ENDBRANCH   2  22
BRANCH   9  24
ATOM     24  O   UNL     1       4.383 -12.032   5.747  1.00  0.00    -0.508 OA
ATOM     25  H   UNL     1       4.578 -11.099   6.090  1.00  0.00     0.293 HD
ENDBRANCH   9  24
TORSDOF 5
ENDMDL
MODEL 8
REMARK VINA RESULT:    -5.796      3.337      5.492
REMARK INTER + INTRA:          -7.126
REMARK INTER:                  -6.961
REMARK INTRA:                  -0.165
REMARK UNBOUND:                -0.313
REMARK SMILES O=c1c(O)c(-c2ccc(O)c(O)c2)oc2cc(O)ccc12
REMARK SMILES IDX 5 1 3 2 2 3 1 4 21 5 15 6 14 7 16 8 17 9 19 10 20 11 6 12
REMARK SMILES IDX 7 13 8 14 9 15 13 16 11 17 10 18 12 20 4 22 18 24
REMARK H PARENT 10 19 12 21 4 23 18 25
REMARK Flexibility Score: inf
ROOT
ATOM      1  C   UNL     1       3.596 -14.049   7.742  1.00  0.00     0.180 A 
ATOM      2  C   UNL     1       4.021 -13.748   6.431  1.00  0.00     0.208 A 
ATOM      3  C   UNL     1       4.852 -14.661   5.763  1.00  0.00     0.235 A 
ATOM      4  O   UNL     1       5.237 -14.421   4.586  1.00  0.00    -0.285 OA
ATOM      5  C   UNL     1       5.254 -15.836   6.419  1.00  0.00     0.069 A 
ATOM      6  C   UNL     1       4.805 -16.053   7.739  1.00  0.00     0.142 A 
ATOM      7  O   UNL     1       4.012 -15.168   8.332  1.00  0.00    -0.452 OA
ATOM      8  C   UNL     1       5.192 -17.206   8.430  1.00  0.00     0.094 A 
ATOM      9  C   UNL     1       6.021 -18.151   7.816  1.00  0.00     0.119 A 
ATOM     10  C   UNL     1       6.468 -17.940   6.504  1.00  0.00     0.047 A 
ATOM     11  C   UNL     1       6.088 -16.789   5.807  1.00  0.00     0.020 A 
ENDROOT
BRANCH   1  12
ATOM     12  C   UNL     1       2.706 -13.146   8.506  1.00  0.00     0.025 A 
ATOM     13  C   UNL     1       3.122 -11.859   8.890  1.00  0.00     0.016 A 
ATOM     14  C   UNL     1       2.254 -11.016   9.589  1.00  0.00     0.051 A 
ATOM     15  C   UNL     1       0.955 -11.438   9.902  1.00  0.00     0.157 A 
ATOM     16  C   UNL     1       1.396 -13.556   8.802  1.00  0.00     0.062 A 
ATOM     17  C   UNL     1       0.524 -12.714   9.504  1.00  0.00     0.158 A 
BRANCH  15  18
ATOM     18  O   UNL     1       0.093 -10.595  10.601  1.00  0.00    -0.504 OA
ATOM     19  H   UNL     1       0.439  -9.934  11.287  1.00  0.00     0.293 HD
ENDBRANCH  15  18
BRANCH  17  20
ATOM     20  O   UNL     1      -0.764 -13.162   9.793  1.00  0.00    -0.504 OA
ATOM     21  H   UNL     1      -0.954 -13.798  10.559  1.00  0.00     0.293 HD
ENDBRANCH  17  20
ENDBRANCH   1  12
BRANCH   2  22
ATOM     22  O   UNL     1       3.645 -12.548   5.822  1.00  0.00    -0.502 OA
ATOM     23  H   UNL     1       2.920 -12.503   5.117  1.00  0.00     0.293 HD
ENDBRANCH   2  22
BRANCH   9  24
ATOM     24  O   UNL     1       6.397 -19.294   8.518  1.00  0.00    -0.508 OA
ATOM     25  H   UNL     1       6.631 -19.258   9.503  1.00  0.00     0.293 HD
ENDBRANCH   9  24
TORSDOF 5
ENDMDL
MODEL 9
REMARK VINA RESULT:    -5.786      4.322      7.330
REMARK INTER + INTRA:          -7.114
REMARK INTER:                  -6.911
REMARK INTRA:                  -0.203
REMARK UNBOUND:                -0.313
REMARK SMILES O=c1c(O)c(-c2ccc(O)c(O)c2)oc2cc(O)ccc12
REMARK SMILES IDX 5 1 3 2 2 3 1 4 21 5 15 6 14 7 16 8 17 9 19 10 20 11 6 12
REMARK SMILES IDX 7 13 8 14 9 15 13 16 11 17 10 18 12 20 4 22 18 24
REMARK H PARENT 10 19 12 21 4 23 18 25
REMARK Flexibility Score: inf
ROOT
ATOM      1  C   UNL     1       6.060 -15.591   5.070  1.00  0.00     0.180 A 
ATOM      2  C   UNL     1       6.001 -16.446   6.190  1.00  0.00     0.208 A 
ATOM      3  C   UNL     1       5.585 -15.919   7.423  1.00  0.00     0.235 A 
ATOM      4  O   UNL     1       5.513 -16.666   8.437  1.00  0.00    -0.285 OA
ATOM      5  C   UNL     1       5.259 -14.557   7.516  1.00  0.00     0.069 A 
ATOM      6  C   UNL     1       5.366 -13.761   6.354  1.00  0.00     0.142 A 
ATOM      7  O   UNL     1       5.755 -14.302   5.205  1.00  0.00    -0.452 OA
ATOM      8  C   UNL     1       5.060 -12.398   6.409  1.00  0.00     0.094 A 
ATOM      9  C   UNL     1       4.643 -11.816   7.611  1.00  0.00     0.119 A 
ATOM     10  C   UNL     1       4.534 -12.602   8.765  1.00  0.00     0.047 A 
ATOM     11  C   UNL     1       4.839 -13.965   8.722  1.00  0.00     0.020 A 
ENDROOT
BRANCH   1  12
ATOM     12  C   UNL     1       6.471 -16.075   3.733  1.00  0.00     0.025 A 
ATOM     13  C   UNL     1       5.685 -16.991   3.012  1.00  0.00     0.016 A 
ATOM     14  C   UNL     1       6.082 -17.414   1.740  1.00  0.00     0.051 A 
ATOM     15  C   UNL     1       7.261 -16.921   1.166  1.00  0.00     0.157 A 
ATOM     16  C   UNL     1       7.641 -15.567   3.144  1.00  0.00     0.062 A 
ATOM     17  C   UNL     1       8.043 -15.991   1.871  1.00  0.00     0.158 A 
BRANCH  15  18
ATOM     18  O   UNL     1       7.655 -17.347  -0.101  1.00  0.00    -0.504 OA
ATOM     19  H   UNL     1       8.489 -16.983  -0.548  1.00  0.00     0.293 HD
ENDBRANCH  15  18
BRANCH  17  20
ATOM     20  O   UNL     1       9.217 -15.475   1.325  1.00  0.00    -0.504 OA
ATOM     21  H   UNL     1       9.315 -14.495   1.087  1.00  0.00     0.293 HD
ENDBRANCH  17  20
ENDBRANCH   1  12
BRANCH   2  22
ATOM     22  O   UNL     1       6.379 -17.787   6.079  1.00  0.00    -0.502 OA
ATOM     23  H   UNL     1       6.043 -18.499   6.716  1.00  0.00     0.293 HD
ENDBRANCH   2  22
BRANCH   9  24
ATOM     24  O   UNL     1       4.342 -10.456   7.647  1.00  0.00    -0.508 OA
ATOM     25  H   UNL     1       3.436 -10.107   7.359  1.00  0.00     0.293 HD
ENDBRANCH   9  24
TORSDOF 5
ENDMDL
