MODEL 1
REMARK VINA RESULT:    -4.835      0.000      0.000
REMARK INTER + INTRA:          -9.750
REMARK INTER:                  -7.379
REMARK INTRA:                  -2.372
REMARK UNBOUND:                -2.372
REMARK SMILES COc1cc(C=CCOC(=O)C=Cc2ccc(O)c(OC)c2)ccc1O
REMARK SMILES IDX 9 1 8 2 7 3 6 4 5 5 3 6 25 7 4 8 24 9 23 10 2 11 1 12 26 13
REMARK SMILES IDX 10 15 11 16 12 17 13 18 14 19 22 20 15 21 19 22 16 23 17 24
REMARK SMILES IDX 20 25 21 26 18 27
REMARK H PARENT 26 14 18 28
REMARK Flexibility Score: inf
ROOT
ATOM      1  O   UNL     1      82.646  23.415  42.459  1.00  0.00    -0.458 OA
ENDROOT
BRANCH   1   2
ATOM      2  C   UNL     1      83.438  23.219  43.625  1.00  0.00     0.261 C 
BRANCH   2   3
ATOM      3  C   UNL     1      84.646  24.107  43.563  1.00  0.00     0.015 C 
ATOM      4  C   UNL     1      84.682  25.360  44.039  1.00  0.00     0.007 C 
BRANCH   4   5
ATOM      5  C   UNL     1      83.532  26.056  44.655  1.00  0.00    -0.022 A 
ATOM      6  C   UNL     1      82.219  26.562  46.651  1.00  0.00     0.161 A 
ATOM      7  C   UNL     1      81.402  27.410  45.888  1.00  0.00     0.157 A 
ATOM      8  C   UNL     1      83.291  25.894  46.027  1.00  0.00     0.058 A 
ATOM      9  C   UNL     1      81.660  27.595  44.524  1.00  0.00     0.051 A 
ATOM     10  C   UNL     1      82.724  26.930  43.912  1.00  0.00     0.012 A 
BRANCH   6  11
ATOM     11  O   UNL     1      81.934  26.411  48.016  1.00  0.00    -0.493 OA
ATOM     12  C   UNL     1      82.829  26.755  49.069  1.00  0.00     0.278 C 
ENDBRANCH   6  11
BRANCH   7  13
ATOM     13  O   UNL     1      80.337  28.073  46.498  1.00  0.00    -0.504 OA
ATOM     14  H   UNL     1      80.490  28.772  47.215  1.00  0.00     0.293 HD
ENDBRANCH   7  13
ENDBRANCH   4   5
ENDBRANCH   2   3
ENDBRANCH   1   2
BRANCH   1  15
ATOM     15  C   UNL     1      81.280  23.117  42.414  1.00  0.00     0.331 C 
ATOM     16  O   UNL     1      80.867  22.112  41.772  1.00  0.00    -0.247 OA
BRANCH  15  17
ATOM     17  C   UNL     1      80.307  23.969  43.115  1.00  0.00     0.094 C 
ATOM     18  C   UNL     1      80.110  23.880  44.437  1.00  0.00     0.016 C 
BRANCH  18  19
ATOM     19  C   UNL     1      79.149  24.727  45.186  1.00  0.00    -0.021 A 
ATOM     20  C   UNL     1      79.014  24.661  46.587  1.00  0.00     0.058 A 
ATOM     21  C   UNL     1      78.373  25.652  44.471  1.00  0.00     0.012 A 
ATOM     22  C   UNL     1      78.094  25.492  47.260  1.00  0.00     0.161 A 
ATOM     23  C   UNL     1      77.461  26.475  45.133  1.00  0.00     0.051 A 
ATOM     24  C   UNL     1      77.317  26.396  46.523  1.00  0.00     0.157 A 
BRANCH  22  25
ATOM     25  O   UNL     1      77.928  25.451  48.653  1.00  0.00    -0.493 OA
ATOM     26  C   UNL     1      78.805  26.070  49.590  1.00  0.00     0.278 C 
ENDBRANCH  22  25
BRANCH  24  27
ATOM     27  O   UNL     1      76.405  27.218  47.182  1.00  0.00    -0.504 OA
ATOM     28  H   UNL     1      76.393  27.293  48.192  1.00  0.00     0.293 HD
ENDBRANCH  24  27
ENDBRANCH  18  19
ENDBRANCH  15  17
ENDBRANCH   1  15
TORSDOF 10
ENDMDL
MODEL 2
REMARK VINA RESULT:    -4.832      2.703      4.326
REMARK INTER + INTRA:          -9.746
REMARK INTER:                  -8.164
REMARK INTRA:                  -1.581
REMARK UNBOUND:                -2.372
REMARK SMILES COc1cc(C=CCOC(=O)C=Cc2ccc(O)c(OC)c2)ccc1O
REMARK SMILES IDX 9 1 8 2 7 3 6 4 5 5 3 6 25 7 4 8 24 9 23 10 2 11 1 12 26 13
REMARK SMILES IDX 10 15 11 16 12 17 13 18 14 19 22 20 15 21 19 22 16 23 17 24
REMARK SMILES IDX 20 25 21 26 18 27
REMARK H PARENT 26 14 18 28
REMARK Flexibility Score: inf
ROOT
ATOM      1  O   UNL     1      84.463  22.347  42.619  1.00  0.00    -0.458 OA
ENDROOT
BRANCH   1   2
ATOM      2  C   UNL     1      84.161  23.095  43.791  1.00  0.00     0.261 C 
BRANCH   2   3
ATOM      3  C   UNL     1      84.775  24.461  43.684  1.00  0.00     0.015 C 
ATOM      4  C   UNL     1      84.156  25.593  44.049  1.00  0.00     0.007 C 
BRANCH   4   5
ATOM      5  C   UNL     1      82.775  25.662  44.571  1.00  0.00    -0.022 A 
ATOM      6  C   UNL     1      81.270  25.868  46.483  1.00  0.00     0.161 A 
ATOM      7  C   UNL     1      80.173  25.868  45.609  1.00  0.00     0.157 A 
ATOM      8  C   UNL     1      82.573  25.774  45.954  1.00  0.00     0.058 A 
ATOM      9  C   UNL     1      80.375  25.785  44.226  1.00  0.00     0.051 A 
ATOM     10  C   UNL     1      81.669  25.693  43.708  1.00  0.00     0.012 A 
BRANCH   6  11
ATOM     11  O   UNL     1      81.027  25.962  47.862  1.00  0.00    -0.493 OA
ATOM     12  C   UNL     1      80.724  24.855  48.705  1.00  0.00     0.278 C 
ENDBRANCH   6  11
BRANCH   7  13
ATOM     13  O   UNL     1      78.881  25.957  46.126  1.00  0.00    -0.504 OA
ATOM     14  H   UNL     1      78.624  26.680  46.788  1.00  0.00     0.293 HD
ENDBRANCH   7  13
ENDBRANCH   4   5
ENDBRANCH   2   3
ENDBRANCH   1   2
BRANCH   1  15
ATOM     15  C   UNL     1      83.487  21.660  41.889  1.00  0.00     0.331 C 
ATOM     16  O   UNL     1      83.592  20.418  41.695  1.00  0.00    -0.247 OA
BRANCH  15  17
ATOM     17  C   UNL     1      82.325  22.375  41.338  1.00  0.00     0.094 C 
ATOM     18  C   UNL     1      81.108  22.280  41.891  1.00  0.00     0.016 C 
BRANCH  18  19
ATOM     19  C   UNL     1      79.913  22.993  41.377  1.00  0.00    -0.021 A 
ATOM     20  C   UNL     1      78.607  22.479  41.515  1.00  0.00     0.058 A 
ATOM     21  C   UNL     1      80.091  24.242  40.763  1.00  0.00     0.012 A 
ATOM     22  C   UNL     1      77.498  23.196  41.020  1.00  0.00     0.161 A 
ATOM     23  C   UNL     1      78.995  24.953  40.270  1.00  0.00     0.051 A 
ATOM     24  C   UNL     1      77.701  24.433  40.394  1.00  0.00     0.157 A 
BRANCH  22  25
ATOM     25  O   UNL     1      76.184  22.714  41.134  1.00  0.00    -0.493 OA
ATOM     26  C   UNL     1      75.793  21.368  40.885  1.00  0.00     0.278 C 
ENDBRANCH  22  25
BRANCH  24  27
ATOM     27  O   UNL     1      76.609  25.144  39.901  1.00  0.00    -0.504 OA
ATOM     28  H   UNL     1      75.803  24.672  39.509  1.00  0.00     0.293 HD
ENDBRANCH  24  27
ENDBRANCH  18  19
ENDBRANCH  15  17
ENDBRANCH   1  15
TORSDOF 10
ENDMDL
MODEL 3
REMARK VINA RESULT:    -4.774      1.045      2.125
REMARK INTER + INTRA:          -9.658
REMARK INTER:                  -7.569
REMARK INTRA:                  -2.089
REMARK UNBOUND:                -2.372
REMARK SMILES COc1cc(C=CCOC(=O)C=Cc2ccc(O)c(OC)c2)ccc1O
REMARK SMILES IDX 9 1 8 2 7 3 6 4 5 5 3 6 25 7 4 8 24 9 23 10 2 11 1 12 26 13
REMARK SMILES IDX 10 15 11 16 12 17 13 18 14 19 22 20 15 21 19 22 16 23 17 24
REMARK SMILES IDX 20 25 21 26 18 27
REMARK H PARENT 26 14 18 28
REMARK Flexibility Score: inf
ROOT
ATOM      1  O   UNL     1      82.565  23.298  42.531  1.00  0.00    -0.458 OA
ENDROOT
BRANCH   1   2
ATOM      2  C   UNL     1      83.321  23.256  43.736  1.00  0.00     0.261 C 
BRANCH   2   3
ATOM      3  C   UNL     1      84.546  24.111  43.586  1.00  0.00     0.015 C 
ATOM      4  C   UNL     1      84.623  25.389  43.985  1.00  0.00     0.007 C 
BRANCH   4   5
ATOM      5  C   UNL     1      83.508  26.146  44.593  1.00  0.00    -0.022 A 
ATOM      6  C   UNL     1      81.623  27.674  44.319  1.00  0.00     0.161 A 
ATOM      7  C   UNL     1      81.334  27.550  45.686  1.00  0.00     0.157 A 
ATOM      8  C   UNL     1      82.709  26.959  43.776  1.00  0.00     0.058 A 
ATOM      9  C   UNL     1      82.114  26.716  46.497  1.00  0.00     0.051 A 
ATOM     10  C   UNL     1      83.188  26.009  45.953  1.00  0.00     0.012 A 
BRANCH   6  11
ATOM     11  O   UNL     1      80.813  28.512  43.538  1.00  0.00    -0.493 OA
ATOM     12  C   UNL     1      80.501  28.283  42.167  1.00  0.00     0.278 C 
ENDBRANCH   6  11
BRANCH   7  13
ATOM     13  O   UNL     1      80.263  28.257  46.231  1.00  0.00    -0.504 OA
ATOM     14  H   UNL     1      79.310  27.920  46.149  1.00  0.00     0.293 HD
ENDBRANCH   7  13
ENDBRANCH   4   5
ENDBRANCH   2   3
ENDBRANCH   1   2
BRANCH   1  15
ATOM     15  C   UNL     1      81.178  23.488  42.515  1.00  0.00     0.331 C 
ATOM     16  O   UNL     1      80.471  22.944  41.623  1.00  0.00    -0.247 OA
BRANCH  15  17
ATOM     17  C   UNL     1      80.527  24.320  43.538  1.00  0.00     0.094 C 
ATOM     18  C   UNL     1      79.652  23.810  44.414  1.00  0.00     0.016 C 
BRANCH  18  19
ATOM     19  C   UNL     1      78.982  24.609  45.470  1.00  0.00    -0.021 A 
ATOM     20  C   UNL     1      79.344  24.523  46.829  1.00  0.00     0.058 A 
ATOM     21  C   UNL     1      77.975  25.510  45.089  1.00  0.00     0.012 A 
ATOM     22  C   UNL     1      78.686  25.309  47.798  1.00  0.00     0.161 A 
ATOM     23  C   UNL     1      77.321  26.288  46.046  1.00  0.00     0.051 A 
ATOM     24  C   UNL     1      77.671  26.189  47.397  1.00  0.00     0.157 A 
BRANCH  22  25
ATOM     25  O   UNL     1      79.016  25.247  49.161  1.00  0.00    -0.493 OA
ATOM     26  C   UNL     1      80.138  24.548  49.690  1.00  0.00     0.278 C 
ENDBRANCH  22  25
BRANCH  24  27
ATOM     27  O   UNL     1      77.017  26.966  48.351  1.00  0.00    -0.504 OA
ATOM     28  H   UNL     1      76.113  27.384  48.165  1.00  0.00     0.293 HD
ENDBRANCH  24  27
ENDBRANCH  18  19
ENDBRANCH  15  17
ENDBRANCH   1  15
TORSDOF 10
ENDMDL
MODEL 4
REMARK VINA RESULT:    -4.695      1.674      2.815
REMARK INTER + INTRA:          -9.537
REMARK INTER:                  -7.418
REMARK INTRA:                  -2.119
REMARK UNBOUND:                -2.372
REMARK SMILES COc1cc(C=CCOC(=O)C=Cc2ccc(O)c(OC)c2)ccc1O
REMARK SMILES IDX 9 1 8 2 7 3 6 4 5 5 3 6 25 7 4 8 24 9 23 10 2 11 1 12 26 13
REMARK SMILES IDX 10 15 11 16 12 17 13 18 14 19 22 20 15 21 19 22 16 23 17 24
REMARK SMILES IDX 20 25 21 26 18 27
REMARK H PARENT 26 14 18 28
REMARK Flexibility Score: inf
ROOT
ATOM      1  O   UNL     1      79.573  22.059  43.279  1.00  0.00    -0.458 OA
ENDROOT
BRANCH   1   2
ATOM      2  C   UNL     1      80.119  23.118  42.501  1.00  0.00     0.261 C 
BRANCH   2   3
ATOM      3  C   UNL     1      81.618  23.024  42.512  1.00  0.00     0.015 C 
ATOM      4  C   UNL     1      82.418  23.873  43.172  1.00  0.00     0.007 C 
BRANCH   4   5
ATOM      5  C   UNL     1      81.945  25.038  43.950  1.00  0.00    -0.022 A 
ATOM      6  C   UNL     1      81.628  26.117  46.118  1.00  0.00     0.161 A 
ATOM      7  C   UNL     1      81.125  27.254  45.469  1.00  0.00     0.157 A 
ATOM      8  C   UNL     1      82.047  25.013  45.349  1.00  0.00     0.058 A 
ATOM      9  C   UNL     1      81.051  27.292  44.071  1.00  0.00     0.051 A 
ATOM     10  C   UNL     1      81.467  26.194  43.314  1.00  0.00     0.012 A 
BRANCH   6  11
ATOM     11  O   UNL     1      81.696  26.121  47.519  1.00  0.00    -0.493 OA
ATOM     12  C   UNL     1      82.839  26.521  48.270  1.00  0.00     0.278 C 
ENDBRANCH   6  11
BRANCH   7  13
ATOM     13  O   UNL     1      80.707  28.349  46.225  1.00  0.00    -0.504 OA
ATOM     14  H   UNL     1      80.679  28.315  47.237  1.00  0.00     0.293 HD
ENDBRANCH   7  13
ENDBRANCH   4   5
ENDBRANCH   2   3
ENDBRANCH   1   2
BRANCH   1  15
ATOM     15  C   UNL     1      78.578  22.264  44.241  1.00  0.00     0.331 C 
ATOM     16  O   UNL     1      77.607  21.464  44.334  1.00  0.00    -0.247 OA
BRANCH  15  17
ATOM     17  C   UNL     1      78.652  23.411  45.159  1.00  0.00     0.094 C 
ATOM     18  C   UNL     1      78.466  23.276  46.479  1.00  0.00     0.016 C 
BRANCH  18  19
ATOM     19  C   UNL     1      78.544  24.403  47.441  1.00  0.00    -0.021 A 
ATOM     20  C   UNL     1      78.179  25.720  47.095  1.00  0.00     0.058 A 
ATOM     21  C   UNL     1      78.963  24.136  48.753  1.00  0.00     0.012 A 
ATOM     22  C   UNL     1      78.259  26.760  48.044  1.00  0.00     0.161 A 
ATOM     23  C   UNL     1      79.044  25.163  49.695  1.00  0.00     0.051 A 
ATOM     24  C   UNL     1      78.697  26.473  49.344  1.00  0.00     0.157 A 
BRANCH  22  25
ATOM     25  O   UNL     1      77.909  28.084  47.735  1.00  0.00    -0.493 OA
ATOM     26  C   UNL     1      77.204  28.481  46.564  1.00  0.00     0.278 C 
ENDBRANCH  22  25
BRANCH  24  27
ATOM     27  O   UNL     1      78.781  27.497  50.285  1.00  0.00    -0.504 OA
ATOM     28  H   UNL     1      79.089  28.428  50.030  1.00  0.00     0.293 HD
ENDBRANCH  24  27
ENDBRANCH  18  19
ENDBRANCH  15  17
ENDBRANCH   1  15
TORSDOF 10
ENDMDL
MODEL 5
REMARK VINA RESULT:    -4.679      2.699      4.613
REMARK INTER + INTRA:          -9.512
REMARK INTER:                  -8.031
REMARK INTRA:                  -1.481
REMARK UNBOUND:                -2.372
REMARK SMILES COc1cc(C=CCOC(=O)C=Cc2ccc(O)c(OC)c2)ccc1O
REMARK SMILES IDX 9 1 8 2 7 3 6 4 5 5 3 6 25 7 4 8 24 9 23 10 2 11 1 12 26 13
REMARK SMILES IDX 10 15 11 16 12 17 13 18 14 19 22 20 15 21 19 22 16 23 17 24
REMARK SMILES IDX 20 25 21 26 18 27
REMARK H PARENT 26 14 18 28
REMARK Flexibility Score: inf
ROOT
ATOM      1  O   UNL     1      84.548  22.390  42.856  1.00  0.00    -0.458 OA
ENDROOT
BRANCH   1   2
ATOM      2  C   UNL     1      84.213  23.259  43.933  1.00  0.00     0.261 C 
BRANCH   2   3
ATOM      3  C   UNL     1      84.602  24.665  43.579  1.00  0.00     0.015 C 
ATOM      4  C   UNL     1      83.982  25.756  44.049  1.00  0.00     0.007 C 
BRANCH   4   5
ATOM      5  C   UNL     1      82.808  25.732  44.948  1.00  0.00    -0.022 A 
ATOM      6  C   UNL     1      80.458  25.172  45.304  1.00  0.00     0.161 A 
ATOM      7  C   UNL     1      80.567  25.598  46.636  1.00  0.00     0.157 A 
ATOM      8  C   UNL     1      81.589  25.233  44.466  1.00  0.00     0.058 A 
ATOM      9  C   UNL     1      81.791  26.069  47.126  1.00  0.00     0.051 A 
ATOM     10  C   UNL     1      82.909  26.126  46.291  1.00  0.00     0.012 A 
BRANCH   6  11
ATOM     11  O   UNL     1      79.217  24.698  44.853  1.00  0.00    -0.493 OA
ATOM     12  C   UNL     1      78.295  25.460  44.079  1.00  0.00     0.278 C 
ENDBRANCH   6  11
BRANCH   7  13
ATOM     13  O   UNL     1      79.450  25.543  47.470  1.00  0.00    -0.504 OA
ATOM     14  H   UNL     1      78.521  25.752  47.125  1.00  0.00     0.293 HD
ENDBRANCH   7  13
ENDBRANCH   4   5
ENDBRANCH   2   3
ENDBRANCH   1   2
BRANCH   1  15
ATOM     15  C   UNL     1      83.581  21.756  42.068  1.00  0.00     0.331 C 
ATOM     16  O   UNL     1      83.701  20.536  41.770  1.00  0.00    -0.247 OA
BRANCH  15  17
ATOM     17  C   UNL     1      82.410  22.501  41.579  1.00  0.00     0.094 C 
ATOM     18  C   UNL     1      81.162  22.180  41.946  1.00  0.00     0.016 C 
BRANCH  18  19
ATOM     19  C   UNL     1      79.955  22.912  41.487  1.00  0.00    -0.021 A 
ATOM     20  C   UNL     1      78.651  22.412  41.675  1.00  0.00     0.058 A 
ATOM     21  C   UNL     1      80.123  24.164  40.876  1.00  0.00     0.012 A 
ATOM     22  C   UNL     1      77.531  23.145  41.232  1.00  0.00     0.161 A 
ATOM     23  C   UNL     1      79.017  24.892  40.435  1.00  0.00     0.051 A 
ATOM     24  C   UNL     1      77.723  24.386  40.608  1.00  0.00     0.157 A 
BRANCH  22  25
ATOM     25  O   UNL     1      76.217  22.678  41.397  1.00  0.00    -0.493 OA
ATOM     26  C   UNL     1      75.615  21.663  40.601  1.00  0.00     0.278 C 
ENDBRANCH  22  25
BRANCH  24  27
ATOM     27  O   UNL     1      76.620  25.113  40.166  1.00  0.00    -0.504 OA
ATOM     28  H   UNL     1      75.701  24.693  40.098  1.00  0.00     0.293 HD
ENDBRANCH  24  27
ENDBRANCH  18  19
ENDBRANCH  15  17
ENDBRANCH   1  15
TORSDOF 10
ENDMDL
MODEL 6
REMARK VINA RESULT:    -4.541      2.009      4.093
REMARK INTER + INTRA:          -9.302
REMARK INTER:                  -7.122
REMARK INTRA:                  -2.180
REMARK UNBOUND:                -2.372
REMARK SMILES COc1cc(C=CCOC(=O)C=Cc2ccc(O)c(OC)c2)ccc1O
REMARK SMILES IDX 9 1 8 2 7 3 6 4 5 5 3 6 25 7 4 8 24 9 23 10 2 11 1 12 26 13
REMARK SMILES IDX 10 15 11 16 12 17 13 18 14 19 22 20 15 21 19 22 16 23 17 24
REMARK SMILES IDX 20 25 21 26 18 27
REMARK H PARENT 26 14 18 28
REMARK Flexibility Score: inf
ROOT
ATOM      1  O   UNL     1      80.473  24.159  41.026  1.00  0.00    -0.458 OA
ENDROOT
BRANCH   1   2
ATOM      2  C   UNL     1      79.110  24.546  41.161  1.00  0.00     0.261 C 
BRANCH   2   3
ATOM      3  C   UNL     1      78.833  25.720  40.266  1.00  0.00     0.015 C 
ATOM      4  C   UNL     1      78.982  26.999  40.639  1.00  0.00     0.007 C 
BRANCH   4   5
ATOM      5  C   UNL     1      79.402  27.436  41.987  1.00  0.00    -0.022 A 
ATOM      6  C   UNL     1      78.811  27.922  44.307  1.00  0.00     0.161 A 
ATOM      7  C   UNL     1      80.159  28.194  44.584  1.00  0.00     0.157 A 
ATOM      8  C   UNL     1      78.441  27.533  43.004  1.00  0.00     0.058 A 
ATOM      9  C   UNL     1      81.124  28.070  43.577  1.00  0.00     0.051 A 
ATOM     10  C   UNL     1      80.750  27.683  42.288  1.00  0.00     0.012 A 
BRANCH   6  11
ATOM     11  O   UNL     1      77.876  28.049  45.345  1.00  0.00    -0.493 OA
ATOM     12  C   UNL     1      77.514  26.999  46.236  1.00  0.00     0.278 C 
ENDBRANCH   6  11
BRANCH   7  13
ATOM     13  O   UNL     1      80.533  28.583  45.870  1.00  0.00    -0.504 OA
ATOM     14  H   UNL     1      81.419  29.040  46.048  1.00  0.00     0.293 HD
ENDBRANCH   7  13
ENDBRANCH   4   5
ENDBRANCH   2   3
ENDBRANCH   1   2
BRANCH   1  15
ATOM     15  C   UNL     1      81.156  23.442  42.014  1.00  0.00     0.331 C 
ATOM     16  O   UNL     1      81.364  22.205  41.875  1.00  0.00    -0.247 OA
BRANCH  15  17
ATOM     17  C   UNL     1      81.644  24.119  43.225  1.00  0.00     0.094 C 
ATOM     18  C   UNL     1      80.860  24.311  44.294  1.00  0.00     0.016 C 
BRANCH  18  19
ATOM     19  C   UNL     1      81.314  24.977  45.540  1.00  0.00    -0.021 A 
ATOM     20  C   UNL     1      80.534  25.001  46.713  1.00  0.00     0.058 A 
ATOM     21  C   UNL     1      82.585  25.573  45.555  1.00  0.00     0.012 A 
ATOM     22  C   UNL     1      81.009  25.638  47.878  1.00  0.00     0.161 A 
ATOM     23  C   UNL     1      83.058  26.204  46.707  1.00  0.00     0.051 A 
ATOM     24  C   UNL     1      82.274  26.242  47.866  1.00  0.00     0.157 A 
BRANCH  22  25
ATOM     25  O   UNL     1      80.258  25.687  49.064  1.00  0.00    -0.493 OA
ATOM     26  C   UNL     1      79.964  24.559  49.881  1.00  0.00     0.278 C 
ENDBRANCH  22  25
BRANCH  24  27
ATOM     27  O   UNL     1      82.747  26.875  49.013  1.00  0.00    -0.504 OA
ATOM     28  H   UNL     1      83.203  26.356  49.755  1.00  0.00     0.293 HD
ENDBRANCH  24  27
ENDBRANCH  18  19
ENDBRANCH  15  17
ENDBRANCH   1  15
TORSDOF 10
ENDMDL
MODEL 7
REMARK VINA RESULT:    -4.473      3.230      4.570
REMARK INTER + INTRA:          -9.198
REMARK INTER:                  -8.386
REMARK INTRA:                  -0.812
REMARK UNBOUND:                -2.372
REMARK SMILES COc1cc(C=CCOC(=O)C=Cc2ccc(O)c(OC)c2)ccc1O
REMARK SMILES IDX 9 1 8 2 7 3 6 4 5 5 3 6 25 7 4 8 24 9 23 10 2 11 1 12 26 13
REMARK SMILES IDX 10 15 11 16 12 17 13 18 14 19 22 20 15 21 19 22 16 23 17 24
REMARK SMILES IDX 20 25 21 26 18 27
REMARK H PARENT 26 14 18 28
REMARK Flexibility Score: inf
ROOT
ATOM      1  O   UNL     1      83.148  23.063  42.482  1.00  0.00    -0.458 OA
ENDROOT
BRANCH   1   2
ATOM      2  C   UNL     1      82.736  23.898  43.559  1.00  0.00     0.261 C 
BRANCH   2   3
ATOM      3  C   UNL     1      83.885  24.766  43.984  1.00  0.00     0.015 C 
ATOM      4  C   UNL     1      83.790  25.741  44.899  1.00  0.00     0.007 C 
BRANCH   4   5
ATOM      5  C   UNL     1      82.540  26.123  45.590  1.00  0.00    -0.022 A 
ATOM      6  C   UNL     1      81.112  25.973  47.566  1.00  0.00     0.161 A 
ATOM      7  C   UNL     1      80.214  26.873  46.974  1.00  0.00     0.157 A 
ATOM      8  C   UNL     1      82.282  25.609  46.870  1.00  0.00     0.058 A 
ATOM      9  C   UNL     1      80.485  27.410  45.709  1.00  0.00     0.051 A 
ATOM     10  C   UNL     1      81.646  27.045  45.025  1.00  0.00     0.012 A 
BRANCH   6  11
ATOM     11  O   UNL     1      80.809  25.465  48.838  1.00  0.00    -0.493 OA
ATOM     12  C   UNL     1      80.169  24.216  49.076  1.00  0.00     0.278 C 
ENDBRANCH   6  11
BRANCH   7  13
ATOM     13  O   UNL     1      79.052  27.236  47.656  1.00  0.00    -0.504 OA
ATOM     14  H   UNL     1      78.681  28.178  47.606  1.00  0.00     0.293 HD
ENDBRANCH   7  13
ENDBRANCH   4   5
ENDBRANCH   2   3
ENDBRANCH   1   2
BRANCH   1  15
ATOM     15  C   UNL     1      82.240  22.379  41.666  1.00  0.00     0.331 C 
ATOM     16  O   UNL     1      82.596  21.954  40.533  1.00  0.00    -0.247 OA
BRANCH  15  17
ATOM     17  C   UNL     1      80.859  22.146  42.118  1.00  0.00     0.094 C 
ATOM     18  C   UNL     1      79.802  22.464  41.358  1.00  0.00     0.016 C 
BRANCH  18  19
ATOM     19  C   UNL     1      78.395  22.234  41.769  1.00  0.00    -0.021 A 
ATOM     20  C   UNL     1      77.411  21.771  40.872  1.00  0.00     0.058 A 
ATOM     21  C   UNL     1      78.044  22.455  43.110  1.00  0.00     0.012 A 
ATOM     22  C   UNL     1      76.087  21.557  41.308  1.00  0.00     0.161 A 
ATOM     23  C   UNL     1      76.734  22.245  43.544  1.00  0.00     0.051 A 
ATOM     24  C   UNL     1      75.755  21.801  42.648  1.00  0.00     0.157 A 
BRANCH  22  25
ATOM     25  O   UNL     1      75.079  21.101  40.444  1.00  0.00    -0.493 OA
ATOM     26  C   UNL     1      74.909  19.744  40.046  1.00  0.00     0.278 C 
ENDBRANCH  22  25
BRANCH  24  27
ATOM     27  O   UNL     1      74.447  21.594  43.082  1.00  0.00    -0.504 OA
ATOM     28  H   UNL     1      74.170  20.733  43.538  1.00  0.00     0.293 HD
ENDBRANCH  24  27
ENDBRANCH  18  19
ENDBRANCH  15  17
ENDBRANCH   1  15
TORSDOF 10
ENDMDL
MODEL 8
REMARK VINA RESULT:    -4.366      1.997      2.931
REMARK INTER + INTRA:          -9.035
REMARK INTER:                  -7.221
REMARK INTRA:                  -1.814
REMARK UNBOUND:                -2.372
REMARK SMILES COc1cc(C=CCOC(=O)C=Cc2ccc(O)c(OC)c2)ccc1O
REMARK SMILES IDX 9 1 8 2 7 3 6 4 5 5 3 6 25 7 4 8 24 9 23 10 2 11 1 12 26 13
REMARK SMILES IDX 10 15 11 16 12 17 13 18 14 19 22 20 15 21 19 22 16 23 17 24
REMARK SMILES IDX 20 25 21 26 18 27
REMARK H PARENT 26 14 18 28
REMARK Flexibility Score: inf
ROOT
ATOM      1  O   UNL     1      78.570  23.020  43.044  1.00  0.00    -0.458 OA
ENDROOT
BRANCH   1   2
ATOM      2  C   UNL     1      79.737  22.438  43.614  1.00  0.00     0.261 C 
BRANCH   2   3
ATOM      3  C   UNL     1      80.902  22.654  42.692  1.00  0.00     0.015 C 
ATOM      4  C   UNL     1      81.661  23.759  42.688  1.00  0.00     0.007 C 
BRANCH   4   5
ATOM      5  C   UNL     1      81.438  24.932  43.559  1.00  0.00    -0.022 A 
ATOM      6  C   UNL     1      81.917  26.111  45.644  1.00  0.00     0.161 A 
ATOM      7  C   UNL     1      81.102  27.172  45.222  1.00  0.00     0.157 A 
ATOM      8  C   UNL     1      82.088  24.996  44.800  1.00  0.00     0.058 A 
ATOM      9  C   UNL     1      80.475  27.123  43.970  1.00  0.00     0.051 A 
ATOM     10  C   UNL     1      80.649  26.015  43.139  1.00  0.00     0.012 A 
BRANCH   6  11
ATOM     11  O   UNL     1      82.535  26.202  46.900  1.00  0.00    -0.493 OA
ATOM     12  C   UNL     1      81.905  25.873  48.135  1.00  0.00     0.278 C 
ENDBRANCH   6  11
BRANCH   7  13
ATOM     13  O   UNL     1      80.925  28.278  46.053  1.00  0.00    -0.504 OA
ATOM     14  H   UNL     1      81.366  29.168  45.850  1.00  0.00     0.293 HD
ENDBRANCH   7  13
ENDBRANCH   4   5
ENDBRANCH   2   3
ENDBRANCH   1   2
BRANCH   1  15
ATOM     15  C   UNL     1      77.489  23.458  43.819  1.00  0.00     0.331 C 
ATOM     16  O   UNL     1      76.321  23.050  43.571  1.00  0.00    -0.247 OA
BRANCH  15  17
ATOM     17  C   UNL     1      77.700  24.396  44.931  1.00  0.00     0.094 C 
ATOM     18  C   UNL     1      77.863  23.975  46.193  1.00  0.00     0.016 C 
BRANCH  18  19
ATOM     19  C   UNL     1      78.090  24.885  47.342  1.00  0.00    -0.021 A 
ATOM     20  C   UNL     1      78.317  24.411  48.650  1.00  0.00     0.058 A 
ATOM     21  C   UNL     1      78.115  26.268  47.106  1.00  0.00     0.012 A 
ATOM     22  C   UNL     1      78.539  25.312  49.712  1.00  0.00     0.161 A 
ATOM     23  C   UNL     1      78.333  27.163  48.155  1.00  0.00     0.051 A 
ATOM     24  C   UNL     1      78.542  26.690  49.456  1.00  0.00     0.157 A 
BRANCH  22  25
ATOM     25  O   UNL     1      78.763  24.877  51.028  1.00  0.00    -0.493 OA
ATOM     26  C   UNL     1      77.743  24.702  52.006  1.00  0.00     0.278 C 
ENDBRANCH  22  25
BRANCH  24  27
ATOM     27  O   UNL     1      78.757  27.585  50.502  1.00  0.00    -0.504 OA
ATOM     28  H   UNL     1      78.865  28.578  50.337  1.00  0.00     0.293 HD
ENDBRANCH  24  27
ENDBRANCH  18  19
ENDBRANCH  15  17
ENDBRANCH   1  15
TORSDOF 10
ENDMDL
MODEL 9
REMARK VINA RESULT:    -4.362     10.784     13.044
REMARK INTER + INTRA:          -9.029
REMARK INTER:                  -8.232
REMARK INTRA:                  -0.797
REMARK UNBOUND:                -2.372
REMARK SMILES COc1cc(C=CCOC(=O)C=Cc2ccc(O)c(OC)c2)ccc1O
REMARK SMILES IDX 9 1 8 2 7 3 6 4 5 5 3 6 25 7 4 8 24 9 23 10 2 11 1 12 26 13
REMARK SMILES IDX 10 15 11 16 12 17 13 18 14 19 22 20 15 21 19 22 16 23 17 24
REMARK SMILES IDX 20 25 21 26 18 27
REMARK H PARENT 26 14 18 28
REMARK Flexibility Score: inf
ROOT
ATOM      1  O   UNL     1      74.895  17.200  47.513  1.00  0.00    -0.458 OA
ENDROOT
BRANCH   1   2
ATOM      2  C   UNL     1      74.851  16.080  46.635  1.00  0.00     0.261 C 
BRANCH   2   3
ATOM      3  C   UNL     1      76.238  15.771  46.151  1.00  0.00     0.015 C 
ATOM      4  C   UNL     1      76.647  15.946  44.886  1.00  0.00     0.007 C 
BRANCH   4   5
ATOM      5  C   UNL     1      75.787  16.429  43.786  1.00  0.00    -0.022 A 
ATOM      6  C   UNL     1      74.882  18.303  42.507  1.00  0.00     0.161 A 
ATOM      7  C   UNL     1      74.220  17.397  41.665  1.00  0.00     0.157 A 
ATOM      8  C   UNL     1      75.674  17.810  43.562  1.00  0.00     0.058 A 
ATOM      9  C   UNL     1      74.355  16.018  41.869  1.00  0.00     0.051 A 
ATOM     10  C   UNL     1      75.142  15.536  42.917  1.00  0.00     0.012 A 
BRANCH   6  11
ATOM     11  O   UNL     1      74.729  19.676  42.264  1.00  0.00    -0.493 OA
ATOM     12  C   UNL     1      75.623  20.460  41.479  1.00  0.00     0.278 C 
ENDBRANCH   6  11
BRANCH   7  13
ATOM     13  O   UNL     1      73.432  17.878  40.619  1.00  0.00    -0.504 OA
ATOM     14  H   UNL     1      73.334  18.871  40.444  1.00  0.00     0.293 HD
ENDBRANCH   7  13
ENDBRANCH   4   5
ENDBRANCH   2   3
ENDBRANCH   1   2
BRANCH   1  15
ATOM     15  C   UNL     1      75.577  17.175  48.735  1.00  0.00     0.331 C 
ATOM     16  O   UNL     1      76.368  18.109  49.042  1.00  0.00    -0.247 OA
BRANCH  15  17
ATOM     17  C   UNL     1      75.380  16.063  49.678  1.00  0.00     0.094 C 
ATOM     18  C   UNL     1      76.350  15.178  49.942  1.00  0.00     0.016 C 
BRANCH  18  19
ATOM     19  C   UNL     1      76.199  14.050  50.894  1.00  0.00    -0.021 A 
ATOM     20  C   UNL     1      75.113  13.955  51.788  1.00  0.00     0.058 A 
ATOM     21  C   UNL     1      77.157  13.025  50.876  1.00  0.00     0.012 A 
ATOM     22  C   UNL     1      75.004  12.859  52.670  1.00  0.00     0.161 A 
ATOM     23  C   UNL     1      77.052  11.940  51.748  1.00  0.00     0.051 A 
ATOM     24  C   UNL     1      75.982  11.856  52.646  1.00  0.00     0.157 A 
BRANCH  22  25
ATOM     25  O   UNL     1      73.940  12.732  53.577  1.00  0.00    -0.493 OA
ATOM     26  C   UNL     1      72.713  12.066  53.294  1.00  0.00     0.278 C 
ENDBRANCH  22  25
BRANCH  24  27
ATOM     27  O   UNL     1      75.880  10.773  53.517  1.00  0.00    -0.504 OA
ATOM     28  H   UNL     1      75.226  10.018  53.349  1.00  0.00     0.293 HD
ENDBRANCH  24  27
ENDBRANCH  18  19
ENDBRANCH  15  17
ENDBRANCH   1  15
TORSDOF 10
ENDMDL
