MODEL 1
REMARK VINA RESULT:    -5.144      0.000      0.000
REMARK INTER + INTRA:          -6.983
REMARK INTER:                  -6.948
REMARK INTRA:                  -0.035
REMARK UNBOUND:                -0.035
REMARK SMILES [NH3+]CCCC[C@H]([NH3+])C(=O)[O-]
REMARK SMILES IDX 4 1 3 2 2 3 1 4 5 8 6 9 7 10 8 14 9 15 10 16
REMARK H PARENT 1 5 1 6 1 7 7 11 7 12 7 13
REMARK Flexibility Score: inf
ROOT
ATOM      1  C   UNL     1      22.551   6.328   6.623  1.00  0.00     0.012 C 
ENDROOT
BRANCH   1   2
ATOM      2  C   UNL     1      22.017   4.892   6.728  1.00  0.00     0.061 C 
BRANCH   2   3
ATOM      3  C   UNL     1      23.067   3.841   6.332  1.00  0.00     0.258 C 
BRANCH   3   4
ATOM      4  N   UNL     1      22.610   2.476   6.600  1.00  0.00    -0.358 N 
ATOM      5  H   UNL     1      23.013   1.814   5.898  1.00  0.00     0.344 HD
ATOM      6  H   UNL     1      22.940   2.189   7.549  1.00  0.00     0.344 HD
ATOM      7  H   UNL     1      21.567   2.429   6.578  1.00  0.00     0.344 HD
ENDBRANCH   3   4
ENDBRANCH   2   3
ENDBRANCH   1   2
BRANCH   1   8
ATOM      8  C   UNL     1      21.543   7.237   5.903  1.00  0.00     0.072 C 
BRANCH   8   9
ATOM      9  C   UNL     1      20.240   7.438   6.707  1.00  0.00     0.227 C 
BRANCH   9  10
ATOM     10  N   UNL     1      19.410   8.511   6.143  1.00  0.00    -0.350 N 
ATOM     11  H   UNL     1      19.361   8.418   5.102  1.00  0.00     0.345 HD
ATOM     12  H   UNL     1      19.798   9.450   6.390  1.00  0.00     0.345 HD
ATOM     13  H   UNL     1      18.433   8.437   6.510  1.00  0.00     0.345 HD
ENDBRANCH   9  10
BRANCH   9  14
ATOM     14  C   UNL     1      20.573   7.740   8.144  1.00  0.00     0.099 C 
ATOM     15  O   UNL     1      20.147   6.998   9.068  1.00  0.00    -0.544 OA
ATOM     16  O   UNL     1      21.338   8.856   8.460  1.00  0.00    -0.544 OA
ENDBRANCH   9  14
ENDBRANCH   8   9
ENDBRANCH   1   8
TORSDOF 7
ENDMDL
MODEL 2
REMARK VINA RESULT:    -4.416      1.682      2.051
REMARK INTER + INTRA:          -6.000
REMARK INTER:                  -6.011
REMARK INTRA:                   0.011
REMARK UNBOUND:                -0.035
REMARK SMILES [NH3+]CCCC[C@H]([NH3+])C(=O)[O-]
REMARK SMILES IDX 4 1 3 2 2 3 1 4 5 8 6 9 7 10 8 14 9 15 10 16
REMARK H PARENT 1 5 1 6 1 7 7 11 7 12 7 13
REMARK Flexibility Score: inf
ROOT
ATOM      1  C   UNL     1      21.816   4.791   7.395  1.00  0.00     0.012 C 
ENDROOT
BRANCH   1   2
ATOM      2  C   UNL     1      23.032   3.956   6.969  1.00  0.00     0.061 C 
BRANCH   2   3
ATOM      3  C   UNL     1      22.649   2.529   6.542  1.00  0.00     0.258 C 
BRANCH   3   4
ATOM      4  N   UNL     1      23.187   1.517   7.452  1.00  0.00    -0.358 N 
ATOM      5  H   UNL     1      23.210   0.582   6.984  1.00  0.00     0.344 HD
ATOM      6  H   UNL     1      24.166   1.779   7.710  1.00  0.00     0.344 HD
ATOM      7  H   UNL     1      22.613   1.466   8.324  1.00  0.00     0.344 HD
ENDBRANCH   3   4
ENDBRANCH   2   3
ENDBRANCH   1   2
BRANCH   1   8
ATOM      8  C   UNL     1      21.265   5.601   6.212  1.00  0.00     0.072 C 
BRANCH   8   9
ATOM      9  C   UNL     1      21.576   7.110   6.325  1.00  0.00     0.227 C 
BRANCH   9  10
ATOM     10  N   UNL     1      22.845   7.354   7.024  1.00  0.00    -0.350 N 
ATOM     11  H   UNL     1      23.648   7.028   6.437  1.00  0.00     0.345 HD
ATOM     12  H   UNL     1      22.864   6.859   7.945  1.00  0.00     0.345 HD
ATOM     13  H   UNL     1      22.972   8.380   7.185  1.00  0.00     0.345 HD
ENDBRANCH   9  10
BRANCH   9  14
ATOM     14  C   UNL     1      20.448   7.807   7.037  1.00  0.00     0.099 C 
ATOM     15  O   UNL     1      19.699   8.608   6.417  1.00  0.00    -0.544 OA
ATOM     16  O   UNL     1      20.240   7.585   8.393  1.00  0.00    -0.544 OA
ENDBRANCH   9  14
ENDBRANCH   8   9
ENDBRANCH   1   8
TORSDOF 7
ENDMDL
MODEL 3
REMARK VINA RESULT:    -3.881      2.779      4.938
REMARK INTER + INTRA:          -5.277
REMARK INTER:                  -5.173
REMARK INTRA:                  -0.103
REMARK UNBOUND:                -0.035
REMARK SMILES [NH3+]CCCC[C@H]([NH3+])C(=O)[O-]
REMARK SMILES IDX 4 1 3 2 2 3 1 4 5 8 6 9 7 10 8 14 9 15 10 16
REMARK H PARENT 1 5 1 6 1 7 7 11 7 12 7 13
REMARK Flexibility Score: inf
ROOT
ATOM      1  C   UNL     1      20.217   7.645   6.942  1.00  0.00     0.012 C 
ENDROOT
BRANCH   1   2
ATOM      2  C   UNL     1      19.672   8.915   6.272  1.00  0.00     0.061 C 
BRANCH   2   3
ATOM      3  C   UNL     1      20.501  10.165   6.613  1.00  0.00     0.258 C 
BRANCH   3   4
ATOM      4  N   UNL     1      19.929  11.381   6.033  1.00  0.00    -0.358 N 
ATOM      5  H   UNL     1      19.872  11.296   4.993  1.00  0.00     0.344 HD
ATOM      6  H   UNL     1      18.961  11.511   6.405  1.00  0.00     0.344 HD
ATOM      7  H   UNL     1      20.503  12.215   6.293  1.00  0.00     0.344 HD
ENDBRANCH   3   4
ENDBRANCH   2   3
ENDBRANCH   1   2
BRANCH   1   8
ATOM      8  C   UNL     1      20.728   6.647   5.892  1.00  0.00     0.072 C 
BRANCH   8   9
ATOM      9  C   UNL     1      21.514   5.473   6.517  1.00  0.00     0.227 C 
BRANCH   9  10
ATOM     10  N   UNL     1      21.390   5.451   7.981  1.00  0.00    -0.350 N 
ATOM     11  H   UNL     1      21.227   6.419   8.343  1.00  0.00     0.345 HD
ATOM     12  H   UNL     1      22.252   5.056   8.422  1.00  0.00     0.345 HD
ATOM     13  H   UNL     1      20.566   4.869   8.259  1.00  0.00     0.345 HD
ENDBRANCH   9  10
BRANCH   9  14
ATOM     14  C   UNL     1      22.964   5.568   6.120  1.00  0.00     0.099 C 
ATOM     15  O   UNL     1      23.628   4.526   5.876  1.00  0.00    -0.544 OA
ATOM     16  O   UNL     1      23.584   6.809   6.042  1.00  0.00    -0.544 OA
ENDBRANCH   9  14
ENDBRANCH   8   9
ENDBRANCH   1   8
TORSDOF 7
ENDMDL
MODEL 4
REMARK VINA RESULT:    -3.499     22.767     23.573
REMARK INTER + INTRA:          -4.761
REMARK INTER:                  -4.666
REMARK INTRA:                  -0.095
REMARK UNBOUND:                -0.035
REMARK SMILES [NH3+]CCCC[C@H]([NH3+])C(=O)[O-]
REMARK SMILES IDX 4 1 3 2 2 3 1 4 5 8 6 9 7 10 8 14 9 15 10 16
REMARK H PARENT 1 5 1 6 1 7 7 11 7 12 7 13
REMARK Flexibility Score: inf
ROOT
ATOM      1  C   UNL     1      35.141  -1.228  23.360  1.00  0.00     0.012 C 
ENDROOT
BRANCH   1   2
ATOM      2  C   UNL     1      35.392  -1.614  24.825  1.00  0.00     0.061 C 
BRANCH   2   3
ATOM      3  C   UNL     1      34.298  -2.536  25.389  1.00  0.00     0.258 C 
BRANCH   3   4
ATOM      4  N   UNL     1      34.799  -3.885  25.662  1.00  0.00    -0.358 N 
ATOM      5  H   UNL     1      35.842  -3.880  25.719  1.00  0.00     0.344 HD
ATOM      6  H   UNL     1      34.420  -4.207  26.582  1.00  0.00     0.344 HD
ATOM      7  H   UNL     1      34.484  -4.549  24.919  1.00  0.00     0.344 HD
ENDBRANCH   3   4
ENDBRANCH   2   3
ENDBRANCH   1   2
BRANCH   1   8
ATOM      8  C   UNL     1      35.430  -2.410  22.423  1.00  0.00     0.072 C 
BRANCH   8   9
ATOM      9  C   UNL     1      36.745  -2.236  21.632  1.00  0.00     0.227 C 
BRANCH   9  10
ATOM     10  N   UNL     1      36.670  -1.111  20.690  1.00  0.00    -0.350 N 
ATOM     11  H   UNL     1      36.067  -1.365  19.874  1.00  0.00     0.345 HD
ATOM     12  H   UNL     1      37.623  -0.847  20.348  1.00  0.00     0.345 HD
ATOM     13  H   UNL     1      36.234  -0.283  21.157  1.00  0.00     0.345 HD
ENDBRANCH   9  10
BRANCH   9  14
ATOM     14  C   UNL     1      37.065  -3.510  20.895  1.00  0.00     0.099 C 
ATOM     15  O   UNL     1      37.802  -3.489  19.874  1.00  0.00    -0.544 OA
ATOM     16  O   UNL     1      36.530  -4.717  21.329  1.00  0.00    -0.544 OA
ENDBRANCH   9  14
ENDBRANCH   8   9
ENDBRANCH   1   8
TORSDOF 7
ENDMDL
MODEL 5
REMARK VINA RESULT:    -3.230     12.030     13.016
REMARK INTER + INTRA:          -4.398
REMARK INTER:                  -3.984
REMARK INTRA:                  -0.413
REMARK UNBOUND:                -0.035
REMARK SMILES [NH3+]CCCC[C@H]([NH3+])C(=O)[O-]
REMARK SMILES IDX 4 1 3 2 2 3 1 4 5 8 6 9 7 10 8 14 9 15 10 16
REMARK H PARENT 1 5 1 6 1 7 7 11 7 12 7 13
REMARK Flexibility Score: inf
ROOT
ATOM      1  C   UNL     1      20.066   4.539  18.242  1.00  0.00     0.012 C 
ENDROOT
BRANCH   1   2
ATOM      2  C   UNL     1      21.392   4.919  17.568  1.00  0.00     0.061 C 
BRANCH   2   3
ATOM      3  C   UNL     1      21.458   6.409  17.191  1.00  0.00     0.258 C 
BRANCH   3   4
ATOM      4  N   UNL     1      22.460   7.133  17.974  1.00  0.00    -0.358 N 
ATOM      5  H   UNL     1      23.394   7.079  17.507  1.00  0.00     0.344 HD
ATOM      6  H   UNL     1      22.181   8.138  18.036  1.00  0.00     0.344 HD
ATOM      7  H   UNL     1      22.521   6.741  18.941  1.00  0.00     0.344 HD
ENDBRANCH   3   4
ENDBRANCH   2   3
ENDBRANCH   1   2
BRANCH   1   8
ATOM      8  C   UNL     1      20.290   4.132  19.705  1.00  0.00     0.072 C 
BRANCH   8   9
ATOM      9  C   UNL     1      21.590   4.721  20.296  1.00  0.00     0.227 C 
BRANCH   9  10
ATOM     10  N   UNL     1      22.331   3.726  21.084  1.00  0.00    -0.350 N 
ATOM     11  H   UNL     1      23.341   3.728  20.809  1.00  0.00     0.345 HD
ATOM     12  H   UNL     1      21.935   2.769  20.942  1.00  0.00     0.345 HD
ATOM     13  H   UNL     1      22.283   3.969  22.101  1.00  0.00     0.345 HD
ENDBRANCH   9  10
BRANCH   9  14
ATOM     14  C   UNL     1      21.262   5.918  21.148  1.00  0.00     0.099 C 
ATOM     15  O   UNL     1      21.433   5.881  22.395  1.00  0.00    -0.544 OA
ATOM     16  O   UNL     1      20.747   7.068  20.561  1.00  0.00    -0.544 OA
ENDBRANCH   9  14
ENDBRANCH   8   9
ENDBRANCH   1   8
TORSDOF 7
ENDMDL
MODEL 6
REMARK VINA RESULT:    -3.202     22.384     23.373
REMARK INTER + INTRA:          -4.360
REMARK INTER:                  -4.219
REMARK INTRA:                  -0.141
REMARK UNBOUND:                -0.035
REMARK SMILES [NH3+]CCCC[C@H]([NH3+])C(=O)[O-]
REMARK SMILES IDX 4 1 3 2 2 3 1 4 5 8 6 9 7 10 8 14 9 15 10 16
REMARK H PARENT 1 5 1 6 1 7 7 11 7 12 7 13
REMARK Flexibility Score: inf
ROOT
ATOM      1  C   UNL     1      34.722  -2.649  24.984  1.00  0.00     0.012 C 
ENDROOT
BRANCH   1   2
ATOM      2  C   UNL     1      33.877  -2.064  26.124  1.00  0.00     0.061 C 
BRANCH   2   3
ATOM      3  C   UNL     1      32.435  -2.597  26.125  1.00  0.00     0.258 C 
BRANCH   3   4
ATOM      4  N   UNL     1      31.450  -1.524  25.973  1.00  0.00    -0.358 N 
ATOM      5  H   UNL     1      31.929  -0.596  25.917  1.00  0.00     0.344 HD
ATOM      6  H   UNL     1      30.920  -1.674  25.084  1.00  0.00     0.344 HD
ATOM      7  H   UNL     1      30.775  -1.531  26.771  1.00  0.00     0.344 HD
ENDBRANCH   3   4
ENDBRANCH   2   3
ENDBRANCH   1   2
BRANCH   1   8
ATOM      8  C   UNL     1      35.709  -1.606  24.439  1.00  0.00     0.072 C 
BRANCH   8   9
ATOM      9  C   UNL     1      35.389  -1.181  22.989  1.00  0.00     0.227 C 
BRANCH   9  10
ATOM     10  N   UNL     1      33.941  -1.103  22.750  1.00  0.00    -0.350 N 
ATOM     11  H   UNL     1      33.684  -1.669  21.909  1.00  0.00     0.345 HD
ATOM     12  H   UNL     1      33.640  -0.112  22.607  1.00  0.00     0.345 HD
ATOM     13  H   UNL     1      33.423  -1.503  23.567  1.00  0.00     0.345 HD
ENDBRANCH   9  10
BRANCH   9  14
ATOM     14  C   UNL     1      36.022  -2.150  22.026  1.00  0.00     0.099 C 
ATOM     15  O   UNL     1      35.313  -2.799  21.214  1.00  0.00    -0.544 OA
ATOM     16  O   UNL     1      37.398  -2.347  22.044  1.00  0.00    -0.544 OA
ENDBRANCH   9  14
ENDBRANCH   8   9
ENDBRANCH   1   8
TORSDOF 7
ENDMDL
