MODEL 1
REMARK VINA RESULT:    -4.483      0.000      0.000
REMARK INTER + INTRA:          -5.403
REMARK INTER:                  -5.138
REMARK INTRA:                  -0.264
REMARK UNBOUND:                -0.264
REMARK SMILES COC(=O)c1ccccc1O
REMARK SMILES IDX 5 1 6 2 7 3 8 4 9 5 10 6 3 7 4 8 2 9 1 10 11 11
REMARK H PARENT 11 12
REMARK Flexibility Score: inf
ROOT
ATOM      1  C   UNL     1      72.988  34.300  54.924  1.00  0.00     0.101 A 
ATOM      2  C   UNL     1      73.491  35.613  54.845  1.00  0.00     0.019 A 
ATOM      3  C   UNL     1      74.213  36.035  53.726  1.00  0.00     0.001 A 
ATOM      4  C   UNL     1      74.445  35.156  52.670  1.00  0.00     0.004 A 
ATOM      5  C   UNL     1      73.955  33.850  52.728  1.00  0.00     0.047 A 
ATOM      6  C   UNL     1      73.228  33.412  53.847  1.00  0.00     0.130 A 
ENDROOT
BRANCH   1   7
ATOM      7  C   UNL     1      72.225  33.886  56.129  1.00  0.00     0.341 C 
ATOM      8  O   UNL     1      71.181  34.504  56.472  1.00  0.00    -0.246 OA
BRANCH   7   9
ATOM      9  O   UNL     1      72.670  32.800  56.892  1.00  0.00    -0.465 OA
ATOM     10  C   UNL     1      72.126  32.483  58.167  1.00  0.00     0.282 C 
ENDBRANCH   7   9
ENDBRANCH   1   7
BRANCH   6  11
ATOM     11  O   UNL     1      72.750  32.103  53.879  1.00  0.00    -0.507 OA
ATOM     12  H   UNL     1      73.227  31.348  53.401  1.00  0.00     0.293 HD
ENDBRANCH   6  11
TORSDOF 3
ENDMDL
MODEL 2
REMARK VINA RESULT:    -4.404     15.200     16.465
REMARK INTER + INTRA:          -5.311
REMARK INTER:                  -4.968
REMARK INTRA:                  -0.343
REMARK UNBOUND:                -0.264
REMARK SMILES COC(=O)c1ccccc1O
REMARK SMILES IDX 5 1 6 2 7 3 8 4 9 5 10 6 3 7 4 8 2 9 1 10 11 11
REMARK H PARENT 11 12
REMARK Flexibility Score: inf
ROOT
ATOM      1  C   UNL     1      85.068  31.760  65.845  1.00  0.00     0.101 A 
ATOM      2  C   UNL     1      85.803  31.587  67.034  1.00  0.00     0.019 A 
ATOM      3  C   UNL     1      87.149  31.955  67.101  1.00  0.00     0.001 A 
ATOM      4  C   UNL     1      87.782  32.498  65.985  1.00  0.00     0.004 A 
ATOM      5  C   UNL     1      87.072  32.678  64.797  1.00  0.00     0.047 A 
ATOM      6  C   UNL     1      85.719  32.314  64.715  1.00  0.00     0.130 A 
ENDROOT
BRANCH   1   7
ATOM      7  C   UNL     1      83.638  31.358  65.811  1.00  0.00     0.341 C 
ATOM      8  O   UNL     1      82.891  31.555  66.808  1.00  0.00    -0.246 OA
BRANCH   7   9
ATOM      9  O   UNL     1      83.116  30.754  64.661  1.00  0.00    -0.465 OA
ATOM     10  C   UNL     1      83.378  29.399  64.317  1.00  0.00     0.282 C 
ENDBRANCH   7   9
ENDBRANCH   1   7
BRANCH   6  11
ATOM     11  O   UNL     1      85.032  32.504  63.517  1.00  0.00    -0.507 OA
ATOM     12  H   UNL     1      84.233  33.124  63.453  1.00  0.00     0.293 HD
ENDBRANCH   6  11
TORSDOF 3
ENDMDL
MODEL 3
REMARK VINA RESULT:    -4.339     15.506     16.831
REMARK INTER + INTRA:          -5.237
REMARK INTER:                  -4.934
REMARK INTRA:                  -0.303
REMARK UNBOUND:                -0.264
REMARK SMILES COC(=O)c1ccccc1O
REMARK SMILES IDX 5 1 6 2 7 3 8 4 9 5 10 6 3 7 4 8 2 9 1 10 11 11
REMARK H PARENT 11 12
REMARK Flexibility Score: inf
ROOT
ATOM      1  C   UNL     1      85.200  31.600  65.700  1.00  0.00     0.101 A 
ATOM      2  C   UNL     1      86.010  31.908  64.589  1.00  0.00     0.019 A 
ATOM      3  C   UNL     1      87.351  32.262  64.761  1.00  0.00     0.001 A 
ATOM      4  C   UNL     1      87.903  32.316  66.039  1.00  0.00     0.004 A 
ATOM      5  C   UNL     1      87.118  32.015  67.152  1.00  0.00     0.047 A 
ATOM      6  C   UNL     1      85.769  31.657  66.996  1.00  0.00     0.130 A 
ENDROOT
BRANCH   1   7
ATOM      7  C   UNL     1      83.779  31.228  65.481  1.00  0.00     0.341 C 
ATOM      8  O   UNL     1      82.880  31.631  66.268  1.00  0.00    -0.246 OA
BRANCH   7   9
ATOM      9  O   UNL     1      83.435  30.422  64.389  1.00  0.00    -0.465 OA
ATOM     10  C   UNL     1      83.627  29.013  64.383  1.00  0.00     0.282 C 
ENDBRANCH   7   9
ENDBRANCH   1   7
BRANCH   6  11
ATOM     11  O   UNL     1      85.006  31.361  68.125  1.00  0.00    -0.507 OA
ATOM     12  H   UNL     1      85.257  30.608  68.755  1.00  0.00     0.293 HD
ENDBRANCH   6  11
TORSDOF 3
ENDMDL
MODEL 4
REMARK VINA RESULT:    -4.334      6.644      8.102
REMARK INTER + INTRA:          -5.232
REMARK INTER:                  -4.940
REMARK INTRA:                  -0.292
REMARK UNBOUND:                -0.264
REMARK SMILES COC(=O)c1ccccc1O
REMARK SMILES IDX 5 1 6 2 7 3 8 4 9 5 10 6 3 7 4 8 2 9 1 10 11 11
REMARK H PARENT 11 12
REMARK Flexibility Score: inf
ROOT
ATOM      1  C   UNL     1      79.166  34.003  51.795  1.00  0.00     0.101 A 
ATOM      2  C   UNL     1      77.762  34.106  51.736  1.00  0.00     0.019 A 
ATOM      3  C   UNL     1      76.953  33.012  52.053  1.00  0.00     0.001 A 
ATOM      4  C   UNL     1      77.530  31.801  52.432  1.00  0.00     0.004 A 
ATOM      5  C   UNL     1      78.918  31.679  52.497  1.00  0.00     0.047 A 
ATOM      6  C   UNL     1      79.744  32.769  52.181  1.00  0.00     0.130 A 
ENDROOT
BRANCH   1   7
ATOM      7  C   UNL     1      79.995  35.187  51.450  1.00  0.00     0.341 C 
ATOM      8  O   UNL     1      80.653  35.792  52.340  1.00  0.00    -0.246 OA
BRANCH   7   9
ATOM      9  O   UNL     1      80.046  35.636  50.125  1.00  0.00    -0.465 OA
ATOM     10  C   UNL     1      80.253  34.759  49.024  1.00  0.00     0.282 C 
ENDBRANCH   7   9
ENDBRANCH   1   7
BRANCH   6  11
ATOM     11  O   UNL     1      81.129  32.621  52.254  1.00  0.00    -0.507 OA
ATOM     12  H   UNL     1      81.612  31.883  51.756  1.00  0.00     0.293 HD
ENDBRANCH   6  11
TORSDOF 3
ENDMDL
MODEL 5
REMARK VINA RESULT:    -4.304     14.813     16.289
REMARK INTER + INTRA:          -5.198
REMARK INTER:                  -4.915
REMARK INTRA:                  -0.282
REMARK UNBOUND:                -0.264
REMARK SMILES COC(=O)c1ccccc1O
REMARK SMILES IDX 5 1 6 2 7 3 8 4 9 5 10 6 3 7 4 8 2 9 1 10 11 11
REMARK H PARENT 11 12
REMARK Flexibility Score: inf
ROOT
ATOM      1  C   UNL     1      85.055  30.711  65.020  1.00  0.00     0.101 A 
ATOM      2  C   UNL     1      85.786  29.509  65.097  1.00  0.00     0.019 A 
ATOM      3  C   UNL     1      85.187  28.288  64.779  1.00  0.00     0.001 A 
ATOM      4  C   UNL     1      83.852  28.245  64.381  1.00  0.00     0.004 A 
ATOM      5  C   UNL     1      83.110  29.424  64.299  1.00  0.00     0.047 A 
ATOM      6  C   UNL     1      83.699  30.659  64.615  1.00  0.00     0.130 A 
ENDROOT
BRANCH   1   7
ATOM      7  C   UNL     1      85.724  31.991  65.365  1.00  0.00     0.341 C 
ATOM      8  O   UNL     1      85.916  32.874  64.485  1.00  0.00    -0.246 OA
BRANCH   7   9
ATOM      9  O   UNL     1      86.147  32.219  66.680  1.00  0.00    -0.465 OA
ATOM     10  C   UNL     1      85.352  31.888  67.811  1.00  0.00     0.282 C 
ENDBRANCH   7   9
ENDBRANCH   1   7
BRANCH   6  11
ATOM     11  O   UNL     1      82.935  31.822  64.523  1.00  0.00    -0.507 OA
ATOM     12  H   UNL     1      82.699  32.370  65.341  1.00  0.00     0.293 HD
ENDBRANCH   6  11
TORSDOF 3
ENDMDL
MODEL 6
REMARK VINA RESULT:    -4.255     15.445     16.611
REMARK INTER + INTRA:          -5.141
REMARK INTER:                  -4.881
REMARK INTRA:                  -0.259
REMARK UNBOUND:                -0.264
REMARK SMILES COC(=O)c1ccccc1O
REMARK SMILES IDX 5 1 6 2 7 3 8 4 9 5 10 6 3 7 4 8 2 9 1 10 11 11
REMARK H PARENT 11 12
REMARK Flexibility Score: inf
ROOT
ATOM      1  C   UNL     1      85.261  31.212  65.315  1.00  0.00     0.101 A 
ATOM      2  C   UNL     1      85.985  32.420  65.358  1.00  0.00     0.019 A 
ATOM      3  C   UNL     1      87.365  32.433  65.135  1.00  0.00     0.001 A 
ATOM      4  C   UNL     1      88.042  31.245  64.868  1.00  0.00     0.004 A 
ATOM      5  C   UNL     1      87.344  30.038  64.821  1.00  0.00     0.047 A 
ATOM      6  C   UNL     1      85.958  30.010  65.043  1.00  0.00     0.130 A 
ENDROOT
BRANCH   1   7
ATOM      7  C   UNL     1      83.796  31.236  65.557  1.00  0.00     0.341 C 
ATOM      8  O   UNL     1      83.005  30.650  64.768  1.00  0.00    -0.246 OA
BRANCH   7   9
ATOM      9  O   UNL     1      83.288  31.917  66.670  1.00  0.00    -0.465 OA
ATOM     10  C   UNL     1      83.750  31.678  67.993  1.00  0.00     0.282 C 
ENDBRANCH   7   9
ENDBRANCH   1   7
BRANCH   6  11
ATOM     11  O   UNL     1      85.283  28.790  64.990  1.00  0.00    -0.507 OA
ATOM     12  H   UNL     1      85.606  28.027  64.406  1.00  0.00     0.293 HD
ENDBRANCH   6  11
TORSDOF 3
ENDMDL
MODEL 7
REMARK VINA RESULT:    -4.245     16.153     17.670
REMARK INTER + INTRA:          -5.130
REMARK INTER:                  -4.810
REMARK INTRA:                  -0.320
REMARK UNBOUND:                -0.264
REMARK SMILES COC(=O)c1ccccc1O
REMARK SMILES IDX 5 1 6 2 7 3 8 4 9 5 10 6 3 7 4 8 2 9 1 10 11 11
REMARK H PARENT 11 12
REMARK Flexibility Score: inf
ROOT
ATOM      1  C   UNL     1      85.969  31.648  65.742  1.00  0.00     0.101 A 
ATOM      2  C   UNL     1      84.825  31.487  64.935  1.00  0.00     0.019 A 
ATOM      3  C   UNL     1      83.549  31.460  65.505  1.00  0.00     0.001 A 
ATOM      4  C   UNL     1      83.395  31.592  66.883  1.00  0.00     0.004 A 
ATOM      5  C   UNL     1      84.515  31.753  67.700  1.00  0.00     0.047 A 
ATOM      6  C   UNL     1      85.803  31.782  67.142  1.00  0.00     0.130 A 
ENDROOT
BRANCH   1   7
ATOM      7  C   UNL     1      87.309  31.673  65.102  1.00  0.00     0.341 C 
ATOM      8  O   UNL     1      88.052  32.687  65.204  1.00  0.00    -0.246 OA
BRANCH   7   9
ATOM      9  O   UNL     1      87.753  30.558  64.379  1.00  0.00    -0.465 OA
ATOM     10  C   UNL     1      88.060  29.315  64.996  1.00  0.00     0.282 C 
ENDBRANCH   7   9
ENDBRANCH   1   7
BRANCH   6  11
ATOM     11  O   UNL     1      86.906  31.944  67.980  1.00  0.00    -0.507 OA
ATOM     12  H   UNL     1      87.797  32.278  67.630  1.00  0.00     0.293 HD
ENDBRANCH   6  11
TORSDOF 3
ENDMDL
MODEL 8
REMARK VINA RESULT:    -4.166      3.705      5.847
REMARK INTER + INTRA:          -5.039
REMARK INTER:                  -4.804
REMARK INTRA:                  -0.235
REMARK UNBOUND:                -0.264
REMARK SMILES COC(=O)c1ccccc1O
REMARK SMILES IDX 5 1 6 2 7 3 8 4 9 5 10 6 3 7 4 8 2 9 1 10 11 11
REMARK H PARENT 11 12
REMARK Flexibility Score: inf
ROOT
ATOM      1  C   UNL     1      76.115  34.741  52.012  1.00  0.00     0.101 A 
ATOM      2  C   UNL     1      75.445  35.972  51.867  1.00  0.00     0.019 A 
ATOM      3  C   UNL     1      74.129  36.125  52.312  1.00  0.00     0.001 A 
ATOM      4  C   UNL     1      73.462  35.055  52.906  1.00  0.00     0.004 A 
ATOM      5  C   UNL     1      74.108  33.827  53.058  1.00  0.00     0.047 A 
ATOM      6  C   UNL     1      75.429  33.659  52.617  1.00  0.00     0.130 A 
ENDROOT
BRANCH   1   7
ATOM      7  C   UNL     1      77.513  34.614  51.528  1.00  0.00     0.341 C 
ATOM      8  O   UNL     1      78.277  33.726  51.995  1.00  0.00    -0.246 OA
BRANCH   7   9
ATOM      9  O   UNL     1      77.988  35.491  50.545  1.00  0.00    -0.465 OA
ATOM     10  C   UNL     1      79.313  35.424  50.032  1.00  0.00     0.282 C 
ENDBRANCH   7   9
ENDBRANCH   1   7
BRANCH   6  11
ATOM     11  O   UNL     1      76.051  32.422  52.782  1.00  0.00    -0.507 OA
ATOM     12  H   UNL     1      76.574  32.196  53.620  1.00  0.00     0.293 HD
ENDBRANCH   6  11
TORSDOF 3
ENDMDL
MODEL 9
REMARK VINA RESULT:    -4.037      4.652      6.453
REMARK INTER + INTRA:          -4.891
REMARK INTER:                  -4.587
REMARK INTRA:                  -0.305
REMARK UNBOUND:                -0.264
REMARK SMILES COC(=O)c1ccccc1O
REMARK SMILES IDX 5 1 6 2 7 3 8 4 9 5 10 6 3 7 4 8 2 9 1 10 11 11
REMARK H PARENT 11 12
REMARK Flexibility Score: inf
ROOT
ATOM      1  C   UNL     1      77.390  34.727  51.630  1.00  0.00     0.101 A 
ATOM      2  C   UNL     1      76.768  35.991  51.644  1.00  0.00     0.019 A 
ATOM      3  C   UNL     1      75.431  36.125  52.028  1.00  0.00     0.001 A 
ATOM      4  C   UNL     1      74.695  35.003  52.403  1.00  0.00     0.004 A 
ATOM      5  C   UNL     1      75.292  33.741  52.396  1.00  0.00     0.047 A 
ATOM      6  C   UNL     1      76.634  33.592  52.012  1.00  0.00     0.130 A 
ENDROOT
BRANCH   1   7
ATOM      7  C   UNL     1      78.812  34.623  51.215  1.00  0.00     0.341 C 
ATOM      8  O   UNL     1      79.178  35.005  50.070  1.00  0.00    -0.246 OA
BRANCH   7   9
ATOM      9  O   UNL     1      79.756  34.094  52.104  1.00  0.00    -0.465 OA
ATOM     10  C   UNL     1      80.625  33.024  51.755  1.00  0.00     0.282 C 
ENDBRANCH   7   9
ENDBRANCH   1   7
BRANCH   6  11
ATOM     11  O   UNL     1      77.207  32.320  52.014  1.00  0.00    -0.507 OA
ATOM     12  H   UNL     1      76.685  31.500  51.728  1.00  0.00     0.293 HD
ENDBRANCH   6  11
TORSDOF 3
ENDMDL
