MODEL 1
REMARK VINA RESULT:    -2.556      0.000      0.000
REMARK INTER + INTRA:          -3.104
REMARK INTER:                  -3.004
REMARK INTRA:                  -0.100
REMARK UNBOUND:                -0.100
REMARK SMILES CCCCC(=O)[O-]
REMARK SMILES IDX 4 1 5 2 6 3 7 4 3 5 2 6 1 7
REMARK H PARENT
REMARK Flexibility Score: inf
ROOT
ATOM      1  C   UNL     1       2.080  25.608   6.003  1.00  0.00     0.053 C 
ENDROOT
BRANCH   1   2
ATOM      2  C   UNL     1       1.100  26.010   7.063  1.00  0.00     0.041 C 
ATOM      3  O   UNL     1      -0.025  26.475   6.742  1.00  0.00    -0.550 OA
ATOM      4  O   UNL     1       1.418  25.841   8.404  1.00  0.00    -0.550 OA
ENDBRANCH   1   2
BRANCH   1   5
ATOM      5  C   UNL     1       3.072  24.551   6.511  1.00  0.00     0.006 C 
BRANCH   5   6
ATOM      6  C   UNL     1       4.519  25.058   6.647  1.00  0.00    -0.003 C 
ATOM      7  C   UNL     1       5.010  25.074   8.094  1.00  0.00     0.004 C 
ENDBRANCH   5   6
ENDBRANCH   1   5
TORSDOF 3
ENDMDL
MODEL 2
REMARK VINA RESULT:    -2.555     23.400     24.352
REMARK INTER + INTRA:          -3.103
REMARK INTER:                  -3.086
REMARK INTRA:                  -0.018
REMARK UNBOUND:                -0.100
REMARK SMILES CCCCC(=O)[O-]
REMARK SMILES IDX 4 1 5 2 6 3 7 4 3 5 2 6 1 7
REMARK H PARENT
REMARK Flexibility Score: inf
ROOT
ATOM      1  C   UNL     1       9.004  43.381  22.670  1.00  0.00     0.053 C 
ENDROOT
BRANCH   1   2
ATOM      2  C   UNL     1      10.448  42.993  22.748  1.00  0.00     0.041 C 
ATOM      3  O   UNL     1      10.776  41.778  22.790  1.00  0.00    -0.550 OA
ATOM      4  O   UNL     1      11.433  43.972  22.743  1.00  0.00    -0.550 OA
ENDBRANCH   1   2
BRANCH   1   5
ATOM      5  C   UNL     1       8.612  43.852  21.261  1.00  0.00     0.006 C 
BRANCH   5   6
ATOM      6  C   UNL     1       7.229  43.366  20.795  1.00  0.00    -0.003 C 
ATOM      7  C   UNL     1       6.897  43.797  19.366  1.00  0.00     0.004 C 
ENDBRANCH   5   6
ENDBRANCH   1   5
TORSDOF 3
ENDMDL
MODEL 3
REMARK VINA RESULT:    -2.544      2.323      3.630
REMARK INTER + INTRA:          -3.090
REMARK INTER:                  -2.977
REMARK INTRA:                  -0.113
REMARK UNBOUND:                -0.100
REMARK SMILES CCCCC(=O)[O-]
REMARK SMILES IDX 4 1 5 2 6 3 7 4 3 5 2 6 1 7
REMARK H PARENT
REMARK Flexibility Score: inf
ROOT
ATOM      1  C   UNL     1       4.463  24.979   6.451  1.00  0.00     0.053 C 
ENDROOT
BRANCH   1   2
ATOM      2  C   UNL     1       4.859  24.995   7.895  1.00  0.00     0.041 C 
ATOM      3  O   UNL     1       4.235  24.290   8.731  1.00  0.00    -0.550 OA
ATOM      4  O   UNL     1       5.937  25.766   8.312  1.00  0.00    -0.550 OA
ENDBRANCH   1   2
BRANCH   1   5
ATOM      5  C   UNL     1       2.993  24.573   6.264  1.00  0.00     0.006 C 
BRANCH   5   6
ATOM      6  C   UNL     1       2.014  25.760   6.202  1.00  0.00    -0.003 C 
ATOM      7  C   UNL     1       1.178  25.907   7.473  1.00  0.00     0.004 C 
ENDBRANCH   5   6
ENDBRANCH   1   5
TORSDOF 3
ENDMDL
MODEL 4
REMARK VINA RESULT:    -2.543      0.102      1.226
REMARK INTER + INTRA:          -3.089
REMARK INTER:                  -2.983
REMARK INTRA:                  -0.106
REMARK UNBOUND:                -0.100
REMARK SMILES CCCCC(=O)[O-]
REMARK SMILES IDX 4 1 5 2 6 3 7 4 3 5 2 6 1 7
REMARK H PARENT
REMARK Flexibility Score: inf
ROOT
ATOM      1  C   UNL     1       2.103  25.710   6.014  1.00  0.00     0.053 C 
ENDROOT
BRANCH   1   2
ATOM      2  C   UNL     1       1.114  25.999   7.101  1.00  0.00     0.041 C 
ATOM      3  O   UNL     1       1.426  25.814   8.307  1.00  0.00    -0.550 OA
ATOM      4  O   UNL     1      -0.142  26.501   6.784  1.00  0.00    -0.550 OA
ENDBRANCH   1   2
BRANCH   1   5
ATOM      5  C   UNL     1       3.052  24.562   6.392  1.00  0.00     0.006 C 
BRANCH   5   6
ATOM      6  C   UNL     1       4.519  24.990   6.571  1.00  0.00    -0.003 C 
ATOM      7  C   UNL     1       4.946  25.046   8.038  1.00  0.00     0.004 C 
ENDBRANCH   5   6
ENDBRANCH   1   5
TORSDOF 3
ENDMDL
MODEL 5
REMARK VINA RESULT:    -2.529     22.138     22.773
REMARK INTER + INTRA:          -3.072
REMARK INTER:                  -2.962
REMARK INTRA:                  -0.110
REMARK UNBOUND:                -0.100
REMARK SMILES CCCCC(=O)[O-]
REMARK SMILES IDX 4 1 5 2 6 3 7 4 3 5 2 6 1 7
REMARK H PARENT
REMARK Flexibility Score: inf
ROOT
ATOM      1  C   UNL     1      17.963  42.686   4.990  1.00  0.00     0.053 C 
ENDROOT
BRANCH   1   2
ATOM      2  C   UNL     1      17.723  42.927   6.449  1.00  0.00     0.041 C 
ATOM      3  O   UNL     1      16.827  43.729   6.819  1.00  0.00    -0.550 OA
ATOM      4  O   UNL     1      18.469  42.241   7.398  1.00  0.00    -0.550 OA
ENDBRANCH   1   2
BRANCH   1   5
ATOM      5  C   UNL     1      16.800  41.926   4.335  1.00  0.00     0.006 C 
BRANCH   5   6
ATOM      6  C   UNL     1      15.871  42.807   3.481  1.00  0.00    -0.003 C 
ATOM      7  C   UNL     1      14.534  43.097   4.164  1.00  0.00     0.004 C 
ENDBRANCH   5   6
ENDBRANCH   1   5
TORSDOF 3
ENDMDL
MODEL 6
REMARK VINA RESULT:    -2.455      2.227      3.599
REMARK INTER + INTRA:          -2.985
REMARK INTER:                  -2.882
REMARK INTRA:                  -0.103
REMARK UNBOUND:                -0.100
REMARK SMILES CCCCC(=O)[O-]
REMARK SMILES IDX 4 1 5 2 6 3 7 4 3 5 2 6 1 7
REMARK H PARENT
REMARK Flexibility Score: inf
ROOT
ATOM      1  C   UNL     1       4.368  24.032   8.994  1.00  0.00     0.053 C 
ENDROOT
BRANCH   1   2
ATOM      2  C   UNL     1       3.830  24.664  10.241  1.00  0.00     0.041 C 
ATOM      3  O   UNL     1       2.874  25.481  10.176  1.00  0.00    -0.550 OA
ATOM      4  O   UNL     1       4.365  24.327  11.478  1.00  0.00    -0.550 OA
ENDBRANCH   1   2
BRANCH   1   5
ATOM      5  C   UNL     1       5.030  25.064   8.069  1.00  0.00     0.006 C 
BRANCH   5   6
ATOM      6  C   UNL     1       4.475  25.072   6.633  1.00  0.00    -0.003 C 
ATOM      7  C   UNL     1       2.951  25.172   6.587  1.00  0.00     0.004 C 
ENDBRANCH   5   6
ENDBRANCH   1   5
TORSDOF 3
ENDMDL
MODEL 7
REMARK VINA RESULT:    -2.329      1.080      1.345
REMARK INTER + INTRA:          -2.837
REMARK INTER:                  -2.809
REMARK INTRA:                  -0.028
REMARK UNBOUND:                -0.100
REMARK SMILES CCCCC(=O)[O-]
REMARK SMILES IDX 4 1 5 2 6 3 7 4 3 5 2 6 1 7
REMARK H PARENT
REMARK Flexibility Score: inf
ROOT
ATOM      1  C   UNL     1       2.287  25.323   7.135  1.00  0.00     0.053 C 
ENDROOT
BRANCH   1   2
ATOM      2  C   UNL     1       1.106  25.728   6.306  1.00  0.00     0.041 C 
ATOM      3  O   UNL     1       1.028  25.376   5.100  1.00  0.00    -0.550 OA
ATOM      4  O   UNL     1       0.079  26.470   6.875  1.00  0.00    -0.550 OA
ENDBRANCH   1   2
BRANCH   1   5
ATOM      5  C   UNL     1       3.521  25.030   6.269  1.00  0.00     0.006 C 
BRANCH   5   6
ATOM      6  C   UNL     1       4.859  25.133   7.023  1.00  0.00    -0.003 C 
ATOM      7  C   UNL     1       4.721  24.853   8.519  1.00  0.00     0.004 C 
ENDBRANCH   5   6
ENDBRANCH   1   5
TORSDOF 3
ENDMDL
MODEL 8
REMARK VINA RESULT:    -2.292     21.977     22.584
REMARK INTER + INTRA:          -2.793
REMARK INTER:                  -2.774
REMARK INTRA:                  -0.019
REMARK UNBOUND:                -0.100
REMARK SMILES CCCCC(=O)[O-]
REMARK SMILES IDX 4 1 5 2 6 3 7 4 3 5 2 6 1 7
REMARK H PARENT
REMARK Flexibility Score: inf
ROOT
ATOM      1  C   UNL     1      15.971  43.811   5.429  1.00  0.00     0.053 C 
ENDROOT
BRANCH   1   2
ATOM      2  C   UNL     1      15.228  43.126   4.323  1.00  0.00     0.041 C 
ATOM      3  O   UNL     1      15.858  42.549   3.400  1.00  0.00    -0.550 OA
ATOM      4  O   UNL     1      13.839  43.100   4.330  1.00  0.00    -0.550 OA
ENDBRANCH   1   2
BRANCH   1   5
ATOM      5  C   UNL     1      17.343  43.168   5.683  1.00  0.00     0.006 C 
BRANCH   5   6
ATOM      6  C   UNL     1      17.886  43.383   7.106  1.00  0.00    -0.003 C 
ATOM      7  C   UNL     1      18.874  42.298   7.535  1.00  0.00     0.004 C 
ENDBRANCH   5   6
ENDBRANCH   1   5
TORSDOF 3
ENDMDL
MODEL 9
REMARK VINA RESULT:    -2.208      5.517      6.604
REMARK INTER + INTRA:          -2.695
REMARK INTER:                  -2.614
REMARK INTRA:                  -0.081
REMARK UNBOUND:                -0.100
REMARK SMILES CCCCC(=O)[O-]
REMARK SMILES IDX 4 1 5 2 6 3 7 4 3 5 2 6 1 7
REMARK H PARENT
REMARK Flexibility Score: inf
ROOT
ATOM      1  C   UNL     1       3.014  26.193  13.215  1.00  0.00     0.053 C 
ENDROOT
BRANCH   1   2
ATOM      2  C   UNL     1       1.903  25.682  14.081  1.00  0.00     0.041 C 
ATOM      3  O   UNL     1       2.091  25.506  15.314  1.00  0.00    -0.550 OA
ATOM      4  O   UNL     1       0.653  25.429  13.532  1.00  0.00    -0.550 OA
ENDBRANCH   1   2
BRANCH   1   5
ATOM      5  C   UNL     1       4.323  25.424  13.448  1.00  0.00     0.006 C 
BRANCH   5   6
ATOM      6  C   UNL     1       4.540  24.243  12.485  1.00  0.00    -0.003 C 
ATOM      7  C   UNL     1       3.858  24.447  11.132  1.00  0.00     0.004 C 
ENDBRANCH   5   6
ENDBRANCH   1   5
TORSDOF 3
ENDMDL
