MODEL 1
REMARK VINA RESULT:    -4.525      0.000      0.000
REMARK INTER + INTRA:         -10.743
REMARK INTER:                  -8.492
REMARK INTRA:                  -2.251
REMARK UNBOUND:                -2.251
REMARK SMILES O=C([O-])CCCCCCCCCCCCCCC(=O)[O-]
REMARK SMILES IDX 10 1 9 2 8 3 7 4 6 5 5 6 4 7 2 8 1 9 3 10 11 11 12 12 13 13
REMARK SMILES IDX 14 14 15 15 16 16 17 17 18 18 19 19 20 20
REMARK H PARENT
REMARK Flexibility Score: inf
ROOT
ATOM      1  C   UNL     1      57.515  -4.240  30.706  1.00  0.00     0.000 C 
ENDROOT
BRANCH   1   2
ATOM      2  C   UNL     1      57.988  -3.878  32.125  1.00  0.00     0.000 C 
BRANCH   2   3
ATOM      3  C   UNL     1      59.152  -2.874  32.117  1.00  0.00     0.000 C 
BRANCH   3   4
ATOM      4  C   UNL     1      60.047  -3.018  30.874  1.00  0.00     0.000 C 
BRANCH   4   5
ATOM      5  C   UNL     1      60.531  -1.664  30.324  1.00  0.00     0.000 C 
BRANCH   5   6
ATOM      6  C   UNL     1      60.550  -1.553  28.788  1.00  0.00     0.006 C 
BRANCH   6   7
ATOM      7  C   UNL     1      60.933  -2.868  28.099  1.00  0.00     0.053 C 
BRANCH   7   8
ATOM      8  C   UNL     1      62.340  -2.803  27.593  1.00  0.00     0.041 C 
ATOM      9  O   UNL     1      63.296  -2.656  28.398  1.00  0.00    -0.550 OA
ATOM     10  O   UNL     1      62.599  -2.954  26.237  1.00  0.00    -0.550 OA
ENDBRANCH   7   8
ENDBRANCH   6   7
ENDBRANCH   5   6
ENDBRANCH   4   5
ENDBRANCH   3   4
ENDBRANCH   2   3
ENDBRANCH   1   2
BRANCH   1  11
ATOM     11  C   UNL     1      55.997  -4.484  30.628  1.00  0.00     0.000 C 
BRANCH  11  12
ATOM     12  C   UNL     1      55.210  -4.125  31.904  1.00  0.00     0.000 C 
BRANCH  12  13
ATOM     13  C   UNL     1      54.225  -2.950  31.754  1.00  0.00     0.000 C 
BRANCH  13  14
ATOM     14  C   UNL     1      54.658  -1.857  30.757  1.00  0.00     0.000 C 
BRANCH  14  15
ATOM     15  C   UNL     1      55.295  -0.611  31.397  1.00  0.00     0.000 C 
BRANCH  15  16
ATOM     16  C   UNL     1      56.775  -0.434  31.017  1.00  0.00     0.006 C 
BRANCH  16  17
ATOM     17  C   UNL     1      57.029  -0.724  29.531  1.00  0.00     0.053 C 
BRANCH  17  18
ATOM     18  C   UNL     1      56.621   0.428  28.666  1.00  0.00     0.041 C 
ATOM     19  O   UNL     1      57.177   1.550  28.799  1.00  0.00    -0.550 OA
ATOM     20  O   UNL     1      55.600   0.273  27.736  1.00  0.00    -0.550 OA
ENDBRANCH  17  18
ENDBRANCH  16  17
ENDBRANCH  15  16
ENDBRANCH  14  15
ENDBRANCH  13  14
ENDBRANCH  12  13
ENDBRANCH  11  12
ENDBRANCH   1  11
TORSDOF 15
ENDMDL
MODEL 2
REMARK VINA RESULT:    -4.388      0.993      5.821
REMARK INTER + INTRA:         -10.487
REMARK INTER:                  -8.768
REMARK INTRA:                  -1.719
REMARK UNBOUND:                -2.251
REMARK SMILES O=C([O-])CCCCCCCCCCCCCCC(=O)[O-]
REMARK SMILES IDX 10 1 9 2 8 3 7 4 6 5 5 6 4 7 2 8 1 9 3 10 11 11 12 12 13 13
REMARK SMILES IDX 14 14 15 15 16 16 17 17 18 18 19 19 20 20
REMARK H PARENT
REMARK Flexibility Score: inf
ROOT
ATOM      1  C   UNL     1      56.253  -4.123  31.206  1.00  0.00     0.000 C 
ENDROOT
BRANCH   1   2
ATOM      2  C   UNL     1      54.942  -4.159  32.011  1.00  0.00     0.000 C 
BRANCH   2   3
ATOM      3  C   UNL     1      54.118  -2.870  31.849  1.00  0.00     0.000 C 
BRANCH   3   4
ATOM      4  C   UNL     1      54.702  -1.928  30.782  1.00  0.00     0.000 C 
BRANCH   4   5
ATOM      5  C   UNL     1      55.249  -0.616  31.376  1.00  0.00     0.000 C 
BRANCH   5   6
ATOM      6  C   UNL     1      56.706  -0.288  31.001  1.00  0.00     0.006 C 
BRANCH   6   7
ATOM      7  C   UNL     1      57.052  -0.669  29.556  1.00  0.00     0.053 C 
BRANCH   7   8
ATOM      8  C   UNL     1      56.539   0.367  28.605  1.00  0.00     0.041 C 
ATOM      9  O   UNL     1      55.609   0.087  27.805  1.00  0.00    -0.550 OA
ATOM     10  O   UNL     1      57.055   1.656  28.638  1.00  0.00    -0.550 OA
ENDBRANCH   7   8
ENDBRANCH   6   7
ENDBRANCH   5   6
ENDBRANCH   4   5
ENDBRANCH   3   4
ENDBRANCH   2   3
ENDBRANCH   1   2
BRANCH   1  11
ATOM     11  C   UNL     1      57.480  -3.799  32.078  1.00  0.00     0.000 C 
BRANCH  11  12
ATOM     12  C   UNL     1      58.804  -3.629  31.308  1.00  0.00     0.000 C 
BRANCH  12  13
ATOM     13  C   UNL     1      58.728  -3.952  29.802  1.00  0.00     0.000 C 
BRANCH  13  14
ATOM     14  C   UNL     1      59.984  -3.578  28.990  1.00  0.00     0.000 C 
BRANCH  14  15
ATOM     15  C   UNL     1      60.429  -2.111  29.126  1.00  0.00     0.000 C 
BRANCH  15  16
ATOM     16  C   UNL     1      61.321  -1.648  27.961  1.00  0.00     0.006 C 
BRANCH  16  17
ATOM     17  C   UNL     1      62.588  -2.504  27.826  1.00  0.00     0.053 C 
BRANCH  17  18
ATOM     18  C   UNL     1      62.803  -2.953  26.414  1.00  0.00     0.041 C 
ATOM     19  O   UNL     1      62.854  -2.109  25.480  1.00  0.00    -0.550 OA
ATOM     20  O   UNL     1      62.913  -4.307  26.124  1.00  0.00    -0.550 OA
ENDBRANCH  17  18
ENDBRANCH  16  17
ENDBRANCH  15  16
ENDBRANCH  14  15
ENDBRANCH  13  14
ENDBRANCH  12  13
ENDBRANCH  11  12
ENDBRANCH   1  11
TORSDOF 15
ENDMDL
MODEL 3
REMARK VINA RESULT:    -4.354      1.213      5.714
REMARK INTER + INTRA:         -10.422
REMARK INTER:                  -8.555
REMARK INTRA:                  -1.867
REMARK UNBOUND:                -2.251
REMARK SMILES O=C([O-])CCCCCCCCCCCCCCC(=O)[O-]
REMARK SMILES IDX 10 1 9 2 8 3 7 4 6 5 5 6 4 7 2 8 1 9 3 10 11 11 12 12 13 13
REMARK SMILES IDX 14 14 15 15 16 16 17 17 18 18 19 19 20 20
REMARK H PARENT
REMARK Flexibility Score: inf
ROOT
ATOM      1  C   UNL     1      55.948  -4.693  30.870  1.00  0.00     0.000 C 
ENDROOT
BRANCH   1   2
ATOM      2  C   UNL     1      55.318  -3.979  32.079  1.00  0.00     0.000 C 
BRANCH   2   3
ATOM      3  C   UNL     1      54.047  -3.200  31.703  1.00  0.00     0.000 C 
BRANCH   3   4
ATOM      4  C   UNL     1      54.330  -1.717  31.410  1.00  0.00     0.000 C 
BRANCH   4   5
ATOM      5  C   UNL     1      54.247  -1.375  29.911  1.00  0.00     0.000 C 
BRANCH   5   6
ATOM      6  C   UNL     1      55.586  -1.431  29.154  1.00  0.00     0.006 C 
BRANCH   6   7
ATOM      7  C   UNL     1      55.878  -0.152  28.361  1.00  0.00     0.053 C 
BRANCH   7   8
ATOM      8  C   UNL     1      56.783   0.751  29.140  1.00  0.00     0.041 C 
ATOM      9  O   UNL     1      57.297   1.760  28.590  1.00  0.00    -0.550 OA
ATOM     10  O   UNL     1      57.018   0.505  30.486  1.00  0.00    -0.550 OA
ENDBRANCH   7   8
ENDBRANCH   6   7
ENDBRANCH   5   6
ENDBRANCH   4   5
ENDBRANCH   3   4
ENDBRANCH   2   3
ENDBRANCH   1   2
BRANCH   1  11
ATOM     11  C   UNL     1      57.410  -4.273  30.625  1.00  0.00     0.000 C 
BRANCH  11  12
ATOM     12  C   UNL     1      57.988  -3.286  31.658  1.00  0.00     0.000 C 
BRANCH  12  13
ATOM     13  C   UNL     1      59.050  -2.315  31.107  1.00  0.00     0.000 C 
BRANCH  13  14
ATOM     14  C   UNL     1      59.157  -2.266  29.570  1.00  0.00     0.000 C 
BRANCH  14  15
ATOM     15  C   UNL     1      59.957  -1.075  29.013  1.00  0.00     0.000 C 
BRANCH  15  16
ATOM     16  C   UNL     1      61.240  -1.507  28.283  1.00  0.00     0.006 C 
BRANCH  16  17
ATOM     17  C   UNL     1      61.289  -3.023  28.046  1.00  0.00     0.053 C 
BRANCH  17  18
ATOM     18  C   UNL     1      62.343  -3.393  27.049  1.00  0.00     0.041 C 
ATOM     19  O   UNL     1      62.903  -4.519  27.106  1.00  0.00    -0.550 OA
ATOM     20  O   UNL     1      62.733  -2.479  26.078  1.00  0.00    -0.550 OA
ENDBRANCH  17  18
ENDBRANCH  16  17
ENDBRANCH  15  16
ENDBRANCH  14  15
ENDBRANCH  13  14
ENDBRANCH  12  13
ENDBRANCH  11  12
ENDBRANCH   1  11
TORSDOF 15
ENDMDL
MODEL 4
REMARK VINA RESULT:    -4.201      2.484      3.906
REMARK INTER + INTRA:         -10.135
REMARK INTER:                  -8.398
REMARK INTRA:                  -1.738
REMARK UNBOUND:                -2.251
REMARK SMILES O=C([O-])CCCCCCCCCCCCCCC(=O)[O-]
REMARK SMILES IDX 10 1 9 2 8 3 7 4 6 5 5 6 4 7 2 8 1 9 3 10 11 11 12 12 13 13
REMARK SMILES IDX 14 14 15 15 16 16 17 17 18 18 19 19 20 20
REMARK H PARENT
REMARK Flexibility Score: inf
ROOT
ATOM      1  C   UNL     1      58.414   0.112  30.661  1.00  0.00     0.000 C 
ENDROOT
BRANCH   1   2
ATOM      2  C   UNL     1      59.202  -0.522  29.502  1.00  0.00     0.000 C 
BRANCH   2   3
ATOM      3  C   UNL     1      59.175  -2.059  29.545  1.00  0.00     0.000 C 
BRANCH   3   4
ATOM      4  C   UNL     1      60.176  -2.638  30.560  1.00  0.00     0.000 C 
BRANCH   4   5
ATOM      5  C   UNL     1      61.589  -2.815  29.973  1.00  0.00     0.000 C 
BRANCH   5   6
ATOM      6  C   UNL     1      61.673  -3.732  28.739  1.00  0.00     0.006 C 
BRANCH   6   7
ATOM      7  C   UNL     1      62.051  -2.979  27.458  1.00  0.00     0.053 C 
BRANCH   7   8
ATOM      8  C   UNL     1      62.764  -3.888  26.508  1.00  0.00     0.041 C 
ATOM      9  O   UNL     1      63.036  -3.499  25.342  1.00  0.00    -0.550 OA
ATOM     10  O   UNL     1      63.175  -5.148  26.927  1.00  0.00    -0.550 OA
ENDBRANCH   7   8
ENDBRANCH   6   7
ENDBRANCH   5   6
ENDBRANCH   4   5
ENDBRANCH   3   4
ENDBRANCH   2   3
ENDBRANCH   1   2
BRANCH   1  11
ATOM     11  C   UNL     1      57.155   0.861  30.186  1.00  0.00     0.000 C 
BRANCH  11  12
ATOM     12  C   UNL     1      56.919   0.842  28.663  1.00  0.00     0.000 C 
BRANCH  12  13
ATOM     13  C   UNL     1      55.721  -0.010  28.200  1.00  0.00     0.000 C 
BRANCH  13  14
ATOM     14  C   UNL     1      55.555  -1.356  28.933  1.00  0.00     0.000 C 
BRANCH  14  15
ATOM     15  C   UNL     1      54.247  -1.503  29.730  1.00  0.00     0.000 C 
BRANCH  15  16
ATOM     16  C   UNL     1      54.462  -2.127  31.120  1.00  0.00     0.006 C 
BRANCH  16  17
ATOM     17  C   UNL     1      55.941  -2.435  31.393  1.00  0.00     0.053 C 
BRANCH  17  18
ATOM     18  C   UNL     1      56.159  -3.889  31.678  1.00  0.00     0.041 C 
ATOM     19  O   UNL     1      57.314  -4.319  31.934  1.00  0.00    -0.550 OA
ATOM     20  O   UNL     1      55.091  -4.776  31.624  1.00  0.00    -0.550 OA
ENDBRANCH  17  18
ENDBRANCH  16  17
ENDBRANCH  15  16
ENDBRANCH  14  15
ENDBRANCH  13  14
ENDBRANCH  12  13
ENDBRANCH  11  12
ENDBRANCH   1  11
TORSDOF 15
ENDMDL
MODEL 5
REMARK VINA RESULT:    -4.196      1.184      2.099
REMARK INTER + INTRA:         -10.126
REMARK INTER:                  -8.476
REMARK INTRA:                  -1.650
REMARK UNBOUND:                -2.251
REMARK SMILES O=C([O-])CCCCCCCCCCCCCCC(=O)[O-]
REMARK SMILES IDX 10 1 9 2 8 3 7 4 6 5 5 6 4 7 2 8 1 9 3 10 11 11 12 12 13 13
REMARK SMILES IDX 14 14 15 15 16 16 17 17 18 18 19 19 20 20
REMARK H PARENT
REMARK Flexibility Score: inf
ROOT
ATOM      1  C   UNL     1      58.244  -3.417  31.519  1.00  0.00     0.000 C 
ENDROOT
BRANCH   1   2
ATOM      2  C   UNL     1      59.696  -3.107  31.113  1.00  0.00     0.000 C 
BRANCH   2   3
ATOM      3  C   UNL     1      59.786  -1.976  30.076  1.00  0.00     0.000 C 
BRANCH   3   4
ATOM      4  C   UNL     1      60.468  -2.425  28.772  1.00  0.00     0.000 C 
BRANCH   4   5
ATOM      5  C   UNL     1      60.945  -3.888  28.818  1.00  0.00     0.000 C 
BRANCH   5   6
ATOM      6  C   UNL     1      62.442  -4.095  28.525  1.00  0.00     0.006 C 
BRANCH   6   7
ATOM      7  C   UNL     1      62.970  -3.165  27.426  1.00  0.00     0.053 C 
BRANCH   7   8
ATOM      8  C   UNL     1      63.070  -3.896  26.125  1.00  0.00     0.041 C 
ATOM      9  O   UNL     1      63.496  -5.080  26.094  1.00  0.00    -0.550 OA
ATOM     10  O   UNL     1      62.643  -3.288  24.951  1.00  0.00    -0.550 OA
ENDBRANCH   7   8
ENDBRANCH   6   7
ENDBRANCH   5   6
ENDBRANCH   4   5
ENDBRANCH   3   4
ENDBRANCH   2   3
ENDBRANCH   1   2
BRANCH   1  11
ATOM     11  C   UNL     1      57.476  -4.196  30.436  1.00  0.00     0.000 C 
BRANCH  11  12
ATOM     12  C   UNL     1      56.001  -4.496  30.769  1.00  0.00     0.000 C 
BRANCH  12  13
ATOM     13  C   UNL     1      55.450  -3.764  32.008  1.00  0.00     0.000 C 
BRANCH  13  14
ATOM     14  C   UNL     1      54.140  -2.983  31.776  1.00  0.00     0.000 C 
BRANCH  14  15
ATOM     15  C   UNL     1      54.247  -1.821  30.773  1.00  0.00     0.000 C 
BRANCH  15  16
ATOM     16  C   UNL     1      55.474  -0.927  31.024  1.00  0.00     0.006 C 
BRANCH  16  17
ATOM     17  C   UNL     1      56.257  -0.644  29.734  1.00  0.00     0.053 C 
BRANCH  17  18
ATOM     18  C   UNL     1      57.078   0.603  29.849  1.00  0.00     0.041 C 
ATOM     19  O   UNL     1      57.060   1.462  28.929  1.00  0.00    -0.550 OA
ATOM     20  O   UNL     1      57.893   0.799  30.957  1.00  0.00    -0.550 OA
ENDBRANCH  17  18
ENDBRANCH  16  17
ENDBRANCH  15  16
ENDBRANCH  14  15
ENDBRANCH  13  14
ENDBRANCH  12  13
ENDBRANCH  11  12
ENDBRANCH   1  11
TORSDOF 15
ENDMDL
MODEL 6
REMARK VINA RESULT:    -3.990      1.126      6.395
REMARK INTER + INTRA:          -9.740
REMARK INTER:                  -8.177
REMARK INTRA:                  -1.563
REMARK UNBOUND:                -2.251
REMARK SMILES O=C([O-])CCCCCCCCCCCCCCC(=O)[O-]
REMARK SMILES IDX 10 1 9 2 8 3 7 4 6 5 5 6 4 7 2 8 1 9 3 10 11 11 12 12 13 13
REMARK SMILES IDX 14 14 15 15 16 16 17 17 18 18 19 19 20 20
REMARK H PARENT
REMARK Flexibility Score: inf
ROOT
ATOM      1  C   UNL     1      58.501  -3.675  30.634  1.00  0.00     0.000 C 
ENDROOT
BRANCH   1   2
ATOM      2  C   UNL     1      57.403  -4.042  31.647  1.00  0.00     0.000 C 
BRANCH   2   3
ATOM      3  C   UNL     1      56.020  -4.183  30.988  1.00  0.00     0.000 C 
BRANCH   3   4
ATOM      4  C   UNL     1      54.907  -3.500  31.803  1.00  0.00     0.000 C 
BRANCH   4   5
ATOM      5  C   UNL     1      54.550  -2.099  31.272  1.00  0.00     0.000 C 
BRANCH   5   6
ATOM      6  C   UNL     1      55.194  -1.729  29.923  1.00  0.00     0.006 C 
BRANCH   6   7
ATOM      7  C   UNL     1      56.271  -0.645  30.053  1.00  0.00     0.053 C 
BRANCH   7   8
ATOM      8  C   UNL     1      56.290   0.222  28.834  1.00  0.00     0.041 C 
ATOM      9  O   UNL     1      55.555  -0.054  27.849  1.00  0.00    -0.550 OA
ATOM     10  O   UNL     1      57.080   1.363  28.804  1.00  0.00    -0.550 OA
ENDBRANCH   7   8
ENDBRANCH   6   7
ENDBRANCH   5   6
ENDBRANCH   4   5
ENDBRANCH   3   4
ENDBRANCH   2   3
ENDBRANCH   1   2
BRANCH   1  11
ATOM     11  C   UNL     1      59.748  -3.066  31.302  1.00  0.00     0.000 C 
BRANCH  11  12
ATOM     12  C   UNL     1      60.113  -1.644  30.832  1.00  0.00     0.000 C 
BRANCH  12  13
ATOM     13  C   UNL     1      59.756  -1.330  29.366  1.00  0.00     0.000 C 
BRANCH  13  14
ATOM     14  C   UNL     1      60.916  -1.489  28.363  1.00  0.00     0.000 C 
BRANCH  14  15
ATOM     15  C   UNL     1      62.299  -1.707  29.001  1.00  0.00     0.000 C 
BRANCH  15  16
ATOM     16  C   UNL     1      62.927  -3.058  28.616  1.00  0.00     0.006 C 
BRANCH  16  17
ATOM     17  C   UNL     1      62.101  -3.799  27.555  1.00  0.00     0.053 C 
BRANCH  17  18
ATOM     18  C   UNL     1      62.922  -4.129  26.347  1.00  0.00     0.041 C 
ATOM     19  O   UNL     1      63.675  -5.138  26.349  1.00  0.00    -0.550 OA
ATOM     20  O   UNL     1      62.881  -3.303  25.231  1.00  0.00    -0.550 OA
ENDBRANCH  17  18
ENDBRANCH  16  17
ENDBRANCH  15  16
ENDBRANCH  14  15
ENDBRANCH  13  14
ENDBRANCH  12  13
ENDBRANCH  11  12
ENDBRANCH   1  11
TORSDOF 15
ENDMDL
MODEL 7
REMARK VINA RESULT:    -3.980      2.046      6.451
REMARK INTER + INTRA:          -9.720
REMARK INTER:                  -7.752
REMARK INTRA:                  -1.968
REMARK UNBOUND:                -2.251
REMARK SMILES O=C([O-])CCCCCCCCCCCCCCC(=O)[O-]
REMARK SMILES IDX 10 1 9 2 8 3 7 4 6 5 5 6 4 7 2 8 1 9 3 10 11 11 12 12 13 13
REMARK SMILES IDX 14 14 15 15 16 16 17 17 18 18 19 19 20 20
REMARK H PARENT
REMARK Flexibility Score: inf
ROOT
ATOM      1  C   UNL     1      57.801  -3.723  30.836  1.00  0.00     0.000 C 
ENDROOT
BRANCH   1   2
ATOM      2  C   UNL     1      58.547  -2.792  31.808  1.00  0.00     0.000 C 
BRANCH   2   3
ATOM      3  C   UNL     1      57.980  -1.363  31.804  1.00  0.00     0.000 C 
BRANCH   3   4
ATOM      4  C   UNL     1      58.830  -0.394  30.963  1.00  0.00     0.000 C 
BRANCH   4   5
ATOM      5  C   UNL     1      58.319  -0.250  29.517  1.00  0.00     0.000 C 
BRANCH   5   6
ATOM      6  C   UNL     1      57.065   0.627  29.353  1.00  0.00     0.006 C 
BRANCH   6   7
ATOM      7  C   UNL     1      55.994  -0.021  28.466  1.00  0.00     0.053 C 
BRANCH   7   8
ATOM      8  C   UNL     1      55.394  -1.206  29.154  1.00  0.00     0.041 C 
ATOM      9  O   UNL     1      54.842  -1.075  30.278  1.00  0.00    -0.550 OA
ATOM     10  O   UNL     1      55.399  -2.448  28.531  1.00  0.00    -0.550 OA
ENDBRANCH   7   8
ENDBRANCH   6   7
ENDBRANCH   5   6
ENDBRANCH   4   5
ENDBRANCH   3   4
ENDBRANCH   2   3
ENDBRANCH   1   2
BRANCH   1  11
ATOM     11  C   UNL     1      58.546  -3.912  29.502  1.00  0.00     0.000 C 
BRANCH  11  12
ATOM     12  C   UNL     1      60.083  -3.945  29.610  1.00  0.00     0.000 C 
BRANCH  12  13
ATOM     13  C   UNL     1      60.818  -2.871  28.784  1.00  0.00     0.000 C 
BRANCH  13  14
ATOM     14  C   UNL     1      61.919  -2.104  29.543  1.00  0.00     0.000 C 
BRANCH  14  15
ATOM     15  C   UNL     1      63.162  -1.756  28.705  1.00  0.00     0.000 C 
BRANCH  15  16
ATOM     16  C   UNL     1      64.090  -2.962  28.484  1.00  0.00     0.006 C 
BRANCH  16  17
ATOM     17  C   UNL     1      64.469  -3.138  27.007  1.00  0.00     0.053 C 
BRANCH  17  18
ATOM     18  C   UNL     1      63.408  -3.874  26.248  1.00  0.00     0.041 C 
ATOM     19  O   UNL     1      62.760  -3.292  25.338  1.00  0.00    -0.550 OA
ATOM     20  O   UNL     1      63.110  -5.192  26.571  1.00  0.00    -0.550 OA
ENDBRANCH  17  18
ENDBRANCH  16  17
ENDBRANCH  15  16
ENDBRANCH  14  15
ENDBRANCH  13  14
ENDBRANCH  12  13
ENDBRANCH  11  12
ENDBRANCH   1  11
TORSDOF 15
ENDMDL
MODEL 8
REMARK VINA RESULT:    -3.965      1.877      3.189
REMARK INTER + INTRA:          -9.692
REMARK INTER:                  -7.909
REMARK INTRA:                  -1.783
REMARK UNBOUND:                -2.251
REMARK SMILES O=C([O-])CCCCCCCCCCCCCCC(=O)[O-]
REMARK SMILES IDX 10 1 9 2 8 3 7 4 6 5 5 6 4 7 2 8 1 9 3 10 11 11 12 12 13 13
REMARK SMILES IDX 14 14 15 15 16 16 17 17 18 18 19 19 20 20
REMARK H PARENT
REMARK Flexibility Score: inf
ROOT
ATOM      1  C   UNL     1      58.897  -3.967  29.815  1.00  0.00     0.000 C 
ENDROOT
BRANCH   1   2
ATOM      2  C   UNL     1      60.401  -3.860  29.510  1.00  0.00     0.000 C 
BRANCH   2   3
ATOM      3  C   UNL     1      60.702  -2.859  28.383  1.00  0.00     0.000 C 
BRANCH   3   4
ATOM      4  C   UNL     1      61.747  -1.806  28.794  1.00  0.00     0.000 C 
BRANCH   4   5
ATOM      5  C   UNL     1      63.025  -2.430  29.384  1.00  0.00     0.000 C 
BRANCH   5   6
ATOM      6  C   UNL     1      63.832  -3.310  28.410  1.00  0.00     0.006 C 
BRANCH   6   7
ATOM      7  C   UNL     1      64.288  -2.552  27.158  1.00  0.00     0.053 C 
BRANCH   7   8
ATOM      8  C   UNL     1      63.491  -2.983  25.967  1.00  0.00     0.041 C 
ATOM      9  O   UNL     1      63.285  -4.206  25.752  1.00  0.00    -0.550 OA
ATOM     10  O   UNL     1      62.934  -2.031  25.122  1.00  0.00    -0.550 OA
ENDBRANCH   7   8
ENDBRANCH   6   7
ENDBRANCH   5   6
ENDBRANCH   4   5
ENDBRANCH   3   4
ENDBRANCH   2   3
ENDBRANCH   1   2
BRANCH   1  11
ATOM     11  C   UNL     1      58.541  -3.486  31.234  1.00  0.00     0.000 C 
BRANCH  11  12
ATOM     12  C   UNL     1      59.476  -2.405  31.812  1.00  0.00     0.000 C 
BRANCH  12  13
ATOM     13  C   UNL     1      58.894  -0.978  31.824  1.00  0.00     0.000 C 
BRANCH  13  14
ATOM     14  C   UNL     1      58.724  -0.330  30.435  1.00  0.00     0.000 C 
BRANCH  14  15
ATOM     15  C   UNL     1      57.324   0.244  30.154  1.00  0.00     0.000 C 
BRANCH  15  16
ATOM     16  C   UNL     1      56.203  -0.551  30.846  1.00  0.00     0.006 C 
BRANCH  16  17
ATOM     17  C   UNL     1      55.700  -1.715  29.981  1.00  0.00     0.053 C 
BRANCH  17  18
ATOM     18  C   UNL     1      54.602  -1.283  29.059  1.00  0.00     0.041 C 
ATOM     19  O   UNL     1      54.873  -0.843  27.911  1.00  0.00    -0.550 OA
ATOM     20  O   UNL     1      53.279  -1.334  29.482  1.00  0.00    -0.550 OA
ENDBRANCH  17  18
ENDBRANCH  16  17
ENDBRANCH  15  16
ENDBRANCH  14  15
ENDBRANCH  13  14
ENDBRANCH  12  13
ENDBRANCH  11  12
ENDBRANCH   1  11
TORSDOF 15
ENDMDL
MODEL 9
REMARK VINA RESULT:    -3.933      1.965      6.688
REMARK INTER + INTRA:          -9.632
REMARK INTER:                  -7.528
REMARK INTRA:                  -2.104
REMARK UNBOUND:                -2.251
REMARK SMILES O=C([O-])CCCCCCCCCCCCCCC(=O)[O-]
REMARK SMILES IDX 10 1 9 2 8 3 7 4 6 5 5 6 4 7 2 8 1 9 3 10 11 11 12 12 13 13
REMARK SMILES IDX 14 14 15 15 16 16 17 17 18 18 19 19 20 20
REMARK H PARENT
REMARK Flexibility Score: inf
ROOT
ATOM      1  C   UNL     1      59.058  -2.602  29.411  1.00  0.00     0.000 C 
ENDROOT
BRANCH   1   2
ATOM      2  C   UNL     1      59.567  -1.158  29.267  1.00  0.00     0.000 C 
BRANCH   2   3
ATOM      3  C   UNL     1      58.459  -0.118  29.505  1.00  0.00     0.000 C 
BRANCH   3   4
ATOM      4  C   UNL     1      58.302   0.245  30.992  1.00  0.00     0.000 C 
BRANCH   4   5
ATOM      5  C   UNL     1      57.270  -0.637  31.719  1.00  0.00     0.000 C 
BRANCH   5   6
ATOM      6  C   UNL     1      55.862  -0.642  31.096  1.00  0.00     0.006 C 
BRANCH   6   7
ATOM      7  C   UNL     1      55.411  -2.038  30.650  1.00  0.00     0.053 C 
BRANCH   7   8
ATOM      8  C   UNL     1      55.302  -2.101  29.159  1.00  0.00     0.041 C 
ATOM      9  O   UNL     1      54.918  -1.094  28.509  1.00  0.00    -0.550 OA
ATOM     10  O   UNL     1      55.674  -3.256  28.483  1.00  0.00    -0.550 OA
ENDBRANCH   7   8
ENDBRANCH   6   7
ENDBRANCH   5   6
ENDBRANCH   4   5
ENDBRANCH   3   4
ENDBRANCH   2   3
ENDBRANCH   1   2
BRANCH   1  11
ATOM     11  C   UNL     1      59.959  -3.465  30.315  1.00  0.00     0.000 C 
BRANCH  11  12
ATOM     12  C   UNL     1      60.555  -2.733  31.533  1.00  0.00     0.000 C 
BRANCH  12  13
ATOM     13  C   UNL     1      62.091  -2.605  31.530  1.00  0.00     0.000 C 
BRANCH  13  14
ATOM     14  C   UNL     1      62.788  -3.140  30.263  1.00  0.00     0.000 C 
BRANCH  14  15
ATOM     15  C   UNL     1      63.243  -2.058  29.268  1.00  0.00     0.000 C 
BRANCH  15  16
ATOM     16  C   UNL     1      62.739  -2.312  27.837  1.00  0.00     0.006 C 
BRANCH  16  17
ATOM     17  C   UNL     1      62.478  -3.802  27.573  1.00  0.00     0.053 C 
BRANCH  17  18
ATOM     18  C   UNL     1      63.152  -4.266  26.319  1.00  0.00     0.041 C 
ATOM     19  O   UNL     1      63.914  -5.269  26.341  1.00  0.00    -0.550 OA
ATOM     20  O   UNL     1      62.968  -3.570  25.131  1.00  0.00    -0.550 OA
ENDBRANCH  17  18
ENDBRANCH  16  17
ENDBRANCH  15  16
ENDBRANCH  14  15
ENDBRANCH  13  14
ENDBRANCH  12  13
ENDBRANCH  11  12
ENDBRANCH   1  11
TORSDOF 15
ENDMDL
