MODEL 1
REMARK VINA RESULT:    -4.185      0.000      0.000
REMARK INTER + INTRA:          -5.903
REMARK INTER:                  -5.653
REMARK INTRA:                  -0.250
REMARK UNBOUND:                -0.250
REMARK SMILES CCCCCCCC(=O)[O-]
REMARK SMILES IDX 5 1 6 2 7 3 8 4 9 5 10 6 4 7 3 8 2 9 1 10
REMARK H PARENT
REMARK Flexibility Score: inf
ROOT
ATOM      1  C   UNL     1      12.388 -30.858  22.284  1.00  0.00     0.000 C 
ENDROOT
BRANCH   1   2
ATOM      2  C   UNL     1      13.093 -31.268  20.986  1.00  0.00     0.006 C 
BRANCH   2   3
ATOM      3  C   UNL     1      14.503 -31.796  21.270  1.00  0.00     0.053 C 
BRANCH   3   4
ATOM      4  C   UNL     1      14.580 -33.262  20.986  1.00  0.00     0.041 C 
ATOM      5  O   UNL     1      14.273 -33.703  19.847  1.00  0.00    -0.550 OA
ATOM      6  O   UNL     1      15.038 -34.137  21.962  1.00  0.00    -0.550 OA
ENDBRANCH   3   4
ENDBRANCH   2   3
ENDBRANCH   1   2
BRANCH   1   7
ATOM      7  C   UNL     1      11.288 -29.824  22.010  1.00  0.00     0.000 C 
BRANCH   7   8
ATOM      8  C   UNL     1      11.308 -28.708  23.065  1.00  0.00    -0.000 C 
BRANCH   8   9
ATOM      9  C   UNL     1      12.437 -28.886  24.093  1.00  0.00    -0.003 C 
ATOM     10  C   UNL     1      12.744 -27.603  24.863  1.00  0.00     0.004 C 
ENDBRANCH   8   9
ENDBRANCH   7   8
ENDBRANCH   1   7
TORSDOF 6
ENDMDL
MODEL 2
REMARK VINA RESULT:    -4.114      0.871      1.274
REMARK INTER + INTRA:          -5.807
REMARK INTER:                  -5.544
REMARK INTRA:                  -0.263
REMARK UNBOUND:                -0.250
REMARK SMILES CCCCCCCC(=O)[O-]
REMARK SMILES IDX 5 1 6 2 7 3 8 4 9 5 10 6 4 7 3 8 2 9 1 10
REMARK H PARENT
REMARK Flexibility Score: inf
ROOT
ATOM      1  C   UNL     1      12.723 -30.801  21.731  1.00  0.00     0.000 C 
ENDROOT
BRANCH   1   2
ATOM      2  C   UNL     1      13.380 -31.715  20.689  1.00  0.00     0.006 C 
BRANCH   2   3
ATOM      3  C   UNL     1      14.611 -32.416  21.272  1.00  0.00     0.053 C 
BRANCH   3   4
ATOM      4  C   UNL     1      14.788 -33.765  20.652  1.00  0.00     0.041 C 
ATOM      5  O   UNL     1      14.479 -33.952  19.445  1.00  0.00    -0.550 OA
ATOM      6  O   UNL     1      15.339 -34.804  21.390  1.00  0.00    -0.550 OA
ENDBRANCH   3   4
ENDBRANCH   2   3
ENDBRANCH   1   2
BRANCH   1   7
ATOM      7  C   UNL     1      13.093 -31.235  23.155  1.00  0.00     0.000 C 
BRANCH   7   8
ATOM      8  C   UNL     1      13.331 -30.014  24.057  1.00  0.00    -0.000 C 
BRANCH   8   9
ATOM      9  C   UNL     1      12.277 -28.915  23.853  1.00  0.00    -0.003 C 
ATOM     10  C   UNL     1      12.499 -27.707  24.763  1.00  0.00     0.004 C 
ENDBRANCH   8   9
ENDBRANCH   7   8
ENDBRANCH   1   7
TORSDOF 6
ENDMDL
MODEL 3
REMARK VINA RESULT:    -4.061      1.136      2.102
REMARK INTER + INTRA:          -5.735
REMARK INTER:                  -5.347
REMARK INTRA:                  -0.388
REMARK UNBOUND:                -0.250
REMARK SMILES CCCCCCCC(=O)[O-]
REMARK SMILES IDX 5 1 6 2 7 3 8 4 9 5 10 6 4 7 3 8 2 9 1 10
REMARK H PARENT
REMARK Flexibility Score: inf
ROOT
ATOM      1  C   UNL     1      14.501 -30.415  23.107  1.00  0.00     0.000 C 
ENDROOT
BRANCH   1   2
ATOM      2  C   UNL     1      14.330 -30.423  21.583  1.00  0.00     0.006 C 
BRANCH   2   3
ATOM      3  C   UNL     1      13.324 -31.493  21.149  1.00  0.00     0.053 C 
BRANCH   3   4
ATOM      4  C   UNL     1      14.029 -32.768  20.809  1.00  0.00     0.041 C 
ATOM      5  O   UNL     1      14.688 -33.381  21.691  1.00  0.00    -0.550 OA
ATOM      6  O   UNL     1      13.920 -33.305  19.534  1.00  0.00    -0.550 OA
ENDBRANCH   3   4
ENDBRANCH   2   3
ENDBRANCH   1   2
BRANCH   1   7
ATOM      7  C   UNL     1      13.179 -30.075  23.807  1.00  0.00     0.000 C 
BRANCH   7   8
ATOM      8  C   UNL     1      13.023 -28.557  23.980  1.00  0.00    -0.000 C 
BRANCH   8   9
ATOM      9  C   UNL     1      11.627 -28.057  23.575  1.00  0.00    -0.003 C 
ATOM     10  C   UNL     1      10.924 -28.995  22.595  1.00  0.00     0.004 C 
ENDBRANCH   8   9
ENDBRANCH   7   8
ENDBRANCH   1   7
TORSDOF 6
ENDMDL
MODEL 4
REMARK VINA RESULT:    -4.041      1.523      2.082
REMARK INTER + INTRA:          -5.708
REMARK INTER:                  -5.329
REMARK INTRA:                  -0.379
REMARK UNBOUND:                -0.250
REMARK SMILES CCCCCCCC(=O)[O-]
REMARK SMILES IDX 5 1 6 2 7 3 8 4 9 5 10 6 4 7 3 8 2 9 1 10
REMARK H PARENT
REMARK Flexibility Score: inf
ROOT
ATOM      1  C   UNL     1      13.320 -29.927  23.742  1.00  0.00     0.000 C 
ENDROOT
BRANCH   1   2
ATOM      2  C   UNL     1      14.665 -29.960  23.007  1.00  0.00     0.006 C 
BRANCH   2   3
ATOM      3  C   UNL     1      14.466 -30.197  21.507  1.00  0.00     0.053 C 
BRANCH   3   4
ATOM      4  C   UNL     1      14.160 -31.636  21.240  1.00  0.00     0.041 C 
ATOM      5  O   UNL     1      14.793 -32.541  21.847  1.00  0.00    -0.550 OA
ATOM      6  O   UNL     1      13.144 -31.980  20.359  1.00  0.00    -0.550 OA
ENDBRANCH   3   4
ENDBRANCH   2   3
ENDBRANCH   1   2
BRANCH   1   7
ATOM      7  C   UNL     1      12.310 -29.041  23.004  1.00  0.00     0.000 C 
BRANCH   7   8
ATOM      8  C   UNL     1      11.882 -27.851  23.876  1.00  0.00    -0.000 C 
BRANCH   8   9
ATOM      9  C   UNL     1      12.789 -27.660  25.101  1.00  0.00    -0.003 C 
ATOM     10  C   UNL     1      13.653 -26.402  25.008  1.00  0.00     0.004 C 
ENDBRANCH   8   9
ENDBRANCH   7   8
ENDBRANCH   1   7
TORSDOF 6
ENDMDL
MODEL 5
REMARK VINA RESULT:    -3.915      9.207     10.285
REMARK INTER + INTRA:          -5.537
REMARK INTER:                  -5.290
REMARK INTRA:                  -0.247
REMARK UNBOUND:                -0.250
REMARK SMILES CCCCCCCC(=O)[O-]
REMARK SMILES IDX 5 1 6 2 7 3 8 4 9 5 10 6 4 7 3 8 2 9 1 10
REMARK H PARENT
REMARK Flexibility Score: inf
ROOT
ATOM      1  C   UNL     1      20.134 -26.460  21.145  1.00  0.00     0.000 C 
ENDROOT
BRANCH   1   2
ATOM      2  C   UNL     1      20.799 -25.655  20.022  1.00  0.00     0.006 C 
BRANCH   2   3
ATOM      3  C   UNL     1      22.049 -24.932  20.532  1.00  0.00     0.053 C 
BRANCH   3   4
ATOM      4  C   UNL     1      23.171 -25.070  19.552  1.00  0.00     0.041 C 
ATOM      5  O   UNL     1      23.920 -24.088  19.304  1.00  0.00    -0.550 OA
ATOM      6  O   UNL     1      23.420 -26.295  18.949  1.00  0.00    -0.550 OA
ENDBRANCH   3   4
ENDBRANCH   2   3
ENDBRANCH   1   2
BRANCH   1   7
ATOM      7  C   UNL     1      19.741 -27.861  20.660  1.00  0.00     0.000 C 
BRANCH   7   8
ATOM      8  C   UNL     1      20.930 -28.828  20.750  1.00  0.00    -0.000 C 
BRANCH   8   9
ATOM      9  C   UNL     1      20.553 -30.170  21.396  1.00  0.00    -0.003 C 
ATOM     10  C   UNL     1      19.065 -30.492  21.267  1.00  0.00     0.004 C 
ENDBRANCH   8   9
ENDBRANCH   7   8
ENDBRANCH   1   7
TORSDOF 6
ENDMDL
MODEL 6
REMARK VINA RESULT:    -3.892      1.949      2.605
REMARK INTER + INTRA:          -5.507
REMARK INTER:                  -5.108
REMARK INTRA:                  -0.399
REMARK UNBOUND:                -0.250
REMARK SMILES CCCCCCCC(=O)[O-]
REMARK SMILES IDX 5 1 6 2 7 3 8 4 9 5 10 6 4 7 3 8 2 9 1 10
REMARK H PARENT
REMARK Flexibility Score: inf
ROOT
ATOM      1  C   UNL     1      14.604 -30.347  23.290  1.00  0.00     0.000 C 
ENDROOT
BRANCH   1   2
ATOM      2  C   UNL     1      13.585 -31.483  23.144  1.00  0.00     0.006 C 
BRANCH   2   3
ATOM      3  C   UNL     1      13.825 -32.575  24.191  1.00  0.00     0.053 C 
BRANCH   3   4
ATOM      4  C   UNL     1      14.894 -33.515  23.733  1.00  0.00     0.041 C 
ATOM      5  O   UNL     1      14.905 -33.929  22.543  1.00  0.00    -0.550 OA
ATOM      6  O   UNL     1      15.906 -33.895  24.603  1.00  0.00    -0.550 OA
ENDBRANCH   3   4
ENDBRANCH   2   3
ENDBRANCH   1   2
BRANCH   1   7
ATOM      7  C   UNL     1      13.920 -28.978  23.196  1.00  0.00     0.000 C 
BRANCH   7   8
ATOM      8  C   UNL     1      12.876 -28.807  24.310  1.00  0.00    -0.000 C 
BRANCH   8   9
ATOM      9  C   UNL     1      11.624 -28.054  23.835  1.00  0.00    -0.003 C 
ATOM     10  C   UNL     1      10.937 -28.734  22.652  1.00  0.00     0.004 C 
ENDBRANCH   8   9
ENDBRANCH   7   8
ENDBRANCH   1   7
TORSDOF 6
ENDMDL
MODEL 7
REMARK VINA RESULT:    -3.878      2.051      2.926
REMARK INTER + INTRA:          -5.488
REMARK INTER:                  -5.264
REMARK INTRA:                  -0.224
REMARK UNBOUND:                -0.250
REMARK SMILES CCCCCCCC(=O)[O-]
REMARK SMILES IDX 5 1 6 2 7 3 8 4 9 5 10 6 4 7 3 8 2 9 1 10
REMARK H PARENT
REMARK Flexibility Score: inf
ROOT
ATOM      1  C   UNL     1      14.353 -32.472  21.303  1.00  0.00     0.000 C 
ENDROOT
BRANCH   1   2
ATOM      2  C   UNL     1      14.486 -33.597  20.270  1.00  0.00     0.006 C 
BRANCH   2   3
ATOM      3  C   UNL     1      15.317 -34.757  20.825  1.00  0.00     0.053 C 
BRANCH   3   4
ATOM      4  C   UNL     1      16.231 -35.298  19.772  1.00  0.00     0.041 C 
ATOM      5  O   UNL     1      16.389 -36.541  19.649  1.00  0.00    -0.550 OA
ATOM      6  O   UNL     1      16.870 -34.433  18.895  1.00  0.00    -0.550 OA
ENDBRANCH   3   4
ENDBRANCH   2   3
ENDBRANCH   1   2
BRANCH   1   7
ATOM      7  C   UNL     1      13.270 -31.468  20.889  1.00  0.00     0.000 C 
BRANCH   7   8
ATOM      8  C   UNL     1      12.528 -30.921  22.117  1.00  0.00    -0.000 C 
BRANCH   8   9
ATOM      9  C   UNL     1      13.446 -30.762  23.339  1.00  0.00    -0.003 C 
ATOM     10  C   UNL     1      14.022 -29.352  23.467  1.00  0.00     0.004 C 
ENDBRANCH   8   9
ENDBRANCH   7   8
ENDBRANCH   1   7
TORSDOF 6
ENDMDL
MODEL 8
REMARK VINA RESULT:    -3.877      2.724      3.049
REMARK INTER + INTRA:          -5.487
REMARK INTER:                  -5.020
REMARK INTRA:                  -0.467
REMARK UNBOUND:                -0.250
REMARK SMILES CCCCCCCC(=O)[O-]
REMARK SMILES IDX 5 1 6 2 7 3 8 4 9 5 10 6 4 7 3 8 2 9 1 10
REMARK H PARENT
REMARK Flexibility Score: inf
ROOT
ATOM      1  C   UNL     1      13.410 -30.346  23.813  1.00  0.00     0.000 C 
ENDROOT
BRANCH   1   2
ATOM      2  C   UNL     1      14.906 -30.385  23.479  1.00  0.00     0.006 C 
BRANCH   2   3
ATOM      3  C   UNL     1      15.231 -29.449  22.311  1.00  0.00     0.053 C 
BRANCH   3   4
ATOM      4  C   UNL     1      16.527 -29.838  21.674  1.00  0.00     0.041 C 
ATOM      5  O   UNL     1      17.471 -29.007  21.601  1.00  0.00    -0.550 OA
ATOM      6  O   UNL     1      16.711 -31.131  21.204  1.00  0.00    -0.550 OA
ENDBRANCH   3   4
ENDBRANCH   2   3
ENDBRANCH   1   2
BRANCH   1   7
ATOM      7  C   UNL     1      12.682 -29.296  22.965  1.00  0.00     0.000 C 
BRANCH   7   8
ATOM      8  C   UNL     1      11.894 -28.321  23.853  1.00  0.00    -0.000 C 
BRANCH   8   9
ATOM      9  C   UNL     1      12.724 -27.797  25.035  1.00  0.00    -0.003 C 
ATOM     10  C   UNL     1      13.577 -26.584  24.668  1.00  0.00     0.004 C 
ENDBRANCH   8   9
ENDBRANCH   7   8
ENDBRANCH   1   7
TORSDOF 6
ENDMDL
MODEL 9
REMARK VINA RESULT:    -3.827      3.403      5.240
REMARK INTER + INTRA:          -5.419
REMARK INTER:                  -4.948
REMARK INTRA:                  -0.471
REMARK UNBOUND:                -0.250
REMARK SMILES CCCCCCCC(=O)[O-]
REMARK SMILES IDX 5 1 6 2 7 3 8 4 9 5 10 6 4 7 3 8 2 9 1 10
REMARK H PARENT
REMARK Flexibility Score: inf
ROOT
ATOM      1  C   UNL     1      14.577 -29.489  23.034  1.00  0.00     0.000 C 
ENDROOT
BRANCH   1   2
ATOM      2  C   UNL     1      13.282 -29.915  23.737  1.00  0.00     0.006 C 
BRANCH   2   3
ATOM      3  C   UNL     1      12.480 -28.694  24.197  1.00  0.00     0.053 C 
BRANCH   3   4
ATOM      4  C   UNL     1      11.376 -28.399  23.233  1.00  0.00     0.041 C 
ATOM      5  O   UNL     1      10.891 -27.239  23.160  1.00  0.00    -0.550 OA
ATOM      6  O   UNL     1      10.914 -29.392  22.379  1.00  0.00    -0.550 OA
ENDBRANCH   3   4
ENDBRANCH   2   3
ENDBRANCH   1   2
BRANCH   1   7
ATOM      7  C   UNL     1      14.593 -29.960  21.575  1.00  0.00     0.000 C 
BRANCH   7   8
ATOM      8  C   UNL     1      13.735 -31.222  21.395  1.00  0.00    -0.000 C 
BRANCH   8   9
ATOM      9  C   UNL     1      14.582 -32.495  21.247  1.00  0.00    -0.003 C 
ATOM     10  C   UNL     1      14.829 -33.201  22.579  1.00  0.00     0.004 C 
ENDBRANCH   8   9
ENDBRANCH   7   8
ENDBRANCH   1   7
TORSDOF 6
ENDMDL
