MODEL 1
REMARK VINA RESULT:    -6.152      0.000      0.000
REMARK INTER + INTRA:          -6.512
REMARK INTER:                  -6.512
REMARK INTRA:                   0.000
REMARK UNBOUND:                 0.000
REMARK SMILES O=c1ccc2cc(O)c(O)cc2o1
REMARK SMILES IDX 4 1 3 2 2 3 1 4 13 5 12 6 11 7 9 8 7 9 6 10 5 11 8 12 10 14
REMARK H PARENT 8 13 10 15
REMARK Flexibility Score: inf
ROOT
ATOM      1  C   UNL     1     -28.318  -8.393  -0.695  1.00  0.00     0.019 A 
ATOM      2  C   UNL     1     -28.768  -8.939   0.506  1.00  0.00     0.094 A 
ATOM      3  C   UNL     1     -29.484  -8.128   1.393  1.00  0.00     0.336 A 
ATOM      4  O   UNL     1     -29.899  -8.603   2.482  1.00  0.00    -0.246 OA
ATOM      5  O   UNL     1     -29.730  -6.855   1.094  1.00  0.00    -0.423 OA
ATOM      6  C   UNL     1     -29.319  -6.294  -0.041  1.00  0.00     0.142 A 
ATOM      7  C   UNL     1     -29.606  -4.952  -0.302  1.00  0.00     0.098 A 
ATOM      8  C   UNL     1     -29.176  -4.356  -1.496  1.00  0.00     0.161 A 
ATOM      9  C   UNL     1     -28.453  -5.108  -2.433  1.00  0.00     0.158 A 
ATOM     10  C   UNL     1     -28.160  -6.456  -2.178  1.00  0.00     0.062 A 
ATOM     11  C   UNL     1     -28.591  -7.052  -0.984  1.00  0.00     0.022 A 
ENDROOT
BRANCH   9  12
ATOM     12  O   UNL     1     -28.027  -4.508  -3.618  1.00  0.00    -0.504 OA
ATOM     13  H   UNL     1     -27.307  -4.927  -4.196  1.00  0.00     0.293 HD
ENDBRANCH   9  12
BRANCH   8  14
ATOM     14  O   UNL     1     -29.461  -3.017  -1.759  1.00  0.00    -0.504 OA
ATOM     15  H   UNL     1     -29.829  -2.403  -1.042  1.00  0.00     0.293 HD
ENDBRANCH   8  14
TORSDOF 2
ENDMDL
MODEL 2
REMARK VINA RESULT:    -6.063      1.168      2.263
REMARK INTER + INTRA:          -6.418
REMARK INTER:                  -6.418
REMARK INTRA:                   0.000
REMARK UNBOUND:                 0.000
REMARK SMILES O=c1ccc2cc(O)c(O)cc2o1
REMARK SMILES IDX 4 1 3 2 2 3 1 4 13 5 12 6 11 7 9 8 7 9 6 10 5 11 8 12 10 14
REMARK H PARENT 8 13 10 15
REMARK Flexibility Score: inf
ROOT
ATOM      1  C   UNL     1     -29.746  -6.962   1.171  1.00  0.00     0.019 A 
ATOM      2  C   UNL     1     -29.415  -8.297   1.400  1.00  0.00     0.094 A 
ATOM      3  C   UNL     1     -28.675  -8.988   0.435  1.00  0.00     0.336 A 
ATOM      4  O   UNL     1     -28.366 -10.193   0.624  1.00  0.00    -0.246 OA
ATOM      5  O   UNL     1     -28.295  -8.379  -0.685  1.00  0.00    -0.423 OA
ATOM      6  C   UNL     1     -28.589  -7.107  -0.945  1.00  0.00     0.142 A 
ATOM      7  C   UNL     1     -28.164  -6.520  -2.139  1.00  0.00     0.098 A 
ATOM      8  C   UNL     1     -28.471  -5.180  -2.418  1.00  0.00     0.161 A 
ATOM      9  C   UNL     1     -29.210  -4.425  -1.495  1.00  0.00     0.158 A 
ATOM     10  C   UNL     1     -29.641  -5.009  -0.294  1.00  0.00     0.062 A 
ATOM     11  C   UNL     1     -29.333  -6.348  -0.016  1.00  0.00     0.022 A 
ENDROOT
BRANCH   9  12
ATOM     12  O   UNL     1     -29.513  -3.094  -1.779  1.00  0.00    -0.504 OA
ATOM     13  H   UNL     1     -29.457  -2.374  -1.068  1.00  0.00     0.293 HD
ENDBRANCH   9  12
BRANCH   8  14
ATOM     14  O   UNL     1     -28.047  -4.592  -3.608  1.00  0.00    -0.504 OA
ATOM     15  H   UNL     1     -28.079  -3.589  -3.743  1.00  0.00     0.293 HD
ENDBRANCH   8  14
TORSDOF 2
ENDMDL
MODEL 3
REMARK VINA RESULT:    -5.739      5.950      6.854
REMARK INTER + INTRA:          -6.075
REMARK INTER:                  -6.075
REMARK INTRA:                   0.000
REMARK UNBOUND:                 0.000
REMARK SMILES O=c1ccc2cc(O)c(O)cc2o1
REMARK SMILES IDX 4 1 3 2 2 3 1 4 13 5 12 6 11 7 9 8 7 9 6 10 5 11 8 12 10 14
REMARK H PARENT 8 13 10 15
REMARK Flexibility Score: inf
ROOT
ATOM      1  C   UNL     1     -30.687 -10.762   2.130  1.00  0.00     0.019 A 
ATOM      2  C   UNL     1     -30.511 -12.009   1.531  1.00  0.00     0.094 A 
ATOM      3  C   UNL     1     -31.625 -12.672   1.006  1.00  0.00     0.336 A 
ATOM      4  O   UNL     1     -31.486 -13.798   0.461  1.00  0.00    -0.246 OA
ATOM      5  O   UNL     1     -32.833 -12.120   1.079  1.00  0.00    -0.423 OA
ATOM      6  C   UNL     1     -33.046 -10.933   1.641  1.00  0.00     0.142 A 
ATOM      7  C   UNL     1     -34.338 -10.403   1.690  1.00  0.00     0.098 A 
ATOM      8  C   UNL     1     -34.568  -9.153   2.282  1.00  0.00     0.161 A 
ATOM      9  C   UNL     1     -33.498  -8.430   2.829  1.00  0.00     0.158 A 
ATOM     10  C   UNL     1     -32.198  -8.956   2.785  1.00  0.00     0.062 A 
ATOM     11  C   UNL     1     -31.969 -10.206   2.193  1.00  0.00     0.022 A 
ENDROOT
BRANCH   9  12
ATOM     12  O   UNL     1     -33.734  -7.187   3.417  1.00  0.00    -0.504 OA
ATOM     13  H   UNL     1     -33.920  -6.363   2.858  1.00  0.00     0.293 HD
ENDBRANCH   9  12
BRANCH   8  14
ATOM     14  O   UNL     1     -35.856  -8.621   2.331  1.00  0.00    -0.504 OA
ATOM     15  H   UNL     1     -36.538  -8.820   1.609  1.00  0.00     0.293 HD
ENDBRANCH   8  14
TORSDOF 2
ENDMDL
MODEL 4
REMARK VINA RESULT:    -5.725      5.875      6.688
REMARK INTER + INTRA:          -6.060
REMARK INTER:                  -6.060
REMARK INTRA:                   0.000
REMARK UNBOUND:                 0.000
REMARK SMILES O=c1ccc2cc(O)c(O)cc2o1
REMARK SMILES IDX 4 1 3 2 2 3 1 4 13 5 12 6 11 7 9 8 7 9 6 10 5 11 8 12 10 14
REMARK H PARENT 8 13 10 15
REMARK Flexibility Score: inf
ROOT
ATOM      1  C   UNL     1     -32.389 -12.487   1.059  1.00  0.00     0.019 A 
ATOM      2  C   UNL     1     -31.069 -12.934   1.061  1.00  0.00     0.094 A 
ATOM      3  C   UNL     1     -30.079 -12.125   1.629  1.00  0.00     0.336 A 
ATOM      4  O   UNL     1     -28.881 -12.512   1.640  1.00  0.00    -0.246 OA
ATOM      5  O   UNL     1     -30.395 -10.946   2.159  1.00  0.00    -0.423 OA
ATOM      6  C   UNL     1     -31.642 -10.481   2.179  1.00  0.00     0.142 A 
ATOM      7  C   UNL     1     -31.914  -9.235   2.749  1.00  0.00     0.098 A 
ATOM      8  C   UNL     1     -33.226  -8.740   2.773  1.00  0.00     0.161 A 
ATOM      9  C   UNL     1     -34.271  -9.497   2.221  1.00  0.00     0.158 A 
ATOM     10  C   UNL     1     -34.004 -10.748   1.647  1.00  0.00     0.062 A 
ATOM     11  C   UNL     1     -32.692 -11.243   1.623  1.00  0.00     0.022 A 
ENDROOT
BRANCH   9  12
ATOM     12  O   UNL     1     -35.572  -8.998   2.248  1.00  0.00    -0.504 OA
ATOM     13  H   UNL     1     -36.245  -9.306   2.941  1.00  0.00     0.293 HD
ENDBRANCH   9  12
BRANCH   8  14
ATOM     14  O   UNL     1     -33.501  -7.497   3.342  1.00  0.00    -0.504 OA
ATOM     15  H   UNL     1     -32.759  -6.870   3.628  1.00  0.00     0.293 HD
ENDBRANCH   8  14
TORSDOF 2
ENDMDL
MODEL 5
REMARK VINA RESULT:    -5.655     10.035     11.877
REMARK INTER + INTRA:          -5.986
REMARK INTER:                  -5.986
REMARK INTRA:                   0.000
REMARK UNBOUND:                 0.000
REMARK SMILES O=c1ccc2cc(O)c(O)cc2o1
REMARK SMILES IDX 4 1 3 2 2 3 1 4 13 5 12 6 11 7 9 8 7 9 6 10 5 11 8 12 10 14
REMARK H PARENT 8 13 10 15
REMARK Flexibility Score: inf
ROOT
ATOM      1  C   UNL     1     -35.316 -16.488   5.004  1.00  0.00     0.019 A 
ATOM      2  C   UNL     1     -36.362 -15.915   4.283  1.00  0.00     0.094 A 
ATOM      3  C   UNL     1     -36.098 -14.810   3.468  1.00  0.00     0.336 A 
ATOM      4  O   UNL     1     -37.030 -14.278   2.809  1.00  0.00    -0.246 OA
ATOM      5  O   UNL     1     -34.867 -14.313   3.383  1.00  0.00    -0.423 OA
ATOM      6  C   UNL     1     -33.839 -14.829   4.054  1.00  0.00     0.142 A 
ATOM      7  C   UNL     1     -32.567 -14.266   3.927  1.00  0.00     0.098 A 
ATOM      8  C   UNL     1     -31.481 -14.805   4.631  1.00  0.00     0.161 A 
ATOM      9  C   UNL     1     -31.671 -15.915   5.468  1.00  0.00     0.158 A 
ATOM     10  C   UNL     1     -32.946 -16.485   5.601  1.00  0.00     0.062 A 
ATOM     11  C   UNL     1     -34.031 -15.945   4.897  1.00  0.00     0.022 A 
ENDROOT
BRANCH   9  12
ATOM     12  O   UNL     1     -30.587 -16.445   6.167  1.00  0.00    -0.504 OA
ATOM     13  H   UNL     1     -30.663 -17.313   6.685  1.00  0.00     0.293 HD
ENDBRANCH   9  12
BRANCH   8  14
ATOM     14  O   UNL     1     -30.210 -14.245   4.506  1.00  0.00    -0.504 OA
ATOM     15  H   UNL     1     -29.393 -14.695   4.900  1.00  0.00     0.293 HD
ENDBRANCH   8  14
TORSDOF 2
ENDMDL
MODEL 6
REMARK VINA RESULT:    -5.650      5.535      6.656
REMARK INTER + INTRA:          -5.980
REMARK INTER:                  -5.980
REMARK INTRA:                   0.000
REMARK UNBOUND:                 0.000
REMARK SMILES O=c1ccc2cc(O)c(O)cc2o1
REMARK SMILES IDX 4 1 3 2 2 3 1 4 13 5 12 6 11 7 9 8 7 9 6 10 5 11 8 12 10 14
REMARK H PARENT 8 13 10 15
REMARK Flexibility Score: inf
ROOT
ATOM      1  C   UNL     1     -30.508  -8.811   3.111  1.00  0.00     0.019 A 
ATOM      2  C   UNL     1     -29.290  -9.452   2.889  1.00  0.00     0.094 A 
ATOM      3  C   UNL     1     -29.274 -10.638   2.148  1.00  0.00     0.336 A 
ATOM      4  O   UNL     1     -28.184 -11.231   1.937  1.00  0.00    -0.246 OA
ATOM      5  O   UNL     1     -30.404 -11.146   1.664  1.00  0.00    -0.423 OA
ATOM      6  C   UNL     1     -31.588 -10.567   1.852  1.00  0.00     0.142 A 
ATOM      7  C   UNL     1     -32.742 -11.147   1.320  1.00  0.00     0.098 A 
ATOM      8  C   UNL     1     -33.992 -10.541   1.516  1.00  0.00     0.161 A 
ATOM      9  C   UNL     1     -34.086  -9.349   2.249  1.00  0.00     0.158 A 
ATOM     10  C   UNL     1     -32.930  -8.762   2.786  1.00  0.00     0.062 A 
ATOM     11  C   UNL     1     -31.681  -9.368   2.591  1.00  0.00     0.022 A 
ENDROOT
BRANCH   9  12
ATOM     12  O   UNL     1     -35.332  -8.753   2.440  1.00  0.00    -0.504 OA
ATOM     13  H   UNL     1     -36.178  -9.158   2.056  1.00  0.00     0.293 HD
ENDBRANCH   9  12
BRANCH   8  14
ATOM     14  O   UNL     1     -35.146 -11.117   0.986  1.00  0.00    -0.504 OA
ATOM     15  H   UNL     1     -35.212 -11.362   0.005  1.00  0.00     0.293 HD
ENDBRANCH   8  14
TORSDOF 2
ENDMDL
MODEL 7
REMARK VINA RESULT:    -5.600      7.704     10.690
REMARK INTER + INTRA:          -5.928
REMARK INTER:                  -5.928
REMARK INTRA:                   0.000
REMARK UNBOUND:                 0.000
REMARK SMILES O=c1ccc2cc(O)c(O)cc2o1
REMARK SMILES IDX 4 1 3 2 2 3 1 4 13 5 12 6 11 7 9 8 7 9 6 10 5 11 8 12 10 14
REMARK H PARENT 8 13 10 15
REMARK Flexibility Score: inf
ROOT
ATOM      1  C   UNL     1     -25.700 -13.985   1.621  1.00  0.00     0.019 A 
ATOM      2  C   UNL     1     -25.861 -12.684   2.095  1.00  0.00     0.094 A 
ATOM      3  C   UNL     1     -26.617 -12.473   3.253  1.00  0.00     0.336 A 
ATOM      4  O   UNL     1     -26.774 -11.306   3.697  1.00  0.00    -0.246 OA
ATOM      5  O   UNL     1     -27.174 -13.499   3.891  1.00  0.00    -0.423 OA
ATOM      6  C   UNL     1     -27.045 -14.757   3.473  1.00  0.00     0.142 A 
ATOM      7  C   UNL     1     -27.653 -15.795   4.184  1.00  0.00     0.098 A 
ATOM      8  C   UNL     1     -27.520 -17.122   3.748  1.00  0.00     0.161 A 
ATOM      9  C   UNL     1     -26.776 -17.409   2.595  1.00  0.00     0.158 A 
ATOM     10  C   UNL     1     -26.164 -16.371   1.876  1.00  0.00     0.062 A 
ATOM     11  C   UNL     1     -26.296 -15.046   2.312  1.00  0.00     0.022 A 
ENDROOT
BRANCH   9  12
ATOM     12  O   UNL     1     -26.649 -18.731   2.167  1.00  0.00    -0.504 OA
ATOM     13  H   UNL     1     -26.450 -18.958   1.200  1.00  0.00     0.293 HD
ENDBRANCH   9  12
BRANCH   8  14
ATOM     14  O   UNL     1     -28.125 -18.160   4.455  1.00  0.00    -0.504 OA
ATOM     15  H   UNL     1     -28.749 -17.978   5.231  1.00  0.00     0.293 HD
ENDBRANCH   8  14
TORSDOF 2
ENDMDL
MODEL 8
REMARK VINA RESULT:    -5.570      1.242      5.113
REMARK INTER + INTRA:          -5.896
REMARK INTER:                  -5.896
REMARK INTRA:                   0.000
REMARK UNBOUND:                 0.000
REMARK SMILES O=c1ccc2cc(O)c(O)cc2o1
REMARK SMILES IDX 4 1 3 2 2 3 1 4 13 5 12 6 11 7 9 8 7 9 6 10 5 11 8 12 10 14
REMARK H PARENT 8 13 10 15
REMARK Flexibility Score: inf
ROOT
ATOM      1  C   UNL     1     -29.534  -5.233  -0.093  1.00  0.00     0.019 A 
ATOM      2  C   UNL     1     -29.037  -4.603  -1.234  1.00  0.00     0.094 A 
ATOM      3  C   UNL     1     -28.284  -5.350  -2.146  1.00  0.00     0.336 A 
ATOM      4  O   UNL     1     -27.827  -4.799  -3.182  1.00  0.00    -0.246 OA
ATOM      5  O   UNL     1     -28.045  -6.639  -1.927  1.00  0.00    -0.423 OA
ATOM      6  C   UNL     1     -28.499  -7.279  -0.852  1.00  0.00     0.142 A 
ATOM      7  C   UNL     1     -28.216  -8.636  -0.673  1.00  0.00     0.098 A 
ATOM      8  C   UNL     1     -28.692  -9.315   0.458  1.00  0.00     0.161 A 
ATOM      9  C   UNL     1     -29.455  -8.631   1.415  1.00  0.00     0.158 A 
ATOM     10  C   UNL     1     -29.743  -7.269   1.243  1.00  0.00     0.062 A 
ATOM     11  C   UNL     1     -29.267  -6.591   0.112  1.00  0.00     0.022 A 
ENDROOT
BRANCH   9  12
ATOM     12  O   UNL     1     -29.925  -9.312   2.538  1.00  0.00    -0.504 OA
ATOM     13  H   UNL     1     -29.483 -10.163   2.865  1.00  0.00     0.293 HD
ENDBRANCH   9  12
BRANCH   8  14
ATOM     14  O   UNL     1     -28.412 -10.669   0.638  1.00  0.00    -0.504 OA
ATOM     15  H   UNL     1     -29.133 -11.327   0.906  1.00  0.00     0.293 HD
ENDBRANCH   8  14
TORSDOF 2
ENDMDL
MODEL 9
REMARK VINA RESULT:    -5.557      1.325      4.489
REMARK INTER + INTRA:          -5.881
REMARK INTER:                  -5.881
REMARK INTRA:                   0.000
REMARK UNBOUND:                 0.000
REMARK SMILES O=c1ccc2cc(O)c(O)cc2o1
REMARK SMILES IDX 4 1 3 2 2 3 1 4 13 5 12 6 11 7 9 8 7 9 6 10 5 11 8 12 10 14
REMARK H PARENT 8 13 10 15
REMARK Flexibility Score: inf
ROOT
ATOM      1  C   UNL     1     -28.233  -5.970  -1.885  1.00  0.00     0.019 A 
ATOM      2  C   UNL     1     -28.635  -4.636  -1.821  1.00  0.00     0.094 A 
ATOM      3  C   UNL     1     -29.389  -4.207  -0.724  1.00  0.00     0.336 A 
ATOM      4  O   UNL     1     -29.761  -3.007  -0.648  1.00  0.00    -0.246 OA
ATOM      5  O   UNL     1     -29.719  -5.060   0.242  1.00  0.00    -0.423 OA
ATOM      6  C   UNL     1     -29.357  -6.341   0.221  1.00  0.00     0.142 A 
ATOM      7  C   UNL     1     -29.733  -7.192   1.264  1.00  0.00     0.098 A 
ATOM      8  C   UNL     1     -29.354  -8.542   1.247  1.00  0.00     0.161 A 
ATOM      9  C   UNL     1     -28.595  -9.043   0.178  1.00  0.00     0.158 A 
ATOM     10  C   UNL     1     -28.215  -8.195  -0.873  1.00  0.00     0.062 A 
ATOM     11  C   UNL     1     -28.594  -6.845  -0.855  1.00  0.00     0.022 A 
ENDROOT
BRANCH   9  12
ATOM     12  O   UNL     1     -28.223 -10.387   0.168  1.00  0.00    -0.504 OA
ATOM     13  H   UNL     1     -28.758 -11.089   0.664  1.00  0.00     0.293 HD
ENDBRANCH   9  12
BRANCH   8  14
ATOM     14  O   UNL     1     -29.727  -9.392   2.286  1.00  0.00    -0.504 OA
ATOM     15  H   UNL     1     -29.549  -9.154   3.254  1.00  0.00     0.293 HD
ENDBRANCH   8  14
TORSDOF 2
ENDMDL
