MODEL 1
REMARK VINA RESULT:    -4.586      0.000      0.000
REMARK INTER + INTRA:          -7.424
REMARK INTER:                  -6.999
REMARK INTRA:                  -0.426
REMARK UNBOUND:                -0.426
REMARK SMILES CCCCCCCCCCC(=O)[O-]
REMARK SMILES IDX 7 1 8 2 9 3 10 4 11 5 12 6 13 7 6 8 5 9 4 10 3 11 2 12 1 13
REMARK H PARENT
REMARK Flexibility Score: inf
ROOT
ATOM      1  C   UNL     1     -20.150  -4.228  23.770  1.00  0.00     0.000 C 
ENDROOT
BRANCH   1   2
ATOM      2  C   UNL     1     -20.616  -5.659  23.450  1.00  0.00     0.000 C 
BRANCH   2   3
ATOM      3  C   UNL     1     -21.648  -6.185  24.463  1.00  0.00     0.006 C 
BRANCH   3   4
ATOM      4  C   UNL     1     -22.297  -5.052  25.269  1.00  0.00     0.053 C 
BRANCH   4   5
ATOM      5  C   UNL     1     -23.163  -5.578  26.373  1.00  0.00     0.041 C 
ATOM      6  O   UNL     1     -24.416  -5.486  26.293  1.00  0.00    -0.550 OA
ATOM      7  O   UNL     1     -22.587  -6.197  27.475  1.00  0.00    -0.550 OA
ENDBRANCH   4   5
ENDBRANCH   3   4
ENDBRANCH   2   3
ENDBRANCH   1   2
BRANCH   1   8
ATOM      8  C   UNL     1     -18.839  -3.860  23.058  1.00  0.00     0.000 C 
BRANCH   8   9
ATOM      9  C   UNL     1     -18.180  -5.103  22.445  1.00  0.00    -0.000 C 
BRANCH   9  10
ATOM     10  C   UNL     1     -16.655  -4.954  22.404  1.00  0.00    -0.000 C 
BRANCH  10  11
ATOM     11  C   UNL     1     -15.965  -6.314  22.585  1.00  0.00    -0.000 C 
BRANCH  11  12
ATOM     12  C   UNL     1     -14.906  -6.587  21.507  1.00  0.00    -0.003 C 
ATOM     13  C   UNL     1     -15.155  -5.801  20.220  1.00  0.00     0.004 C 
ENDBRANCH  11  12
ENDBRANCH  10  11
ENDBRANCH   9  10
ENDBRANCH   8   9
ENDBRANCH   1   8
TORSDOF 9
ENDMDL
MODEL 2
REMARK VINA RESULT:    -4.555      4.162      7.301
REMARK INTER + INTRA:          -7.378
REMARK INTER:                  -6.818
REMARK INTRA:                  -0.560
REMARK UNBOUND:                -0.426
REMARK SMILES CCCCCCCCCCC(=O)[O-]
REMARK SMILES IDX 7 1 8 2 9 3 10 4 11 5 12 6 13 7 6 8 5 9 4 10 3 11 2 12 1 13
REMARK H PARENT
REMARK Flexibility Score: inf
ROOT
ATOM      1  C   UNL     1     -19.144  -5.527  22.293  1.00  0.00     0.000 C 
ENDROOT
BRANCH   1   2
ATOM      2  C   UNL     1     -18.378  -4.261  22.711  1.00  0.00     0.000 C 
BRANCH   2   3
ATOM      3  C   UNL     1     -16.863  -4.381  22.475  1.00  0.00     0.006 C 
BRANCH   3   4
ATOM      4  C   UNL     1     -16.404  -5.843  22.393  1.00  0.00     0.053 C 
BRANCH   4   5
ATOM      5  C   UNL     1     -15.437  -6.063  21.270  1.00  0.00     0.041 C 
ATOM      6  O   UNL     1     -14.354  -6.671  21.476  1.00  0.00    -0.550 OA
ATOM      7  O   UNL     1     -15.746  -5.623  19.988  1.00  0.00    -0.550 OA
ENDBRANCH   4   5
ENDBRANCH   3   4
ENDBRANCH   2   3
ENDBRANCH   1   2
BRANCH   1   8
ATOM      8  C   UNL     1     -20.308  -5.854  23.240  1.00  0.00     0.000 C 
BRANCH   8   9
ATOM      9  C   UNL     1     -20.765  -4.602  24.000  1.00  0.00    -0.000 C 
BRANCH   9  10
ATOM     10  C   UNL     1     -22.069  -4.865  24.762  1.00  0.00    -0.000 C 
BRANCH  10  11
ATOM     11  C   UNL     1     -22.198  -6.351  25.131  1.00  0.00    -0.000 C 
BRANCH  11  12
ATOM     12  C   UNL     1     -22.753  -6.561  26.548  1.00  0.00    -0.003 C 
ATOM     13  C   UNL     1     -22.741  -5.281  27.384  1.00  0.00     0.004 C 
ENDBRANCH  11  12
ENDBRANCH  10  11
ENDBRANCH   9  10
ENDBRANCH   8   9
ENDBRANCH   1   8
TORSDOF 9
ENDMDL
MODEL 3
REMARK VINA RESULT:    -4.502      4.155      7.190
REMARK INTER + INTRA:          -7.296
REMARK INTER:                  -6.584
REMARK INTRA:                  -0.711
REMARK UNBOUND:                -0.426
REMARK SMILES CCCCCCCCCCC(=O)[O-]
REMARK SMILES IDX 7 1 8 2 9 3 10 4 11 5 12 6 13 7 6 8 5 9 4 10 3 11 2 12 1 13
REMARK H PARENT
REMARK Flexibility Score: inf
ROOT
ATOM      1  C   UNL     1     -18.238  -4.378  22.505  1.00  0.00     0.000 C 
ENDROOT
BRANCH   1   2
ATOM      2  C   UNL     1     -16.706  -4.517  22.481  1.00  0.00     0.000 C 
BRANCH   2   3
ATOM      3  C   UNL     1     -16.245  -5.984  22.449  1.00  0.00     0.006 C 
BRANCH   3   4
ATOM      4  C   UNL     1     -15.254  -6.255  21.310  1.00  0.00     0.053 C 
BRANCH   4   5
ATOM      5  C   UNL     1     -15.808  -5.847  19.979  1.00  0.00     0.041 C 
ATOM      6  O   UNL     1     -15.221  -4.972  19.290  1.00  0.00    -0.550 OA
ATOM      7  O   UNL     1     -16.956  -6.455  19.486  1.00  0.00    -0.550 OA
ENDBRANCH   4   5
ENDBRANCH   3   4
ENDBRANCH   2   3
ENDBRANCH   1   2
BRANCH   1   8
ATOM      8  C   UNL     1     -18.957  -5.718  22.286  1.00  0.00     0.000 C 
BRANCH   8   9
ATOM      9  C   UNL     1     -20.190  -5.832  23.192  1.00  0.00    -0.000 C 
BRANCH   9  10
ATOM     10  C   UNL     1     -20.471  -4.506  23.910  1.00  0.00    -0.000 C 
BRANCH  10  11
ATOM     11  C   UNL     1     -21.785  -4.578  24.703  1.00  0.00    -0.000 C 
BRANCH  11  12
ATOM     12  C   UNL     1     -22.413  -5.979  24.678  1.00  0.00    -0.003 C 
ATOM     13  C   UNL     1     -22.601  -6.569  26.075  1.00  0.00     0.004 C 
ENDBRANCH  11  12
ENDBRANCH  10  11
ENDBRANCH   9  10
ENDBRANCH   8   9
ENDBRANCH   1   8
TORSDOF 9
ENDMDL
MODEL 4
REMARK VINA RESULT:    -4.454     16.510     17.770
REMARK INTER + INTRA:          -7.223
REMARK INTER:                  -6.199
REMARK INTRA:                  -1.024
REMARK UNBOUND:                -0.426
REMARK SMILES CCCCCCCCCCC(=O)[O-]
REMARK SMILES IDX 7 1 8 2 9 3 10 4 11 5 12 6 13 7 6 8 5 9 4 10 3 11 2 12 1 13
REMARK H PARENT
REMARK Flexibility Score: inf
ROOT
ATOM      1  C   UNL     1     -15.630  10.006  32.047  1.00  0.00     0.000 C 
ENDROOT
BRANCH   1   2
ATOM      2  C   UNL     1     -14.755  10.822  31.080  1.00  0.00     0.000 C 
BRANCH   2   3
ATOM      3  C   UNL     1     -15.404  10.993  29.696  1.00  0.00     0.006 C 
BRANCH   3   4
ATOM      4  C   UNL     1     -14.863  12.220  28.950  1.00  0.00     0.053 C 
BRANCH   4   5
ATOM      5  C   UNL     1     -14.031  11.832  27.767  1.00  0.00     0.041 C 
ATOM      6  O   UNL     1     -12.876  11.358  27.933  1.00  0.00    -0.550 OA
ATOM      7  O   UNL     1     -14.541  11.966  26.482  1.00  0.00    -0.550 OA
ENDBRANCH   4   5
ENDBRANCH   3   4
ENDBRANCH   2   3
ENDBRANCH   1   2
BRANCH   1   8
ATOM      8  C   UNL     1     -14.836   8.920  32.790  1.00  0.00     0.000 C 
BRANCH   8   9
ATOM      9  C   UNL     1     -13.989   8.095  31.813  1.00  0.00    -0.000 C 
BRANCH   9  10
ATOM     10  C   UNL     1     -14.823   6.986  31.161  1.00  0.00    -0.000 C 
BRANCH  10  11
ATOM     11  C   UNL     1     -14.449   6.815  29.680  1.00  0.00    -0.000 C 
BRANCH  11  12
ATOM     12  C   UNL     1     -13.413   7.848  29.211  1.00  0.00    -0.003 C 
ATOM     13  C   UNL     1     -13.216   7.841  27.695  1.00  0.00     0.004 C 
ENDBRANCH  11  12
ENDBRANCH  10  11
ENDBRANCH   9  10
ENDBRANCH   8   9
ENDBRANCH   1   8
TORSDOF 9
ENDMDL
MODEL 5
REMARK VINA RESULT:    -4.409     13.886     15.305
REMARK INTER + INTRA:          -7.155
REMARK INTER:                  -6.171
REMARK INTRA:                  -0.984
REMARK UNBOUND:                -0.426
REMARK SMILES CCCCCCCCCCC(=O)[O-]
REMARK SMILES IDX 7 1 8 2 9 3 10 4 11 5 12 6 13 7 6 8 5 9 4 10 3 11 2 12 1 13
REMARK H PARENT
REMARK Flexibility Score: inf
ROOT
ATOM      1  C   UNL     1     -14.657   6.891  29.626  1.00  0.00     0.000 C 
ENDROOT
BRANCH   1   2
ATOM      2  C   UNL     1     -14.807   5.730  30.623  1.00  0.00     0.000 C 
BRANCH   2   3
ATOM      3  C   UNL     1     -16.262   5.251  30.759  1.00  0.00     0.006 C 
BRANCH   3   4
ATOM      4  C   UNL     1     -16.427   3.779  30.359  1.00  0.00     0.053 C 
BRANCH   4   5
ATOM      5  C   UNL     1     -16.419   2.871  31.550  1.00  0.00     0.041 C 
ATOM      6  O   UNL     1     -15.390   2.202  31.830  1.00  0.00    -0.550 OA
ATOM      7  O   UNL     1     -17.539   2.788  32.370  1.00  0.00    -0.550 OA
ENDBRANCH   4   5
ENDBRANCH   3   4
ENDBRANCH   2   3
ENDBRANCH   1   2
BRANCH   1   8
ATOM      8  C   UNL     1     -14.040   8.144  30.265  1.00  0.00     0.000 C 
BRANCH   8   9
ATOM      9  C   UNL     1     -13.945   7.992  31.789  1.00  0.00    -0.000 C 
BRANCH   9  10
ATOM     10  C   UNL     1     -14.293   9.307  32.496  1.00  0.00    -0.000 C 
BRANCH  10  11
ATOM     11  C   UNL     1     -15.581   9.916  31.922  1.00  0.00    -0.000 C 
BRANCH  11  12
ATOM     12  C   UNL     1     -16.836   9.125  32.320  1.00  0.00    -0.003 C 
ATOM     13  C   UNL     1     -17.661   8.677  31.114  1.00  0.00     0.004 C 
ENDBRANCH  11  12
ENDBRANCH  10  11
ENDBRANCH   9  10
ENDBRANCH   8   9
ENDBRANCH   1   8
TORSDOF 9
ENDMDL
MODEL 6
REMARK VINA RESULT:    -4.381     15.418     16.656
REMARK INTER + INTRA:          -7.112
REMARK INTER:                  -5.960
REMARK INTRA:                  -1.152
REMARK UNBOUND:                -0.426
REMARK SMILES CCCCCCCCCCC(=O)[O-]
REMARK SMILES IDX 7 1 8 2 9 3 10 4 11 5 12 6 13 7 6 8 5 9 4 10 3 11 2 12 1 13
REMARK H PARENT
REMARK Flexibility Score: inf
ROOT
ATOM      1  C   UNL     1     -15.229  10.392  30.387  1.00  0.00     0.000 C 
ENDROOT
BRANCH   1   2
ATOM      2  C   UNL     1     -14.825  10.415  31.871  1.00  0.00     0.000 C 
BRANCH   2   3
ATOM      3  C   UNL     1     -14.754   9.007  32.487  1.00  0.00     0.006 C 
BRANCH   3   4
ATOM      4  C   UNL     1     -14.215   7.968  31.495  1.00  0.00     0.053 C 
BRANCH   4   5
ATOM      5  C   UNL     1     -15.202   6.869  31.246  1.00  0.00     0.041 C 
ATOM      6  O   UNL     1     -14.810   5.677  31.145  1.00  0.00    -0.550 OA
ATOM      7  O   UNL     1     -16.558   7.158  31.155  1.00  0.00    -0.550 OA
ENDBRANCH   4   5
ENDBRANCH   3   4
ENDBRANCH   2   3
ENDBRANCH   1   2
BRANCH   1   8
ATOM      8  C   UNL     1     -14.746  11.634  29.623  1.00  0.00     0.000 C 
BRANCH   8   9
ATOM      9  C   UNL     1     -14.035  11.235  28.323  1.00  0.00    -0.000 C 
BRANCH   9  10
ATOM     10  C   UNL     1     -13.315   9.890  28.480  1.00  0.00    -0.000 C 
BRANCH  10  11
ATOM     11  C   UNL     1     -13.610   8.967  27.288  1.00  0.00    -0.000 C 
BRANCH  11  12
ATOM     12  C   UNL     1     -14.374   7.699  27.698  1.00  0.00    -0.003 C 
ATOM     13  C   UNL     1     -15.890   7.895  27.695  1.00  0.00     0.004 C 
ENDBRANCH  11  12
ENDBRANCH  10  11
ENDBRANCH   9  10
ENDBRANCH   8   9
ENDBRANCH   1   8
TORSDOF 9
ENDMDL
MODEL 7
REMARK VINA RESULT:    -4.367      3.578      7.094
REMARK INTER + INTRA:          -7.091
REMARK INTER:                  -6.391
REMARK INTRA:                  -0.700
REMARK UNBOUND:                -0.426
REMARK SMILES CCCCCCCCCCC(=O)[O-]
REMARK SMILES IDX 7 1 8 2 9 3 10 4 11 5 12 6 13 7 6 8 5 9 4 10 3 11 2 12 1 13
REMARK H PARENT
REMARK Flexibility Score: inf
ROOT
ATOM      1  C   UNL     1     -20.870  -5.903  23.709  1.00  0.00     0.000 C 
ENDROOT
BRANCH   1   2
ATOM      2  C   UNL     1     -20.239  -4.502  23.677  1.00  0.00     0.000 C 
BRANCH   2   3
ATOM      3  C   UNL     1     -18.935  -4.458  22.861  1.00  0.00     0.006 C 
BRANCH   3   4
ATOM      4  C   UNL     1     -18.628  -5.803  22.189  1.00  0.00     0.053 C 
BRANCH   4   5
ATOM      5  C   UNL     1     -17.197  -5.896  21.755  1.00  0.00     0.041 C 
ATOM      6  O   UNL     1     -16.286  -5.391  22.461  1.00  0.00    -0.550 OA
ATOM      7  O   UNL     1     -16.867  -6.569  20.584  1.00  0.00    -0.550 OA
ENDBRANCH   4   5
ENDBRANCH   3   4
ENDBRANCH   2   3
ENDBRANCH   1   2
BRANCH   1   8
ATOM      8  C   UNL     1     -22.226  -5.926  24.431  1.00  0.00     0.000 C 
BRANCH   8   9
ATOM      9  C   UNL     1     -22.143  -6.740  25.728  1.00  0.00    -0.000 C 
BRANCH   9  10
ATOM     10  C   UNL     1     -23.047  -6.143  26.812  1.00  0.00    -0.000 C 
BRANCH  10  11
ATOM     11  C   UNL     1     -23.744  -4.871  26.306  1.00  0.00    -0.000 C 
BRANCH  11  12
ATOM     12  C   UNL     1     -23.380  -3.629  27.134  1.00  0.00    -0.003 C 
ATOM     13  C   UNL     1     -22.097  -2.953  26.654  1.00  0.00     0.004 C 
ENDBRANCH  11  12
ENDBRANCH  10  11
ENDBRANCH   9  10
ENDBRANCH   8   9
ENDBRANCH   1   8
TORSDOF 9
ENDMDL
MODEL 8
REMARK VINA RESULT:    -4.323      6.292      8.865
REMARK INTER + INTRA:          -7.024
REMARK INTER:                  -6.251
REMARK INTRA:                  -0.773
REMARK UNBOUND:                -0.426
REMARK SMILES CCCCCCCCCCC(=O)[O-]
REMARK SMILES IDX 7 1 8 2 9 3 10 4 11 5 12 6 13 7 6 8 5 9 4 10 3 11 2 12 1 13
REMARK H PARENT
REMARK Flexibility Score: inf
ROOT
ATOM      1  C   UNL     1     -15.719  -6.709  20.052  1.00  0.00     0.000 C 
ENDROOT
BRANCH   1   2
ATOM      2  C   UNL     1     -15.135  -5.772  18.981  1.00  0.00     0.000 C 
BRANCH   2   3
ATOM      3  C   UNL     1     -15.025  -6.446  17.603  1.00  0.00     0.006 C 
BRANCH   3   4
ATOM      4  C   UNL     1     -13.893  -5.849  16.756  1.00  0.00     0.053 C 
BRANCH   4   5
ATOM      5  C   UNL     1     -14.418  -4.963  15.667  1.00  0.00     0.041 C 
ATOM      6  O   UNL     1     -14.876  -3.824  15.943  1.00  0.00    -0.550 OA
ATOM      7  O   UNL     1     -14.373  -5.385  14.344  1.00  0.00    -0.550 OA
ENDBRANCH   4   5
ENDBRANCH   3   4
ENDBRANCH   2   3
ENDBRANCH   1   2
BRANCH   1   8
ATOM      8  C   UNL     1     -14.968  -6.620  21.390  1.00  0.00     0.000 C 
BRANCH   8   9
ATOM      9  C   UNL     1     -15.925  -6.248  22.531  1.00  0.00    -0.000 C 
BRANCH   9  10
ATOM     10  C   UNL     1     -17.328  -5.941  21.995  1.00  0.00    -0.000 C 
BRANCH  10  11
ATOM     11  C   UNL     1     -17.821  -4.576  22.498  1.00  0.00    -0.000 C 
BRANCH  11  12
ATOM     12  C   UNL     1     -16.705  -3.522  22.534  1.00  0.00    -0.003 C 
ATOM     13  C   UNL     1     -16.424  -2.909  21.163  1.00  0.00     0.004 C 
ENDBRANCH  11  12
ENDBRANCH  10  11
ENDBRANCH   9  10
ENDBRANCH   8   9
ENDBRANCH   1   8
TORSDOF 9
ENDMDL
MODEL 9
REMARK VINA RESULT:    -4.271     16.673     17.802
REMARK INTER + INTRA:          -6.945
REMARK INTER:                  -5.877
REMARK INTRA:                  -1.067
REMARK UNBOUND:                -0.426
REMARK SMILES CCCCCCCCCCC(=O)[O-]
REMARK SMILES IDX 7 1 8 2 9 3 10 4 11 5 12 6 13 7 6 8 5 9 4 10 3 11 2 12 1 13
REMARK H PARENT
REMARK Flexibility Score: inf
ROOT
ATOM      1  C   UNL     1     -17.149   9.507  29.282  1.00  0.00     0.000 C 
ENDROOT
BRANCH   1   2
ATOM      2  C   UNL     1     -17.692  10.758  28.569  1.00  0.00     0.000 C 
BRANCH   2   3
ATOM      3  C   UNL     1     -16.673  11.911  28.541  1.00  0.00     0.006 C 
BRANCH   3   4
ATOM      4  C   UNL     1     -15.299  11.482  29.071  1.00  0.00     0.053 C 
BRANCH   4   5
ATOM      5  C   UNL     1     -14.276  11.413  27.979  1.00  0.00     0.041 C 
ATOM      6  O   UNL     1     -14.527  11.896  26.844  1.00  0.00    -0.550 OA
ATOM      7  O   UNL     1     -13.033  10.841  28.224  1.00  0.00    -0.550 OA
ENDBRANCH   4   5
ENDBRANCH   3   4
ENDBRANCH   2   3
ENDBRANCH   1   2
BRANCH   1   8
ATOM      8  C   UNL     1     -18.081   9.011  30.398  1.00  0.00     0.000 C 
BRANCH   8   9
ATOM      9  C   UNL     1     -17.279   8.359  31.532  1.00  0.00    -0.000 C 
BRANCH   9  10
ATOM     10  C   UNL     1     -16.521   9.414  32.346  1.00  0.00    -0.000 C 
BRANCH  10  11
ATOM     11  C   UNL     1     -15.003   9.197  32.248  1.00  0.00    -0.000 C 
BRANCH  11  12
ATOM     12  C   UNL     1     -14.640   7.860  31.584  1.00  0.00    -0.003 C 
ATOM     13  C   UNL     1     -13.898   8.040  30.260  1.00  0.00     0.004 C 
ENDBRANCH  11  12
ENDBRANCH  10  11
ENDBRANCH   9  10
ENDBRANCH   8   9
ENDBRANCH   1   8
TORSDOF 9
ENDMDL
