MODEL 1
REMARK VINA RESULT:     9.584      0.000      0.000
REMARK INTER + INTRA:          18.218
REMARK INTER:                  18.549
REMARK INTRA:                  -0.331
REMARK UNBOUND:                -0.331
REMARK SMILES CCCCCCCCCCCCCCCCCC(=O)[O-]
REMARK SMILES IDX 10 1 11 2 12 3 13 4 14 5 15 6 16 7 17 8 18 9 19 10 20 11
REMARK SMILES IDX 9 12 8 13 7 14 6 15 5 16 4 17 3 18 2 19 1 20
REMARK H PARENT
REMARK Flexibility Score: inf
ROOT
ATOM      1  C   UNL     1     -29.786  16.719 -11.051  1.00  0.00     0.000 C 
ENDROOT
BRANCH   1   2
ATOM      2  C   UNL     1     -31.152  17.186 -10.532  1.00  0.00     0.000 C 
BRANCH   2   3
ATOM      3  C   UNL     1     -31.189  18.714 -10.377  1.00  0.00     0.000 C 
BRANCH   3   4
ATOM      4  C   UNL     1     -32.620  19.261 -10.259  1.00  0.00     0.000 C 
BRANCH   4   5
ATOM      5  C   UNL     1     -32.659  20.710  -9.743  1.00  0.00     0.000 C 
BRANCH   5   6
ATOM      6  C   UNL     1     -32.247  21.731 -10.814  1.00  0.00     0.000 C 
BRANCH   6   7
ATOM      7  C   UNL     1     -31.135  22.678 -10.331  1.00  0.00     0.006 C 
BRANCH   7   8
ATOM      8  C   UNL     1     -31.688  23.856  -9.518  1.00  0.00     0.053 C 
BRANCH   8   9
ATOM      9  C   UNL     1     -33.157  24.046  -9.746  1.00  0.00     0.041 C 
ATOM     10  O   UNL     1     -33.948  24.115  -8.767  1.00  0.00    -0.550 OA
ATOM     11  O   UNL     1     -33.657  24.118 -11.040  1.00  0.00    -0.550 OA
ENDBRANCH   8   9
ENDBRANCH   7   8
ENDBRANCH   6   7
ENDBRANCH   5   6
ENDBRANCH   4   5
ENDBRANCH   3   4
ENDBRANCH   2   3
ENDBRANCH   1   2
BRANCH   1  12
ATOM     12  C   UNL     1     -28.959  17.904 -11.564  1.00  0.00     0.000 C 
BRANCH  12  13
ATOM     13  C   UNL     1     -28.540  17.689 -13.026  1.00  0.00    -0.000 C 
BRANCH  13  14
ATOM     14  C   UNL     1     -29.167  16.430 -13.652  1.00  0.00    -0.000 C 
BRANCH  14  15
ATOM     15  C   UNL     1     -29.379  16.496 -15.176  1.00  0.00    -0.000 C 
BRANCH  15  16
ATOM     16  C   UNL     1     -29.910  17.856 -15.650  1.00  0.00    -0.000 C 
BRANCH  16  17
ATOM     17  C   UNL     1     -30.105  17.868 -17.174  1.00  0.00    -0.000 C 
BRANCH  17  18
ATOM     18  C   UNL     1     -30.359  19.280 -17.726  1.00  0.00    -0.000 C 
BRANCH  18  19
ATOM     19  C   UNL     1     -29.158  20.217 -17.533  1.00  0.00    -0.003 C 
ATOM     20  C   UNL     1     -29.067  21.234 -18.667  1.00  0.00     0.004 C 
ENDBRANCH  18  19
ENDBRANCH  17  18
ENDBRANCH  16  17
ENDBRANCH  15  16
ENDBRANCH  14  15
ENDBRANCH  13  14
ENDBRANCH  12  13
ENDBRANCH   1  12
TORSDOF 16
ENDMDL
MODEL 2
REMARK VINA RESULT:     9.902      2.878      7.533
REMARK INTER + INTRA:          18.833
REMARK INTER:                  19.683
REMARK INTRA:                  -0.851
REMARK UNBOUND:                -0.331
REMARK SMILES CCCCCCCCCCCCCCCCCC(=O)[O-]
REMARK SMILES IDX 10 1 11 2 12 3 13 4 14 5 15 6 16 7 17 8 18 9 19 10 20 11
REMARK SMILES IDX 9 12 8 13 7 14 6 15 5 16 4 17 3 18 2 19 1 20
REMARK H PARENT
REMARK Flexibility Score: inf
ROOT
ATOM      1  C   UNL     1     -30.014  18.196 -10.706  1.00  0.00     0.000 C 
ENDROOT
BRANCH   1   2
ATOM      2  C   UNL     1     -28.873  17.374 -11.317  1.00  0.00     0.000 C 
BRANCH   2   3
ATOM      3  C   UNL     1     -28.891  17.462 -12.850  1.00  0.00     0.000 C 
BRANCH   3   4
ATOM      4  C   UNL     1     -28.767  16.086 -13.522  1.00  0.00     0.000 C 
BRANCH   4   5
ATOM      5  C   UNL     1     -29.417  16.048 -14.916  1.00  0.00     0.000 C 
BRANCH   5   6
ATOM      6  C   UNL     1     -29.607  17.448 -15.520  1.00  0.00     0.000 C 
BRANCH   6   7
ATOM      7  C   UNL     1     -30.467  17.430 -16.796  1.00  0.00     0.006 C 
BRANCH   7   8
ATOM      8  C   UNL     1     -29.845  18.260 -17.926  1.00  0.00     0.053 C 
BRANCH   8   9
ATOM      9  C   UNL     1     -29.953  19.731 -17.660  1.00  0.00     0.041 C 
ATOM     10  O   UNL     1     -31.000  20.208 -17.146  1.00  0.00    -0.550 OA
ATOM     11  O   UNL     1     -28.910  20.579 -18.008  1.00  0.00    -0.550 OA
ENDBRANCH   8   9
ENDBRANCH   7   8
ENDBRANCH   6   7
ENDBRANCH   5   6
ENDBRANCH   4   5
ENDBRANCH   3   4
ENDBRANCH   2   3
ENDBRANCH   1   2
BRANCH   1  12
ATOM     12  C   UNL     1     -31.336  17.420 -10.750  1.00  0.00     0.000 C 
BRANCH  12  13
ATOM     13  C   UNL     1     -32.445  18.182 -10.009  1.00  0.00    -0.000 C 
BRANCH  13  14
ATOM     14  C   UNL     1     -32.803  19.523 -10.676  1.00  0.00    -0.000 C 
BRANCH  14  15
ATOM     15  C   UNL     1     -32.295  20.774  -9.935  1.00  0.00    -0.000 C 
BRANCH  15  16
ATOM     16  C   UNL     1     -31.622  21.792 -10.866  1.00  0.00    -0.000 C 
BRANCH  16  17
ATOM     17  C   UNL     1     -30.835  22.837 -10.061  1.00  0.00    -0.000 C 
BRANCH  17  18
ATOM     18  C   UNL     1     -31.677  24.076  -9.718  1.00  0.00    -0.000 C 
BRANCH  18  19
ATOM     19  C   UNL     1     -33.100  24.003 -10.290  1.00  0.00    -0.003 C 
ATOM     20  C   UNL     1     -34.124  23.754  -9.187  1.00  0.00     0.004 C 
ENDBRANCH  18  19
ENDBRANCH  17  18
ENDBRANCH  16  17
ENDBRANCH  15  16
ENDBRANCH  14  15
ENDBRANCH  13  14
ENDBRANCH  12  13
ENDBRANCH   1  12
TORSDOF 16
ENDMDL
MODEL 3
REMARK VINA RESULT:    10.237      5.424      8.415
REMARK INTER + INTRA:          19.483
REMARK INTER:                  19.768
REMARK INTRA:                  -0.286
REMARK UNBOUND:                -0.331
REMARK SMILES CCCCCCCCCCCCCCCCCC(=O)[O-]
REMARK SMILES IDX 10 1 11 2 12 3 13 4 14 5 15 6 16 7 17 8 18 9 19 10 20 11
REMARK SMILES IDX 9 12 8 13 7 14 6 15 5 16 4 17 3 18 2 19 1 20
REMARK H PARENT
REMARK Flexibility Score: inf
ROOT
ATOM      1  C   UNL     1     -30.491  22.165 -10.964  1.00  0.00     0.000 C 
ENDROOT
BRANCH   1   2
ATOM      2  C   UNL     1     -31.731  22.402 -10.094  1.00  0.00     0.000 C 
BRANCH   2   3
ATOM      3  C   UNL     1     -32.394  21.072  -9.705  1.00  0.00     0.000 C 
BRANCH   3   4
ATOM      4  C   UNL     1     -32.171  19.972 -10.755  1.00  0.00     0.000 C 
BRANCH   4   5
ATOM      5  C   UNL     1     -32.670  18.595 -10.284  1.00  0.00     0.000 C 
BRANCH   5   6
ATOM      6  C   UNL     1     -31.587  17.510 -10.375  1.00  0.00     0.000 C 
BRANCH   6   7
ATOM      7  C   UNL     1     -30.188  18.093 -10.643  1.00  0.00     0.006 C 
BRANCH   7   8
ATOM      8  C   UNL     1     -29.212  17.035 -11.175  1.00  0.00     0.053 C 
BRANCH   8   9
ATOM      9  C   UNL     1     -28.873  17.267 -12.617  1.00  0.00     0.041 C 
ATOM     10  O   UNL     1     -28.456  18.393 -12.998  1.00  0.00    -0.550 OA
ATOM     11  O   UNL     1     -29.048  16.248 -13.544  1.00  0.00    -0.550 OA
ENDBRANCH   8   9
ENDBRANCH   7   8
ENDBRANCH   6   7
ENDBRANCH   5   6
ENDBRANCH   4   5
ENDBRANCH   3   4
ENDBRANCH   2   3
ENDBRANCH   1   2
BRANCH   1  12
ATOM     12  C   UNL     1     -29.513  21.204 -10.277  1.00  0.00     0.000 C 
BRANCH  12  13
ATOM     13  C   UNL     1     -28.077  21.748 -10.335  1.00  0.00    -0.000 C 
BRANCH  13  14
ATOM     14  C   UNL     1     -27.455  21.952  -8.940  1.00  0.00    -0.000 C 
BRANCH  14  15
ATOM     15  C   UNL     1     -25.915  21.934  -8.905  1.00  0.00    -0.000 C 
BRANCH  15  16
ATOM     16  C   UNL     1     -25.351  21.131  -7.725  1.00  0.00    -0.000 C 
BRANCH  16  17
ATOM     17  C   UNL     1     -23.836  21.346  -7.589  1.00  0.00    -0.000 C 
BRANCH  17  18
ATOM     18  C   UNL     1     -23.437  21.891  -6.208  1.00  0.00    -0.000 C 
BRANCH  18  19
ATOM     19  C   UNL     1     -22.083  22.615  -6.226  1.00  0.00    -0.003 C 
ATOM     20  C   UNL     1     -22.202  24.019  -5.642  1.00  0.00     0.004 C 
ENDBRANCH  18  19
ENDBRANCH  17  18
ENDBRANCH  16  17
ENDBRANCH  15  16
ENDBRANCH  14  15
ENDBRANCH  13  14
ENDBRANCH  12  13
ENDBRANCH   1  12
TORSDOF 16
ENDMDL
MODEL 4
REMARK VINA RESULT:    10.581      5.001      8.739
REMARK INTER + INTRA:          20.148
REMARK INTER:                  20.413
REMARK INTRA:                  -0.265
REMARK UNBOUND:                -0.331
REMARK SMILES CCCCCCCCCCCCCCCCCC(=O)[O-]
REMARK SMILES IDX 10 1 11 2 12 3 13 4 14 5 15 6 16 7 17 8 18 9 19 10 20 11
REMARK SMILES IDX 9 12 8 13 7 14 6 15 5 16 4 17 3 18 2 19 1 20
REMARK H PARENT
REMARK Flexibility Score: inf
ROOT
ATOM      1  C   UNL     1     -30.447  18.890 -10.617  1.00  0.00     0.000 C 
ENDROOT
BRANCH   1   2
ATOM      2  C   UNL     1     -29.205  17.991 -10.595  1.00  0.00     0.000 C 
BRANCH   2   3
ATOM      3  C   UNL     1     -29.592  16.513 -10.756  1.00  0.00     0.000 C 
BRANCH   3   4
ATOM      4  C   UNL     1     -29.134  15.926 -12.100  1.00  0.00     0.000 C 
BRANCH   4   5
ATOM      5  C   UNL     1     -28.871  17.009 -13.160  1.00  0.00     0.000 C 
BRANCH   5   6
ATOM      6  C   UNL     1     -29.037  16.486 -14.595  1.00  0.00     0.000 C 
BRANCH   6   7
ATOM      7  C   UNL     1     -28.645  15.004 -14.733  1.00  0.00     0.006 C 
BRANCH   7   8
ATOM      8  C   UNL     1     -27.204  14.830 -15.230  1.00  0.00     0.053 C 
BRANCH   8   9
ATOM      9  C   UNL     1     -26.706  13.434 -15.012  1.00  0.00     0.041 C 
ATOM     10  O   UNL     1     -27.518  12.499 -14.778  1.00  0.00    -0.550 OA
ATOM     11  O   UNL     1     -25.343  13.170 -15.036  1.00  0.00    -0.550 OA
ENDBRANCH   8   9
ENDBRANCH   7   8
ENDBRANCH   6   7
ENDBRANCH   5   6
ENDBRANCH   4   5
ENDBRANCH   3   4
ENDBRANCH   2   3
ENDBRANCH   1   2
BRANCH   1  12
ATOM     12  C   UNL     1     -31.730  18.058 -10.496  1.00  0.00     0.000 C 
BRANCH  12  13
ATOM     13  C   UNL     1     -32.946  18.959 -10.231  1.00  0.00    -0.000 C 
BRANCH  13  14
ATOM     14  C   UNL     1     -32.558  20.347  -9.688  1.00  0.00    -0.000 C 
BRANCH  14  15
ATOM     15  C   UNL     1     -31.955  21.309 -10.729  1.00  0.00    -0.000 C 
BRANCH  15  16
ATOM     16  C   UNL     1     -30.878  22.232 -10.140  1.00  0.00    -0.000 C 
BRANCH  16  17
ATOM     17  C   UNL     1     -31.492  23.557  -9.663  1.00  0.00    -0.000 C 
BRANCH  17  18
ATOM     18  C   UNL     1     -32.521  24.123 -10.655  1.00  0.00    -0.000 C 
BRANCH  18  19
ATOM     19  C   UNL     1     -33.969  23.932 -10.180  1.00  0.00    -0.003 C 
ATOM     20  C   UNL     1     -34.082  24.121  -8.670  1.00  0.00     0.004 C 
ENDBRANCH  18  19
ENDBRANCH  17  18
ENDBRANCH  16  17
ENDBRANCH  15  16
ENDBRANCH  14  15
ENDBRANCH  13  14
ENDBRANCH  12  13
ENDBRANCH   1  12
TORSDOF 16
ENDMDL
MODEL 5
REMARK VINA RESULT:    11.197      3.671      6.300
REMARK INTER + INTRA:          21.340
REMARK INTER:                  22.766
REMARK INTRA:                  -1.426
REMARK UNBOUND:                -0.331
REMARK SMILES CCCCCCCCCCCCCCCCCC(=O)[O-]
REMARK SMILES IDX 10 1 11 2 12 3 13 4 14 5 15 6 16 7 17 8 18 9 19 10 20 11
REMARK SMILES IDX 9 12 8 13 7 14 6 15 5 16 4 17 3 18 2 19 1 20
REMARK H PARENT
REMARK Flexibility Score: inf
ROOT
ATOM      1  C   UNL     1     -29.318  16.599 -11.183  1.00  0.00     0.000 C 
ENDROOT
BRANCH   1   2
ATOM      2  C   UNL     1     -28.936  16.758 -12.660  1.00  0.00     0.000 C 
BRANCH   2   3
ATOM      3  C   UNL     1     -28.585  18.218 -12.983  1.00  0.00     0.000 C 
BRANCH   3   4
ATOM      4  C   UNL     1     -28.501  19.097 -11.727  1.00  0.00     0.000 C 
BRANCH   4   5
ATOM      5  C   UNL     1     -28.370  20.594 -12.059  1.00  0.00     0.000 C 
BRANCH   5   6
ATOM      6  C   UNL     1     -27.543  20.848 -13.329  1.00  0.00     0.000 C 
BRANCH   6   7
ATOM      7  C   UNL     1     -26.697  22.130 -13.236  1.00  0.00     0.006 C 
BRANCH   7   8
ATOM      8  C   UNL     1     -26.933  22.887 -11.923  1.00  0.00     0.053 C 
BRANCH   8   9
ATOM      9  C   UNL     1     -25.644  23.308 -11.285  1.00  0.00     0.041 C 
ATOM     10  O   UNL     1     -25.371  22.947 -10.109  1.00  0.00    -0.550 OA
ATOM     11  O   UNL     1     -24.760  24.125 -11.977  1.00  0.00    -0.550 OA
ENDBRANCH   8   9
ENDBRANCH   7   8
ENDBRANCH   6   7
ENDBRANCH   5   6
ENDBRANCH   4   5
ENDBRANCH   3   4
ENDBRANCH   2   3
ENDBRANCH   1   2
BRANCH   1  12
ATOM     12  C   UNL     1     -30.668  15.886 -11.037  1.00  0.00     0.000 C 
BRANCH  12  13
ATOM     13  C   UNL     1     -31.628  16.705 -10.160  1.00  0.00    -0.000 C 
BRANCH  13  14
ATOM     14  C   UNL     1     -31.522  18.221 -10.406  1.00  0.00    -0.000 C 
BRANCH  14  15
ATOM     15  C   UNL     1     -32.838  19.002 -10.235  1.00  0.00    -0.000 C 
BRANCH  15  16
ATOM     16  C   UNL     1     -32.618  20.478  -9.875  1.00  0.00    -0.000 C 
BRANCH  16  17
ATOM     17  C   UNL     1     -31.280  20.986 -10.433  1.00  0.00    -0.000 C 
BRANCH  17  18
ATOM     18  C   UNL     1     -31.380  22.407 -11.010  1.00  0.00    -0.000 C 
BRANCH  18  19
ATOM     19  C   UNL     1     -32.581  23.188 -10.455  1.00  0.00    -0.003 C 
ATOM     20  C   UNL     1     -32.160  24.104  -9.310  1.00  0.00     0.004 C 
ENDBRANCH  18  19
ENDBRANCH  17  18
ENDBRANCH  16  17
ENDBRANCH  15  16
ENDBRANCH  14  15
ENDBRANCH  13  14
ENDBRANCH  12  13
ENDBRANCH   1  12
TORSDOF 16
ENDMDL
MODEL 6
REMARK VINA RESULT:    11.351      3.123      7.218
REMARK INTER + INTRA:          21.638
REMARK INTER:                  22.204
REMARK INTRA:                  -0.566
REMARK UNBOUND:                -0.331
REMARK SMILES CCCCCCCCCCCCCCCCCC(=O)[O-]
REMARK SMILES IDX 10 1 11 2 12 3 13 4 14 5 15 6 16 7 17 8 18 9 19 10 20 11
REMARK SMILES IDX 9 12 8 13 7 14 6 15 5 16 4 17 3 18 2 19 1 20
REMARK H PARENT
REMARK Flexibility Score: inf
ROOT
ATOM      1  C   UNL     1     -31.346  16.686 -10.420  1.00  0.00     0.000 C 
ENDROOT
BRANCH   1   2
ATOM      2  C   UNL     1     -30.173  16.047 -11.174  1.00  0.00     0.000 C 
BRANCH   2   3
ATOM      3  C   UNL     1     -29.040  17.062 -11.391  1.00  0.00     0.000 C 
BRANCH   3   4
ATOM      4  C   UNL     1     -28.894  17.478 -12.862  1.00  0.00     0.000 C 
BRANCH   4   5
ATOM      5  C   UNL     1     -28.771  16.272 -13.809  1.00  0.00     0.000 C 
BRANCH   5   6
ATOM      6  C   UNL     1     -29.692  16.384 -15.034  1.00  0.00     0.000 C 
BRANCH   6   7
ATOM      7  C   UNL     1     -29.646  17.780 -15.681  1.00  0.00     0.006 C 
BRANCH   7   8
ATOM      8  C   UNL     1     -30.238  17.781 -17.097  1.00  0.00     0.053 C 
BRANCH   8   9
ATOM      9  C   UNL     1     -30.479  19.173 -17.598  1.00  0.00     0.041 C 
ATOM     10  O   UNL     1     -31.655  19.589 -17.776  1.00  0.00    -0.550 OA
ATOM     11  O   UNL     1     -29.404  20.000 -17.896  1.00  0.00    -0.550 OA
ENDBRANCH   8   9
ENDBRANCH   7   8
ENDBRANCH   6   7
ENDBRANCH   5   6
ENDBRANCH   4   5
ENDBRANCH   3   4
ENDBRANCH   2   3
ENDBRANCH   1   2
BRANCH   1  12
ATOM     12  C   UNL     1     -31.217  18.214 -10.396  1.00  0.00     0.000 C 
BRANCH  12  13
ATOM     13  C   UNL     1     -32.583  18.877 -10.162  1.00  0.00    -0.000 C 
BRANCH  13  14
ATOM     14  C   UNL     1     -32.643  20.328 -10.674  1.00  0.00    -0.000 C 
BRANCH  14  15
ATOM     15  C   UNL     1     -32.862  21.394  -9.584  1.00  0.00    -0.000 C 
BRANCH  15  16
ATOM     16  C   UNL     1     -32.952  22.819 -10.148  1.00  0.00    -0.000 C 
BRANCH  16  17
ATOM     17  C   UNL     1     -31.635  23.580  -9.931  1.00  0.00    -0.000 C 
BRANCH  17  18
ATOM     18  C   UNL     1     -30.425  22.641  -9.794  1.00  0.00    -0.000 C 
BRANCH  18  19
ATOM     19  C   UNL     1     -30.015  22.003 -11.129  1.00  0.00    -0.003 C 
ATOM     20  C   UNL     1     -29.130  20.781 -10.906  1.00  0.00     0.004 C 
ENDBRANCH  18  19
ENDBRANCH  17  18
ENDBRANCH  16  17
ENDBRANCH  15  16
ENDBRANCH  14  15
ENDBRANCH  13  14
ENDBRANCH  12  13
ENDBRANCH   1  12
TORSDOF 16
ENDMDL
MODEL 7
REMARK VINA RESULT:    11.402      3.025      4.359
REMARK INTER + INTRA:          21.737
REMARK INTER:                  22.840
REMARK INTRA:                  -1.103
REMARK UNBOUND:                -0.331
REMARK SMILES CCCCCCCCCCCCCCCCCC(=O)[O-]
REMARK SMILES IDX 10 1 11 2 12 3 13 4 14 5 15 6 16 7 17 8 18 9 19 10 20 11
REMARK SMILES IDX 9 12 8 13 7 14 6 15 5 16 4 17 3 18 2 19 1 20
REMARK H PARENT
REMARK Flexibility Score: inf
ROOT
ATOM      1  C   UNL     1     -29.697  16.793 -11.130  1.00  0.00     0.000 C 
ENDROOT
BRANCH   1   2
ATOM      2  C   UNL     1     -30.419  17.966 -10.455  1.00  0.00     0.000 C 
BRANCH   2   3
ATOM      3  C   UNL     1     -31.758  17.514  -9.852  1.00  0.00     0.000 C 
BRANCH   3   4
ATOM      4  C   UNL     1     -32.939  18.376 -10.323  1.00  0.00     0.000 C 
BRANCH   4   5
ATOM      5  C   UNL     1     -32.486  19.695 -10.973  1.00  0.00     0.000 C 
BRANCH   5   6
ATOM      6  C   UNL     1     -32.254  20.813  -9.944  1.00  0.00     0.000 C 
BRANCH   6   7
ATOM      7  C   UNL     1     -31.258  21.876 -10.440  1.00  0.00     0.006 C 
BRANCH   7   8
ATOM      8  C   UNL     1     -31.422  23.211  -9.704  1.00  0.00     0.053 C 
BRANCH   8   9
ATOM      9  C   UNL     1     -32.830  23.718  -9.777  1.00  0.00     0.041 C 
ATOM     10  O   UNL     1     -33.458  24.005  -8.723  1.00  0.00    -0.550 OA
ATOM     11  O   UNL     1     -33.460  23.845 -11.009  1.00  0.00    -0.550 OA
ENDBRANCH   8   9
ENDBRANCH   7   8
ENDBRANCH   6   7
ENDBRANCH   5   6
ENDBRANCH   4   5
ENDBRANCH   3   4
ENDBRANCH   2   3
ENDBRANCH   1   2
BRANCH   1  12
ATOM     12  C   UNL     1     -28.888  17.268 -12.343  1.00  0.00     0.000 C 
BRANCH  12  13
ATOM     13  C   UNL     1     -28.821  18.803 -12.390  1.00  0.00    -0.000 C 
BRANCH  13  14
ATOM     14  C   UNL     1     -27.668  19.327 -13.266  1.00  0.00    -0.000 C 
BRANCH  14  15
ATOM     15  C   UNL     1     -27.767  20.815 -13.651  1.00  0.00    -0.000 C 
BRANCH  15  16
ATOM     16  C   UNL     1     -27.386  21.759 -12.503  1.00  0.00    -0.000 C 
BRANCH  16  17
ATOM     17  C   UNL     1     -26.054  22.467 -12.794  1.00  0.00    -0.000 C 
BRANCH  17  18
ATOM     18  C   UNL     1     -26.000  23.889 -12.213  1.00  0.00    -0.000 C 
BRANCH  18  19
ATOM     19  C   UNL     1     -24.759  24.125 -11.339  1.00  0.00    -0.003 C 
ATOM     20  C   UNL     1     -25.092  23.972  -9.858  1.00  0.00     0.004 C 
ENDBRANCH  18  19
ENDBRANCH  17  18
ENDBRANCH  16  17
ENDBRANCH  15  16
ENDBRANCH  14  15
ENDBRANCH  13  14
ENDBRANCH  12  13
ENDBRANCH   1  12
TORSDOF 16
ENDMDL
MODEL 8
REMARK VINA RESULT:    11.422      2.983      6.868
REMARK INTER + INTRA:          21.775
REMARK INTER:                  22.245
REMARK INTRA:                  -0.469
REMARK UNBOUND:                -0.331
REMARK SMILES CCCCCCCCCCCCCCCCCC(=O)[O-]
REMARK SMILES IDX 10 1 11 2 12 3 13 4 14 5 15 6 16 7 17 8 18 9 19 10 20 11
REMARK SMILES IDX 9 12 8 13 7 14 6 15 5 16 4 17 3 18 2 19 1 20
REMARK H PARENT
REMARK Flexibility Score: inf
ROOT
ATOM      1  C   UNL     1     -29.042  16.744 -11.064  1.00  0.00     0.000 C 
ENDROOT
BRANCH   1   2
ATOM      2  C   UNL     1     -28.889  17.382 -12.450  1.00  0.00     0.000 C 
BRANCH   2   3
ATOM      3  C   UNL     1     -28.913  18.915 -12.355  1.00  0.00     0.000 C 
BRANCH   3   4
ATOM      4  C   UNL     1     -29.422  19.415 -10.995  1.00  0.00     0.000 C 
BRANCH   4   5
ATOM      5  C   UNL     1     -28.974  20.855 -10.688  1.00  0.00     0.000 C 
BRANCH   5   6
ATOM      6  C   UNL     1     -30.156  21.829 -10.564  1.00  0.00     0.000 C 
BRANCH   6   7
ATOM      7  C   UNL     1     -31.515  21.108 -10.534  1.00  0.00     0.006 C 
BRANCH   7   8
ATOM      8  C   UNL     1     -32.522  21.810  -9.614  1.00  0.00     0.053 C 
BRANCH   8   9
ATOM      9  C   UNL     1     -32.556  23.289  -9.852  1.00  0.00     0.041 C 
ATOM     10  O   UNL     1     -31.562  24.003  -9.553  1.00  0.00    -0.550 OA
ATOM     11  O   UNL     1     -33.697  23.884 -10.376  1.00  0.00    -0.550 OA
ENDBRANCH   8   9
ENDBRANCH   7   8
ENDBRANCH   6   7
ENDBRANCH   5   6
ENDBRANCH   4   5
ENDBRANCH   3   4
ENDBRANCH   2   3
ENDBRANCH   1   2
BRANCH   1  12
ATOM     12  C   UNL     1     -29.862  15.450 -11.141  1.00  0.00     0.000 C 
BRANCH  12  13
ATOM     13  C   UNL     1     -31.329  15.708 -10.766  1.00  0.00    -0.000 C 
BRANCH  13  14
ATOM     14  C   UNL     1     -31.608  17.178 -10.401  1.00  0.00    -0.000 C 
BRANCH  14  15
ATOM     15  C   UNL     1     -32.669  17.387  -9.305  1.00  0.00    -0.000 C 
BRANCH  15  16
ATOM     16  C   UNL     1     -33.370  16.086  -8.892  1.00  0.00    -0.000 C 
BRANCH  16  17
ATOM     17  C   UNL     1     -33.351  15.912  -7.366  1.00  0.00    -0.000 C 
BRANCH  17  18
ATOM     18  C   UNL     1     -33.774  14.502  -6.926  1.00  0.00    -0.000 C 
BRANCH  18  19
ATOM     19  C   UNL     1     -32.946  13.977  -5.743  1.00  0.00    -0.003 C 
ATOM     20  C   UNL     1     -33.691  12.873  -4.998  1.00  0.00     0.004 C 
ENDBRANCH  18  19
ENDBRANCH  17  18
ENDBRANCH  16  17
ENDBRANCH  15  16
ENDBRANCH  14  15
ENDBRANCH  13  14
ENDBRANCH  12  13
ENDBRANCH   1  12
TORSDOF 16
ENDMDL
MODEL 9
REMARK VINA RESULT:    11.438      4.197      6.763
REMARK INTER + INTRA:          21.805
REMARK INTER:                  20.471
REMARK INTRA:                   1.335
REMARK UNBOUND:                -0.331
REMARK SMILES CCCCCCCCCCCCCCCCCC(=O)[O-]
REMARK SMILES IDX 10 1 11 2 12 3 13 4 14 5 15 6 16 7 17 8 18 9 19 10 20 11
REMARK SMILES IDX 9 12 8 13 7 14 6 15 5 16 4 17 3 18 2 19 1 20
REMARK H PARENT
REMARK Flexibility Score: inf
ROOT
ATOM      1  C   UNL     1     -29.169  18.572 -10.785  1.00  0.00     0.000 C 
ENDROOT
BRANCH   1   2
ATOM      2  C   UNL     1     -29.194  17.268 -11.592  1.00  0.00     0.000 C 
BRANCH   2   3
ATOM      3  C   UNL     1     -30.231  16.288 -11.021  1.00  0.00     0.000 C 
BRANCH   3   4
ATOM      4  C   UNL     1     -31.401  17.004 -10.329  1.00  0.00     0.000 C 
BRANCH   4   5
ATOM      5  C   UNL     1     -31.342  18.532 -10.497  1.00  0.00     0.000 C 
BRANCH   5   6
ATOM      6  C   UNL     1     -32.730  19.189 -10.429  1.00  0.00     0.000 C 
BRANCH   6   7
ATOM      7  C   UNL     1     -32.690  20.591  -9.795  1.00  0.00     0.006 C 
BRANCH   7   8
ATOM      8  C   UNL     1     -32.013  21.621 -10.708  1.00  0.00     0.053 C 
BRANCH   8   9
ATOM      9  C   UNL     1     -32.170  23.016 -10.185  1.00  0.00     0.041 C 
ATOM     10  O   UNL     1     -31.180  23.629  -9.703  1.00  0.00    -0.550 OA
ATOM     11  O   UNL     1     -33.416  23.629 -10.202  1.00  0.00    -0.550 OA
ENDBRANCH   8   9
ENDBRANCH   7   8
ENDBRANCH   6   7
ENDBRANCH   5   6
ENDBRANCH   4   5
ENDBRANCH   3   4
ENDBRANCH   2   3
ENDBRANCH   1   2
BRANCH   1  12
ATOM     12  C   UNL     1     -28.590  19.722 -11.618  1.00  0.00     0.000 C 
BRANCH  12  13
ATOM     13  C   UNL     1     -28.932  21.082 -10.990  1.00  0.00    -0.000 C 
BRANCH  13  14
ATOM     14  C   UNL     1     -28.331  21.262  -9.583  1.00  0.00    -0.000 C 
BRANCH  14  15
ATOM     15  C   UNL     1     -26.896  21.819  -9.554  1.00  0.00    -0.000 C 
BRANCH  15  16
ATOM     16  C   UNL     1     -26.208  21.636  -8.194  1.00  0.00    -0.000 C 
BRANCH  16  17
ATOM     17  C   UNL     1     -24.686  21.800  -8.323  1.00  0.00    -0.000 C 
BRANCH  17  18
ATOM     18  C   UNL     1     -23.913  21.005  -7.257  1.00  0.00    -0.000 C 
BRANCH  18  19
ATOM     19  C   UNL     1     -23.443  21.884  -6.089  1.00  0.00    -0.003 C 
ATOM     20  C   UNL     1     -22.145  22.608  -6.434  1.00  0.00     0.004 C 
ENDBRANCH  18  19
ENDBRANCH  17  18
ENDBRANCH  16  17
ENDBRANCH  15  16
ENDBRANCH  14  15
ENDBRANCH  13  14
ENDBRANCH  12  13
ENDBRANCH   1  12
TORSDOF 16
ENDMDL
