MODEL 1
REMARK VINA RESULT:     0.088      0.000      0.000
REMARK INTER + INTRA:           2.825
REMARK INTER:                   0.231
REMARK INTRA:                   2.594
REMARK UNBOUND:                 2.594
REMARK SMILES CCCCCCCCCCCCCCCCCCCCCCCCCCCCCC(=O)[O-]
REMARK SMILES IDX 16 1 17 2 18 3 19 4 20 5 21 6 22 7 23 8 24 9 25 10 26 11
REMARK SMILES IDX 27 12 28 13 29 14 30 15 31 16 32 17 15 18 14 19 13 20 12 21
REMARK SMILES IDX 11 22 10 23 9 24 8 25 7 26 6 27 5 28 4 29 3 30 2 31 1 32
REMARK H PARENT
REMARK Flexibility Score: inf
ROOT
ATOM      1  C   UNL     1    -116.488 -98.156  39.789  1.00  0.00     0.000 C 
ENDROOT
BRANCH   1   2
ATOM      2  C   UNL     1    -116.980 -97.816  41.212  1.00  0.00     0.000 C 
BRANCH   2   3
ATOM      3  C   UNL     1    -117.314 -99.051  42.075  1.00  0.00     0.000 C 
BRANCH   3   4
ATOM      4  C   UNL     1    -118.741 -99.010  42.652  1.00  0.00     0.000 C 
BRANCH   4   5
ATOM      5  C   UNL     1    -118.999-100.119  43.687  1.00  0.00     0.000 C 
BRANCH   5   6
ATOM      6  C   UNL     1    -119.026 -99.590  45.131  1.00  0.00     0.000 C 
BRANCH   6   7
ATOM      7  C   UNL     1    -118.071 -98.401  45.346  1.00  0.00     0.000 C 
BRANCH   7   8
ATOM      8  C   UNL     1    -117.331 -98.398  46.701  1.00  0.00     0.000 C 
BRANCH   8   9
ATOM      9  C   UNL     1    -117.041 -99.789  47.296  1.00  0.00     0.000 C 
BRANCH   9  10
ATOM     10  C   UNL     1    -117.440 -99.901  48.778  1.00  0.00     0.000 C 
BRANCH  10  11
ATOM     11  C   UNL     1    -118.888 -99.462  49.045  1.00  0.00     0.000 C 
BRANCH  11  12
ATOM     12  C   UNL     1    -119.048 -97.932  49.085  1.00  0.00     0.000 C 
BRANCH  12  13
ATOM     13  C   UNL     1    -117.824 -97.202  48.507  1.00  0.00     0.006 C 
BRANCH  13  14
ATOM     14  C   UNL     1    -117.796 -95.716  48.893  1.00  0.00     0.053 C 
BRANCH  14  15
ATOM     15  C   UNL     1    -118.188 -94.864  47.727  1.00  0.00     0.041 C 
ATOM     16  O   UNL     1    -118.626 -93.698  47.913  1.00  0.00    -0.550 OA
ATOM     17  O   UNL     1    -118.098 -95.368  46.435  1.00  0.00    -0.550 OA
ENDBRANCH  14  15
ENDBRANCH  13  14
ENDBRANCH  12  13
ENDBRANCH  11  12
ENDBRANCH  10  11
ENDBRANCH   9  10
ENDBRANCH   8   9
ENDBRANCH   7   8
ENDBRANCH   6   7
ENDBRANCH   5   6
ENDBRANCH   4   5
ENDBRANCH   3   4
ENDBRANCH   2   3
ENDBRANCH   1   2
BRANCH   1  18
ATOM     18  C   UNL     1    -116.353 -99.657  39.474  1.00  0.00     0.000 C 
BRANCH  18  19
ATOM     19  C   UNL     1    -116.950-100.103  38.124  1.00  0.00     0.000 C 
BRANCH  19  20
ATOM     20  C   UNL     1    -116.621 -99.157  36.947  1.00  0.00     0.000 C 
BRANCH  20  21
ATOM     21  C   UNL     1    -117.817 -98.849  36.026  1.00  0.00     0.000 C 
BRANCH  21  22
ATOM     22  C   UNL     1    -118.590-100.114  35.607  1.00  0.00     0.000 C 
BRANCH  22  23
ATOM     23  C   UNL     1    -119.125-100.017  34.167  1.00  0.00     0.000 C 
BRANCH  23  24
ATOM     24  C   UNL     1    -118.345 -99.003  33.311  1.00  0.00    -0.000 C 
BRANCH  24  25
ATOM     25  C   UNL     1    -118.147 -99.475  31.862  1.00  0.00    -0.000 C 
BRANCH  25  26
ATOM     26  C   UNL     1    -118.914 -98.617  30.843  1.00  0.00    -0.000 C 
BRANCH  26  27
ATOM     27  C   UNL     1    -118.665 -97.110  31.035  1.00  0.00    -0.000 C 
BRANCH  27  28
ATOM     28  C   UNL     1    -117.206 -96.727  31.353  1.00  0.00    -0.000 C 
BRANCH  28  29
ATOM     29  C   UNL     1    -116.944 -96.478  32.855  1.00  0.00    -0.000 C 
BRANCH  29  30
ATOM     30  C   UNL     1    -115.444 -96.516  33.199  1.00  0.00    -0.000 C 
BRANCH  30  31
ATOM     31  C   UNL     1    -115.007 -97.880  33.755  1.00  0.00    -0.003 C 
ATOM     32  C   UNL     1    -114.680 -97.828  35.249  1.00  0.00     0.004 C 
ENDBRANCH  30  31
ENDBRANCH  29  30
ENDBRANCH  28  29
ENDBRANCH  27  28
ENDBRANCH  26  27
ENDBRANCH  25  26
ENDBRANCH  24  25
ENDBRANCH  23  24
ENDBRANCH  22  23
ENDBRANCH  21  22
ENDBRANCH  20  21
ENDBRANCH  19  20
ENDBRANCH  18  19
ENDBRANCH   1  18
TORSDOF 28
ENDMDL
MODEL 2
REMARK VINA RESULT:     1.158      1.472      2.630
REMARK INTER + INTRA:           5.648
REMARK INTER:                   2.802
REMARK INTRA:                   2.846
REMARK UNBOUND:                 2.594
REMARK SMILES CCCCCCCCCCCCCCCCCCCCCCCCCCCCCC(=O)[O-]
REMARK SMILES IDX 16 1 17 2 18 3 19 4 20 5 21 6 22 7 23 8 24 9 25 10 26 11
REMARK SMILES IDX 27 12 28 13 29 14 30 15 31 16 32 17 15 18 14 19 13 20 12 21
REMARK SMILES IDX 11 22 10 23 9 24 8 25 7 26 6 27 5 28 4 29 3 30 2 31 1 32
REMARK H PARENT
REMARK Flexibility Score: inf
ROOT
ATOM      1  C   UNL     1    -117.194 -98.965  38.494  1.00  0.00     0.000 C 
ENDROOT
BRANCH   1   2
ATOM      2  C   UNL     1    -117.468 -99.376  39.957  1.00  0.00     0.000 C 
BRANCH   2   3
ATOM      3  C   UNL     1    -118.813 -98.863  40.514  1.00  0.00     0.000 C 
BRANCH   3   4
ATOM      4  C   UNL     1    -118.650 -97.655  41.455  1.00  0.00     0.000 C 
BRANCH   4   5
ATOM      5  C   UNL     1    -118.630 -98.054  42.941  1.00  0.00     0.000 C 
BRANCH   5   6
ATOM      6  C   UNL     1    -117.763 -99.296  43.211  1.00  0.00     0.000 C 
BRANCH   6   7
ATOM      7  C   UNL     1    -117.509 -99.528  44.712  1.00  0.00     0.000 C 
BRANCH   7   8
ATOM      8  C   UNL     1    -118.757 -99.930  45.528  1.00  0.00     0.000 C 
BRANCH   8   9
ATOM      9  C   UNL     1    -118.850 -99.310  46.935  1.00  0.00     0.000 C 
BRANCH   9  10
ATOM     10  C   UNL     1    -117.778 -99.847  47.899  1.00  0.00     0.000 C 
BRANCH  10  11
ATOM     11  C   UNL     1    -117.319 -98.802  48.927  1.00  0.00     0.000 C 
BRANCH  11  12
ATOM     12  C   UNL     1    -118.294 -97.618  49.049  1.00  0.00     0.000 C 
BRANCH  12  13
ATOM     13  C   UNL     1    -118.085 -96.573  47.941  1.00  0.00     0.006 C 
BRANCH  13  14
ATOM     14  C   UNL     1    -119.124 -95.444  48.001  1.00  0.00     0.053 C 
BRANCH  14  15
ATOM     15  C   UNL     1    -118.452 -94.109  47.945  1.00  0.00     0.041 C 
ATOM     16  O   UNL     1    -118.717 -93.228  48.805  1.00  0.00    -0.550 OA
ATOM     17  O   UNL     1    -117.553 -93.824  46.924  1.00  0.00    -0.550 OA
ENDBRANCH  14  15
ENDBRANCH  13  14
ENDBRANCH  12  13
ENDBRANCH  11  12
ENDBRANCH  10  11
ENDBRANCH   9  10
ENDBRANCH   8   9
ENDBRANCH   7   8
ENDBRANCH   6   7
ENDBRANCH   5   6
ENDBRANCH   4   5
ENDBRANCH   3   4
ENDBRANCH   2   3
ENDBRANCH   1   2
BRANCH   1  18
ATOM     18  C   UNL     1    -117.208-100.112  37.468  1.00  0.00     0.000 C 
BRANCH  18  19
ATOM     19  C   UNL     1    -118.384-100.088  36.471  1.00  0.00     0.000 C 
BRANCH  19  20
ATOM     20  C   UNL     1    -117.952-100.123  34.987  1.00  0.00     0.000 C 
BRANCH  20  21
ATOM     21  C   UNL     1    -117.795 -98.734  34.339  1.00  0.00     0.000 C 
BRANCH  21  22
ATOM     22  C   UNL     1    -119.125 -98.171  33.805  1.00  0.00     0.000 C 
BRANCH  22  23
ATOM     23  C   UNL     1    -118.981 -97.586  32.388  1.00  0.00     0.000 C 
BRANCH  23  24
ATOM     24  C   UNL     1    -117.629 -96.880  32.172  1.00  0.00    -0.000 C 
BRANCH  24  25
ATOM     25  C   UNL     1    -116.626 -97.157  33.303  1.00  0.00    -0.000 C 
BRANCH  25  26
ATOM     26  C   UNL     1    -115.355 -97.869  32.814  1.00  0.00    -0.000 C 
BRANCH  26  27
ATOM     27  C   UNL     1    -114.982 -99.079  33.689  1.00  0.00    -0.000 C 
BRANCH  27  28
ATOM     28  C   UNL     1    -114.868 -98.781  35.198  1.00  0.00    -0.000 C 
BRANCH  28  29
ATOM     29  C   UNL     1    -114.881 -97.273  35.534  1.00  0.00    -0.000 C 
BRANCH  29  30
ATOM     30  C   UNL     1    -113.489 -96.754  35.936  1.00  0.00    -0.000 C 
BRANCH  30  31
ATOM     31  C   UNL     1    -113.293 -95.271  35.582  1.00  0.00    -0.003 C 
ATOM     32  C   UNL     1    -112.132 -94.634  36.347  1.00  0.00     0.004 C 
ENDBRANCH  30  31
ENDBRANCH  29  30
ENDBRANCH  28  29
ENDBRANCH  27  28
ENDBRANCH  26  27
ENDBRANCH  25  26
ENDBRANCH  24  25
ENDBRANCH  23  24
ENDBRANCH  22  23
ENDBRANCH  21  22
ENDBRANCH  20  21
ENDBRANCH  19  20
ENDBRANCH  18  19
ENDBRANCH   1  18
TORSDOF 28
ENDMDL
MODEL 3
REMARK VINA RESULT:     2.016      1.233      2.299
REMARK INTER + INTRA:           7.909
REMARK INTER:                   7.343
REMARK INTRA:                   0.567
REMARK UNBOUND:                 2.594
REMARK SMILES CCCCCCCCCCCCCCCCCCCCCCCCCCCCCC(=O)[O-]
REMARK SMILES IDX 16 1 17 2 18 3 19 4 20 5 21 6 22 7 23 8 24 9 25 10 26 11
REMARK SMILES IDX 27 12 28 13 29 14 30 15 31 16 32 17 15 18 14 19 13 20 12 21
REMARK SMILES IDX 11 22 10 23 9 24 8 25 7 26 6 27 5 28 4 29 3 30 2 31 1 32
REMARK H PARENT
REMARK Flexibility Score: inf
ROOT
ATOM      1  C   UNL     1    -116.118 -98.140  39.742  1.00  0.00     0.000 C 
ENDROOT
BRANCH   1   2
ATOM      2  C   UNL     1    -116.819 -97.831  41.083  1.00  0.00     0.000 C 
BRANCH   2   3
ATOM      3  C   UNL     1    -117.286 -99.083  41.854  1.00  0.00     0.000 C 
BRANCH   3   4
ATOM      4  C   UNL     1    -118.702 -98.933  42.439  1.00  0.00     0.000 C 
BRANCH   4   5
ATOM      5  C   UNL     1    -119.079-100.080  43.392  1.00  0.00     0.000 C 
BRANCH   5   6
ATOM      6  C   UNL     1    -119.027 -99.666  44.872  1.00  0.00     0.000 C 
BRANCH   6   7
ATOM      7  C   UNL     1    -118.103 -98.459  45.119  1.00  0.00     0.000 C 
BRANCH   7   8
ATOM      8  C   UNL     1    -117.536 -98.355  46.552  1.00  0.00     0.000 C 
BRANCH   8   9
ATOM      9  C   UNL     1    -117.412 -99.691  47.308  1.00  0.00     0.000 C 
BRANCH   9  10
ATOM     10  C   UNL     1    -117.708 -99.558  48.812  1.00  0.00     0.000 C 
BRANCH  10  11
ATOM     11  C   UNL     1    -118.965 -98.724  49.105  1.00  0.00     0.000 C 
BRANCH  11  12
ATOM     12  C   UNL     1    -118.951 -97.357  48.396  1.00  0.00     0.000 C 
BRANCH  12  13
ATOM     13  C   UNL     1    -117.757 -96.490  48.826  1.00  0.00     0.006 C 
BRANCH  13  14
ATOM     14  C   UNL     1    -118.157 -95.027  49.069  1.00  0.00     0.053 C 
BRANCH  14  15
ATOM     15  C   UNL     1    -118.295 -94.299  47.769  1.00  0.00     0.041 C 
ATOM     16  O   UNL     1    -118.023 -94.879  46.685  1.00  0.00    -0.550 OA
ATOM     17  O   UNL     1    -118.694 -92.968  47.756  1.00  0.00    -0.550 OA
ENDBRANCH  14  15
ENDBRANCH  13  14
ENDBRANCH  12  13
ENDBRANCH  11  12
ENDBRANCH  10  11
ENDBRANCH   9  10
ENDBRANCH   8   9
ENDBRANCH   7   8
ENDBRANCH   6   7
ENDBRANCH   5   6
ENDBRANCH   4   5
ENDBRANCH   3   4
ENDBRANCH   2   3
ENDBRANCH   1   2
BRANCH   1  18
ATOM     18  C   UNL     1    -115.894 -99.632  39.439  1.00  0.00     0.000 C 
BRANCH  18  19
ATOM     19  C   UNL     1    -116.335-100.092  38.034  1.00  0.00     0.000 C 
BRANCH  19  20
ATOM     20  C   UNL     1    -116.075 -99.052  36.922  1.00  0.00     0.000 C 
BRANCH  20  21
ATOM     21  C   UNL     1    -117.333 -98.634  36.137  1.00  0.00     0.000 C 
BRANCH  21  22
ATOM     22  C   UNL     1    -118.382 -99.758  36.047  1.00  0.00     0.000 C 
BRANCH  22  23
ATOM     23  C   UNL     1    -119.107 -99.770  34.690  1.00  0.00     0.000 C 
BRANCH  23  24
ATOM     24  C   UNL     1    -118.486 -98.790  33.677  1.00  0.00    -0.000 C 
BRANCH  24  25
ATOM     25  C   UNL     1    -117.151 -99.292  33.104  1.00  0.00    -0.000 C 
BRANCH  25  26
ATOM     26  C   UNL     1    -116.843 -98.715  31.713  1.00  0.00    -0.000 C 
BRANCH  26  27
ATOM     27  C   UNL     1    -118.044 -98.809  30.756  1.00  0.00    -0.000 C 
BRANCH  27  28
ATOM     28  C   UNL     1    -118.860 -97.509  30.604  1.00  0.00    -0.000 C 
BRANCH  28  29
ATOM     29  C   UNL     1    -117.994 -96.267  30.301  1.00  0.00    -0.000 C 
BRANCH  29  30
ATOM     30  C   UNL     1    -118.845 -95.041  29.923  1.00  0.00    -0.000 C 
BRANCH  30  31
ATOM     31  C   UNL     1    -119.089 -94.108  31.119  1.00  0.00    -0.003 C 
ATOM     32  C   UNL     1    -119.111 -92.632  30.717  1.00  0.00     0.004 C 
ENDBRANCH  30  31
ENDBRANCH  29  30
ENDBRANCH  28  29
ENDBRANCH  27  28
ENDBRANCH  26  27
ENDBRANCH  25  26
ENDBRANCH  24  25
ENDBRANCH  23  24
ENDBRANCH  22  23
ENDBRANCH  21  22
ENDBRANCH  20  21
ENDBRANCH  19  20
ENDBRANCH  18  19
ENDBRANCH   1  18
TORSDOF 28
ENDMDL
