MODEL 1
REMARK VINA RESULT:    -4.499      0.000      0.000
REMARK INTER + INTRA:          -7.336
REMARK INTER:                  -6.866
REMARK INTRA:                  -0.470
REMARK UNBOUND:                -0.470
REMARK SMILES CCCCCCCCCCC(=O)[O-]
REMARK SMILES IDX 7 1 8 2 9 3 10 4 11 5 12 6 13 7 6 8 5 9 4 10 3 11 2 12 1 13
REMARK H PARENT
REMARK Flexibility Score: inf
ROOT
ATOM      1  C   UNL     1      11.259   8.656  11.776  1.00  0.00     0.000 C 
ENDROOT
BRANCH   1   2
ATOM      2  C   UNL     1      11.972   9.211  10.532  1.00  0.00     0.000 C 
BRANCH   2   3
ATOM      3  C   UNL     1      12.297  10.707  10.654  1.00  0.00     0.006 C 
BRANCH   3   4
ATOM      4  C   UNL     1      12.975  11.226   9.383  1.00  0.00     0.053 C 
BRANCH   4   5
ATOM      5  C   UNL     1      12.519  12.617   9.074  1.00  0.00     0.041 C 
ATOM      6  O   UNL     1      12.833  13.159   7.982  1.00  0.00    -0.550 OA
ATOM      7  O   UNL     1      11.789  13.333  10.014  1.00  0.00    -0.550 OA
ENDBRANCH   4   5
ENDBRANCH   3   4
ENDBRANCH   2   3
ENDBRANCH   1   2
BRANCH   1   8
ATOM      8  C   UNL     1      11.212   7.121  11.797  1.00  0.00     0.000 C 
BRANCH   8   9
ATOM      9  C   UNL     1      11.907   6.535  10.558  1.00  0.00    -0.000 C 
BRANCH   9  10
ATOM     10  C   UNL     1      11.303   5.191  10.117  1.00  0.00    -0.000 C 
BRANCH  10  11
ATOM     11  C   UNL     1       9.957   4.896  10.801  1.00  0.00    -0.000 C 
BRANCH  11  12
ATOM     12  C   UNL     1       8.937   4.262   9.841  1.00  0.00    -0.003 C 
ATOM     13  C   UNL     1       9.434   4.213   8.396  1.00  0.00     0.004 C 
ENDBRANCH  11  12
ENDBRANCH  10  11
ENDBRANCH   9  10
ENDBRANCH   8   9
ENDBRANCH   1   8
TORSDOF 9
ENDMDL
MODEL 2
REMARK VINA RESULT:    -4.444      1.504      2.648
REMARK INTER + INTRA:          -7.252
REMARK INTER:                  -6.603
REMARK INTRA:                  -0.648
REMARK UNBOUND:                -0.470
REMARK SMILES CCCCCCCCCCC(=O)[O-]
REMARK SMILES IDX 7 1 8 2 9 3 10 4 11 5 12 6 13 7 6 8 5 9 4 10 3 11 2 12 1 13
REMARK H PARENT
REMARK Flexibility Score: inf
ROOT
ATOM      1  C   UNL     1      12.033   7.792  10.250  1.00  0.00     0.000 C 
ENDROOT
BRANCH   1   2
ATOM      2  C   UNL     1      11.595   8.645  11.452  1.00  0.00     0.000 C 
BRANCH   2   3
ATOM      3  C   UNL     1      11.848  10.144  11.237  1.00  0.00     0.006 C 
BRANCH   3   4
ATOM      4  C   UNL     1      12.533  10.398   9.892  1.00  0.00     0.053 C 
BRANCH   4   5
ATOM      5  C   UNL     1      12.476  11.851   9.539  1.00  0.00     0.041 C 
ATOM      6  O   UNL     1      13.027  12.269   8.486  1.00  0.00    -0.550 OA
ATOM      7  O   UNL     1      11.859  12.751  10.398  1.00  0.00    -0.550 OA
ENDBRANCH   4   5
ENDBRANCH   3   4
ENDBRANCH   2   3
ENDBRANCH   1   2
BRANCH   1   8
ATOM      8  C   UNL     1      12.291   6.325  10.626  1.00  0.00     0.000 C 
BRANCH   8   9
ATOM      9  C   UNL     1      11.115   5.434  10.196  1.00  0.00    -0.000 C 
BRANCH   9  10
ATOM     10  C   UNL     1      10.092   5.213  11.323  1.00  0.00    -0.000 C 
BRANCH  10  11
ATOM     11  C   UNL     1      10.728   5.291  12.722  1.00  0.00    -0.000 C 
BRANCH  11  12
ATOM     12  C   UNL     1       9.969   6.243  13.660  1.00  0.00    -0.003 C 
ATOM     13  C   UNL     1      10.394   6.098  15.122  1.00  0.00     0.004 C 
ENDBRANCH  11  12
ENDBRANCH  10  11
ENDBRANCH   9  10
ENDBRANCH   8   9
ENDBRANCH   1   8
TORSDOF 9
ENDMDL
MODEL 3
REMARK VINA RESULT:    -4.407      1.463      2.072
REMARK INTER + INTRA:          -7.196
REMARK INTER:                  -6.841
REMARK INTRA:                  -0.356
REMARK UNBOUND:                -0.470
REMARK SMILES CCCCCCCCCCC(=O)[O-]
REMARK SMILES IDX 7 1 8 2 9 3 10 4 11 5 12 6 13 7 6 8 5 9 4 10 3 11 2 12 1 13
REMARK H PARENT
REMARK Flexibility Score: inf
ROOT
ATOM      1  C   UNL     1      11.251   8.696  11.765  1.00  0.00     0.000 C 
ENDROOT
BRANCH   1   2
ATOM      2  C   UNL     1      11.989   9.264  10.542  1.00  0.00     0.000 C 
BRANCH   2   3
ATOM      3  C   UNL     1      12.385  10.737  10.721  1.00  0.00     0.006 C 
BRANCH   3   4
ATOM      4  C   UNL     1      12.850  11.344   9.395  1.00  0.00     0.053 C 
BRANCH   4   5
ATOM      5  C   UNL     1      12.399  12.766   9.281  1.00  0.00     0.041 C 
ATOM      6  O   UNL     1      12.736  13.460   8.286  1.00  0.00    -0.550 OA
ATOM      7  O   UNL     1      11.649  13.341  10.299  1.00  0.00    -0.550 OA
ENDBRANCH   4   5
ENDBRANCH   3   4
ENDBRANCH   2   3
ENDBRANCH   1   2
BRANCH   1   8
ATOM      8  C   UNL     1      11.358   7.167  11.866  1.00  0.00     0.000 C 
BRANCH   8   9
ATOM      9  C   UNL     1      11.837   6.563  10.536  1.00  0.00    -0.000 C 
BRANCH   9  10
ATOM     10  C   UNL     1      12.721   5.320  10.731  1.00  0.00    -0.000 C 
BRANCH  10  11
ATOM     11  C   UNL     1      12.035   4.028  10.253  1.00  0.00    -0.000 C 
BRANCH  11  12
ATOM     12  C   UNL     1      12.757   2.764  10.748  1.00  0.00    -0.003 C 
ATOM     13  C   UNL     1      13.056   2.799  12.246  1.00  0.00     0.004 C 
ENDBRANCH  11  12
ENDBRANCH  10  11
ENDBRANCH   9  10
ENDBRANCH   8   9
ENDBRANCH   1   8
TORSDOF 9
ENDMDL
MODEL 4
REMARK VINA RESULT:    -4.354      4.039      7.267
REMARK INTER + INTRA:          -7.114
REMARK INTER:                  -6.713
REMARK INTRA:                  -0.401
REMARK UNBOUND:                -0.470
REMARK SMILES CCCCCCCCCCC(=O)[O-]
REMARK SMILES IDX 7 1 8 2 9 3 10 4 11 5 12 6 13 7 6 8 5 9 4 10 3 11 2 12 1 13
REMARK H PARENT
REMARK Flexibility Score: inf
ROOT
ATOM      1  C   UNL     1      11.357   8.489  11.662  1.00  0.00     0.000 C 
ENDROOT
BRANCH   1   2
ATOM      2  C   UNL     1      11.386   6.952  11.628  1.00  0.00     0.000 C 
BRANCH   2   3
ATOM      3  C   UNL     1      11.964   6.399  10.317  1.00  0.00     0.006 C 
BRANCH   3   4
ATOM      4  C   UNL     1      12.574   5.011  10.529  1.00  0.00     0.053 C 
BRANCH   4   5
ATOM      5  C   UNL     1      11.824   3.981   9.745  1.00  0.00     0.041 C 
ATOM      6  O   UNL     1      10.748   4.286   9.165  1.00  0.00    -0.550 OA
ATOM      7  O   UNL     1      12.285   2.672   9.696  1.00  0.00    -0.550 OA
ENDBRANCH   4   5
ENDBRANCH   3   4
ENDBRANCH   2   3
ENDBRANCH   1   2
BRANCH   1   8
ATOM      8  C   UNL     1      12.040   9.122  10.440  1.00  0.00     0.000 C 
BRANCH   8   9
ATOM      9  C   UNL     1      12.193  10.639  10.624  1.00  0.00    -0.000 C 
BRANCH   9  10
ATOM     10  C   UNL     1      12.866  11.320   9.420  1.00  0.00    -0.000 C 
BRANCH  10  11
ATOM     11  C   UNL     1      12.465  12.799   9.279  1.00  0.00    -0.000 C 
BRANCH  11  12
ATOM     12  C   UNL     1      11.782  13.346  10.543  1.00  0.00    -0.003 C 
ATOM     13  C   UNL     1      12.678  14.297  11.337  1.00  0.00     0.004 C 
ENDBRANCH  11  12
ENDBRANCH  10  11
ENDBRANCH   9  10
ENDBRANCH   8   9
ENDBRANCH   1   8
TORSDOF 9
ENDMDL
MODEL 5
REMARK VINA RESULT:    -4.310      4.224      6.941
REMARK INTER + INTRA:          -7.049
REMARK INTER:                  -6.534
REMARK INTRA:                  -0.515
REMARK UNBOUND:                -0.470
REMARK SMILES CCCCCCCCCCC(=O)[O-]
REMARK SMILES IDX 7 1 8 2 9 3 10 4 11 5 12 6 13 7 6 8 5 9 4 10 3 11 2 12 1 13
REMARK H PARENT
REMARK Flexibility Score: inf
ROOT
ATOM      1  C   UNL     1      11.010   7.659  12.365  1.00  0.00     0.000 C 
ENDROOT
BRANCH   1   2
ATOM      2  C   UNL     1      10.933   6.311  11.631  1.00  0.00     0.000 C 
BRANCH   2   3
ATOM      3  C   UNL     1      11.827   6.263  10.383  1.00  0.00     0.006 C 
BRANCH   3   4
ATOM      4  C   UNL     1      12.922   5.203  10.533  1.00  0.00     0.053 C 
BRANCH   4   5
ATOM      5  C   UNL     1      12.323   3.833  10.586  1.00  0.00     0.041 C 
ATOM      6  O   UNL     1      11.656   3.395   9.611  1.00  0.00    -0.550 OA
ATOM      7  O   UNL     1      12.457   3.060  11.731  1.00  0.00    -0.550 OA
ENDBRANCH   4   5
ENDBRANCH   3   4
ENDBRANCH   2   3
ENDBRANCH   1   2
BRANCH   1   8
ATOM      8  C   UNL     1      11.571   8.784  11.483  1.00  0.00     0.000 C 
BRANCH   8   9
ATOM      9  C   UNL     1      11.203  10.162  12.053  1.00  0.00    -0.000 C 
BRANCH   9  10
ATOM     10  C   UNL     1      11.855  11.320  11.279  1.00  0.00    -0.000 C 
BRANCH  10  11
ATOM     11  C   UNL     1      12.505  10.858   9.963  1.00  0.00    -0.000 C 
BRANCH  11  12
ATOM     12  C   UNL     1      12.685  12.010   8.961  1.00  0.00    -0.003 C 
ATOM     13  C   UNL     1      12.273  13.365   9.535  1.00  0.00     0.004 C 
ENDBRANCH  11  12
ENDBRANCH  10  11
ENDBRANCH   9  10
ENDBRANCH   8   9
ENDBRANCH   1   8
TORSDOF 9
ENDMDL
MODEL 6
REMARK VINA RESULT:    -4.300      3.963      6.767
REMARK INTER + INTRA:          -7.033
REMARK INTER:                  -6.256
REMARK INTRA:                  -0.777
REMARK UNBOUND:                -0.470
REMARK SMILES CCCCCCCCCCC(=O)[O-]
REMARK SMILES IDX 7 1 8 2 9 3 10 4 11 5 12 6 13 7 6 8 5 9 4 10 3 11 2 12 1 13
REMARK H PARENT
REMARK Flexibility Score: inf
ROOT
ATOM      1  C   UNL     1      12.140   9.296  10.172  1.00  0.00     0.000 C 
ENDROOT
BRANCH   1   2
ATOM      2  C   UNL     1      11.472   8.987  11.522  1.00  0.00     0.000 C 
BRANCH   2   3
ATOM      3  C   UNL     1      11.366   7.480  11.799  1.00  0.00     0.006 C 
BRANCH   3   4
ATOM      4  C   UNL     1      11.840   6.665  10.593  1.00  0.00     0.053 C 
BRANCH   4   5
ATOM      5  C   UNL     1      11.835   5.204  10.911  1.00  0.00     0.041 C 
ATOM      6  O   UNL     1      11.554   4.809  12.073  1.00  0.00    -0.550 OA
ATOM      7  O   UNL     1      12.191   4.280   9.937  1.00  0.00    -0.550 OA
ENDBRANCH   4   5
ENDBRANCH   3   4
ENDBRANCH   2   3
ENDBRANCH   1   2
BRANCH   1   8
ATOM      8  C   UNL     1      12.482  10.784  10.008  1.00  0.00     0.000 C 
BRANCH   8   9
ATOM      9  C   UNL     1      12.459  11.505  11.364  1.00  0.00    -0.000 C 
BRANCH   9  10
ATOM     10  C   UNL     1      11.686  12.834  11.319  1.00  0.00    -0.000 C 
BRANCH  10  11
ATOM     11  C   UNL     1      10.409  12.803  12.176  1.00  0.00    -0.000 C 
BRANCH  11  12
ATOM     12  C   UNL     1      10.642  12.164  13.555  1.00  0.00    -0.003 C 
ATOM     13  C   UNL     1       9.616  11.082  13.888  1.00  0.00     0.004 C 
ENDBRANCH  11  12
ENDBRANCH  10  11
ENDBRANCH   9  10
ENDBRANCH   8   9
ENDBRANCH   1   8
TORSDOF 9
ENDMDL
MODEL 7
REMARK VINA RESULT:    -4.291      1.938      2.713
REMARK INTER + INTRA:          -7.020
REMARK INTER:                  -6.418
REMARK INTRA:                  -0.601
REMARK UNBOUND:                -0.470
REMARK SMILES CCCCCCCCCCC(=O)[O-]
REMARK SMILES IDX 7 1 8 2 9 3 10 4 11 5 12 6 13 7 6 8 5 9 4 10 3 11 2 12 1 13
REMARK H PARENT
REMARK Flexibility Score: inf
ROOT
ATOM      1  C   UNL     1      11.057   7.169  12.286  1.00  0.00     0.000 C 
ENDROOT
BRANCH   1   2
ATOM      2  C   UNL     1      11.633   7.902  11.064  1.00  0.00     0.000 C 
BRANCH   2   3
ATOM      3  C   UNL     1      11.514   9.429  11.178  1.00  0.00     0.006 C 
BRANCH   3   4
ATOM      4  C   UNL     1      12.382  10.127  10.129  1.00  0.00     0.053 C 
BRANCH   4   5
ATOM      5  C   UNL     1      12.391  11.606  10.353  1.00  0.00     0.041 C 
ATOM      6  O   UNL     1      12.273  12.396   9.380  1.00  0.00    -0.550 OA
ATOM      7  O   UNL     1      12.581  12.114  11.633  1.00  0.00    -0.550 OA
ENDBRANCH   4   5
ENDBRANCH   3   4
ENDBRANCH   2   3
ENDBRANCH   1   2
BRANCH   1   8
ATOM      8  C   UNL     1      10.534   5.766  11.944  1.00  0.00     0.000 C 
BRANCH   8   9
ATOM      9  C   UNL     1      10.836   5.411  10.480  1.00  0.00    -0.000 C 
BRANCH   9  10
ATOM     10  C   UNL     1      11.724   4.164  10.340  1.00  0.00    -0.000 C 
BRANCH  10  11
ATOM     11  C   UNL     1      12.975   4.227  11.235  1.00  0.00    -0.000 C 
BRANCH  11  12
ATOM     12  C   UNL     1      13.287   2.878  11.902  1.00  0.00    -0.003 C 
ATOM     13  C   UNL     1      12.544   2.684  13.224  1.00  0.00     0.004 C 
ENDBRANCH  11  12
ENDBRANCH  10  11
ENDBRANCH   9  10
ENDBRANCH   8   9
ENDBRANCH   1   8
TORSDOF 9
ENDMDL
MODEL 8
REMARK VINA RESULT:    -4.283      4.005      7.019
REMARK INTER + INTRA:          -7.008
REMARK INTER:                  -6.628
REMARK INTRA:                  -0.380
REMARK UNBOUND:                -0.470
REMARK SMILES CCCCCCCCCCC(=O)[O-]
REMARK SMILES IDX 7 1 8 2 9 3 10 4 11 5 12 6 13 7 6 8 5 9 4 10 3 11 2 12 1 13
REMARK H PARENT
REMARK Flexibility Score: inf
ROOT
ATOM      1  C   UNL     1      11.575   6.596  10.968  1.00  0.00     0.000 C 
ENDROOT
BRANCH   1   2
ATOM      2  C   UNL     1      11.338   5.335  11.815  1.00  0.00     0.000 C 
BRANCH   2   3
ATOM      3  C   UNL     1      10.446   4.305  11.108  1.00  0.00     0.006 C 
BRANCH   3   4
ATOM      4  C   UNL     1      10.482   4.499   9.590  1.00  0.00     0.053 C 
BRANCH   4   5
ATOM      5  C   UNL     1       9.156   4.159   8.985  1.00  0.00     0.041 C 
ATOM      6  O   UNL     1       8.195   3.810   9.719  1.00  0.00    -0.550 OA
ATOM      7  O   UNL     1       8.997   4.180   7.605  1.00  0.00    -0.550 OA
ENDBRANCH   4   5
ENDBRANCH   3   4
ENDBRANCH   2   3
ENDBRANCH   1   2
BRANCH   1   8
ATOM      8  C   UNL     1      11.354   7.893  11.761  1.00  0.00     0.000 C 
BRANCH   8   9
ATOM      9  C   UNL     1      11.674   9.123  10.898  1.00  0.00    -0.000 C 
BRANCH   9  10
ATOM     10  C   UNL     1      11.711  10.427  11.712  1.00  0.00    -0.000 C 
BRANCH  10  11
ATOM     11  C   UNL     1      12.467  11.554  10.987  1.00  0.00    -0.000 C 
BRANCH  11  12
ATOM     12  C   UNL     1      12.783  11.203   9.524  1.00  0.00    -0.003 C 
ATOM     13  C   UNL     1      12.781  12.425   8.607  1.00  0.00     0.004 C 
ENDBRANCH  11  12
ENDBRANCH  10  11
ENDBRANCH   9  10
ENDBRANCH   8   9
ENDBRANCH   1   8
TORSDOF 9
ENDMDL
MODEL 9
REMARK VINA RESULT:    -4.274      3.037      4.019
REMARK INTER + INTRA:          -6.994
REMARK INTER:                  -6.586
REMARK INTRA:                  -0.408
REMARK UNBOUND:                -0.470
REMARK SMILES CCCCCCCCCCC(=O)[O-]
REMARK SMILES IDX 7 1 8 2 9 3 10 4 11 5 12 6 13 7 6 8 5 9 4 10 3 11 2 12 1 13
REMARK H PARENT
REMARK Flexibility Score: inf
ROOT
ATOM      1  C   UNL     1      11.916   6.299  10.268  1.00  0.00     0.000 C 
ENDROOT
BRANCH   1   2
ATOM      2  C   UNL     1      11.557   6.758  11.691  1.00  0.00     0.000 C 
BRANCH   2   3
ATOM      3  C   UNL     1      11.360   8.278  11.792  1.00  0.00     0.006 C 
BRANCH   3   4
ATOM      4  C   UNL     1      11.854   8.980  10.524  1.00  0.00     0.053 C 
BRANCH   4   5
ATOM      5  C   UNL     1      12.169  10.415  10.806  1.00  0.00     0.041 C 
ATOM      6  O   UNL     1      12.734  11.123   9.932  1.00  0.00    -0.550 OA
ATOM      7  O   UNL     1      11.885  10.956  12.054  1.00  0.00    -0.550 OA
ENDBRANCH   4   5
ENDBRANCH   3   4
ENDBRANCH   2   3
ENDBRANCH   1   2
BRANCH   1   8
ATOM      8  C   UNL     1      12.649   4.950  10.248  1.00  0.00     0.000 C 
BRANCH   8   9
ATOM      9  C   UNL     1      12.492   4.220  11.591  1.00  0.00    -0.000 C 
BRANCH   9  10
ATOM     10  C   UNL     1      13.411   2.994  11.713  1.00  0.00    -0.000 C 
BRANCH  10  11
ATOM     11  C   UNL     1      12.875   1.951  12.710  1.00  0.00    -0.000 C 
BRANCH  11  12
ATOM     12  C   UNL     1      12.698   2.528  14.124  1.00  0.00    -0.003 C 
ATOM     13  C   UNL     1      13.612   1.864  15.154  1.00  0.00     0.004 C 
ENDBRANCH  11  12
ENDBRANCH  10  11
ENDBRANCH   9  10
ENDBRANCH   8   9
ENDBRANCH   1   8
TORSDOF 9
ENDMDL
