MODEL 1
REMARK VINA RESULT:    -6.933      0.000      0.000
REMARK INTER + INTRA:          -8.920
REMARK INTER:                  -8.555
REMARK INTRA:                  -0.365
REMARK UNBOUND:                -0.365
REMARK SMILES O=C1c2c(O)cc(O)cc2O[C@@H](c2cc(O)c(O)c(O)c2)[C@H]1O
REMARK SMILES IDX 12 1 22 2 2 3 1 4 3 5 4 6 6 7 7 8 9 9 10 10 11 11 13 12
REMARK SMILES IDX 14 13 15 14 21 15 17 16 19 17 16 18 18 20 20 22 23 24 5 26
REMARK SMILES IDX 8 28
REMARK H PARENT 16 19 18 21 20 23 23 25 5 27 8 29
REMARK Flexibility Score: inf
ROOT
ATOM      1  C   UNL     1     130.033 131.760 112.863  1.00  0.00     0.240 C 
ATOM      2  C   UNL     1     130.727 130.389 112.990  1.00  0.00     0.231 C 
ATOM      3  C   UNL     1     130.782 129.732 111.635  1.00  0.00     0.202 C 
ATOM      4  O   UNL     1     131.773 129.016 111.335  1.00  0.00    -0.291 OA
ATOM      5  C   UNL     1     129.639 129.892 110.702  1.00  0.00     0.105 A 
ATOM      6  C   UNL     1     129.496 129.120 109.530  1.00  0.00     0.133 A 
ATOM      7  C   UNL     1     128.364 129.289 108.719  1.00  0.00     0.093 A 
ATOM      8  C   UNL     1     127.372 130.211 109.069  1.00  0.00     0.123 A 
ATOM      9  C   UNL     1     127.513 130.979 110.230  1.00  0.00     0.093 A 
ATOM     10  C   UNL     1     128.645 130.834 111.035  1.00  0.00     0.138 A 
ATOM     11  O   UNL     1     128.783 131.629 112.180  1.00  0.00    -0.481 OA
ENDROOT
BRANCH   1  12
ATOM     12  C   UNL     1     129.837 132.412 114.213  1.00  0.00     0.003 A 
ATOM     13  C   UNL     1     128.554 132.763 114.665  1.00  0.00     0.058 A 
ATOM     14  C   UNL     1     128.377 133.334 115.930  1.00  0.00     0.161 A 
ATOM     15  C   UNL     1     130.939 132.617 115.057  1.00  0.00     0.058 A 
ATOM     16  C   UNL     1     129.486 133.552 116.765  1.00  0.00     0.200 A 
ATOM     17  C   UNL     1     130.771 133.188 116.325  1.00  0.00     0.161 A 
BRANCH  14  18
ATOM     18  O   UNL     1     127.088 133.675 116.341  1.00  0.00    -0.504 OA
ATOM     19  H   UNL     1     126.800 134.638 116.468  1.00  0.00     0.293 HD
ENDBRANCH  14  18
BRANCH  16  20
ATOM     20  O   UNL     1     129.300 134.125 118.023  1.00  0.00    -0.502 OA
ATOM     21  H   UNL     1     128.430 134.570 118.290  1.00  0.00     0.293 HD
ENDBRANCH  16  20
BRANCH  17  22
ATOM     22  O   UNL     1     131.874 133.395 117.151  1.00  0.00    -0.504 OA
ATOM     23  H   UNL     1     132.184 134.328 117.400  1.00  0.00     0.293 HD
ENDBRANCH  17  22
ENDBRANCH   1  12
BRANCH   2  24
ATOM     24  O   UNL     1     130.011 129.565 113.874  1.00  0.00    -0.381 OA
ATOM     25  H   UNL     1     129.725 128.770 113.354  1.00  0.00     0.211 HD
ENDBRANCH   2  24
BRANCH   6  26
ATOM     26  O   UNL     1     130.464 128.182 109.174  1.00  0.00    -0.507 OA
ATOM     27  H   UNL     1     130.368 127.606 108.345  1.00  0.00     0.293 HD
ENDBRANCH   6  26
BRANCH   8  28
ATOM     28  O   UNL     1     126.251 130.355 108.253  1.00  0.00    -0.508 OA
ATOM     29  H   UNL     1     125.776 129.550 107.859  1.00  0.00     0.293 HD
ENDBRANCH   8  28
TORSDOF 7
ENDMDL
MODEL 2
REMARK VINA RESULT:    -6.647      0.069      1.756
REMARK INTER + INTRA:          -8.567
REMARK INTER:                  -8.181
REMARK INTRA:                  -0.386
REMARK UNBOUND:                -0.365
REMARK SMILES O=C1c2c(O)cc(O)cc2O[C@@H](c2cc(O)c(O)c(O)c2)[C@H]1O
REMARK SMILES IDX 12 1 22 2 2 3 1 4 3 5 4 6 6 7 7 8 9 9 10 10 11 11 13 12
REMARK SMILES IDX 14 13 15 14 21 15 17 16 19 17 16 18 18 20 20 22 23 24 5 26
REMARK SMILES IDX 8 28
REMARK H PARENT 16 19 18 21 20 23 23 25 5 27 8 29
REMARK Flexibility Score: inf
ROOT
ATOM      1  C   UNL     1     130.043 131.661 112.892  1.00  0.00     0.240 C 
ATOM      2  C   UNL     1     130.724 130.282 112.990  1.00  0.00     0.231 C 
ATOM      3  C   UNL     1     130.776 129.654 111.621  1.00  0.00     0.202 C 
ATOM      4  O   UNL     1     131.762 128.936 111.307  1.00  0.00    -0.291 OA
ATOM      5  C   UNL     1     129.637 129.844 110.690  1.00  0.00     0.105 A 
ATOM      6  C   UNL     1     129.490 129.100 109.500  1.00  0.00     0.133 A 
ATOM      7  C   UNL     1     128.361 129.297 108.691  1.00  0.00     0.093 A 
ATOM      8  C   UNL     1     127.376 130.219 109.059  1.00  0.00     0.123 A 
ATOM      9  C   UNL     1     127.522 130.960 110.237  1.00  0.00     0.093 A 
ATOM     10  C   UNL     1     128.651 130.788 111.041  1.00  0.00     0.138 A 
ATOM     11  O   UNL     1     128.793 131.556 112.204  1.00  0.00    -0.481 OA
ENDROOT
BRANCH   1  12
ATOM     12  C   UNL     1     129.850 132.285 114.256  1.00  0.00     0.003 A 
ATOM     13  C   UNL     1     130.949 132.548 115.090  1.00  0.00     0.058 A 
ATOM     14  C   UNL     1     130.767 133.157 116.336  1.00  0.00     0.161 A 
ATOM     15  C   UNL     1     128.566 132.665 114.675  1.00  0.00     0.058 A 
ATOM     16  C   UNL     1     129.477 133.521 116.759  1.00  0.00     0.200 A 
ATOM     17  C   UNL     1     128.374 133.275 115.922  1.00  0.00     0.161 A 
BRANCH  14  18
ATOM     18  O   UNL     1     131.882 133.395 117.140  1.00  0.00    -0.504 OA
ATOM     19  H   UNL     1     131.924 133.093 118.106  1.00  0.00     0.293 HD
ENDBRANCH  14  18
BRANCH  16  20
ATOM     20  O   UNL     1     129.305 134.125 118.005  1.00  0.00    -0.502 OA
ATOM     21  H   UNL     1     129.980 134.020 118.753  1.00  0.00     0.293 HD
ENDBRANCH  16  20
BRANCH  17  22
ATOM     22  O   UNL     1     127.094 133.641 116.332  1.00  0.00    -0.504 OA
ATOM     23  H   UNL     1     126.917 134.526 116.795  1.00  0.00     0.293 HD
ENDBRANCH  17  22
ENDBRANCH   1  12
BRANCH   2  24
ATOM     24  O   UNL     1     129.999 129.445 113.855  1.00  0.00    -0.381 OA
ATOM     25  H   UNL     1     129.051 129.488 113.564  1.00  0.00     0.211 HD
ENDBRANCH   2  24
BRANCH   6  26
ATOM     26  O   UNL     1     130.451 128.162 109.126  1.00  0.00    -0.507 OA
ATOM     27  H   UNL     1     131.431 128.407 109.044  1.00  0.00     0.293 HD
ENDBRANCH   6  26
BRANCH   8  28
ATOM     28  O   UNL     1     126.259 130.391 108.245  1.00  0.00    -0.508 OA
ATOM     29  H   UNL     1     126.246 130.060 107.286  1.00  0.00     0.293 HD
ENDBRANCH   8  28
TORSDOF 7
ENDMDL
MODEL 3
REMARK VINA RESULT:    -6.539      1.060      1.200
REMARK INTER + INTRA:          -8.433
REMARK INTER:                  -8.053
REMARK INTRA:                  -0.381
REMARK UNBOUND:                -0.365
REMARK SMILES O=C1c2c(O)cc(O)cc2O[C@@H](c2cc(O)c(O)c(O)c2)[C@H]1O
REMARK SMILES IDX 12 1 22 2 2 3 1 4 3 5 4 6 6 7 7 8 9 9 10 10 11 11 13 12
REMARK SMILES IDX 14 13 15 14 21 15 17 16 19 17 16 18 18 20 20 22 23 24 5 26
REMARK SMILES IDX 8 28
REMARK H PARENT 16 19 18 21 20 23 23 25 5 27 8 29
REMARK Flexibility Score: inf
ROOT
ATOM      1  C   UNL     1     130.021 132.316 113.917  1.00  0.00     0.240 C 
ATOM      2  C   UNL     1     130.679 130.922 113.950  1.00  0.00     0.231 C 
ATOM      3  C   UNL     1     130.840 130.415 112.541  1.00  0.00     0.202 C 
ATOM      4  O   UNL     1     131.842 129.710 112.248  1.00  0.00    -0.291 OA
ATOM      5  C   UNL     1     129.785 130.704 111.538  1.00  0.00     0.105 A 
ATOM      6  C   UNL     1     129.732 130.068 110.280  1.00  0.00     0.133 A 
ATOM      7  C   UNL     1     128.677 130.353 109.401  1.00  0.00     0.093 A 
ATOM      8  C   UNL     1     127.673 131.256 109.765  1.00  0.00     0.123 A 
ATOM      9  C   UNL     1     127.726 131.890 111.012  1.00  0.00     0.093 A 
ATOM     10  C   UNL     1     128.782 131.629 111.889  1.00  0.00     0.138 A 
ATOM     11  O   UNL     1     128.833 132.292 113.121  1.00  0.00    -0.481 OA
ENDROOT
BRANCH   1  12
ATOM     12  C   UNL     1     129.720 132.822 115.310  1.00  0.00     0.003 A 
ATOM     13  C   UNL     1     128.397 133.047 115.725  1.00  0.00     0.058 A 
ATOM     14  C   UNL     1     128.124 133.482 117.026  1.00  0.00     0.161 A 
ATOM     15  C   UNL     1     130.766 133.013 116.226  1.00  0.00     0.058 A 
ATOM     16  C   UNL     1     129.177 133.688 117.935  1.00  0.00     0.200 A 
ATOM     17  C   UNL     1     130.502 133.449 117.530  1.00  0.00     0.161 A 
BRANCH  14  18
ATOM     18  O   UNL     1     126.797 133.703 117.399  1.00  0.00    -0.504 OA
ATOM     19  H   UNL     1     126.491 133.638 118.362  1.00  0.00     0.293 HD
ENDBRANCH  14  18
BRANCH  16  20
ATOM     20  O   UNL     1     128.894 134.125 119.229  1.00  0.00    -0.502 OA
ATOM     21  H   UNL     1     128.846 135.108 119.468  1.00  0.00     0.293 HD
ENDBRANCH  16  20
BRANCH  17  22
ATOM     22  O   UNL     1     131.549 133.643 118.429  1.00  0.00    -0.504 OA
ATOM     23  H   UNL     1     132.281 132.951 118.550  1.00  0.00     0.293 HD
ENDBRANCH  17  22
ENDBRANCH   1  12
BRANCH   2  24
ATOM     24  O   UNL     1     129.877 130.025 114.675  1.00  0.00    -0.381 OA
ATOM     25  H   UNL     1     130.319 129.138 114.620  1.00  0.00     0.211 HD
ENDBRANCH   2  24
BRANCH   6  26
ATOM     26  O   UNL     1     130.712 129.150 109.905  1.00  0.00    -0.507 OA
ATOM     27  H   UNL     1     131.521 129.428 109.362  1.00  0.00     0.293 HD
ENDBRANCH   6  26
BRANCH   8  28
ATOM     28  O   UNL     1     126.630 131.517 108.879  1.00  0.00    -0.508 OA
ATOM     29  H   UNL     1     126.278 130.804 108.250  1.00  0.00     0.293 HD
ENDBRANCH   8  28
TORSDOF 7
ENDMDL
MODEL 4
REMARK VINA RESULT:    -6.199      1.752      7.263
REMARK INTER + INTRA:          -8.013
REMARK INTER:                  -8.563
REMARK INTRA:                   0.550
REMARK UNBOUND:                -0.365
REMARK SMILES O=C1c2c(O)cc(O)cc2O[C@@H](c2cc(O)c(O)c(O)c2)[C@H]1O
REMARK SMILES IDX 12 1 22 2 2 3 1 4 3 5 4 6 6 7 7 8 9 9 10 10 11 11 13 12
REMARK SMILES IDX 14 13 15 14 21 15 17 16 19 17 16 18 18 20 20 22 23 24 5 26
REMARK SMILES IDX 8 28
REMARK H PARENT 16 19 18 21 20 23 23 25 5 27 8 29
REMARK Flexibility Score: inf
ROOT
ATOM      1  C   UNL     1     130.377 130.555 112.228  1.00  0.00     0.240 C 
ATOM      2  C   UNL     1     130.276 132.084 112.051  1.00  0.00     0.231 C 
ATOM      3  C   UNL     1     130.735 132.762 113.315  1.00  0.00     0.202 C 
ATOM      4  O   UNL     1     131.346 133.862 113.241  1.00  0.00    -0.291 OA
ATOM      5  C   UNL     1     130.407 132.153 114.628  1.00  0.00     0.105 A 
ATOM      6  C   UNL     1     130.577 132.836 115.851  1.00  0.00     0.133 A 
ATOM      7  C   UNL     1     130.199 132.216 117.051  1.00  0.00     0.093 A 
ATOM      8  C   UNL     1     129.648 130.931 117.044  1.00  0.00     0.123 A 
ATOM      9  C   UNL     1     129.481 130.252 115.833  1.00  0.00     0.093 A 
ATOM     10  C   UNL     1     129.872 130.849 114.632  1.00  0.00     0.138 A 
ATOM     11  O   UNL     1     129.722 130.145 113.431  1.00  0.00    -0.481 OA
ENDROOT
BRANCH   1  12
ATOM     12  C   UNL     1     129.811 129.819 111.034  1.00  0.00     0.003 A 
ATOM     13  C   UNL     1     130.370 128.603 110.607  1.00  0.00     0.058 A 
ATOM     14  C   UNL     1     129.820 127.909 109.524  1.00  0.00     0.161 A 
ATOM     15  C   UNL     1     128.677 130.318 110.378  1.00  0.00     0.058 A 
ATOM     16  C   UNL     1     128.693 128.422 108.859  1.00  0.00     0.200 A 
ATOM     17  C   UNL     1     128.120 129.631 109.292  1.00  0.00     0.161 A 
BRANCH  14  18
ATOM     18  O   UNL     1     130.407 126.708 109.124  1.00  0.00    -0.504 OA
ATOM     19  H   UNL     1     130.404 125.884 109.713  1.00  0.00     0.293 HD
ENDBRANCH  14  18
BRANCH  16  20
ATOM     20  O   UNL     1     128.153 127.725 107.777  1.00  0.00    -0.502 OA
ATOM     21  H   UNL     1     127.795 126.782 107.868  1.00  0.00     0.293 HD
ENDBRANCH  16  20
BRANCH  17  22
ATOM     22  O   UNL     1     126.997 130.141 108.642  1.00  0.00    -0.504 OA
ATOM     23  H   UNL     1     126.662 131.082 108.820  1.00  0.00     0.293 HD
ENDBRANCH  17  22
ENDBRANCH   1  12
BRANCH   2  24
ATOM     24  O   UNL     1     128.948 132.453 111.784  1.00  0.00    -0.381 OA
ATOM     25  H   UNL     1     128.376 131.926 112.402  1.00  0.00     0.211 HD
ENDBRANCH   2  24
BRANCH   6  26
ATOM     26  O   UNL     1     131.107 134.125 115.878  1.00  0.00    -0.507 OA
ATOM     27  H   UNL     1     130.985 134.767 115.102  1.00  0.00     0.293 HD
ENDBRANCH   6  26
BRANCH   8  28
ATOM     28  O   UNL     1     129.271 130.340 118.248  1.00  0.00    -0.508 OA
ATOM     29  H   UNL     1     129.705 129.484 118.577  1.00  0.00     0.293 HD
ENDBRANCH   8  28
TORSDOF 7
ENDMDL
MODEL 5
REMARK VINA RESULT:    -6.171      2.930      4.247
REMARK INTER + INTRA:          -7.979
REMARK INTER:                  -8.422
REMARK INTRA:                   0.443
REMARK UNBOUND:                -0.365
REMARK SMILES O=C1c2c(O)cc(O)cc2O[C@@H](c2cc(O)c(O)c(O)c2)[C@H]1O
REMARK SMILES IDX 12 1 22 2 2 3 1 4 3 5 4 6 6 7 7 8 9 9 10 10 11 11 13 12
REMARK SMILES IDX 14 13 15 14 21 15 17 16 19 17 16 18 18 20 20 22 23 24 5 26
REMARK SMILES IDX 8 28
REMARK H PARENT 16 19 18 21 20 23 23 25 5 27 8 29
REMARK Flexibility Score: inf
ROOT
ATOM      1  C   UNL     1     129.182 131.998 115.889  1.00  0.00     0.240 C 
ATOM      2  C   UNL     1     130.040 132.938 115.018  1.00  0.00     0.231 C 
ATOM      3  C   UNL     1     130.364 132.252 113.717  1.00  0.00     0.202 C 
ATOM      4  O   UNL     1     130.447 132.935 112.661  1.00  0.00    -0.291 OA
ATOM      5  C   UNL     1     130.639 130.793 113.712  1.00  0.00     0.105 A 
ATOM      6  C   UNL     1     131.186 130.123 112.598  1.00  0.00     0.133 A 
ATOM      7  C   UNL     1     131.466 128.751 112.681  1.00  0.00     0.093 A 
ATOM      8  C   UNL     1     131.215 128.045 113.861  1.00  0.00     0.123 A 
ATOM      9  C   UNL     1     130.669 128.708 114.966  1.00  0.00     0.093 A 
ATOM     10  C   UNL     1     130.368 130.070 114.890  1.00  0.00     0.138 A 
ATOM     11  O   UNL     1     129.797 130.712 115.997  1.00  0.00    -0.481 OA
ENDROOT
BRANCH   1  12
ATOM     12  C   UNL     1     128.930 132.586 117.259  1.00  0.00     0.003 A 
ATOM     13  C   UNL     1     127.644 132.573 117.824  1.00  0.00     0.058 A 
ATOM     14  C   UNL     1     127.425 133.087 119.107  1.00  0.00     0.161 A 
ATOM     15  C   UNL     1     130.001 133.096 118.009  1.00  0.00     0.058 A 
ATOM     16  C   UNL     1     128.498 133.612 119.847  1.00  0.00     0.200 A 
ATOM     17  C   UNL     1     129.791 133.613 119.294  1.00  0.00     0.161 A 
BRANCH  14  18
ATOM     18  O   UNL     1     126.132 133.064 119.631  1.00  0.00    -0.504 OA
ATOM     19  H   UNL     1     125.730 133.861 120.109  1.00  0.00     0.293 HD
ENDBRANCH  14  18
BRANCH  16  20
ATOM     20  O   UNL     1     128.269 134.125 121.124  1.00  0.00    -0.502 OA
ATOM     21  H   UNL     1     128.425 133.577 121.961  1.00  0.00     0.293 HD
ENDBRANCH  16  20
BRANCH  17  22
ATOM     22  O   UNL     1     130.861 134.125 120.026  1.00  0.00    -0.504 OA
ATOM     23  H   UNL     1     131.770 134.277 119.602  1.00  0.00     0.293 HD
ENDBRANCH  17  22
ENDBRANCH   1  12
BRANCH   2  24
ATOM     24  O   UNL     1     131.236 133.256 115.683  1.00  0.00    -0.381 OA
ATOM     25  H   UNL     1     131.484 134.175 115.400  1.00  0.00     0.211 HD
ENDBRANCH   2  24
BRANCH   6  26
ATOM     26  O   UNL     1     131.462 130.812 111.418  1.00  0.00    -0.507 OA
ATOM     27  H   UNL     1     131.398 131.823 111.364  1.00  0.00     0.293 HD
ENDBRANCH   6  26
BRANCH   8  28
ATOM     28  O   UNL     1     131.510 126.685 113.923  1.00  0.00    -0.508 OA
ATOM     29  H   UNL     1     132.053 126.295 114.686  1.00  0.00     0.293 HD
ENDBRANCH   8  28
TORSDOF 7
ENDMDL
MODEL 6
REMARK VINA RESULT:    -6.107      1.713      2.328
REMARK INTER + INTRA:          -7.899
REMARK INTER:                  -8.224
REMARK INTRA:                   0.325
REMARK UNBOUND:                -0.365
REMARK SMILES O=C1c2c(O)cc(O)cc2O[C@@H](c2cc(O)c(O)c(O)c2)[C@H]1O
REMARK SMILES IDX 12 1 22 2 2 3 1 4 3 5 4 6 6 7 7 8 9 9 10 10 11 11 13 12
REMARK SMILES IDX 14 13 15 14 21 15 17 16 19 17 16 18 18 20 20 22 23 24 5 26
REMARK SMILES IDX 8 28
REMARK H PARENT 16 19 18 21 20 23 23 25 5 27 8 29
REMARK Flexibility Score: inf
ROOT
ATOM      1  C   UNL     1     130.287 131.458 114.405  1.00  0.00     0.240 C 
ATOM      2  C   UNL     1     130.749 130.002 114.197  1.00  0.00     0.231 C 
ATOM      3  C   UNL     1     130.943 129.748 112.725  1.00  0.00     0.202 C 
ATOM      4  O   UNL     1     131.862 128.972 112.347  1.00  0.00    -0.291 OA
ATOM      5  C   UNL     1     130.012 130.368 111.750  1.00  0.00     0.105 A 
ATOM      6  C   UNL     1     129.967 129.991 110.391  1.00  0.00     0.133 A 
ATOM      7  C   UNL     1     129.026 130.584 109.536  1.00  0.00     0.093 A 
ATOM      8  C   UNL     1     128.128 131.540 110.022  1.00  0.00     0.123 A 
ATOM      9  C   UNL     1     128.174 131.916 111.369  1.00  0.00     0.093 A 
ATOM     10  C   UNL     1     129.118 131.347 112.226  1.00  0.00     0.138 A 
ATOM     11  O   UNL     1     129.167 131.755 113.566  1.00  0.00    -0.481 OA
ENDROOT
BRANCH   1  12
ATOM     12  C   UNL     1     129.955 131.735 115.854  1.00  0.00     0.003 A 
ATOM     13  C   UNL     1     130.566 132.795 116.544  1.00  0.00     0.058 A 
ATOM     14  C   UNL     1     130.229 133.068 117.874  1.00  0.00     0.161 A 
ATOM     15  C   UNL     1     128.980 130.966 116.508  1.00  0.00     0.058 A 
ATOM     16  C   UNL     1     129.263 132.283 118.529  1.00  0.00     0.200 A 
ATOM     17  C   UNL     1     128.637 131.231 117.839  1.00  0.00     0.161 A 
BRANCH  14  18
ATOM     18  O   UNL     1     130.862 134.125 118.528  1.00  0.00    -0.504 OA
ATOM     19  H   UNL     1     131.703 133.993 119.077  1.00  0.00     0.293 HD
ENDBRANCH  14  18
BRANCH  16  20
ATOM     20  O   UNL     1     128.936 132.560 119.857  1.00  0.00    -0.502 OA
ATOM     21  H   UNL     1     129.070 133.477 120.265  1.00  0.00     0.293 HD
ENDBRANCH  16  20
BRANCH  17  22
ATOM     22  O   UNL     1     127.674 130.454 118.481  1.00  0.00    -0.504 OA
ATOM     23  H   UNL     1     127.899 129.548 118.877  1.00  0.00     0.293 HD
ENDBRANCH  17  22
ENDBRANCH   1  12
BRANCH   2  24
ATOM     24  O   UNL     1     129.783 129.112 114.696  1.00  0.00    -0.381 OA
ATOM     25  H   UNL     1     130.246 128.247 114.850  1.00  0.00     0.211 HD
ENDBRANCH   2  24
BRANCH   6  26
ATOM     26  O   UNL     1     130.840 129.027 109.891  1.00  0.00    -0.507 OA
ATOM     27  H   UNL     1     131.415 129.202 109.074  1.00  0.00     0.293 HD
ENDBRANCH   6  26
BRANCH   8  28
ATOM     28  O   UNL     1     127.196 132.109 109.157  1.00  0.00    -0.508 OA
ATOM     29  H   UNL     1     126.745 131.563 108.430  1.00  0.00     0.293 HD
ENDBRANCH   8  28
TORSDOF 7
ENDMDL
MODEL 7
REMARK VINA RESULT:    -6.099      1.785      7.145
REMARK INTER + INTRA:          -7.890
REMARK INTER:                  -8.436
REMARK INTRA:                   0.547
REMARK UNBOUND:                -0.365
REMARK SMILES O=C1c2c(O)cc(O)cc2O[C@@H](c2cc(O)c(O)c(O)c2)[C@H]1O
REMARK SMILES IDX 12 1 22 2 2 3 1 4 3 5 4 6 6 7 7 8 9 9 10 10 11 11 13 12
REMARK SMILES IDX 14 13 15 14 21 15 17 16 19 17 16 18 18 20 20 22 23 24 5 26
REMARK SMILES IDX 8 28
REMARK H PARENT 16 19 18 21 20 23 23 25 5 27 8 29
REMARK Flexibility Score: inf
ROOT
ATOM      1  C   UNL     1     130.335 130.465 112.156  1.00  0.00     0.240 C 
ATOM      2  C   UNL     1     130.140 131.988 112.007  1.00  0.00     0.231 C 
ATOM      3  C   UNL     1     130.634 132.676 113.253  1.00  0.00     0.202 C 
ATOM      4  O   UNL     1     131.178 133.808 113.159  1.00  0.00    -0.291 OA
ATOM      5  C   UNL     1     130.418 132.034 114.573  1.00  0.00     0.105 A 
ATOM      6  C   UNL     1     130.622 132.712 115.794  1.00  0.00     0.133 A 
ATOM      7  C   UNL     1     130.349 132.059 117.005  1.00  0.00     0.093 A 
ATOM      8  C   UNL     1     129.869 130.746 117.012  1.00  0.00     0.123 A 
ATOM      9  C   UNL     1     129.670 130.071 115.802  1.00  0.00     0.093 A 
ATOM     10  C   UNL     1     129.956 130.703 114.590  1.00  0.00     0.138 A 
ATOM     11  O   UNL     1     129.775 130.005 113.389  1.00  0.00    -0.481 OA
ENDROOT
BRANCH   1  12
ATOM     12  C   UNL     1     129.742 129.712 110.987  1.00  0.00     0.003 A 
ATOM     13  C   UNL     1     128.644 130.228 110.278  1.00  0.00     0.058 A 
ATOM     14  C   UNL     1     128.122 129.543 109.176  1.00  0.00     0.161 A 
ATOM     15  C   UNL     1     130.327 128.511 110.559  1.00  0.00     0.058 A 
ATOM     16  C   UNL     1     128.702 128.332 108.762  1.00  0.00     0.200 A 
ATOM     17  C   UNL     1     129.811 127.818 109.457  1.00  0.00     0.161 A 
BRANCH  14  18
ATOM     18  O   UNL     1     127.026 130.084 108.502  1.00  0.00    -0.504 OA
ATOM     19  H   UNL     1     126.953 131.073 108.299  1.00  0.00     0.293 HD
ENDBRANCH  14  18
BRANCH  16  20
ATOM     20  O   UNL     1     128.173 127.654 107.663  1.00  0.00    -0.502 OA
ATOM     21  H   UNL     1     128.709 126.972 107.141  1.00  0.00     0.293 HD
ENDBRANCH  16  20
BRANCH  17  22
ATOM     22  O   UNL     1     130.396 126.621 109.046  1.00  0.00    -0.504 OA
ATOM     23  H   UNL     1     131.391 126.452 109.153  1.00  0.00     0.293 HD
ENDBRANCH  17  22
ENDBRANCH   1  12
BRANCH   2  24
ATOM     24  O   UNL     1     128.780 132.285 111.824  1.00  0.00    -0.381 OA
ATOM     25  H   UNL     1     128.675 132.564 110.876  1.00  0.00     0.211 HD
ENDBRANCH   2  24
BRANCH   6  26
ATOM     26  O   UNL     1     131.081 134.028 115.809  1.00  0.00    -0.507 OA
ATOM     27  H   UNL     1     131.751 134.350 116.498  1.00  0.00     0.293 HD
ENDBRANCH   6  26
BRANCH   8  28
ATOM     28  O   UNL     1     129.597 130.120 118.227  1.00  0.00    -0.508 OA
ATOM     29  H   UNL     1     130.012 129.227 118.467  1.00  0.00     0.293 HD
ENDBRANCH   8  28
TORSDOF 7
ENDMDL
MODEL 8
REMARK VINA RESULT:    -5.960      2.159      7.330
REMARK INTER + INTRA:          -7.718
REMARK INTER:                  -7.857
REMARK INTRA:                   0.138
REMARK UNBOUND:                -0.365
REMARK SMILES O=C1c2c(O)cc(O)cc2O[C@@H](c2cc(O)c(O)c(O)c2)[C@H]1O
REMARK SMILES IDX 12 1 22 2 2 3 1 4 3 5 4 6 6 7 7 8 9 9 10 10 11 11 13 12
REMARK SMILES IDX 14 13 15 14 21 15 17 16 19 17 16 18 18 20 20 22 23 24 5 26
REMARK SMILES IDX 8 28
REMARK H PARENT 16 19 18 21 20 23 23 25 5 27 8 29
REMARK Flexibility Score: inf
ROOT
ATOM      1  C   UNL     1     130.734 129.764 113.094  1.00  0.00     0.240 C 
ATOM      2  C   UNL     1     130.485 131.190 112.560  1.00  0.00     0.231 C 
ATOM      3  C   UNL     1     130.760 132.186 113.656  1.00  0.00     0.202 C 
ATOM      4  O   UNL     1     131.252 133.308 113.363  1.00  0.00    -0.291 OA
ATOM      5  C   UNL     1     130.389 131.851 115.054  1.00  0.00     0.105 A 
ATOM      6  C   UNL     1     130.381 132.807 116.092  1.00  0.00     0.133 A 
ATOM      7  C   UNL     1     129.972 132.431 117.380  1.00  0.00     0.093 A 
ATOM      8  C   UNL     1     129.564 131.119 117.641  1.00  0.00     0.123 A 
ATOM      9  C   UNL     1     129.575 130.169 116.613  1.00  0.00     0.093 A 
ATOM     10  C   UNL     1     129.998 130.526 115.331  1.00  0.00     0.138 A 
ATOM     11  O   UNL     1     130.028 129.556 114.320  1.00  0.00    -0.481 OA
ENDROOT
BRANCH   1  12
ATOM     12  C   UNL     1     130.354 128.714 112.075  1.00  0.00     0.003 A 
ATOM     13  C   UNL     1     130.145 127.379 112.458  1.00  0.00     0.058 A 
ATOM     14  C   UNL     1     129.759 126.420 111.516  1.00  0.00     0.161 A 
ATOM     15  C   UNL     1     130.144 129.082 110.737  1.00  0.00     0.058 A 
ATOM     16  C   UNL     1     129.567 126.790 110.174  1.00  0.00     0.200 A 
ATOM     17  C   UNL     1     129.759 128.128 109.786  1.00  0.00     0.161 A 
BRANCH  14  18
ATOM     18  O   UNL     1     129.568 125.102 111.934  1.00  0.00    -0.504 OA
ATOM     19  H   UNL     1     129.646 124.318 111.297  1.00  0.00     0.293 HD
ENDBRANCH  14  18
BRANCH  16  20
ATOM     20  O   UNL     1     129.185 125.825 109.241  1.00  0.00    -0.502 OA
ATOM     21  H   UNL     1     129.758 125.596 108.438  1.00  0.00     0.293 HD
ENDBRANCH  16  20
BRANCH  17  22
ATOM     22  O   UNL     1     129.562 128.503 108.459  1.00  0.00    -0.504 OA
ATOM     23  H   UNL     1     129.876 127.921 107.690  1.00  0.00     0.293 HD
ENDBRANCH  17  22
ENDBRANCH   1  12
BRANCH   2  24
ATOM     24  O   UNL     1     129.151 131.322 112.140  1.00  0.00    -0.381 OA
ATOM     25  H   UNL     1     129.154 131.233 111.151  1.00  0.00     0.211 HD
ENDBRANCH   2  24
BRANCH   6  26
ATOM     26  O   UNL     1     130.765 134.125 115.848  1.00  0.00    -0.507 OA
ATOM     27  H   UNL     1     130.886 134.792 116.602  1.00  0.00     0.293 HD
ENDBRANCH   6  26
BRANCH   8  28
ATOM     28  O   UNL     1     129.153 130.771 118.926  1.00  0.00    -0.508 OA
ATOM     29  H   UNL     1     129.407 131.330 119.733  1.00  0.00     0.293 HD
ENDBRANCH   8  28
TORSDOF 7
ENDMDL
MODEL 9
REMARK VINA RESULT:    -5.875      2.137      7.305
REMARK INTER + INTRA:          -7.614
REMARK INTER:                  -7.685
REMARK INTRA:                   0.071
REMARK UNBOUND:                -0.365
REMARK SMILES O=C1c2c(O)cc(O)cc2O[C@@H](c2cc(O)c(O)c(O)c2)[C@H]1O
REMARK SMILES IDX 12 1 22 2 2 3 1 4 3 5 4 6 6 7 7 8 9 9 10 10 11 11 13 12
REMARK SMILES IDX 14 13 15 14 21 15 17 16 19 17 16 18 18 20 20 22 23 24 5 26
REMARK SMILES IDX 8 28
REMARK H PARENT 16 19 18 21 20 23 23 25 5 27 8 29
REMARK Flexibility Score: inf
ROOT
ATOM      1  C   UNL     1     130.663 129.797 113.034  1.00  0.00     0.240 C 
ATOM      2  C   UNL     1     130.414 131.230 112.522  1.00  0.00     0.231 C 
ATOM      3  C   UNL     1     130.725 132.211 113.622  1.00  0.00     0.202 C 
ATOM      4  O   UNL     1     131.221 133.332 113.329  1.00  0.00    -0.291 OA
ATOM      5  C   UNL     1     130.387 131.864 115.025  1.00  0.00     0.105 A 
ATOM      6  C   UNL     1     130.414 132.808 116.073  1.00  0.00     0.133 A 
ATOM      7  C   UNL     1     130.033 132.421 117.367  1.00  0.00     0.093 A 
ATOM      8  C   UNL     1     129.620 131.110 117.623  1.00  0.00     0.123 A 
ATOM      9  C   UNL     1     129.596 130.172 116.585  1.00  0.00     0.093 A 
ATOM     10  C   UNL     1     129.991 130.539 115.297  1.00  0.00     0.138 A 
ATOM     11  O   UNL     1     129.986 129.581 114.275  1.00  0.00    -0.481 OA
ENDROOT
BRANCH   1  12
ATOM     12  C   UNL     1     130.247 128.762 112.013  1.00  0.00     0.003 A 
ATOM     13  C   UNL     1     130.070 129.111 110.663  1.00  0.00     0.058 A 
ATOM     14  C   UNL     1     129.720 128.141 109.717  1.00  0.00     0.161 A 
ATOM     15  C   UNL     1     130.094 127.421 112.398  1.00  0.00     0.058 A 
ATOM     16  C   UNL     1     129.552 126.803 110.112  1.00  0.00     0.200 A 
ATOM     17  C   UNL     1     129.742 126.444 111.458  1.00  0.00     0.161 A 
BRANCH  14  18
ATOM     18  O   UNL     1     129.546 128.527 108.388  1.00  0.00    -0.504 OA
ATOM     19  H   UNL     1     130.290 128.458 107.705  1.00  0.00     0.293 HD
ENDBRANCH  14  18
BRANCH  16  20
ATOM     20  O   UNL     1     129.199 125.843 109.162  1.00  0.00    -0.502 OA
ATOM     21  H   UNL     1     128.936 126.092 108.216  1.00  0.00     0.293 HD
ENDBRANCH  16  20
BRANCH  17  22
ATOM     22  O   UNL     1     129.585 125.117 111.854  1.00  0.00    -0.504 OA
ATOM     23  H   UNL     1     129.351 124.388 111.188  1.00  0.00     0.293 HD
ENDBRANCH  17  22
ENDBRANCH   1  12
BRANCH   2  24
ATOM     24  O   UNL     1     129.071 131.379 112.137  1.00  0.00    -0.381 OA
ATOM     25  H   UNL     1     128.746 132.218 112.556  1.00  0.00     0.211 HD
ENDBRANCH   2  24
BRANCH   6  26
ATOM     26  O   UNL     1     130.804 134.125 115.835  1.00  0.00    -0.507 OA
ATOM     27  H   UNL     1     130.126 134.875 115.754  1.00  0.00     0.293 HD
ENDBRANCH   6  26
BRANCH   8  28
ATOM     28  O   UNL     1     129.238 130.751 118.914  1.00  0.00    -0.508 OA
ATOM     29  H   UNL     1     128.461 131.205 119.382  1.00  0.00     0.293 HD
ENDBRANCH   8  28
TORSDOF 7
ENDMDL
