MODEL 1
REMARK VINA RESULT:    -4.891      0.000      0.000
REMARK INTER + INTRA:          -5.403
REMARK INTER:                  -5.320
REMARK INTRA:                  -0.083
REMARK UNBOUND:                -0.083
REMARK SMILES O=C([O-])c1ccccc1O
REMARK SMILES IDX 4 1 9 2 5 3 8 4 6 5 7 6 2 7 1 8 3 9 10 10
REMARK H PARENT 10 11
REMARK Flexibility Score: inf
ROOT
ATOM      1  C   UNL     1       6.204 -29.696 -17.844  1.00  0.00     0.039 A 
ATOM      2  C   UNL     1       4.896 -29.311 -18.237  1.00  0.00     0.124 A 
ATOM      3  C   UNL     1       7.133 -28.696 -17.501  1.00  0.00     0.014 A 
ATOM      4  C   UNL     1       4.536 -27.958 -18.217  1.00  0.00     0.047 A 
ATOM      5  C   UNL     1       6.765 -27.348 -17.507  1.00  0.00     0.001 A 
ATOM      6  C   UNL     1       5.465 -26.981 -17.854  1.00  0.00     0.004 A 
ENDROOT
BRANCH   1   7
ATOM      7  C   UNL     1       6.619 -31.112 -17.743  1.00  0.00     0.075 C 
ATOM      8  O   UNL     1       6.425 -31.754 -16.677  1.00  0.00    -0.545 OA
ATOM      9  O   UNL     1       7.162 -31.775 -18.838  1.00  0.00    -0.545 OA
ENDBRANCH   1   7
BRANCH   2  10
ATOM     10  O   UNL     1       3.946 -30.231 -18.685  1.00  0.00    -0.507 OA
ATOM     11  H   UNL     1       3.678 -31.054 -18.163  1.00  0.00     0.293 HD
ENDBRANCH   2  10
TORSDOF 2
ENDMDL
MODEL 2
REMARK VINA RESULT:    -4.691     14.377     16.031
REMARK INTER + INTRA:          -5.185
REMARK INTER:                  -4.948
REMARK INTRA:                  -0.237
REMARK UNBOUND:                -0.083
REMARK SMILES O=C([O-])c1ccccc1O
REMARK SMILES IDX 4 1 9 2 5 3 8 4 6 5 7 6 2 7 1 8 3 9 10 10
REMARK H PARENT 10 11
REMARK Flexibility Score: inf
ROOT
ATOM      1  C   UNL     1      -0.432 -43.539 -17.976  1.00  0.00     0.039 A 
ATOM      2  C   UNL     1       0.838 -44.133 -18.190  1.00  0.00     0.124 A 
ATOM      3  C   UNL     1      -1.508 -44.358 -17.581  1.00  0.00     0.014 A 
ATOM      4  C   UNL     1       1.014 -45.501 -17.947  1.00  0.00     0.047 A 
ATOM      5  C   UNL     1      -1.320 -45.725 -17.364  1.00  0.00     0.001 A 
ATOM      6  C   UNL     1      -0.059 -46.293 -17.536  1.00  0.00     0.004 A 
ENDROOT
BRANCH   1   7
ATOM      7  C   UNL     1      -0.663 -42.085 -18.114  1.00  0.00     0.075 C 
ATOM      8  O   UNL     1      -1.093 -41.417 -17.136  1.00  0.00    -0.545 OA
ATOM      9  O   UNL     1      -0.347 -41.423 -19.295  1.00  0.00    -0.545 OA
ENDBRANCH   1   7
BRANCH   2  10
ATOM     10  O   UNL     1       1.931 -43.412 -18.675  1.00  0.00    -0.507 OA
ATOM     11  H   UNL     1       2.872 -43.523 -18.324  1.00  0.00     0.293 HD
ENDBRANCH   2  10
TORSDOF 2
ENDMDL
MODEL 3
REMARK VINA RESULT:    -4.601      2.246      3.322
REMARK INTER + INTRA:          -5.088
REMARK INTER:                  -4.869
REMARK INTRA:                  -0.218
REMARK UNBOUND:                -0.083
REMARK SMILES O=C([O-])c1ccccc1O
REMARK SMILES IDX 4 1 9 2 5 3 8 4 6 5 7 6 2 7 1 8 3 9 10 10
REMARK H PARENT 10 11
REMARK Flexibility Score: inf
ROOT
ATOM      1  C   UNL     1       6.421 -29.142 -17.801  1.00  0.00     0.039 A 
ATOM      2  C   UNL     1       5.030 -29.343 -17.993  1.00  0.00     0.124 A 
ATOM      3  C   UNL     1       7.284 -30.252 -17.870  1.00  0.00     0.014 A 
ATOM      4  C   UNL     1       4.551 -30.620 -18.308  1.00  0.00     0.047 A 
ATOM      5  C   UNL     1       6.787 -31.524 -18.164  1.00  0.00     0.001 A 
ATOM      6  C   UNL     1       5.424 -31.706 -18.393  1.00  0.00     0.004 A 
ENDROOT
BRANCH   1   7
ATOM      7  C   UNL     1       7.006 -27.803 -17.568  1.00  0.00     0.075 C 
ATOM      8  O   UNL     1       6.295 -26.875 -17.100  1.00  0.00    -0.545 OA
ATOM      9  O   UNL     1       8.357 -27.568 -17.795  1.00  0.00    -0.545 OA
ENDBRANCH   1   7
BRANCH   2  10
ATOM     10  O   UNL     1       4.096 -28.315 -17.846  1.00  0.00    -0.507 OA
ATOM     11  H   UNL     1       3.174 -28.452 -17.457  1.00  0.00     0.293 HD
ENDBRANCH   2  10
TORSDOF 2
ENDMDL
MODEL 4
REMARK VINA RESULT:    -4.548      1.456      2.044
REMARK INTER + INTRA:          -5.030
REMARK INTER:                  -4.815
REMARK INTRA:                  -0.216
REMARK UNBOUND:                -0.083
REMARK SMILES O=C([O-])c1ccccc1O
REMARK SMILES IDX 4 1 9 2 5 3 8 4 6 5 7 6 2 7 1 8 3 9 10 10
REMARK H PARENT 10 11
REMARK Flexibility Score: inf
ROOT
ATOM      1  C   UNL     1       6.110 -29.416 -17.153  1.00  0.00     0.039 A 
ATOM      2  C   UNL     1       5.429 -28.181 -17.305  1.00  0.00     0.124 A 
ATOM      3  C   UNL     1       7.500 -29.457 -17.370  1.00  0.00     0.014 A 
ATOM      4  C   UNL     1       6.154 -27.021 -17.604  1.00  0.00     0.047 A 
ATOM      5  C   UNL     1       8.206 -28.294 -17.690  1.00  0.00     0.001 A 
ATOM      6  C   UNL     1       7.536 -27.077 -17.796  1.00  0.00     0.004 A 
ENDROOT
BRANCH   1   7
ATOM      7  C   UNL     1       5.421 -30.657 -16.737  1.00  0.00     0.075 C 
ATOM      8  O   UNL     1       6.040 -31.754 -16.736  1.00  0.00    -0.545 OA
ATOM      9  O   UNL     1       4.110 -30.624 -16.278  1.00  0.00    -0.545 OA
ENDBRANCH   1   7
BRANCH   2  10
ATOM     10  O   UNL     1       4.040 -28.072 -17.203  1.00  0.00    -0.507 OA
ATOM     11  H   UNL     1       3.491 -27.424 -17.749  1.00  0.00     0.293 HD
ENDBRANCH   2  10
TORSDOF 2
ENDMDL
MODEL 5
REMARK VINA RESULT:    -4.435     14.629     16.073
REMARK INTER + INTRA:          -4.906
REMARK INTER:                  -4.682
REMARK INTRA:                  -0.224
REMARK UNBOUND:                -0.083
REMARK SMILES O=C([O-])c1ccccc1O
REMARK SMILES IDX 4 1 9 2 5 3 8 4 6 5 7 6 2 7 1 8 3 9 10 10
REMARK H PARENT 10 11
REMARK Flexibility Score: inf
ROOT
ATOM      1  C   UNL     1       0.493 -44.785 -17.780  1.00  0.00     0.039 A 
ATOM      2  C   UNL     1       0.971 -43.546 -18.280  1.00  0.00     0.124 A 
ATOM      3  C   UNL     1      -0.871 -44.907 -17.455  1.00  0.00     0.014 A 
ATOM      4  C   UNL     1       0.072 -42.494 -18.499  1.00  0.00     0.047 A 
ATOM      5  C   UNL     1      -1.751 -43.840 -17.659  1.00  0.00     0.001 A 
ATOM      6  C   UNL     1      -1.281 -42.640 -18.190  1.00  0.00     0.004 A 
ENDROOT
BRANCH   1   7
ATOM      7  C   UNL     1       1.367 -45.968 -17.622  1.00  0.00     0.075 C 
ATOM      8  O   UNL     1       1.137 -47.016 -18.281  1.00  0.00    -0.545 OA
ATOM      9  O   UNL     1       2.489 -45.920 -16.803  1.00  0.00    -0.545 OA
ENDBRANCH   1   7
BRANCH   2  10
ATOM     10  O   UNL     1       2.323 -43.311 -18.535  1.00  0.00    -0.507 OA
ATOM     11  H   UNL     1       3.029 -43.278 -17.813  1.00  0.00     0.293 HD
ENDBRANCH   2  10
TORSDOF 2
ENDMDL
MODEL 6
REMARK VINA RESULT:    -4.428     14.564     16.181
REMARK INTER + INTRA:          -4.899
REMARK INTER:                  -4.670
REMARK INTRA:                  -0.229
REMARK UNBOUND:                -0.083
REMARK SMILES O=C([O-])c1ccccc1O
REMARK SMILES IDX 4 1 9 2 5 3 8 4 6 5 7 6 2 7 1 8 3 9 10 10
REMARK H PARENT 10 11
REMARK Flexibility Score: inf
ROOT
ATOM      1  C   UNL     1       0.106 -43.793 -17.795  1.00  0.00     0.039 A 
ATOM      2  C   UNL     1       0.472 -45.146 -17.578  1.00  0.00     0.124 A 
ATOM      3  C   UNL     1      -1.260 -43.466 -17.895  1.00  0.00     0.014 A 
ATOM      4  C   UNL     1      -0.524 -46.116 -17.406  1.00  0.00     0.047 A 
ATOM      5  C   UNL     1      -2.241 -44.449 -17.743  1.00  0.00     0.001 A 
ATOM      6  C   UNL     1      -1.874 -45.770 -17.489  1.00  0.00     0.004 A 
ENDROOT
BRANCH   1   7
ATOM      7  C   UNL     1       1.103 -42.704 -17.881  1.00  0.00     0.075 C 
ATOM      8  O   UNL     1       2.265 -42.943 -18.304  1.00  0.00    -0.545 OA
ATOM      9  O   UNL     1       0.757 -41.396 -17.565  1.00  0.00    -0.545 OA
ENDBRANCH   1   7
BRANCH   2  10
ATOM     10  O   UNL     1       1.803 -45.570 -17.562  1.00  0.00    -0.507 OA
ATOM     11  H   UNL     1       2.415 -45.512 -18.364  1.00  0.00     0.293 HD
ENDBRANCH   2  10
TORSDOF 2
ENDMDL
MODEL 7
REMARK VINA RESULT:    -4.404     14.324     15.817
REMARK INTER + INTRA:          -4.873
REMARK INTER:                  -4.629
REMARK INTRA:                  -0.244
REMARK UNBOUND:                -0.083
REMARK SMILES O=C([O-])c1ccccc1O
REMARK SMILES IDX 4 1 9 2 5 3 8 4 6 5 7 6 2 7 1 8 3 9 10 10
REMARK H PARENT 10 11
REMARK Flexibility Score: inf
ROOT
ATOM      1  C   UNL     1       0.233 -43.697 -17.676  1.00  0.00     0.039 A 
ATOM      2  C   UNL     1      -1.138 -43.424 -17.917  1.00  0.00     0.124 A 
ATOM      3  C   UNL     1       0.611 -45.001 -17.303  1.00  0.00     0.014 A 
ATOM      4  C   UNL     1      -2.076 -44.462 -17.839  1.00  0.00     0.047 A 
ATOM      5  C   UNL     1      -0.340 -46.020 -17.208  1.00  0.00     0.001 A 
ATOM      6  C   UNL     1      -1.679 -45.753 -17.486  1.00  0.00     0.004 A 
ENDROOT
BRANCH   1   7
ATOM      7  C   UNL     1       1.288 -42.673 -17.842  1.00  0.00     0.075 C 
ATOM      8  O   UNL     1       1.073 -41.482 -17.493  1.00  0.00    -0.545 OA
ATOM      9  O   UNL     1       2.547 -43.019 -18.318  1.00  0.00    -0.545 OA
ENDBRANCH   1   7
BRANCH   2  10
ATOM     10  O   UNL     1      -1.610 -42.140 -18.197  1.00  0.00    -0.507 OA
ATOM     11  H   UNL     1      -1.437 -41.341 -17.603  1.00  0.00     0.293 HD
ENDBRANCH   2  10
TORSDOF 2
ENDMDL
MODEL 8
REMARK VINA RESULT:    -4.309     15.324     16.665
REMARK INTER + INTRA:          -4.770
REMARK INTER:                  -4.517
REMARK INTRA:                  -0.253
REMARK UNBOUND:                -0.083
REMARK SMILES O=C([O-])c1ccccc1O
REMARK SMILES IDX 4 1 9 2 5 3 8 4 6 5 7 6 2 7 1 8 3 9 10 10
REMARK H PARENT 10 11
REMARK Flexibility Score: inf
ROOT
ATOM      1  C   UNL     1      -0.866 -44.621 -17.722  1.00  0.00     0.039 A 
ATOM      2  C   UNL     1       0.450 -45.149 -17.739  1.00  0.00     0.124 A 
ATOM      3  C   UNL     1      -1.046 -43.237 -17.903  1.00  0.00     0.014 A 
ATOM      4  C   UNL     1       1.535 -44.300 -17.994  1.00  0.00     0.047 A 
ATOM      5  C   UNL     1       0.048 -42.400 -18.135  1.00  0.00     0.001 A 
ATOM      6  C   UNL     1       1.335 -42.932 -18.191  1.00  0.00     0.004 A 
ENDROOT
BRANCH   1   7
ATOM      7  C   UNL     1      -2.063 -45.476 -17.562  1.00  0.00     0.075 C 
ATOM      8  O   UNL     1      -3.075 -45.039 -16.953  1.00  0.00    -0.545 OA
ATOM      9  O   UNL     1      -2.116 -46.741 -18.135  1.00  0.00    -0.545 OA
ENDBRANCH   1   7
BRANCH   2  10
ATOM     10  O   UNL     1       0.724 -46.492 -17.472  1.00  0.00    -0.507 OA
ATOM     11  H   UNL     1       1.181 -46.811 -16.630  1.00  0.00     0.293 HD
ENDBRANCH   2  10
TORSDOF 2
ENDMDL
MODEL 9
REMARK VINA RESULT:    -4.284     14.670     16.225
REMARK INTER + INTRA:          -4.743
REMARK INTER:                  -4.536
REMARK INTRA:                  -0.207
REMARK UNBOUND:                -0.083
REMARK SMILES O=C([O-])c1ccccc1O
REMARK SMILES IDX 4 1 9 2 5 3 8 4 6 5 7 6 2 7 1 8 3 9 10 10
REMARK H PARENT 10 11
REMARK Flexibility Score: inf
ROOT
ATOM      1  C   UNL     1      -0.265 -43.709 -17.925  1.00  0.00     0.039 A 
ATOM      2  C   UNL     1      -1.134 -44.746 -17.498  1.00  0.00     0.124 A 
ATOM      3  C   UNL     1       1.079 -44.021 -18.203  1.00  0.00     0.014 A 
ATOM      4  C   UNL     1      -0.660 -46.061 -17.420  1.00  0.00     0.047 A 
ATOM      5  C   UNL     1       1.543 -45.334 -18.100  1.00  0.00     0.001 A 
ATOM      6  C   UNL     1       0.672 -46.354 -17.719  1.00  0.00     0.004 A 
ENDROOT
BRANCH   1   7
ATOM      7  C   UNL     1      -0.727 -42.319 -18.128  1.00  0.00     0.075 C 
ATOM      8  O   UNL     1      -1.123 -41.634 -17.148  1.00  0.00    -0.545 OA
ATOM      9  O   UNL     1      -0.668 -41.725 -19.384  1.00  0.00    -0.545 OA
ENDBRANCH   1   7
BRANCH   2  10
ATOM     10  O   UNL     1      -2.454 -44.506 -17.110  1.00  0.00    -0.507 OA
ATOM     11  H   UNL     1      -3.255 -44.771 -17.666  1.00  0.00     0.293 HD
ENDBRANCH   2  10
TORSDOF 2
ENDMDL
