MODEL 1
REMARK VINA RESULT:    -3.175      0.000      0.000
REMARK INTER + INTRA:          -3.585
REMARK INTER:                  -3.546
REMARK INTRA:                  -0.039
REMARK UNBOUND:                -0.039
REMARK SMILES CCCC(=O)[O-]
REMARK SMILES IDX 3 1 4 2 5 3 6 4 2 5 1 6
REMARK H PARENT
REMARK Flexibility Score: inf
ROOT
ATOM      1  C   UNL     1       6.937   7.992  -5.894  1.00  0.00     0.052 C 
ENDROOT
BRANCH   1   2
ATOM      2  C   UNL     1       6.206   7.549  -7.124  1.00  0.00     0.041 C 
ATOM      3  O   UNL     1       5.874   6.342  -7.265  1.00  0.00    -0.550 OA
ATOM      4  O   UNL     1       5.921   8.462  -8.130  1.00  0.00    -0.550 OA
ENDBRANCH   1   2
BRANCH   1   5
ATOM      5  C   UNL     1       5.973   8.489  -4.810  1.00  0.00     0.003 C 
ATOM      6  C   UNL     1       5.639   7.405  -3.785  1.00  0.00     0.004 C 
ENDBRANCH   1   5
TORSDOF 2
ENDMDL
MODEL 2
REMARK VINA RESULT:    -2.875     13.111     13.839
REMARK INTER + INTRA:          -3.251
REMARK INTER:                  -3.229
REMARK INTRA:                  -0.021
REMARK UNBOUND:                -0.039
REMARK SMILES CCCC(=O)[O-]
REMARK SMILES IDX 3 1 4 2 5 3 6 4 2 5 1 6
REMARK H PARENT
REMARK Flexibility Score: inf
ROOT
ATOM      1  C   UNL     1       4.419  -5.789  -6.583  1.00  0.00     0.052 C 
ENDROOT
BRANCH   1   2
ATOM      2  C   UNL     1       4.661  -6.266  -5.184  1.00  0.00     0.041 C 
ATOM      3  O   UNL     1       3.700  -6.665  -4.474  1.00  0.00    -0.550 OA
ATOM      4  O   UNL     1       5.944  -6.240  -4.653  1.00  0.00    -0.550 OA
ENDBRANCH   1   2
BRANCH   1   5
ATOM      5  C   UNL     1       2.992  -5.256  -6.761  1.00  0.00     0.003 C 
ATOM      6  C   UNL     1       2.967  -3.786  -7.180  1.00  0.00     0.004 C 
ENDBRANCH   1   5
TORSDOF 2
ENDMDL
MODEL 3
REMARK VINA RESULT:    -2.845      1.201      1.549
REMARK INTER + INTRA:          -3.216
REMARK INTER:                  -3.210
REMARK INTRA:                  -0.006
REMARK UNBOUND:                -0.039
REMARK SMILES CCCC(=O)[O-]
REMARK SMILES IDX 3 1 4 2 5 3 6 4 2 5 1 6
REMARK H PARENT
REMARK Flexibility Score: inf
ROOT
ATOM      1  C   UNL     1       6.283   7.478  -6.193  1.00  0.00     0.052 C 
ENDROOT
BRANCH   1   2
ATOM      2  C   UNL     1       6.919   8.303  -7.270  1.00  0.00     0.041 C 
ATOM      3  O   UNL     1       6.331   8.474  -8.370  1.00  0.00    -0.550 OA
ATOM      4  O   UNL     1       8.176   8.858  -7.069  1.00  0.00    -0.550 OA
ENDBRANCH   1   2
BRANCH   1   5
ATOM      5  C   UNL     1       6.274   8.211  -4.847  1.00  0.00     0.003 C 
ATOM      6  C   UNL     1       5.589   7.402  -3.746  1.00  0.00     0.004 C 
ENDBRANCH   1   5
TORSDOF 2
ENDMDL
MODEL 4
REMARK VINA RESULT:    -2.834     13.109     13.851
REMARK INTER + INTRA:          -3.205
REMARK INTER:                  -3.186
REMARK INTRA:                  -0.018
REMARK UNBOUND:                -0.039
REMARK SMILES CCCC(=O)[O-]
REMARK SMILES IDX 3 1 4 2 5 3 6 4 2 5 1 6
REMARK H PARENT
REMARK Flexibility Score: inf
ROOT
ATOM      1  C   UNL     1       4.459  -5.657  -6.560  1.00  0.00     0.052 C 
ENDROOT
BRANCH   1   2
ATOM      2  C   UNL     1       4.700  -6.213  -5.190  1.00  0.00     0.041 C 
ATOM      3  O   UNL     1       5.867  -6.252  -4.717  1.00  0.00    -0.550 OA
ATOM      4  O   UNL     1       3.640  -6.718  -4.448  1.00  0.00    -0.550 OA
ENDBRANCH   1   2
BRANCH   1   5
ATOM      5  C   UNL     1       2.985  -5.289  -6.771  1.00  0.00     0.003 C 
ATOM      6  C   UNL     1       2.804  -3.831  -7.193  1.00  0.00     0.004 C 
ENDBRANCH   1   5
TORSDOF 2
ENDMDL
MODEL 5
REMARK VINA RESULT:    -2.796     13.750     14.550
REMARK INTER + INTRA:          -3.162
REMARK INTER:                  -3.151
REMARK INTRA:                  -0.011
REMARK UNBOUND:                -0.039
REMARK SMILES CCCC(=O)[O-]
REMARK SMILES IDX 3 1 4 2 5 3 6 4 2 5 1 6
REMARK H PARENT
REMARK Flexibility Score: inf
ROOT
ATOM      1  C   UNL     1       3.752  -6.415  -5.153  1.00  0.00     0.052 C 
ENDROOT
BRANCH   1   2
ATOM      2  C   UNL     1       4.986  -6.941  -4.485  1.00  0.00     0.041 C 
ATOM      3  O   UNL     1       6.081  -6.332  -4.605  1.00  0.00    -0.550 OA
ATOM      4  O   UNL     1       4.932  -8.122  -3.756  1.00  0.00    -0.550 OA
ENDBRANCH   1   2
BRANCH   1   5
ATOM      5  C   UNL     1       4.092  -5.595  -6.404  1.00  0.00     0.003 C 
ATOM      6  C   UNL     1       2.894  -4.797  -6.920  1.00  0.00     0.004 C 
ENDBRANCH   1   5
TORSDOF 2
ENDMDL
MODEL 6
REMARK VINA RESULT:    -2.765     12.459     13.207
REMARK INTER + INTRA:          -3.128
REMARK INTER:                  -3.121
REMARK INTRA:                  -0.007
REMARK UNBOUND:                -0.039
REMARK SMILES CCCC(=O)[O-]
REMARK SMILES IDX 3 1 4 2 5 3 6 4 2 5 1 6
REMARK H PARENT
REMARK Flexibility Score: inf
ROOT
ATOM      1  C   UNL     1       3.363  -4.210  -7.072  1.00  0.00     0.052 C 
ENDROOT
BRANCH   1   2
ATOM      2  C   UNL     1       3.548  -5.584  -6.504  1.00  0.00     0.041 C 
ATOM      3  O   UNL     1       4.242  -5.754  -5.467  1.00  0.00    -0.550 OA
ATOM      4  O   UNL     1       2.980  -6.681  -7.138  1.00  0.00    -0.550 OA
ENDBRANCH   1   2
BRANCH   1   5
ATOM      5  C   UNL     1       1.895  -3.933  -7.419  1.00  0.00     0.003 C 
ATOM      6  C   UNL     1       1.710  -2.606  -8.154  1.00  0.00     0.004 C 
ENDBRANCH   1   5
TORSDOF 2
ENDMDL
MODEL 7
REMARK VINA RESULT:    -2.758      7.580      8.000
REMARK INTER + INTRA:          -3.120
REMARK INTER:                  -3.109
REMARK INTRA:                  -0.011
REMARK UNBOUND:                -0.039
REMARK SMILES CCCC(=O)[O-]
REMARK SMILES IDX 3 1 4 2 5 3 6 4 2 5 1 6
REMARK H PARENT
REMARK Flexibility Score: inf
ROOT
ATOM      1  C   UNL     1      -0.866   6.499  -8.876  1.00  0.00     0.052 C 
ENDROOT
BRANCH   1   2
ATOM      2  C   UNL     1      -0.281   5.166  -9.235  1.00  0.00     0.041 C 
ATOM      3  O   UNL     1      -0.820   4.456 -10.125  1.00  0.00    -0.550 OA
ATOM      4  O   UNL     1       0.839   4.695  -8.563  1.00  0.00    -0.550 OA
ENDBRANCH   1   2
BRANCH   1   5
ATOM      5  C   UNL     1      -2.314   6.369  -8.390  1.00  0.00     0.003 C 
ATOM      6  C   UNL     1      -2.516   6.958  -6.994  1.00  0.00     0.004 C 
ENDBRANCH   1   5
TORSDOF 2
ENDMDL
MODEL 8
REMARK VINA RESULT:    -2.751      2.533      3.554
REMARK INTER + INTRA:          -3.112
REMARK INTER:                  -3.095
REMARK INTRA:                  -0.017
REMARK UNBOUND:                -0.039
REMARK SMILES CCCC(=O)[O-]
REMARK SMILES IDX 3 1 4 2 5 3 6 4 2 5 1 6
REMARK H PARENT
REMARK Flexibility Score: inf
ROOT
ATOM      1  C   UNL     1       6.316   7.775  -5.916  1.00  0.00     0.052 C 
ENDROOT
BRANCH   1   2
ATOM      2  C   UNL     1       6.076   8.027  -4.459  1.00  0.00     0.041 C 
ATOM      3  O   UNL     1       6.718   8.927  -3.856  1.00  0.00    -0.550 OA
ATOM      4  O   UNL     1       5.166   7.246  -3.759  1.00  0.00    -0.550 OA
ENDBRANCH   1   2
BRANCH   1   5
ATOM      5  C   UNL     1       7.777   8.037  -6.303  1.00  0.00     0.003 C 
ATOM      6  C   UNL     1       7.923   8.485  -7.757  1.00  0.00     0.004 C 
ENDBRANCH   1   5
TORSDOF 2
ENDMDL
MODEL 9
REMARK VINA RESULT:    -2.714      1.221      1.996
REMARK INTER + INTRA:          -3.071
REMARK INTER:                  -3.061
REMARK INTRA:                  -0.010
REMARK UNBOUND:                -0.039
REMARK SMILES CCCC(=O)[O-]
REMARK SMILES IDX 3 1 4 2 5 3 6 4 2 5 1 6
REMARK H PARENT
REMARK Flexibility Score: inf
ROOT
ATOM      1  C   UNL     1       6.317   6.854  -7.151  1.00  0.00     0.052 C 
ENDROOT
BRANCH   1   2
ATOM      2  C   UNL     1       5.687   7.145  -8.479  1.00  0.00     0.041 C 
ATOM      3  O   UNL     1       6.093   8.112  -9.176  1.00  0.00    -0.550 OA
ATOM      4  O   UNL     1       4.629   6.368  -8.932  1.00  0.00    -0.550 OA
ENDBRANCH   1   2
BRANCH   1   5
ATOM      5  C   UNL     1       6.598   8.139  -6.364  1.00  0.00     0.003 C 
ATOM      6  C   UNL     1       6.148   8.040  -4.906  1.00  0.00     0.004 C 
ENDBRANCH   1   5
TORSDOF 2
ENDMDL
