MODEL 1
REMARK VINA RESULT:    -3.640      0.000      0.000
REMARK INTER + INTRA:          -5.740
REMARK INTER:                  -5.129
REMARK INTRA:                  -0.611
REMARK UNBOUND:                -0.611
REMARK SMILES C=CCCCCCCC(=O)[O-]
REMARK SMILES IDX 6 1 7 2 8 3 9 4 10 5 11 6 5 7 4 8 3 9 2 10 1 11
REMARK H PARENT
REMARK Flexibility Score: inf
ROOT
ATOM      1  C   UNL     1      12.144  -4.123  30.570  1.00  0.00     0.000 C 
ENDROOT
BRANCH   1   2
ATOM      2  C   UNL     1      11.696  -5.508  31.059  1.00  0.00     0.006 C 
BRANCH   2   3
ATOM      3  C   UNL     1      10.742  -5.429  32.257  1.00  0.00     0.053 C 
BRANCH   3   4
ATOM      4  C   UNL     1      11.436  -4.828  33.439  1.00  0.00     0.041 C 
ATOM      5  O   UNL     1      12.516  -5.323  33.857  1.00  0.00    -0.550 OA
ATOM      6  O   UNL     1      10.865  -3.754  34.109  1.00  0.00    -0.550 OA
ENDBRANCH   3   4
ENDBRANCH   2   3
ENDBRANCH   1   2
BRANCH   1   7
ATOM      7  C   UNL     1      11.991  -3.954  29.048  1.00  0.00     0.000 C 
BRANCH   7   8
ATOM      8  C   UNL     1      11.075  -5.014  28.413  1.00  0.00     0.004 C 
BRANCH   8   9
ATOM      9  C   UNL     1       9.803  -4.433  27.774  1.00  0.00     0.027 C 
BRANCH   9  10
ATOM     10  C   UNL     1       8.897  -3.800  28.796  1.00  0.00    -0.035 C 
ATOM     11  C   UNL     1       8.599  -2.498  28.761  1.00  0.00     0.004 C 
ENDBRANCH   9  10
ENDBRANCH   8   9
ENDBRANCH   7   8
ENDBRANCH   1   7
TORSDOF 7
ENDMDL
MODEL 2
REMARK VINA RESULT:    -3.615      0.964      1.570
REMARK INTER + INTRA:          -5.704
REMARK INTER:                  -4.937
REMARK INTRA:                  -0.767
REMARK UNBOUND:                -0.611
REMARK SMILES C=CCCCCCCC(=O)[O-]
REMARK SMILES IDX 6 1 7 2 8 3 9 4 10 5 11 6 5 7 4 8 3 9 2 10 1 11
REMARK H PARENT
REMARK Flexibility Score: inf
ROOT
ATOM      1  C   UNL     1      11.907  -2.719  30.925  1.00  0.00     0.000 C 
ENDROOT
BRANCH   1   2
ATOM      2  C   UNL     1      10.716  -3.341  31.671  1.00  0.00     0.006 C 
BRANCH   2   3
ATOM      3  C   UNL     1      10.928  -4.828  31.982  1.00  0.00     0.053 C 
BRANCH   3   4
ATOM      4  C   UNL     1      11.582  -4.994  33.318  1.00  0.00     0.041 C 
ATOM      5  O   UNL     1      10.881  -5.053  34.362  1.00  0.00    -0.550 OA
ATOM      6  O   UNL     1      12.967  -5.034  33.413  1.00  0.00    -0.550 OA
ENDBRANCH   3   4
ENDBRANCH   2   3
ENDBRANCH   1   2
BRANCH   1   7
ATOM      7  C   UNL     1      12.553  -3.692  29.924  1.00  0.00     0.000 C 
BRANCH   7   8
ATOM      8  C   UNL     1      11.904  -3.640  28.529  1.00  0.00     0.004 C 
BRANCH   8   9
ATOM      9  C   UNL     1      11.005  -4.847  28.218  1.00  0.00     0.027 C 
BRANCH   9  10
ATOM     10  C   UNL     1       9.633  -4.425  27.763  1.00  0.00    -0.035 C 
ATOM     11  C   UNL     1       8.901  -3.548  28.456  1.00  0.00     0.004 C 
ENDBRANCH   9  10
ENDBRANCH   8   9
ENDBRANCH   7   8
ENDBRANCH   1   7
TORSDOF 7
ENDMDL
MODEL 3
REMARK VINA RESULT:    -3.582      3.038      4.939
REMARK INTER + INTRA:          -5.659
REMARK INTER:                  -5.057
REMARK INTRA:                  -0.601
REMARK UNBOUND:                -0.611
REMARK SMILES C=CCCCCCCC(=O)[O-]
REMARK SMILES IDX 6 1 7 2 8 3 9 4 10 5 11 6 5 7 4 8 3 9 2 10 1 11
REMARK H PARENT
REMARK Flexibility Score: inf
ROOT
ATOM      1  C   UNL     1      11.594  -5.771  31.223  1.00  0.00     0.000 C 
ENDROOT
BRANCH   1   2
ATOM      2  C   UNL     1      11.353  -5.249  29.798  1.00  0.00     0.006 C 
BRANCH   2   3
ATOM      3  C   UNL     1      10.456  -4.005  29.772  1.00  0.00     0.053 C 
BRANCH   3   4
ATOM      4  C   UNL     1       9.542  -4.045  28.587  1.00  0.00     0.041 C 
ATOM      5  O   UNL     1       8.462  -3.398  28.599  1.00  0.00    -0.550 OA
ATOM      6  O   UNL     1       9.860  -4.836  27.491  1.00  0.00    -0.550 OA
ENDBRANCH   3   4
ENDBRANCH   2   3
ENDBRANCH   1   2
BRANCH   1   7
ATOM      7  C   UNL     1      12.858  -5.176  31.866  1.00  0.00     0.000 C 
BRANCH   7   8
ATOM      8  C   UNL     1      12.720  -4.964  33.384  1.00  0.00     0.004 C 
BRANCH   8   9
ATOM      9  C   UNL     1      11.284  -4.652  33.838  1.00  0.00     0.027 C 
BRANCH   9  10
ATOM     10  C   UNL     1      11.077  -3.181  34.085  1.00  0.00    -0.035 C 
ATOM     11  C   UNL     1      10.778  -2.337  33.094  1.00  0.00     0.004 C 
ENDBRANCH   9  10
ENDBRANCH   8   9
ENDBRANCH   7   8
ENDBRANCH   1   7
TORSDOF 7
ENDMDL
MODEL 4
REMARK VINA RESULT:    -3.557      3.485      5.281
REMARK INTER + INTRA:          -5.623
REMARK INTER:                  -4.930
REMARK INTRA:                  -0.693
REMARK UNBOUND:                -0.611
REMARK SMILES C=CCCCCCCC(=O)[O-]
REMARK SMILES IDX 6 1 7 2 8 3 9 4 10 5 11 6 5 7 4 8 3 9 2 10 1 11
REMARK H PARENT
REMARK Flexibility Score: inf
ROOT
ATOM      1  C   UNL     1       8.964  -3.408  28.808  1.00  0.00     0.000 C 
ENDROOT
BRANCH   1   2
ATOM      2  C   UNL     1       9.271  -4.197  27.526  1.00  0.00     0.006 C 
BRANCH   2   3
ATOM      3  C   UNL     1      10.538  -5.053  27.651  1.00  0.00     0.053 C 
BRANCH   3   4
ATOM      4  C   UNL     1      11.632  -4.495  26.797  1.00  0.00     0.041 C 
ATOM      5  O   UNL     1      12.248  -3.457  27.157  1.00  0.00    -0.550 OA
ATOM      6  O   UNL     1      11.939  -5.092  25.582  1.00  0.00    -0.550 OA
ENDBRANCH   3   4
ENDBRANCH   2   3
ENDBRANCH   1   2
BRANCH   1   7
ATOM      7  C   UNL     1       9.842  -3.839  29.994  1.00  0.00     0.000 C 
BRANCH   7   8
ATOM      8  C   UNL     1      10.566  -2.661  30.669  1.00  0.00     0.004 C 
BRANCH   8   9
ATOM      9  C   UNL     1      12.098  -2.722  30.549  1.00  0.00     0.027 C 
BRANCH   9  10
ATOM     10  C   UNL     1      12.609  -4.138  30.585  1.00  0.00    -0.035 C 
ATOM     11  C   UNL     1      13.112  -4.676  31.700  1.00  0.00     0.004 C 
ENDBRANCH   9  10
ENDBRANCH   8   9
ENDBRANCH   7   8
ENDBRANCH   1   7
TORSDOF 7
ENDMDL
MODEL 5
REMARK VINA RESULT:    -3.549      2.587      3.534
REMARK INTER + INTRA:          -5.613
REMARK INTER:                  -4.763
REMARK INTRA:                  -0.849
REMARK UNBOUND:                -0.611
REMARK SMILES C=CCCCCCCC(=O)[O-]
REMARK SMILES IDX 6 1 7 2 8 3 9 4 10 5 11 6 5 7 4 8 3 9 2 10 1 11
REMARK H PARENT
REMARK Flexibility Score: inf
ROOT
ATOM      1  C   UNL     1      12.567  -4.738  33.791  1.00  0.00     0.000 C 
ENDROOT
BRANCH   1   2
ATOM      2  C   UNL     1      11.104  -4.270  33.800  1.00  0.00     0.006 C 
BRANCH   2   3
ATOM      3  C   UNL     1      10.965  -2.777  34.124  1.00  0.00     0.053 C 
BRANCH   3   4
ATOM      4  C   UNL     1      10.776  -1.985  32.868  1.00  0.00     0.041 C 
ATOM      5  O   UNL     1      11.409  -0.911  32.696  1.00  0.00    -0.550 OA
ATOM      6  O   UNL     1       9.862  -2.409  31.911  1.00  0.00    -0.550 OA
ENDBRANCH   3   4
ENDBRANCH   2   3
ENDBRANCH   1   2
BRANCH   1   7
ATOM      7  C   UNL     1      13.006  -5.287  32.422  1.00  0.00     0.000 C 
BRANCH   7   8
ATOM      8  C   UNL     1      11.821  -5.625  31.500  1.00  0.00     0.004 C 
BRANCH   8   9
ATOM      9  C   UNL     1      11.788  -4.799  30.204  1.00  0.00     0.027 C 
BRANCH   9  10
ATOM     10  C   UNL     1      12.778  -3.665  30.233  1.00  0.00    -0.035 C 
ATOM     11  C   UNL     1      12.531  -2.500  29.626  1.00  0.00     0.004 C 
ENDBRANCH   9  10
ENDBRANCH   8   9
ENDBRANCH   7   8
ENDBRANCH   1   7
TORSDOF 7
ENDMDL
MODEL 6
REMARK VINA RESULT:    -3.541      1.220      2.265
REMARK INTER + INTRA:          -5.601
REMARK INTER:                  -5.192
REMARK INTRA:                  -0.409
REMARK UNBOUND:                -0.611
REMARK SMILES C=CCCCCCCC(=O)[O-]
REMARK SMILES IDX 6 1 7 2 8 3 9 4 10 5 11 6 5 7 4 8 3 9 2 10 1 11
REMARK H PARENT
REMARK Flexibility Score: inf
ROOT
ATOM      1  C   UNL     1      11.015  -4.962  29.361  1.00  0.00     0.000 C 
ENDROOT
BRANCH   1   2
ATOM      2  C   UNL     1      11.576  -5.606  30.638  1.00  0.00     0.006 C 
BRANCH   2   3
ATOM      3  C   UNL     1      10.656  -5.410  31.850  1.00  0.00     0.053 C 
BRANCH   3   4
ATOM      4  C   UNL     1      11.454  -5.015  33.053  1.00  0.00     0.041 C 
ATOM      5  O   UNL     1      10.876  -4.776  34.145  1.00  0.00    -0.550 OA
ATOM      6  O   UNL     1      12.831  -4.862  32.954  1.00  0.00    -0.550 OA
ENDBRANCH   3   4
ENDBRANCH   2   3
ENDBRANCH   1   2
BRANCH   1   7
ATOM      7  C   UNL     1       9.789  -4.074  29.635  1.00  0.00     0.000 C 
BRANCH   7   8
ATOM      8  C   UNL     1       8.982  -3.753  28.365  1.00  0.00     0.004 C 
BRANCH   8   9
ATOM      9  C   UNL     1       9.792  -3.887  27.065  1.00  0.00     0.027 C 
BRANCH   9  10
ATOM     10  C   UNL     1       9.119  -4.798  26.073  1.00  0.00    -0.035 C 
ATOM     11  C   UNL     1       9.669  -5.955  25.694  1.00  0.00     0.004 C 
ENDBRANCH   9  10
ENDBRANCH   8   9
ENDBRANCH   7   8
ENDBRANCH   1   7
TORSDOF 7
ENDMDL
MODEL 7
REMARK VINA RESULT:    -3.482      3.726      5.698
REMARK INTER + INTRA:          -5.518
REMARK INTER:                  -5.126
REMARK INTRA:                  -0.392
REMARK UNBOUND:                -0.611
REMARK SMILES C=CCCCCCCC(=O)[O-]
REMARK SMILES IDX 6 1 7 2 8 3 9 4 10 5 11 6 5 7 4 8 3 9 2 10 1 11
REMARK H PARENT
REMARK Flexibility Score: inf
ROOT
ATOM      1  C   UNL     1      11.270  -4.085  29.832  1.00  0.00     0.000 C 
ENDROOT
BRANCH   1   2
ATOM      2  C   UNL     1      11.136  -5.250  28.840  1.00  0.00     0.006 C 
BRANCH   2   3
ATOM      3  C   UNL     1      10.159  -4.942  27.698  1.00  0.00     0.053 C 
BRANCH   3   4
ATOM      4  C   UNL     1      10.609  -5.602  26.433  1.00  0.00     0.041 C 
ATOM      5  O   UNL     1      11.836  -5.666  26.154  1.00  0.00    -0.550 OA
ATOM      6  O   UNL     1       9.672  -6.103  25.538  1.00  0.00    -0.550 OA
ENDBRANCH   3   4
ENDBRANCH   2   3
ENDBRANCH   1   2
BRANCH   1   7
ATOM      7  C   UNL     1      10.331  -4.225  31.042  1.00  0.00     0.000 C 
BRANCH   7   8
ATOM      8  C   UNL     1      10.701  -5.403  31.959  1.00  0.00     0.004 C 
BRANCH   8   9
ATOM      9  C   UNL     1      11.041  -4.984  33.400  1.00  0.00     0.027 C 
BRANCH   9  10
ATOM     10  C   UNL     1      12.517  -5.085  33.683  1.00  0.00    -0.035 C 
ATOM     11  C   UNL     1      13.404  -5.329  32.713  1.00  0.00     0.004 C 
ENDBRANCH   9  10
ENDBRANCH   8   9
ENDBRANCH   7   8
ENDBRANCH   1   7
TORSDOF 7
ENDMDL
MODEL 8
REMARK VINA RESULT:    -3.447      4.514      5.775
REMARK INTER + INTRA:          -5.468
REMARK INTER:                  -4.676
REMARK INTRA:                  -0.792
REMARK UNBOUND:                -0.611
REMARK SMILES C=CCCCCCCC(=O)[O-]
REMARK SMILES IDX 6 1 7 2 8 3 9 4 10 5 11 6 5 7 4 8 3 9 2 10 1 11
REMARK H PARENT
REMARK Flexibility Score: inf
ROOT
ATOM      1  C   UNL     1      11.188  -5.076  28.606  1.00  0.00     0.000 C 
ENDROOT
BRANCH   1   2
ATOM      2  C   UNL     1      10.693  -5.425  27.194  1.00  0.00     0.006 C 
BRANCH   2   3
ATOM      3  C   UNL     1      11.642  -4.925  26.097  1.00  0.00     0.053 C 
BRANCH   3   4
ATOM      4  C   UNL     1      10.880  -4.627  24.844  1.00  0.00     0.041 C 
ATOM      5  O   UNL     1       9.667  -4.295  24.904  1.00  0.00    -0.550 OA
ATOM      6  O   UNL     1      11.496  -4.764  23.607  1.00  0.00    -0.550 OA
ENDBRANCH   3   4
ENDBRANCH   2   3
ENDBRANCH   1   2
BRANCH   1   7
ATOM      7  C   UNL     1      10.146  -4.292  29.422  1.00  0.00     0.000 C 
BRANCH   7   8
ATOM      8  C   UNL     1       8.969  -3.786  28.570  1.00  0.00     0.004 C 
BRANCH   8   9
ATOM      9  C   UNL     1       8.819  -2.255  28.567  1.00  0.00     0.027 C 
BRANCH   9  10
ATOM     10  C   UNL     1      10.064  -1.568  28.072  1.00  0.00    -0.035 C 
ATOM     11  C   UNL     1      10.294  -1.381  26.769  1.00  0.00     0.004 C 
ENDBRANCH   9  10
ENDBRANCH   8   9
ENDBRANCH   7   8
ENDBRANCH   1   7
TORSDOF 7
ENDMDL
MODEL 9
REMARK VINA RESULT:    -3.447      3.054      4.941
REMARK INTER + INTRA:          -5.468
REMARK INTER:                  -4.795
REMARK INTRA:                  -0.673
REMARK UNBOUND:                -0.611
REMARK SMILES C=CCCCCCCC(=O)[O-]
REMARK SMILES IDX 6 1 7 2 8 3 9 4 10 5 11 6 5 7 4 8 3 9 2 10 1 11
REMARK H PARENT
REMARK Flexibility Score: inf
ROOT
ATOM      1  C   UNL     1      12.236  -3.833  30.128  1.00  0.00     0.000 C 
ENDROOT
BRANCH   1   2
ATOM      2  C   UNL     1      11.226  -2.758  29.695  1.00  0.00     0.006 C 
BRANCH   2   3
ATOM      3  C   UNL     1       9.792  -3.092  30.123  1.00  0.00     0.053 C 
BRANCH   3   4
ATOM      4  C   UNL     1       8.852  -2.930  28.970  1.00  0.00     0.041 C 
ATOM      5  O   UNL     1       8.037  -1.970  28.949  1.00  0.00    -0.550 OA
ATOM      6  O   UNL     1       8.842  -3.866  27.944  1.00  0.00    -0.550 OA
ENDBRANCH   3   4
ENDBRANCH   2   3
ENDBRANCH   1   2
BRANCH   1   7
ATOM      7  C   UNL     1      11.604  -5.232  30.233  1.00  0.00     0.000 C 
BRANCH   7   8
ATOM      8  C   UNL     1      11.937  -5.946  31.554  1.00  0.00     0.004 C 
BRANCH   8   9
ATOM      9  C   UNL     1      12.978  -5.208  32.413  1.00  0.00     0.027 C 
BRANCH   9  10
ATOM     10  C   UNL     1      12.411  -4.779  33.740  1.00  0.00    -0.035 C 
ATOM     11  C   UNL     1      11.252  -4.119  33.829  1.00  0.00     0.004 C 
ENDBRANCH   9  10
ENDBRANCH   8   9
ENDBRANCH   7   8
ENDBRANCH   1   7
TORSDOF 7
ENDMDL
