MODEL 1
REMARK VINA RESULT:    -2.959      0.000      0.000
REMARK INTER + INTRA:         -13.122
REMARK INTER:                  -7.716
REMARK INTRA:                  -5.407
REMARK UNBOUND:                -5.407
REMARK SMILES CCCCCCCCCCCCCCCCCCCCCCCCCCCCCO
REMARK SMILES IDX 16 1 15 2 14 3 13 4 12 5 11 6 10 7 9 8 8 9 7 10 6 11 5 12
REMARK SMILES IDX 4 13 3 14 2 15 1 16 17 17 18 18 19 19 20 20 21 21 22 22
REMARK SMILES IDX 23 23 24 24 25 25 26 26 27 27 28 28 29 29 30 30
REMARK H PARENT 30 31
REMARK Flexibility Score: inf
ROOT
ATOM      1  C   UNL     1     137.341 140.984 144.551  1.00  0.00     0.000 C 
ENDROOT
BRANCH   1   2
ATOM      2  C   UNL     1     136.626 142.198 143.937  1.00  0.00     0.000 C 
BRANCH   2   3
ATOM      3  C   UNL     1     135.385 141.800 143.122  1.00  0.00     0.000 C 
BRANCH   3   4
ATOM      4  C   UNL     1     135.270 142.575 141.797  1.00  0.00     0.000 C 
BRANCH   4   5
ATOM      5  C   UNL     1     136.244 142.059 140.725  1.00  0.00     0.000 C 
BRANCH   5   6
ATOM      6  C   UNL     1     136.355 140.523 140.722  1.00  0.00     0.000 C 
BRANCH   6   7
ATOM      7  C   UNL     1     137.796 140.035 140.940  1.00  0.00     0.000 C 
BRANCH   7   8
ATOM      8  C   UNL     1     138.847 141.109 140.621  1.00  0.00    -0.000 C 
BRANCH   8   9
ATOM      9  C   UNL     1     140.014 141.041 141.613  1.00  0.00    -0.000 C 
BRANCH   9  10
ATOM     10  C   UNL     1     141.290 140.533 140.931  1.00  0.00    -0.000 C 
BRANCH  10  11
ATOM     11  C   UNL     1     142.210 139.834 141.938  1.00  0.00    -0.000 C 
BRANCH  11  12
ATOM     12  C   UNL     1     141.614 139.883 143.354  1.00  0.00    -0.000 C 
BRANCH  12  13
ATOM     13  C   UNL     1     141.978 138.650 144.201  1.00  0.00    -0.000 C 
BRANCH  13  14
ATOM     14  C   UNL     1     140.805 137.701 144.505  1.00  0.00    -0.000 C 
BRANCH  14  15
ATOM     15  C   UNL     1     139.559 137.999 143.657  1.00  0.00    -0.003 C 
ATOM     16  C   UNL     1     139.415 136.992 142.518  1.00  0.00     0.004 C 
ENDBRANCH  14  15
ENDBRANCH  13  14
ENDBRANCH  12  13
ENDBRANCH  11  12
ENDBRANCH  10  11
ENDBRANCH   9  10
ENDBRANCH   8   9
ENDBRANCH   7   8
ENDBRANCH   6   7
ENDBRANCH   5   6
ENDBRANCH   4   5
ENDBRANCH   3   4
ENDBRANCH   2   3
ENDBRANCH   1   2
BRANCH   1  17
ATOM     17  C   UNL     1     138.765 141.347 144.996  1.00  0.00     0.000 C 
BRANCH  17  18
ATOM     18  C   UNL     1     139.105 142.829 144.760  1.00  0.00     0.000 C 
BRANCH  18  19
ATOM     19  C   UNL     1     140.558 143.197 145.125  1.00  0.00     0.000 C 
BRANCH  19  20
ATOM     20  C   UNL     1     140.914 144.640 144.724  1.00  0.00     0.000 C 
BRANCH  20  21
ATOM     21  C   UNL     1     142.223 144.720 143.921  1.00  0.00     0.000 C 
BRANCH  21  22
ATOM     22  C   UNL     1     142.323 143.619 142.851  1.00  0.00     0.000 C 
BRANCH  22  23
ATOM     23  C   UNL     1     142.177 144.170 141.421  1.00  0.00     0.000 C 
BRANCH  23  24
ATOM     24  C   UNL     1     140.736 144.541 141.013  1.00  0.00     0.000 C 
BRANCH  24  25
ATOM     25  C   UNL     1     140.610 145.762 140.075  1.00  0.00     0.000 C 
BRANCH  25  26
ATOM     26  C   UNL     1     140.013 147.023 140.726  1.00  0.00     0.000 C 
BRANCH  26  27
ATOM     27  C   UNL     1     140.917 147.613 141.817  1.00  0.00     0.002 C 
BRANCH  27  28
ATOM     28  C   UNL     1     142.260 148.066 141.229  1.00  0.00     0.028 C 
BRANCH  28  29
ATOM     29  C   UNL     1     142.156 149.444 140.569  1.00  0.00     0.156 C 
BRANCH  29  30
ATOM     30  O   UNL     1     141.441 150.339 141.376  1.00  0.00    -0.396 OA
ATOM     31  H   UNL     1     141.864 150.316 142.275  1.00  0.00     0.210 HD
ENDBRANCH  29  30
ENDBRANCH  28  29
ENDBRANCH  27  28
ENDBRANCH  26  27
ENDBRANCH  25  26
ENDBRANCH  24  25
ENDBRANCH  23  24
ENDBRANCH  22  23
ENDBRANCH  21  22
ENDBRANCH  20  21
ENDBRANCH  19  20
ENDBRANCH  18  19
ENDBRANCH  17  18
ENDBRANCH   1  17
TORSDOF 28
ENDMDL
MODEL 2
REMARK VINA RESULT:    -2.926      3.276      5.645
REMARK INTER + INTRA:         -13.036
REMARK INTER:                  -7.626
REMARK INTRA:                  -5.411
REMARK UNBOUND:                -5.407
REMARK SMILES CCCCCCCCCCCCCCCCCCCCCCCCCCCCCO
REMARK SMILES IDX 16 1 15 2 14 3 13 4 12 5 11 6 10 7 9 8 8 9 7 10 6 11 5 12
REMARK SMILES IDX 4 13 3 14 2 15 1 16 17 17 18 18 19 19 20 20 21 21 22 22
REMARK SMILES IDX 23 23 24 24 25 25 26 26 27 27 28 28 29 29 30 30
REMARK H PARENT 30 31
REMARK Flexibility Score: inf
ROOT
ATOM      1  C   UNL     1     139.817 141.313 140.340  1.00  0.00     0.000 C 
ENDROOT
BRANCH   1   2
ATOM      2  C   UNL     1     138.347 141.745 140.463  1.00  0.00     0.000 C 
BRANCH   2   3
ATOM      3  C   UNL     1     137.377 140.552 140.428  1.00  0.00     0.000 C 
BRANCH   3   4
ATOM      4  C   UNL     1     136.191 140.721 141.394  1.00  0.00     0.000 C 
BRANCH   4   5
ATOM      5  C   UNL     1     136.063 142.158 141.925  1.00  0.00     0.000 C 
BRANCH   5   6
ATOM      6  C   UNL     1     135.629 142.203 143.402  1.00  0.00     0.000 C 
BRANCH   6   7
ATOM      7  C   UNL     1     136.822 142.296 144.366  1.00  0.00     0.000 C 
BRANCH   7   8
ATOM      8  C   UNL     1     137.103 140.976 145.100  1.00  0.00    -0.000 C 
BRANCH   8   9
ATOM      9  C   UNL     1     138.562 140.546 144.909  1.00  0.00    -0.000 C 
BRANCH   9  10
ATOM     10  C   UNL     1     138.687 139.492 143.802  1.00  0.00    -0.000 C 
BRANCH  10  11
ATOM     11  C   UNL     1     139.220 138.168 144.362  1.00  0.00    -0.000 C 
BRANCH  11  12
ATOM     12  C   UNL     1     139.801 137.291 143.243  1.00  0.00    -0.000 C 
BRANCH  12  13
ATOM     13  C   UNL     1     140.828 138.034 142.369  1.00  0.00    -0.000 C 
BRANCH  13  14
ATOM     14  C   UNL     1     140.632 137.867 140.852  1.00  0.00    -0.000 C 
BRANCH  14  15
ATOM     15  C   UNL     1     141.948 137.601 140.105  1.00  0.00    -0.003 C 
ATOM     16  C   UNL     1     142.498 138.885 139.486  1.00  0.00     0.004 C 
ENDBRANCH  14  15
ENDBRANCH  13  14
ENDBRANCH  12  13
ENDBRANCH  11  12
ENDBRANCH  10  11
ENDBRANCH   9  10
ENDBRANCH   8   9
ENDBRANCH   7   8
ENDBRANCH   6   7
ENDBRANCH   5   6
ENDBRANCH   4   5
ENDBRANCH   3   4
ENDBRANCH   2   3
ENDBRANCH   1   2
BRANCH   1  17
ATOM     17  C   UNL     1     140.634 141.781 141.553  1.00  0.00     0.000 C 
BRANCH  17  18
ATOM     18  C   UNL     1     139.937 142.899 142.347  1.00  0.00     0.000 C 
BRANCH  18  19
ATOM     19  C   UNL     1     140.703 144.239 142.332  1.00  0.00     0.000 C 
BRANCH  19  20
ATOM     20  C   UNL     1     142.097 144.122 142.973  1.00  0.00     0.000 C 
BRANCH  20  21
ATOM     21  C   UNL     1     142.029 143.972 144.501  1.00  0.00     0.000 C 
BRANCH  21  22
ATOM     22  C   UNL     1     142.909 142.821 145.017  1.00  0.00     0.000 C 
BRANCH  22  23
ATOM     23  C   UNL     1     142.141 141.492 145.125  1.00  0.00     0.000 C 
BRANCH  23  24
ATOM     24  C   UNL     1     142.742 140.327 144.309  1.00  0.00     0.000 C 
BRANCH  24  25
ATOM     25  C   UNL     1     143.770 140.739 143.232  1.00  0.00     0.000 C 
BRANCH  25  26
ATOM     26  C   UNL     1     144.619 139.584 142.669  1.00  0.00     0.000 C 
BRANCH  26  27
ATOM     27  C   UNL     1     145.902 140.070 141.982  1.00  0.00     0.002 C 
BRANCH  27  28
ATOM     28  C   UNL     1     145.988 139.541 140.544  1.00  0.00     0.028 C 
BRANCH  28  29
ATOM     29  C   UNL     1     147.215 138.645 140.341  1.00  0.00     0.156 C 
BRANCH  29  30
ATOM     30  O   UNL     1     147.114 137.469 141.097  1.00  0.00    -0.396 OA
ATOM     31  H   UNL     1     148.038 137.122 141.212  1.00  0.00     0.210 HD
ENDBRANCH  29  30
ENDBRANCH  28  29
ENDBRANCH  27  28
ENDBRANCH  26  27
ENDBRANCH  25  26
ENDBRANCH  24  25
ENDBRANCH  23  24
ENDBRANCH  22  23
ENDBRANCH  21  22
ENDBRANCH  20  21
ENDBRANCH  19  20
ENDBRANCH  18  19
ENDBRANCH  17  18
ENDBRANCH   1  17
TORSDOF 28
ENDMDL
MODEL 3
REMARK VINA RESULT:    -2.858      2.441      4.393
REMARK INTER + INTRA:         -12.860
REMARK INTER:                  -7.791
REMARK INTRA:                  -5.070
REMARK UNBOUND:                -5.407
REMARK SMILES CCCCCCCCCCCCCCCCCCCCCCCCCCCCCO
REMARK SMILES IDX 16 1 15 2 14 3 13 4 12 5 11 6 10 7 9 8 8 9 7 10 6 11 5 12
REMARK SMILES IDX 4 13 3 14 2 15 1 16 17 17 18 18 19 19 20 20 21 21 22 22
REMARK SMILES IDX 23 23 24 24 25 25 26 26 27 27 28 28 29 29 30 30
REMARK H PARENT 30 31
REMARK Flexibility Score: inf
ROOT
ATOM      1  C   UNL     1     138.086 140.532 143.193  1.00  0.00     0.000 C 
ENDROOT
BRANCH   1   2
ATOM      2  C   UNL     1     138.509 139.616 144.352  1.00  0.00     0.000 C 
BRANCH   2   3
ATOM      3  C   UNL     1     140.035 139.559 144.532  1.00  0.00     0.000 C 
BRANCH   3   4
ATOM      4  C   UNL     1     140.614 138.159 144.259  1.00  0.00     0.000 C 
BRANCH   4   5
ATOM      5  C   UNL     1     140.403 137.706 142.805  1.00  0.00     0.000 C 
BRANCH   5   6
ATOM      6  C   UNL     1     141.605 138.042 141.903  1.00  0.00     0.000 C 
BRANCH   6   7
ATOM      7  C   UNL     1     141.300 137.837 140.411  1.00  0.00     0.000 C 
BRANCH   7   8
ATOM      8  C   UNL     1     142.176 138.706 139.496  1.00  0.00    -0.000 C 
BRANCH   8   9
ATOM      9  C   UNL     1     143.576 138.886 140.093  1.00  0.00    -0.000 C 
BRANCH   9  10
ATOM     10  C   UNL     1     144.639 138.981 138.991  1.00  0.00    -0.000 C 
BRANCH  10  11
ATOM     11  C   UNL     1     145.849 139.794 139.464  1.00  0.00    -0.000 C 
BRANCH  11  12
ATOM     12  C   UNL     1     145.492 140.652 140.688  1.00  0.00    -0.000 C 
BRANCH  12  13
ATOM     13  C   UNL     1     146.695 140.906 141.614  1.00  0.00    -0.000 C 
BRANCH  13  14
ATOM     14  C   UNL     1     146.790 139.967 142.829  1.00  0.00    -0.000 C 
BRANCH  14  15
ATOM     15  C   UNL     1     145.433 139.375 143.235  1.00  0.00    -0.003 C 
ATOM     16  C   UNL     1     145.263 139.379 144.753  1.00  0.00     0.004 C 
ENDBRANCH  14  15
ENDBRANCH  13  14
ENDBRANCH  12  13
ENDBRANCH  11  12
ENDBRANCH  10  11
ENDBRANCH   9  10
ENDBRANCH   8   9
ENDBRANCH   7   8
ENDBRANCH   6   7
ENDBRANCH   5   6
ENDBRANCH   4   5
ENDBRANCH   3   4
ENDBRANCH   2   3
ENDBRANCH   1   2
BRANCH   1  17
ATOM     17  C   UNL     1     138.698 141.932 143.343  1.00  0.00     0.000 C 
BRANCH  17  18
ATOM     18  C   UNL     1     139.360 142.436 142.049  1.00  0.00     0.000 C 
BRANCH  18  19
ATOM     19  C   UNL     1     140.434 141.479 141.490  1.00  0.00     0.000 C 
BRANCH  19  20
ATOM     20  C   UNL     1     141.859 142.036 141.662  1.00  0.00     0.000 C 
BRANCH  20  21
ATOM     21  C   UNL     1     142.613 141.369 142.823  1.00  0.00     0.000 C 
BRANCH  21  22
ATOM     22  C   UNL     1     143.006 142.372 143.921  1.00  0.00     0.000 C 
BRANCH  22  23
ATOM     23  C   UNL     1     141.864 142.634 144.918  1.00  0.00     0.000 C 
BRANCH  23  24
ATOM     24  C   UNL     1     141.352 144.091 144.950  1.00  0.00     0.000 C 
BRANCH  24  25
ATOM     25  C   UNL     1     142.163 145.093 144.099  1.00  0.00     0.000 C 
BRANCH  25  26
ATOM     26  C   UNL     1     141.546 145.430 142.729  1.00  0.00     0.000 C 
BRANCH  26  27
ATOM     27  C   UNL     1     141.362 146.939 142.516  1.00  0.00     0.002 C 
BRANCH  27  28
ATOM     28  C   UNL     1     140.419 147.215 141.338  1.00  0.00     0.028 C 
BRANCH  28  29
ATOM     29  C   UNL     1     140.193 148.716 141.130  1.00  0.00     0.156 C 
BRANCH  29  30
ATOM     30  O   UNL     1     139.612 149.302 142.263  1.00  0.00    -0.396 OA
ATOM     31  H   UNL     1     140.335 149.400 142.938  1.00  0.00     0.210 HD
ENDBRANCH  29  30
ENDBRANCH  28  29
ENDBRANCH  27  28
ENDBRANCH  26  27
ENDBRANCH  25  26
ENDBRANCH  24  25
ENDBRANCH  23  24
ENDBRANCH  22  23
ENDBRANCH  21  22
ENDBRANCH  20  21
ENDBRANCH  19  20
ENDBRANCH  18  19
ENDBRANCH  17  18
ENDBRANCH   1  17
TORSDOF 28
ENDMDL
MODEL 4
REMARK VINA RESULT:    -2.832      2.927      7.630
REMARK INTER + INTRA:         -12.791
REMARK INTER:                  -7.004
REMARK INTRA:                  -5.787
REMARK UNBOUND:                -5.407
REMARK SMILES CCCCCCCCCCCCCCCCCCCCCCCCCCCCCO
REMARK SMILES IDX 16 1 15 2 14 3 13 4 12 5 11 6 10 7 9 8 8 9 7 10 6 11 5 12
REMARK SMILES IDX 4 13 3 14 2 15 1 16 17 17 18 18 19 19 20 20 21 21 22 22
REMARK SMILES IDX 23 23 24 24 25 25 26 26 27 27 28 28 29 29 30 30
REMARK H PARENT 30 31
REMARK Flexibility Score: inf
ROOT
ATOM      1  C   UNL     1     138.755 142.175 141.499  1.00  0.00     0.000 C 
ENDROOT
BRANCH   1   2
ATOM      2  C   UNL     1     139.180 141.209 140.383  1.00  0.00     0.000 C 
BRANCH   2   3
ATOM      3  C   UNL     1     140.443 141.681 139.644  1.00  0.00     0.000 C 
BRANCH   3   4
ATOM      4  C   UNL     1     141.312 142.624 140.495  1.00  0.00     0.000 C 
BRANCH   4   5
ATOM      5  C   UNL     1     142.769 142.145 140.606  1.00  0.00     0.000 C 
BRANCH   5   6
ATOM      6  C   UNL     1     143.243 142.037 142.066  1.00  0.00     0.000 C 
BRANCH   6   7
ATOM      7  C   UNL     1     142.152 141.493 143.003  1.00  0.00     0.000 C 
BRANCH   7   8
ATOM      8  C   UNL     1     142.269 142.035 144.436  1.00  0.00    -0.000 C 
BRANCH   8   9
ATOM      9  C   UNL     1     140.899 142.471 144.967  1.00  0.00    -0.000 C 
BRANCH   9  10
ATOM     10  C   UNL     1     140.595 143.925 144.583  1.00  0.00    -0.000 C 
BRANCH  10  11
ATOM     11  C   UNL     1     141.783 144.838 144.907  1.00  0.00    -0.000 C 
BRANCH  11  12
ATOM     12  C   UNL     1     141.879 145.995 143.900  1.00  0.00    -0.000 C 
BRANCH  12  13
ATOM     13  C   UNL     1     142.124 145.517 142.458  1.00  0.00    -0.000 C 
BRANCH  13  14
ATOM     14  C   UNL     1     141.253 146.201 141.389  1.00  0.00    -0.000 C 
BRANCH  14  15
ATOM     15  C   UNL     1     140.903 147.654 141.743  1.00  0.00    -0.003 C 
ATOM     16  C   UNL     1     139.645 148.111 141.008  1.00  0.00     0.004 C 
ENDBRANCH  14  15
ENDBRANCH  13  14
ENDBRANCH  12  13
ENDBRANCH  11  12
ENDBRANCH  10  11
ENDBRANCH   9  10
ENDBRANCH   8   9
ENDBRANCH   7   8
ENDBRANCH   6   7
ENDBRANCH   5   6
ENDBRANCH   4   5
ENDBRANCH   3   4
ENDBRANCH   2   3
ENDBRANCH   1   2
BRANCH   1  17
ATOM     17  C   UNL     1     138.268 141.410 142.738  1.00  0.00     0.000 C 
BRANCH  17  18
ATOM     18  C   UNL     1     138.642 139.919 142.704  1.00  0.00     0.000 C 
BRANCH  18  19
ATOM     19  C   UNL     1     138.736 139.272 144.102  1.00  0.00     0.000 C 
BRANCH  19  20
ATOM     20  C   UNL     1     140.187 138.936 144.494  1.00  0.00     0.000 C 
BRANCH  20  21
ATOM     21  C   UNL     1     140.316 137.540 145.124  1.00  0.00     0.000 C 
BRANCH  21  22
ATOM     22  C   UNL     1     139.234 136.568 144.623  1.00  0.00     0.000 C 
BRANCH  22  23
ATOM     23  C   UNL     1     139.790 135.519 143.643  1.00  0.00     0.000 C 
BRANCH  23  24
ATOM     24  C   UNL     1     139.180 135.570 142.225  1.00  0.00     0.000 C 
BRANCH  24  25
ATOM     25  C   UNL     1     139.696 136.716 141.327  1.00  0.00     0.000 C 
BRANCH  25  26
ATOM     26  C   UNL     1     141.216 136.950 141.380  1.00  0.00     0.000 C 
BRANCH  26  27
ATOM     27  C   UNL     1     141.601 138.416 141.138  1.00  0.00     0.002 C 
BRANCH  27  28
ATOM     28  C   UNL     1     142.576 138.540 139.960  1.00  0.00     0.028 C 
BRANCH  28  29
ATOM     29  C   UNL     1     142.115 137.718 138.752  1.00  0.00     0.156 C 
BRANCH  29  30
ATOM     30  O   UNL     1     140.948 138.255 138.191  1.00  0.00    -0.396 OA
ATOM     31  H   UNL     1     140.702 139.044 138.742  1.00  0.00     0.210 HD
ENDBRANCH  29  30
ENDBRANCH  28  29
ENDBRANCH  27  28
ENDBRANCH  26  27
ENDBRANCH  25  26
ENDBRANCH  24  25
ENDBRANCH  23  24
ENDBRANCH  22  23
ENDBRANCH  21  22
ENDBRANCH  20  21
ENDBRANCH  19  20
ENDBRANCH  18  19
ENDBRANCH  17  18
ENDBRANCH   1  17
TORSDOF 28
ENDMDL
MODEL 5
REMARK VINA RESULT:    -2.820      3.324      6.976
REMARK INTER + INTRA:         -12.761
REMARK INTER:                  -7.696
REMARK INTRA:                  -5.065
REMARK UNBOUND:                -5.407
REMARK SMILES CCCCCCCCCCCCCCCCCCCCCCCCCCCCCO
REMARK SMILES IDX 16 1 15 2 14 3 13 4 12 5 11 6 10 7 9 8 8 9 7 10 6 11 5 12
REMARK SMILES IDX 4 13 3 14 2 15 1 16 17 17 18 18 19 19 20 20 21 21 22 22
REMARK SMILES IDX 23 23 24 24 25 25 26 26 27 27 28 28 29 29 30 30
REMARK H PARENT 30 31
REMARK Flexibility Score: inf
ROOT
ATOM      1  C   UNL     1     139.578 140.816 140.919  1.00  0.00     0.000 C 
ENDROOT
BRANCH   1   2
ATOM      2  C   UNL     1     140.348 141.619 141.979  1.00  0.00     0.000 C 
BRANCH   2   3
ATOM      3  C   UNL     1     139.450 142.616 142.729  1.00  0.00     0.000 C 
BRANCH   3   4
ATOM      4  C   UNL     1     139.532 142.457 144.258  1.00  0.00     0.000 C 
BRANCH   4   5
ATOM      5  C   UNL     1     140.311 143.599 144.930  1.00  0.00     0.000 C 
BRANCH   5   6
ATOM      6  C   UNL     1     141.833 143.371 144.898  1.00  0.00     0.000 C 
BRANCH   6   7
ATOM      7  C   UNL     1     142.622 144.676 144.701  1.00  0.00     0.000 C 
BRANCH   7   8
ATOM      8  C   UNL     1     141.779 145.796 144.074  1.00  0.00    -0.000 C 
BRANCH   8   9
ATOM      9  C   UNL     1     142.235 146.083 142.639  1.00  0.00    -0.000 C 
BRANCH   9  10
ATOM     10  C   UNL     1     141.035 146.195 141.690  1.00  0.00    -0.000 C 
BRANCH  10  11
ATOM     11  C   UNL     1     141.037 145.054 140.666  1.00  0.00    -0.000 C 
BRANCH  11  12
ATOM     12  C   UNL     1     142.356 144.268 140.719  1.00  0.00    -0.000 C 
BRANCH  12  13
ATOM     13  C   UNL     1     142.750 143.664 139.360  1.00  0.00    -0.000 C 
BRANCH  13  14
ATOM     14  C   UNL     1     143.899 144.387 138.635  1.00  0.00    -0.000 C 
BRANCH  14  15
ATOM     15  C   UNL     1     144.761 143.440 137.787  1.00  0.00    -0.003 C 
ATOM     16  C   UNL     1     145.857 142.791 138.630  1.00  0.00     0.004 C 
ENDBRANCH  14  15
ENDBRANCH  13  14
ENDBRANCH  12  13
ENDBRANCH  11  12
ENDBRANCH  10  11
ENDBRANCH   9  10
ENDBRANCH   8   9
ENDBRANCH   7   8
ENDBRANCH   6   7
ENDBRANCH   5   6
ENDBRANCH   4   5
ENDBRANCH   3   4
ENDBRANCH   2   3
ENDBRANCH   1   2
BRANCH   1  17
ATOM     17  C   UNL     1     138.433 140.014 141.554  1.00  0.00     0.000 C 
BRANCH  17  18
ATOM     18  C   UNL     1     138.924 139.003 142.605  1.00  0.00     0.000 C 
BRANCH  18  19
ATOM     19  C   UNL     1     139.992 138.025 142.072  1.00  0.00     0.000 C 
BRANCH  19  20
ATOM     20  C   UNL     1     141.259 138.010 142.946  1.00  0.00     0.000 C 
BRANCH  20  21
ATOM     21  C   UNL     1     141.032 138.665 144.318  1.00  0.00     0.000 C 
BRANCH  21  22
ATOM     22  C   UNL     1     142.124 139.691 144.666  1.00  0.00     0.000 C 
BRANCH  22  23
ATOM     23  C   UNL     1     143.363 139.567 143.761  1.00  0.00     0.000 C 
BRANCH  23  24
ATOM     24  C   UNL     1     143.866 140.899 143.164  1.00  0.00     0.000 C 
BRANCH  24  25
ATOM     25  C   UNL     1     144.083 140.896 141.635  1.00  0.00     0.000 C 
BRANCH  25  26
ATOM     26  C   UNL     1     145.312 140.104 141.155  1.00  0.00     0.000 C 
BRANCH  26  27
ATOM     27  C   UNL     1     146.531 140.288 142.068  1.00  0.00     0.002 C 
BRANCH  27  28
ATOM     28  C   UNL     1     147.830 140.311 141.252  1.00  0.00     0.028 C 
BRANCH  28  29
ATOM     29  C   UNL     1     148.439 141.715 141.192  1.00  0.00     0.156 C 
BRANCH  29  30
ATOM     30  O   UNL     1     149.090 142.036 142.392  1.00  0.00    -0.396 OA
ATOM     31  H   UNL     1     148.516 142.697 142.862  1.00  0.00     0.210 HD
ENDBRANCH  29  30
ENDBRANCH  28  29
ENDBRANCH  27  28
ENDBRANCH  26  27
ENDBRANCH  25  26
ENDBRANCH  24  25
ENDBRANCH  23  24
ENDBRANCH  22  23
ENDBRANCH  21  22
ENDBRANCH  20  21
ENDBRANCH  19  20
ENDBRANCH  18  19
ENDBRANCH  17  18
ENDBRANCH   1  17
TORSDOF 28
ENDMDL
MODEL 6
REMARK VINA RESULT:    -2.793      3.471      6.754
REMARK INTER + INTRA:         -12.689
REMARK INTER:                  -8.278
REMARK INTRA:                  -4.411
REMARK UNBOUND:                -5.407
REMARK SMILES CCCCCCCCCCCCCCCCCCCCCCCCCCCCCO
REMARK SMILES IDX 16 1 15 2 14 3 13 4 12 5 11 6 10 7 9 8 8 9 7 10 6 11 5 12
REMARK SMILES IDX 4 13 3 14 2 15 1 16 17 17 18 18 19 19 20 20 21 21 22 22
REMARK SMILES IDX 23 23 24 24 25 25 26 26 27 27 28 28 29 29 30 30
REMARK H PARENT 30 31
REMARK Flexibility Score: inf
ROOT
ATOM      1  C   UNL     1     142.465 142.704 142.705  1.00  0.00     0.000 C 
ENDROOT
BRANCH   1   2
ATOM      2  C   UNL     1     142.518 141.983 144.061  1.00  0.00     0.000 C 
BRANCH   2   3
ATOM      3  C   UNL     1     143.632 140.925 144.124  1.00  0.00     0.000 C 
BRANCH   3   4
ATOM      4  C   UNL     1     143.099 139.490 143.965  1.00  0.00     0.000 C 
BRANCH   4   5
ATOM      5  C   UNL     1     142.930 139.083 142.492  1.00  0.00     0.000 C 
BRANCH   5   6
ATOM      6  C   UNL     1     141.591 138.370 142.229  1.00  0.00     0.000 C 
BRANCH   6   7
ATOM      7  C   UNL     1     140.435 139.353 141.987  1.00  0.00     0.000 C 
BRANCH   7   8
ATOM      8  C   UNL     1     139.136 138.935 142.692  1.00  0.00    -0.000 C 
BRANCH   8   9
ATOM      9  C   UNL     1     139.362 138.778 144.201  1.00  0.00    -0.000 C 
BRANCH   9  10
ATOM     10  C   UNL     1     138.798 137.445 144.707  1.00  0.00    -0.000 C 
BRANCH  10  11
ATOM     11  C   UNL     1     139.926 136.495 145.125  1.00  0.00    -0.000 C 
BRANCH  11  12
ATOM     12  C   UNL     1     140.329 135.574 143.964  1.00  0.00    -0.000 C 
BRANCH  12  13
ATOM     13  C   UNL     1     139.142 135.190 143.062  1.00  0.00    -0.000 C 
BRANCH  13  14
ATOM     14  C   UNL     1     139.375 135.401 141.555  1.00  0.00    -0.000 C 
BRANCH  14  15
ATOM     15  C   UNL     1     140.071 134.207 140.884  1.00  0.00    -0.003 C 
ATOM     16  C   UNL     1     141.584 134.403 140.844  1.00  0.00     0.004 C 
ENDBRANCH  14  15
ENDBRANCH  13  14
ENDBRANCH  12  13
ENDBRANCH  11  12
ENDBRANCH  10  11
ENDBRANCH   9  10
ENDBRANCH   8   9
ENDBRANCH   7   8
ENDBRANCH   6   7
ENDBRANCH   5   6
ENDBRANCH   4   5
ENDBRANCH   3   4
ENDBRANCH   2   3
ENDBRANCH   1   2
BRANCH   1  17
ATOM     17  C   UNL     1     141.020 143.042 142.313  1.00  0.00     0.000 C 
BRANCH  17  18
ATOM     18  C   UNL     1     140.088 143.181 143.530  1.00  0.00     0.000 C 
BRANCH  18  19
ATOM     19  C   UNL     1     138.772 142.387 143.397  1.00  0.00     0.000 C 
BRANCH  19  20
ATOM     20  C   UNL     1     137.939 142.415 144.691  1.00  0.00     0.000 C 
BRANCH  20  21
ATOM     21  C   UNL     1     136.430 142.316 144.419  1.00  0.00     0.000 C 
BRANCH  21  22
ATOM     22  C   UNL     1     136.121 141.767 143.015  1.00  0.00     0.000 C 
BRANCH  22  23
ATOM     23  C   UNL     1     134.704 142.130 142.537  1.00  0.00     0.000 C 
BRANCH  23  24
ATOM     24  C   UNL     1     133.911 140.961 141.913  1.00  0.00     0.000 C 
BRANCH  24  25
ATOM     25  C   UNL     1     133.759 141.014 140.377  1.00  0.00     0.000 C 
BRANCH  25  26
ATOM     26  C   UNL     1     134.306 139.786 139.627  1.00  0.00     0.000 C 
BRANCH  26  27
ATOM     27  C   UNL     1     135.605 140.084 138.865  1.00  0.00     0.002 C 
BRANCH  27  28
ATOM     28  C   UNL     1     136.819 140.003 139.800  1.00  0.00     0.028 C 
BRANCH  28  29
ATOM     29  C   UNL     1     137.961 139.193 139.178  1.00  0.00     0.156 C 
BRANCH  29  30
ATOM     30  O   UNL     1     137.896 137.847 139.564  1.00  0.00    -0.396 OA
ATOM     31  H   UNL     1     138.324 137.320 138.839  1.00  0.00     0.210 HD
ENDBRANCH  29  30
ENDBRANCH  28  29
ENDBRANCH  27  28
ENDBRANCH  26  27
ENDBRANCH  25  26
ENDBRANCH  24  25
ENDBRANCH  23  24
ENDBRANCH  22  23
ENDBRANCH  21  22
ENDBRANCH  20  21
ENDBRANCH  19  20
ENDBRANCH  18  19
ENDBRANCH  17  18
ENDBRANCH   1  17
TORSDOF 28
ENDMDL
MODEL 7
REMARK VINA RESULT:    -2.778      3.633      6.082
REMARK INTER + INTRA:         -12.652
REMARK INTER:                  -7.246
REMARK INTRA:                  -5.405
REMARK UNBOUND:                -5.407
REMARK SMILES CCCCCCCCCCCCCCCCCCCCCCCCCCCCCO
REMARK SMILES IDX 16 1 15 2 14 3 13 4 12 5 11 6 10 7 9 8 8 9 7 10 6 11 5 12
REMARK SMILES IDX 4 13 3 14 2 15 1 16 17 17 18 18 19 19 20 20 21 21 22 22
REMARK SMILES IDX 23 23 24 24 25 25 26 26 27 27 28 28 29 29 30 30
REMARK H PARENT 30 31
REMARK Flexibility Score: inf
ROOT
ATOM      1  C   UNL     1     138.732 139.515 143.723  1.00  0.00     0.000 C 
ENDROOT
BRANCH   1   2
ATOM      2  C   UNL     1     138.659 140.620 144.789  1.00  0.00     0.000 C 
BRANCH   2   3
ATOM      3  C   UNL     1     138.006 141.907 144.259  1.00  0.00     0.000 C 
BRANCH   3   4
ATOM      4  C   UNL     1     136.481 141.930 144.466  1.00  0.00     0.000 C 
BRANCH   4   5
ATOM      5  C   UNL     1     135.703 141.808 143.146  1.00  0.00     0.000 C 
BRANCH   5   6
ATOM      6  C   UNL     1     136.567 142.157 141.920  1.00  0.00     0.000 C 
BRANCH   6   7
ATOM      7  C   UNL     1     136.815 140.946 141.007  1.00  0.00     0.000 C 
BRANCH   7   8
ATOM      8  C   UNL     1     138.168 141.009 140.283  1.00  0.00    -0.000 C 
BRANCH   8   9
ATOM      9  C   UNL     1     138.947 142.264 140.693  1.00  0.00    -0.000 C 
BRANCH   9  10
ATOM     10  C   UNL     1     140.459 142.005 140.680  1.00  0.00    -0.000 C 
BRANCH  10  11
ATOM     11  C   UNL     1     140.974 141.695 142.090  1.00  0.00    -0.000 C 
BRANCH  11  12
ATOM     12  C   UNL     1     142.134 142.627 142.470  1.00  0.00    -0.000 C 
BRANCH  12  13
ATOM     13  C   UNL     1     142.317 142.769 143.992  1.00  0.00    -0.000 C 
BRANCH  13  14
ATOM     14  C   UNL     1     142.303 141.444 144.775  1.00  0.00    -0.000 C 
BRANCH  14  15
ATOM     15  C   UNL     1     143.559 140.594 144.536  1.00  0.00    -0.003 C 
ATOM     16  C   UNL     1     143.195 139.133 144.282  1.00  0.00     0.004 C 
ENDBRANCH  14  15
ENDBRANCH  13  14
ENDBRANCH  12  13
ENDBRANCH  11  12
ENDBRANCH  10  11
ENDBRANCH   9  10
ENDBRANCH   8   9
ENDBRANCH   7   8
ENDBRANCH   6   7
ENDBRANCH   5   6
ENDBRANCH   4   5
ENDBRANCH   3   4
ENDBRANCH   2   3
ENDBRANCH   1   2
BRANCH   1  17
ATOM     17  C   UNL     1     139.746 138.432 144.117  1.00  0.00     0.000 C 
BRANCH  17  18
ATOM     18  C   UNL     1     139.102 137.045 144.287  1.00  0.00     0.000 C 
BRANCH  18  19
ATOM     19  C   UNL     1     139.361 136.093 143.100  1.00  0.00     0.000 C 
BRANCH  19  20
ATOM     20  C   UNL     1     140.673 136.420 142.364  1.00  0.00     0.000 C 
BRANCH  20  21
ATOM     21  C   UNL     1     140.450 136.713 140.871  1.00  0.00     0.000 C 
BRANCH  21  22
ATOM     22  C   UNL     1     140.579 138.210 140.541  1.00  0.00     0.000 C 
BRANCH  22  23
ATOM     23  C   UNL     1     141.843 138.528 139.723  1.00  0.00     0.000 C 
BRANCH  23  24
ATOM     24  C   UNL     1     143.031 139.068 140.548  1.00  0.00     0.000 C 
BRANCH  24  25
ATOM     25  C   UNL     1     143.695 140.346 139.990  1.00  0.00     0.000 C 
BRANCH  25  26
ATOM     26  C   UNL     1     144.942 140.819 140.759  1.00  0.00     0.000 C 
BRANCH  26  27
ATOM     27  C   UNL     1     145.572 139.708 141.610  1.00  0.00     0.002 C 
BRANCH  27  28
ATOM     28  C   UNL     1     146.988 140.095 142.056  1.00  0.00     0.028 C 
BRANCH  28  29
ATOM     29  C   UNL     1     148.040 139.119 141.521  1.00  0.00     0.156 C 
BRANCH  29  30
ATOM     30  O   UNL     1     147.686 137.791 141.798  1.00  0.00    -0.396 OA
ATOM     31  H   UNL     1     146.821 137.624 141.340  1.00  0.00     0.210 HD
ENDBRANCH  29  30
ENDBRANCH  28  29
ENDBRANCH  27  28
ENDBRANCH  26  27
ENDBRANCH  25  26
ENDBRANCH  24  25
ENDBRANCH  23  24
ENDBRANCH  22  23
ENDBRANCH  21  22
ENDBRANCH  20  21
ENDBRANCH  19  20
ENDBRANCH  18  19
ENDBRANCH  17  18
ENDBRANCH   1  17
TORSDOF 28
ENDMDL
MODEL 8
REMARK VINA RESULT:    -2.736      3.146      6.336
REMARK INTER + INTRA:         -12.542
REMARK INTER:                  -7.952
REMARK INTRA:                  -4.589
REMARK UNBOUND:                -5.407
REMARK SMILES CCCCCCCCCCCCCCCCCCCCCCCCCCCCCO
REMARK SMILES IDX 16 1 15 2 14 3 13 4 12 5 11 6 10 7 9 8 8 9 7 10 6 11 5 12
REMARK SMILES IDX 4 13 3 14 2 15 1 16 17 17 18 18 19 19 20 20 21 21 22 22
REMARK SMILES IDX 23 23 24 24 25 25 26 26 27 27 28 28 29 29 30 30
REMARK H PARENT 30 31
REMARK Flexibility Score: inf
ROOT
ATOM      1  C   UNL     1     140.498 137.932 144.491  1.00  0.00     0.000 C 
ENDROOT
BRANCH   1   2
ATOM      2  C   UNL     1     139.872 139.191 145.111  1.00  0.00     0.000 C 
BRANCH   2   3
ATOM      3  C   UNL     1     138.681 139.720 144.295  1.00  0.00     0.000 C 
BRANCH   3   4
ATOM      4  C   UNL     1     138.043 140.975 144.917  1.00  0.00     0.000 C 
BRANCH   4   5
ATOM      5  C   UNL     1     138.961 142.205 144.839  1.00  0.00     0.000 C 
BRANCH   5   6
ATOM      6  C   UNL     1     139.114 142.734 143.401  1.00  0.00     0.000 C 
BRANCH   6   7
ATOM      7  C   UNL     1     140.585 142.917 142.992  1.00  0.00     0.000 C 
BRANCH   7   8
ATOM      8  C   UNL     1     141.512 143.168 144.190  1.00  0.00    -0.000 C 
BRANCH   8   9
ATOM      9  C   UNL     1     142.836 142.414 144.022  1.00  0.00    -0.000 C 
BRANCH   9  10
ATOM     10  C   UNL     1     142.839 141.115 144.839  1.00  0.00    -0.000 C 
BRANCH  10  11
ATOM     11  C   UNL     1     144.260 140.556 144.975  1.00  0.00    -0.000 C 
BRANCH  11  12
ATOM     12  C   UNL     1     144.453 139.320 144.083  1.00  0.00    -0.000 C 
BRANCH  12  13
ATOM     13  C   UNL     1     144.970 139.669 142.677  1.00  0.00    -0.000 C 
BRANCH  13  14
ATOM     14  C   UNL     1     146.476 139.979 142.596  1.00  0.00    -0.000 C 
BRANCH  14  15
ATOM     15  C   UNL     1     147.321 138.749 142.231  1.00  0.00    -0.003 C 
ATOM     16  C   UNL     1     147.126 138.363 140.766  1.00  0.00     0.004 C 
ENDBRANCH  14  15
ENDBRANCH  13  14
ENDBRANCH  12  13
ENDBRANCH  11  12
ENDBRANCH  10  11
ENDBRANCH   9  10
ENDBRANCH   8   9
ENDBRANCH   7   8
ENDBRANCH   6   7
ENDBRANCH   5   6
ENDBRANCH   4   5
ENDBRANCH   3   4
ENDBRANCH   2   3
ENDBRANCH   1   2
BRANCH   1  17
ATOM     17  C   UNL     1     139.445 137.098 143.749  1.00  0.00     0.000 C 
BRANCH  17  18
ATOM     18  C   UNL     1     139.954 135.697 143.366  1.00  0.00     0.000 C 
BRANCH  18  19
ATOM     19  C   UNL     1     140.394 135.580 141.892  1.00  0.00     0.000 C 
BRANCH  19  20
ATOM     20  C   UNL     1     139.902 136.764 141.039  1.00  0.00     0.000 C 
BRANCH  20  21
ATOM     21  C   UNL     1     141.026 137.388 140.197  1.00  0.00     0.000 C 
BRANCH  21  22
ATOM     22  C   UNL     1     141.726 138.550 140.922  1.00  0.00     0.000 C 
BRANCH  22  23
ATOM     23  C   UNL     1     140.743 139.646 141.369  1.00  0.00     0.000 C 
BRANCH  23  24
ATOM     24  C   UNL     1     139.950 140.313 140.224  1.00  0.00     0.000 C 
BRANCH  24  25
ATOM     25  C   UNL     1     138.435 140.016 140.211  1.00  0.00     0.000 C 
BRANCH  25  26
ATOM     26  C   UNL     1     137.535 141.212 140.572  1.00  0.00     0.000 C 
BRANCH  26  27
ATOM     27  C   UNL     1     136.420 140.840 141.559  1.00  0.00     0.002 C 
BRANCH  27  28
ATOM     28  C   UNL     1     135.113 141.564 141.208  1.00  0.00     0.028 C 
BRANCH  28  29
ATOM     29  C   UNL     1     134.656 142.491 142.339  1.00  0.00     0.156 C 
BRANCH  29  30
ATOM     30  O   UNL     1     134.132 143.688 141.832  1.00  0.00    -0.396 OA
ATOM     31  H   UNL     1     133.222 143.789 142.220  1.00  0.00     0.210 HD
ENDBRANCH  29  30
ENDBRANCH  28  29
ENDBRANCH  27  28
ENDBRANCH  26  27
ENDBRANCH  25  26
ENDBRANCH  24  25
ENDBRANCH  23  24
ENDBRANCH  22  23
ENDBRANCH  21  22
ENDBRANCH  20  21
ENDBRANCH  19  20
ENDBRANCH  18  19
ENDBRANCH  17  18
ENDBRANCH   1  17
TORSDOF 28
ENDMDL
MODEL 9
REMARK VINA RESULT:    -2.729      4.224      8.208
REMARK INTER + INTRA:         -12.522
REMARK INTER:                  -8.003
REMARK INTRA:                  -4.519
REMARK UNBOUND:                -5.407
REMARK SMILES CCCCCCCCCCCCCCCCCCCCCCCCCCCCCO
REMARK SMILES IDX 16 1 15 2 14 3 13 4 12 5 11 6 10 7 9 8 8 9 7 10 6 11 5 12
REMARK SMILES IDX 4 13 3 14 2 15 1 16 17 17 18 18 19 19 20 20 21 21 22 22
REMARK SMILES IDX 23 23 24 24 25 25 26 26 27 27 28 28 29 29 30 30
REMARK H PARENT 30 31
REMARK Flexibility Score: inf
ROOT
ATOM      1  C   UNL     1     139.346 142.546 143.237  1.00  0.00     0.000 C 
ENDROOT
BRANCH   1   2
ATOM      2  C   UNL     1     139.991 143.008 144.553  1.00  0.00     0.000 C 
BRANCH   2   3
ATOM      3  C   UNL     1     141.281 142.238 144.880  1.00  0.00     0.000 C 
BRANCH   3   4
ATOM      4  C   UNL     1     142.431 142.566 143.910  1.00  0.00     0.000 C 
BRANCH   4   5
ATOM      5  C   UNL     1     143.366 141.367 143.676  1.00  0.00     0.000 C 
BRANCH   5   6
ATOM      6  C   UNL     1     143.964 141.357 142.258  1.00  0.00     0.000 C 
BRANCH   6   7
ATOM      7  C   UNL     1     144.543 139.986 141.871  1.00  0.00     0.000 C 
BRANCH   7   8
ATOM      8  C   UNL     1     145.567 139.461 142.888  1.00  0.00    -0.000 C 
BRANCH   8   9
ATOM      9  C   UNL     1     146.894 140.219 142.768  1.00  0.00    -0.000 C 
BRANCH   9  10
ATOM     10  C   UNL     1     147.392 140.234 141.317  1.00  0.00    -0.000 C 
BRANCH  10  11
ATOM     11  C   UNL     1     147.724 141.661 140.865  1.00  0.00    -0.000 C 
BRANCH  11  12
ATOM     12  C   UNL     1     147.031 141.992 139.534  1.00  0.00    -0.000 C 
BRANCH  12  13
ATOM     13  C   UNL     1     146.756 140.745 138.674  1.00  0.00    -0.000 C 
BRANCH  13  14
ATOM     14  C   UNL     1     145.275 140.506 138.330  1.00  0.00    -0.000 C 
BRANCH  14  15
ATOM     15  C   UNL     1     144.391 141.731 138.607  1.00  0.00    -0.003 C 
ATOM     16  C   UNL     1     142.938 141.459 138.224  1.00  0.00     0.004 C 
ENDBRANCH  14  15
ENDBRANCH  13  14
ENDBRANCH  12  13
ENDBRANCH  11  12
ENDBRANCH  10  11
ENDBRANCH   9  10
ENDBRANCH   8   9
ENDBRANCH   7   8
ENDBRANCH   6   7
ENDBRANCH   5   6
ENDBRANCH   4   5
ENDBRANCH   3   4
ENDBRANCH   2   3
ENDBRANCH   1   2
BRANCH   1  17
ATOM     17  C   UNL     1     137.819 142.460 143.368  1.00  0.00     0.000 C 
BRANCH  17  18
ATOM     18  C   UNL     1     137.220 141.268 142.602  1.00  0.00     0.000 C 
BRANCH  18  19
ATOM     19  C   UNL     1     138.183 140.069 142.472  1.00  0.00     0.000 C 
BRANCH  19  20
ATOM     20  C   UNL     1     138.261 139.536 141.030  1.00  0.00     0.000 C 
BRANCH  20  21
ATOM     21  C   UNL     1     139.649 139.742 140.403  1.00  0.00     0.000 C 
BRANCH  21  22
ATOM     22  C   UNL     1     140.767 139.803 141.459  1.00  0.00     0.000 C 
BRANCH  22  23
ATOM     23  C   UNL     1     141.276 138.407 141.861  1.00  0.00     0.000 C 
BRANCH  23  24
ATOM     24  C   UNL     1     141.612 138.247 143.360  1.00  0.00     0.000 C 
BRANCH  24  25
ATOM     25  C   UNL     1     140.479 137.658 144.229  1.00  0.00     0.000 C 
BRANCH  25  26
ATOM     26  C   UNL     1     139.436 136.825 143.461  1.00  0.00     0.000 C 
BRANCH  26  27
ATOM     27  C   UNL     1     139.794 135.334 143.404  1.00  0.00     0.002 C 
BRANCH  27  28
ATOM     28  C   UNL     1     139.795 134.825 141.957  1.00  0.00     0.028 C 
BRANCH  28  29
ATOM     29  C   UNL     1     138.625 133.873 141.688  1.00  0.00     0.156 C 
BRANCH  29  30
ATOM     30  O   UNL     1     137.525 134.560 141.155  1.00  0.00    -0.396 OA
ATOM     31  H   UNL     1     137.472 134.314 140.194  1.00  0.00     0.210 HD
ENDBRANCH  29  30
ENDBRANCH  28  29
ENDBRANCH  27  28
ENDBRANCH  26  27
ENDBRANCH  25  26
ENDBRANCH  24  25
ENDBRANCH  23  24
ENDBRANCH  22  23
ENDBRANCH  21  22
ENDBRANCH  20  21
ENDBRANCH  19  20
ENDBRANCH  18  19
ENDBRANCH  17  18
ENDBRANCH   1  17
TORSDOF 28
ENDMDL
