MODEL 1
REMARK VINA RESULT:    -4.597      0.000      0.000
REMARK INTER + INTRA:          -9.159
REMARK INTER:                  -7.821
REMARK INTRA:                  -1.338
REMARK UNBOUND:                -1.338
REMARK SMILES CCCCCCCCCCCCCC(=O)[O-]
REMARK SMILES IDX 8 1 9 2 10 3 11 4 12 5 13 6 14 7 15 8 16 9 7 10 6 11 5 12
REMARK SMILES IDX 4 13 3 14 2 15 1 16
REMARK H PARENT
REMARK Flexibility Score: inf
ROOT
ATOM      1  C   UNL     1      47.369 -40.512  -3.516  1.00  0.00     0.000 C 
ENDROOT
BRANCH   1   2
ATOM      2  C   UNL     1      48.593 -41.046  -4.275  1.00  0.00     0.000 C 
BRANCH   2   3
ATOM      3  C   UNL     1      49.555 -41.834  -3.371  1.00  0.00     0.000 C 
BRANCH   3   4
ATOM      4  C   UNL     1      51.029 -41.611  -3.737  1.00  0.00     0.000 C 
BRANCH   4   5
ATOM      5  C   UNL     1      51.772 -40.885  -2.606  1.00  0.00     0.006 C 
BRANCH   5   6
ATOM      6  C   UNL     1      52.783 -41.794  -1.896  1.00  0.00     0.053 C 
BRANCH   6   7
ATOM      7  C   UNL     1      54.152 -41.185  -1.868  1.00  0.00     0.041 C 
ATOM      8  O   UNL     1      55.171 -41.918  -1.758  1.00  0.00    -0.550 OA
ATOM      9  O   UNL     1      54.304 -39.810  -1.996  1.00  0.00    -0.550 OA
ENDBRANCH   6   7
ENDBRANCH   5   6
ENDBRANCH   4   5
ENDBRANCH   3   4
ENDBRANCH   2   3
ENDBRANCH   1   2
BRANCH   1  10
ATOM     10  C   UNL     1      47.505 -39.005  -3.250  1.00  0.00     0.000 C 
BRANCH  10  11
ATOM     11  C   UNL     1      47.765 -38.198  -4.533  1.00  0.00    -0.000 C 
BRANCH  11  12
ATOM     12  C   UNL     1      48.404 -36.830  -4.253  1.00  0.00    -0.000 C 
BRANCH  12  13
ATOM     13  C   UNL     1      49.701 -36.655  -5.053  1.00  0.00    -0.000 C 
BRANCH  13  14
ATOM     14  C   UNL     1      50.654 -37.836  -4.822  1.00  0.00    -0.000 C 
BRANCH  14  15
ATOM     15  C   UNL     1      51.599 -38.074  -6.009  1.00  0.00    -0.003 C 
ATOM     16  C   UNL     1      51.296 -39.373  -6.756  1.00  0.00     0.004 C 
ENDBRANCH  14  15
ENDBRANCH  13  14
ENDBRANCH  12  13
ENDBRANCH  11  12
ENDBRANCH  10  11
ENDBRANCH   1  10
TORSDOF 12
ENDMDL
MODEL 2
REMARK VINA RESULT:    -4.524      1.497      2.783
REMARK INTER + INTRA:          -9.036
REMARK INTER:                  -7.349
REMARK INTRA:                  -1.687
REMARK UNBOUND:                -1.338
REMARK SMILES CCCCCCCCCCCCCC(=O)[O-]
REMARK SMILES IDX 8 1 9 2 10 3 11 4 12 5 13 6 14 7 15 8 16 9 7 10 6 11 5 12
REMARK SMILES IDX 4 13 3 14 2 15 1 16
REMARK H PARENT
REMARK Flexibility Score: inf
ROOT
ATOM      1  C   UNL     1      48.372 -40.799  -3.070  1.00  0.00     0.000 C 
ENDROOT
BRANCH   1   2
ATOM      2  C   UNL     1      49.070 -41.328  -4.331  1.00  0.00     0.000 C 
BRANCH   2   3
ATOM      3  C   UNL     1      50.304 -40.498  -4.720  1.00  0.00     0.000 C 
BRANCH   3   4
ATOM      4  C   UNL     1      50.606 -39.379  -3.713  1.00  0.00     0.000 C 
BRANCH   4   5
ATOM      5  C   UNL     1      52.073 -39.428  -3.260  1.00  0.00     0.006 C 
BRANCH   5   6
ATOM      6  C   UNL     1      52.404 -40.718  -2.498  1.00  0.00     0.053 C 
BRANCH   6   7
ATOM      7  C   UNL     1      53.794 -40.690  -1.940  1.00  0.00     0.041 C 
ATOM      8  O   UNL     1      54.464 -41.753  -1.853  1.00  0.00    -0.550 OA
ATOM      9  O   UNL     1      54.361 -39.485  -1.544  1.00  0.00    -0.550 OA
ENDBRANCH   6   7
ENDBRANCH   5   6
ENDBRANCH   4   5
ENDBRANCH   3   4
ENDBRANCH   2   3
ENDBRANCH   1   2
BRANCH   1  10
ATOM     10  C   UNL     1      46.906 -40.445  -3.363  1.00  0.00     0.000 C 
BRANCH  10  11
ATOM     11  C   UNL     1      46.718 -39.794  -4.744  1.00  0.00    -0.000 C 
BRANCH  11  12
ATOM     12  C   UNL     1      46.300 -38.319  -4.652  1.00  0.00    -0.000 C 
BRANCH  12  13
ATOM     13  C   UNL     1      47.527 -37.400  -4.638  1.00  0.00    -0.000 C 
BRANCH  13  14
ATOM     14  C   UNL     1      47.512 -36.480  -3.408  1.00  0.00    -0.000 C 
BRANCH  14  15
ATOM     15  C   UNL     1      48.381 -37.016  -2.260  1.00  0.00    -0.003 C 
ATOM     16  C   UNL     1      47.554 -37.498  -1.068  1.00  0.00     0.004 C 
ENDBRANCH  14  15
ENDBRANCH  13  14
ENDBRANCH  12  13
ENDBRANCH  11  12
ENDBRANCH  10  11
ENDBRANCH   1  10
TORSDOF 12
ENDMDL
MODEL 3
REMARK VINA RESULT:    -4.486      2.042      3.596
REMARK INTER + INTRA:          -8.970
REMARK INTER:                  -7.635
REMARK INTRA:                  -1.335
REMARK UNBOUND:                -1.338
REMARK SMILES CCCCCCCCCCCCCC(=O)[O-]
REMARK SMILES IDX 8 1 9 2 10 3 11 4 12 5 13 6 14 7 15 8 16 9 7 10 6 11 5 12
REMARK SMILES IDX 4 13 3 14 2 15 1 16
REMARK H PARENT
REMARK Flexibility Score: inf
ROOT
ATOM      1  C   UNL     1      47.777 -40.333  -4.534  1.00  0.00     0.000 C 
ENDROOT
BRANCH   1   2
ATOM      2  C   UNL     1      48.781 -41.435  -4.165  1.00  0.00     0.000 C 
BRANCH   2   3
ATOM      3  C   UNL     1      49.740 -41.012  -3.041  1.00  0.00     0.000 C 
BRANCH   3   4
ATOM      4  C   UNL     1      50.396 -39.649  -3.304  1.00  0.00     0.000 C 
BRANCH   4   5
ATOM      5  C   UNL     1      51.927 -39.751  -3.221  1.00  0.00     0.006 C 
BRANCH   5   6
ATOM      6  C   UNL     1      52.385 -40.907  -2.324  1.00  0.00     0.053 C 
BRANCH   6   7
ATOM      7  C   UNL     1      53.819 -40.755  -1.914  1.00  0.00     0.041 C 
ATOM      8  O   UNL     1      54.576 -41.760  -1.871  1.00  0.00    -0.550 OA
ATOM      9  O   UNL     1      54.326 -39.498  -1.609  1.00  0.00    -0.550 OA
ENDBRANCH   6   7
ENDBRANCH   5   6
ENDBRANCH   4   5
ENDBRANCH   3   4
ENDBRANCH   2   3
ENDBRANCH   1   2
BRANCH   1  10
ATOM     10  C   UNL     1      46.454 -40.523  -3.777  1.00  0.00     0.000 C 
BRANCH  10  11
ATOM     11  C   UNL     1      46.254 -39.481  -2.663  1.00  0.00    -0.000 C 
BRANCH  11  12
ATOM     12  C   UNL     1      46.405 -40.081  -1.257  1.00  0.00    -0.000 C 
BRANCH  12  13
ATOM     13  C   UNL     1      47.528 -39.382  -0.480  1.00  0.00    -0.000 C 
BRANCH  13  14
ATOM     14  C   UNL     1      47.904 -38.047  -1.138  1.00  0.00    -0.000 C 
BRANCH  14  15
ATOM     15  C   UNL     1      47.879 -36.873  -0.147  1.00  0.00    -0.003 C 
ATOM     16  C   UNL     1      48.951 -35.824  -0.445  1.00  0.00     0.004 C 
ENDBRANCH  14  15
ENDBRANCH  13  14
ENDBRANCH  12  13
ENDBRANCH  11  12
ENDBRANCH  10  11
ENDBRANCH   1  10
TORSDOF 12
ENDMDL
MODEL 4
REMARK VINA RESULT:    -4.457      1.621      2.418
REMARK INTER + INTRA:          -8.921
REMARK INTER:                  -7.148
REMARK INTRA:                  -1.773
REMARK UNBOUND:                -1.338
REMARK SMILES CCCCCCCCCCCCCC(=O)[O-]
REMARK SMILES IDX 8 1 9 2 10 3 11 4 12 5 13 6 14 7 15 8 16 9 7 10 6 11 5 12
REMARK SMILES IDX 4 13 3 14 2 15 1 16
REMARK H PARENT
REMARK Flexibility Score: inf
ROOT
ATOM      1  C   UNL     1      46.720 -40.508  -3.246  1.00  0.00     0.000 C 
ENDROOT
BRANCH   1   2
ATOM      2  C   UNL     1      47.384 -40.262  -4.609  1.00  0.00     0.000 C 
BRANCH   2   3
ATOM      3  C   UNL     1      48.817 -40.814  -4.680  1.00  0.00     0.000 C 
BRANCH   3   4
ATOM      4  C   UNL     1      49.220 -41.580  -3.412  1.00  0.00     0.000 C 
BRANCH   4   5
ATOM      5  C   UNL     1      50.735 -41.834  -3.382  1.00  0.00     0.006 C 
BRANCH   5   6
ATOM      6  C   UNL     1      51.525 -40.589  -2.958  1.00  0.00     0.053 C 
BRANCH   6   7
ATOM      7  C   UNL     1      52.794 -40.954  -2.248  1.00  0.00     0.041 C 
ATOM      8  O   UNL     1      52.971 -42.128  -1.828  1.00  0.00    -0.550 OA
ATOM      9  O   UNL     1      53.793 -40.004  -2.079  1.00  0.00    -0.550 OA
ENDBRANCH   6   7
ENDBRANCH   5   6
ENDBRANCH   4   5
ENDBRANCH   3   4
ENDBRANCH   2   3
ENDBRANCH   1   2
BRANCH   1  10
ATOM     10  C   UNL     1      45.398 -39.734  -3.134  1.00  0.00     0.000 C 
BRANCH  10  11
ATOM     11  C   UNL     1      45.601 -38.210  -3.142  1.00  0.00    -0.000 C 
BRANCH  11  12
ATOM     12  C   UNL     1      46.323 -37.702  -1.885  1.00  0.00    -0.000 C 
BRANCH  12  13
ATOM     13  C   UNL     1      47.539 -36.846  -2.259  1.00  0.00    -0.000 C 
BRANCH  13  14
ATOM     14  C   UNL     1      48.812 -37.702  -2.333  1.00  0.00    -0.000 C 
BRANCH  14  15
ATOM     15  C   UNL     1      49.726 -37.301  -3.502  1.00  0.00    -0.003 C 
ATOM     16  C   UNL     1      48.945 -36.942  -4.766  1.00  0.00     0.004 C 
ENDBRANCH  14  15
ENDBRANCH  13  14
ENDBRANCH  12  13
ENDBRANCH  11  12
ENDBRANCH  10  11
ENDBRANCH   1  10
TORSDOF 12
ENDMDL
MODEL 5
REMARK VINA RESULT:    -4.428      3.715      5.381
REMARK INTER + INTRA:          -8.872
REMARK INTER:                  -7.101
REMARK INTRA:                  -1.771
REMARK UNBOUND:                -1.338
REMARK SMILES CCCCCCCCCCCCCC(=O)[O-]
REMARK SMILES IDX 8 1 9 2 10 3 11 4 12 5 13 6 14 7 15 8 16 9 7 10 6 11 5 12
REMARK SMILES IDX 4 13 3 14 2 15 1 16
REMARK H PARENT
REMARK Flexibility Score: inf
ROOT
ATOM      1  C   UNL     1      50.611 -41.741  -3.770  1.00  0.00     0.000 C 
ENDROOT
BRANCH   1   2
ATOM      2  C   UNL     1      49.108 -41.838  -4.069  1.00  0.00     0.000 C 
BRANCH   2   3
ATOM      3  C   UNL     1      48.594 -40.662  -4.915  1.00  0.00     0.000 C 
BRANCH   3   4
ATOM      4  C   UNL     1      47.237 -40.132  -4.431  1.00  0.00     0.000 C 
BRANCH   4   5
ATOM      5  C   UNL     1      47.387 -39.369  -3.106  1.00  0.00     0.006 C 
BRANCH   5   6
ATOM      6  C   UNL     1      46.661 -40.065  -1.948  1.00  0.00     0.053 C 
BRANCH   6   7
ATOM      7  C   UNL     1      45.325 -39.443  -1.678  1.00  0.00     0.041 C 
ATOM      8  O   UNL     1      45.245 -38.368  -1.026  1.00  0.00    -0.550 OA
ATOM      9  O   UNL     1      44.170 -40.035  -2.173  1.00  0.00    -0.550 OA
ENDBRANCH   6   7
ENDBRANCH   5   6
ENDBRANCH   4   5
ENDBRANCH   3   4
ENDBRANCH   2   3
ENDBRANCH   1   2
BRANCH   1  10
ATOM     10  C   UNL     1      50.879 -40.743  -2.633  1.00  0.00     0.000 C 
BRANCH  10  11
ATOM     11  C   UNL     1      52.315 -40.195  -2.651  1.00  0.00    -0.000 C 
BRANCH  11  12
ATOM     12  C   UNL     1      52.427 -38.851  -3.386  1.00  0.00    -0.000 C 
BRANCH  12  13
ATOM     13  C   UNL     1      51.070 -38.137  -3.435  1.00  0.00    -0.000 C 
BRANCH  13  14
ATOM     14  C   UNL     1      50.703 -37.751  -4.876  1.00  0.00    -0.000 C 
BRANCH  14  15
ATOM     15  C   UNL     1      51.797 -38.130  -5.886  1.00  0.00    -0.003 C 
ATOM     16  C   UNL     1      51.375 -39.267  -6.816  1.00  0.00     0.004 C 
ENDBRANCH  14  15
ENDBRANCH  13  14
ENDBRANCH  12  13
ENDBRANCH  11  12
ENDBRANCH  10  11
ENDBRANCH   1  10
TORSDOF 12
ENDMDL
MODEL 6
REMARK VINA RESULT:    -4.427      1.477      3.502
REMARK INTER + INTRA:          -8.871
REMARK INTER:                  -7.229
REMARK INTRA:                  -1.641
REMARK UNBOUND:                -1.338
REMARK SMILES CCCCCCCCCCCCCC(=O)[O-]
REMARK SMILES IDX 8 1 9 2 10 3 11 4 12 5 13 6 14 7 15 8 16 9 7 10 6 11 5 12
REMARK SMILES IDX 4 13 3 14 2 15 1 16
REMARK H PARENT
REMARK Flexibility Score: inf
ROOT
ATOM      1  C   UNL     1      47.998 -36.314  -5.011  1.00  0.00     0.000 C 
ENDROOT
BRANCH   1   2
ATOM      2  C   UNL     1      49.094 -36.465  -3.946  1.00  0.00     0.000 C 
BRANCH   2   3
ATOM      3  C   UNL     1      50.212 -37.428  -4.377  1.00  0.00     0.000 C 
BRANCH   3   4
ATOM      4  C   UNL     1      50.958 -38.042  -3.184  1.00  0.00     0.000 C 
BRANCH   4   5
ATOM      5  C   UNL     1      52.165 -38.867  -3.656  1.00  0.00     0.006 C 
BRANCH   5   6
ATOM      6  C   UNL     1      52.565 -39.946  -2.641  1.00  0.00     0.053 C 
BRANCH   6   7
ATOM      7  C   UNL     1      53.975 -39.764  -2.167  1.00  0.00     0.041 C 
ATOM      8  O   UNL     1      54.434 -38.607  -1.970  1.00  0.00    -0.550 OA
ATOM      9  O   UNL     1      54.771 -40.872  -1.912  1.00  0.00    -0.550 OA
ENDBRANCH   6   7
ENDBRANCH   5   6
ENDBRANCH   4   5
ENDBRANCH   3   4
ENDBRANCH   2   3
ENDBRANCH   1   2
BRANCH   1  10
ATOM     10  C   UNL     1      46.821 -37.258  -4.723  1.00  0.00     0.000 C 
BRANCH  10  11
ATOM     11  C   UNL     1      46.797 -37.747  -3.265  1.00  0.00    -0.000 C 
BRANCH  11  12
ATOM     12  C   UNL     1      46.717 -39.277  -3.155  1.00  0.00    -0.000 C 
BRANCH  12  13
ATOM     13  C   UNL     1      46.901 -39.937  -4.527  1.00  0.00    -0.000 C 
BRANCH  13  14
ATOM     14  C   UNL     1      48.269 -40.626  -4.628  1.00  0.00    -0.000 C 
BRANCH  14  15
ATOM     15  C   UNL     1      48.799 -41.088  -3.262  1.00  0.00    -0.003 C 
ATOM     16  C   UNL     1      49.903 -42.139  -3.380  1.00  0.00     0.004 C 
ENDBRANCH  14  15
ENDBRANCH  13  14
ENDBRANCH  12  13
ENDBRANCH  11  12
ENDBRANCH  10  11
ENDBRANCH   1  10
TORSDOF 12
ENDMDL
MODEL 7
REMARK VINA RESULT:    -4.393     13.540     15.156
REMARK INTER + INTRA:          -8.813
REMARK INTER:                  -7.060
REMARK INTRA:                  -1.753
REMARK UNBOUND:                -1.338
REMARK SMILES CCCCCCCCCCCCCC(=O)[O-]
REMARK SMILES IDX 8 1 9 2 10 3 11 4 12 5 13 6 14 7 15 8 16 9 7 10 6 11 5 12
REMARK SMILES IDX 4 13 3 14 2 15 1 16
REMARK H PARENT
REMARK Flexibility Score: inf
ROOT
ATOM      1  C   UNL     1      49.434 -38.521   7.401  1.00  0.00     0.000 C 
ENDROOT
BRANCH   1   2
ATOM      2  C   UNL     1      50.124 -37.337   8.094  1.00  0.00     0.000 C 
BRANCH   2   3
ATOM      3  C   UNL     1      51.386 -37.754   8.866  1.00  0.00     0.000 C 
BRANCH   3   4
ATOM      4  C   UNL     1      51.724 -36.791  10.012  1.00  0.00     0.000 C 
BRANCH   4   5
ATOM      5  C   UNL     1      50.740 -35.611  10.047  1.00  0.00     0.006 C 
BRANCH   5   6
ATOM      6  C   UNL     1      51.195 -34.501  11.002  1.00  0.00     0.053 C 
BRANCH   6   7
ATOM      7  C   UNL     1      50.029 -33.783  11.612  1.00  0.00     0.041 C 
ATOM      8  O   UNL     1      49.241 -33.121  10.886  1.00  0.00    -0.550 OA
ATOM      9  O   UNL     1      49.797 -33.869  12.979  1.00  0.00    -0.550 OA
ENDBRANCH   6   7
ENDBRANCH   5   6
ENDBRANCH   4   5
ENDBRANCH   3   4
ENDBRANCH   2   3
ENDBRANCH   1   2
BRANCH   1  10
ATOM     10  C   UNL     1      50.008 -39.856   7.899  1.00  0.00     0.000 C 
BRANCH  10  11
ATOM     11  C   UNL     1      48.914 -40.872   8.266  1.00  0.00    -0.000 C 
BRANCH  11  12
ATOM     12  C   UNL     1      48.449 -40.741   9.724  1.00  0.00    -0.000 C 
BRANCH  12  13
ATOM     13  C   UNL     1      49.633 -40.445  10.653  1.00  0.00    -0.000 C 
BRANCH  13  14
ATOM     14  C   UNL     1      49.156 -39.805  11.965  1.00  0.00    -0.000 C 
BRANCH  14  15
ATOM     15  C   UNL     1      48.587 -38.392  11.761  1.00  0.00    -0.003 C 
ATOM     16  C   UNL     1      49.097 -37.393  12.798  1.00  0.00     0.004 C 
ENDBRANCH  14  15
ENDBRANCH  13  14
ENDBRANCH  12  13
ENDBRANCH  11  12
ENDBRANCH  10  11
ENDBRANCH   1  10
TORSDOF 12
ENDMDL
MODEL 8
REMARK VINA RESULT:    -4.393     12.819     14.222
REMARK INTER + INTRA:          -8.813
REMARK INTER:                  -6.926
REMARK INTRA:                  -1.887
REMARK UNBOUND:                -1.338
REMARK SMILES CCCCCCCCCCCCCC(=O)[O-]
REMARK SMILES IDX 8 1 9 2 10 3 11 4 12 5 13 6 14 7 15 8 16 9 7 10 6 11 5 12
REMARK SMILES IDX 4 13 3 14 2 15 1 16
REMARK H PARENT
REMARK Flexibility Score: inf
ROOT
ATOM      1  C   UNL     1      50.427 -39.097   7.500  1.00  0.00     0.000 C 
ENDROOT
BRANCH   1   2
ATOM      2  C   UNL     1      51.352 -38.273   8.408  1.00  0.00     0.000 C 
BRANCH   2   3
ATOM      3  C   UNL     1      50.724 -37.974   9.779  1.00  0.00     0.000 C 
BRANCH   3   4
ATOM      4  C   UNL     1      51.269 -36.686  10.412  1.00  0.00     0.000 C 
BRANCH   4   5
ATOM      5  C   UNL     1      50.923 -35.462   9.549  1.00  0.00     0.006 C 
BRANCH   5   6
ATOM      6  C   UNL     1      49.887 -34.551  10.220  1.00  0.00     0.053 C 
BRANCH   6   7
ATOM      7  C   UNL     1      50.415 -33.952  11.489  1.00  0.00     0.041 C 
ATOM      8  O   UNL     1      49.684 -33.887  12.512  1.00  0.00    -0.550 OA
ATOM      9  O   UNL     1      51.725 -33.495  11.548  1.00  0.00    -0.550 OA
ENDBRANCH   6   7
ENDBRANCH   5   6
ENDBRANCH   4   5
ENDBRANCH   3   4
ENDBRANCH   2   3
ENDBRANCH   1   2
BRANCH   1  10
ATOM     10  C   UNL     1      49.886 -40.328   8.243  1.00  0.00     0.000 C 
BRANCH  10  11
ATOM     11  C   UNL     1      48.349 -40.374   8.271  1.00  0.00    -0.000 C 
BRANCH  11  12
ATOM     12  C   UNL     1      47.774 -40.102   9.669  1.00  0.00    -0.000 C 
BRANCH  12  13
ATOM     13  C   UNL     1      47.109 -38.721   9.730  1.00  0.00    -0.000 C 
BRANCH  13  14
ATOM     14  C   UNL     1      46.957 -38.121   8.324  1.00  0.00    -0.000 C 
BRANCH  14  15
ATOM     15  C   UNL     1      47.524 -36.696   8.227  1.00  0.00    -0.003 C 
ATOM     16  C   UNL     1      48.189 -36.415   6.879  1.00  0.00     0.004 C 
ENDBRANCH  14  15
ENDBRANCH  13  14
ENDBRANCH  12  13
ENDBRANCH  11  12
ENDBRANCH  10  11
ENDBRANCH   1  10
TORSDOF 12
ENDMDL
MODEL 9
REMARK VINA RESULT:    -4.388     12.767     14.127
REMARK INTER + INTRA:          -8.805
REMARK INTER:                  -7.044
REMARK INTRA:                  -1.760
REMARK UNBOUND:                -1.338
REMARK SMILES CCCCCCCCCCCCCC(=O)[O-]
REMARK SMILES IDX 8 1 9 2 10 3 11 4 12 5 13 6 14 7 15 8 16 9 7 10 6 11 5 12
REMARK SMILES IDX 4 13 3 14 2 15 1 16
REMARK H PARENT
REMARK Flexibility Score: inf
ROOT
ATOM      1  C   UNL     1      47.418 -38.386   7.611  1.00  0.00     0.000 C 
ENDROOT
BRANCH   1   2
ATOM      2  C   UNL     1      48.334 -37.322   6.988  1.00  0.00     0.000 C 
BRANCH   2   3
ATOM      3  C   UNL     1      48.958 -36.387   8.036  1.00  0.00     0.000 C 
BRANCH   3   4
ATOM      4  C   UNL     1      50.464 -36.622   8.217  1.00  0.00     0.000 C 
BRANCH   4   5
ATOM      5  C   UNL     1      50.954 -36.042   9.553  1.00  0.00     0.006 C 
BRANCH   5   6
ATOM      6  C   UNL     1      50.242 -34.733   9.915  1.00  0.00     0.053 C 
BRANCH   6   7
ATOM      7  C   UNL     1      50.853 -34.085  11.121  1.00  0.00     0.041 C 
ATOM      8  O   UNL     1      52.080 -33.800  11.135  1.00  0.00    -0.550 OA
ATOM      9  O   UNL     1      50.060 -33.769  12.217  1.00  0.00    -0.550 OA
ENDBRANCH   6   7
ENDBRANCH   5   6
ENDBRANCH   4   5
ENDBRANCH   3   4
ENDBRANCH   2   3
ENDBRANCH   1   2
BRANCH   1  10
ATOM     10  C   UNL     1      46.962 -37.960   9.015  1.00  0.00     0.000 C 
BRANCH  10  11
ATOM     11  C   UNL     1      47.256 -39.026  10.082  1.00  0.00    -0.000 C 
BRANCH  11  12
ATOM     12  C   UNL     1      48.532 -38.727  10.883  1.00  0.00    -0.000 C 
BRANCH  12  13
ATOM     13  C   UNL     1      49.733 -39.490  10.309  1.00  0.00    -0.000 C 
BRANCH  13  14
ATOM     14  C   UNL     1      49.294 -40.832   9.706  1.00  0.00    -0.000 C 
BRANCH  14  15
ATOM     15  C   UNL     1      49.864 -41.061   8.298  1.00  0.00    -0.003 C 
ATOM     16  C   UNL     1      49.202 -42.234   7.575  1.00  0.00     0.004 C 
ENDBRANCH  14  15
ENDBRANCH  13  14
ENDBRANCH  12  13
ENDBRANCH  11  12
ENDBRANCH  10  11
ENDBRANCH   1  10
TORSDOF 12
ENDMDL
