MODEL 1
REMARK VINA RESULT:    -4.415      0.000      0.000
REMARK INTER + INTRA:          -4.830
REMARK INTER:                  -4.802
REMARK INTRA:                  -0.027
REMARK UNBOUND:                -0.027
REMARK SMILES O=C([O-])c1ccc(O)cc1
REMARK SMILES IDX 4 1 5 2 10 3 6 4 9 5 7 6 2 7 1 8 3 9 8 10
REMARK H PARENT 8 11
REMARK Flexibility Score: inf
ROOT
ATOM      1  C   UNL     1      20.807   0.123 -20.590  1.00  0.00    -0.003 A 
ATOM      2  C   UNL     1      19.543  -0.464 -20.785  1.00  0.00     0.014 A 
ATOM      3  C   UNL     1      21.394   0.070 -19.313  1.00  0.00     0.014 A 
ATOM      4  C   UNL     1      18.882  -1.089 -19.724  1.00  0.00     0.047 A 
ATOM      5  C   UNL     1      20.729  -0.557 -18.253  1.00  0.00     0.047 A 
ATOM      6  C   UNL     1      19.474  -1.137 -18.455  1.00  0.00     0.115 A 
ENDROOT
BRANCH   1   7
ATOM      7  C   UNL     1      21.504   0.784 -21.715  1.00  0.00     0.071 C 
ATOM      8  O   UNL     1      21.536   2.041 -21.798  1.00  0.00    -0.545 OA
ATOM      9  O   UNL     1      22.134   0.028 -22.696  1.00  0.00    -0.545 OA
ENDBRANCH   1   7
BRANCH   6  10
ATOM     10  O   UNL     1      18.824  -1.758 -17.390  1.00  0.00    -0.508 OA
ATOM     11  H   UNL     1      18.992  -2.730 -17.161  1.00  0.00     0.293 HD
ENDBRANCH   6  10
TORSDOF 2
ENDMDL
MODEL 2
REMARK VINA RESULT:    -4.323     17.674     19.465
REMARK INTER + INTRA:          -4.729
REMARK INTER:                  -4.697
REMARK INTRA:                  -0.032
REMARK UNBOUND:                -0.027
REMARK SMILES O=C([O-])c1ccc(O)cc1
REMARK SMILES IDX 4 1 5 2 10 3 6 4 9 5 7 6 2 7 1 8 3 9 8 10
REMARK H PARENT 8 11
REMARK Flexibility Score: inf
ROOT
ATOM      1  C   UNL     1       5.497   5.011  -8.470  1.00  0.00    -0.003 A 
ATOM      2  C   UNL     1       6.689   4.952  -9.216  1.00  0.00     0.014 A 
ATOM      3  C   UNL     1       5.249   4.022  -7.501  1.00  0.00     0.014 A 
ATOM      4  C   UNL     1       7.611   3.924  -8.996  1.00  0.00     0.047 A 
ATOM      5  C   UNL     1       6.175   2.996  -7.283  1.00  0.00     0.047 A 
ATOM      6  C   UNL     1       7.356   2.944  -8.028  1.00  0.00     0.115 A 
ENDROOT
BRANCH   1   7
ATOM      7  C   UNL     1       4.523   6.099  -8.705  1.00  0.00     0.071 C 
ATOM      8  O   UNL     1       3.875   6.597  -7.746  1.00  0.00    -0.545 OA
ATOM      9  O   UNL     1       4.310   6.589  -9.988  1.00  0.00    -0.545 OA
ENDBRANCH   1   7
BRANCH   6  10
ATOM     10  O   UNL     1       8.268   1.915  -7.801  1.00  0.00    -0.508 OA
ATOM     11  H   UNL     1       8.768   1.835  -6.923  1.00  0.00     0.293 HD
ENDBRANCH   6  10
TORSDOF 2
ENDMDL
MODEL 3
REMARK VINA RESULT:    -4.191     17.283     18.203
REMARK INTER + INTRA:          -4.586
REMARK INTER:                  -4.559
REMARK INTRA:                  -0.027
REMARK UNBOUND:                -0.027
REMARK SMILES O=C([O-])c1ccc(O)cc1
REMARK SMILES IDX 4 1 5 2 10 3 6 4 9 5 7 6 2 7 1 8 3 9 8 10
REMARK H PARENT 8 11
REMARK Flexibility Score: inf
ROOT
ATOM      1  C   UNL     1       8.600  -7.231  -8.556  1.00  0.00    -0.003 A 
ATOM      2  C   UNL     1       7.796  -6.529  -7.640  1.00  0.00     0.014 A 
ATOM      3  C   UNL     1       9.999  -7.119  -8.461  1.00  0.00     0.014 A 
ATOM      4  C   UNL     1       8.380  -5.731  -6.652  1.00  0.00     0.047 A 
ATOM      5  C   UNL     1      10.580  -6.320  -7.470  1.00  0.00     0.047 A 
ATOM      6  C   UNL     1       9.774  -5.625  -6.565  1.00  0.00     0.115 A 
ENDROOT
BRANCH   1   7
ATOM      7  C   UNL     1       7.979  -8.074  -9.601  1.00  0.00     0.071 C 
ATOM      8  O   UNL     1       7.528  -9.216  -9.318  1.00  0.00    -0.545 OA
ATOM      9  O   UNL     1       7.884  -7.618 -10.910  1.00  0.00    -0.545 OA
ENDBRANCH   1   7
BRANCH   6  10
ATOM     10  O   UNL     1      10.367  -4.833  -5.584  1.00  0.00    -0.508 OA
ATOM     11  H   UNL     1      11.354  -4.908  -5.367  1.00  0.00     0.293 HD
ENDBRANCH   6  10
TORSDOF 2
ENDMDL
MODEL 4
REMARK VINA RESULT:    -4.152     17.154     18.060
REMARK INTER + INTRA:          -4.544
REMARK INTER:                  -4.517
REMARK INTRA:                  -0.027
REMARK UNBOUND:                -0.027
REMARK SMILES O=C([O-])c1ccc(O)cc1
REMARK SMILES IDX 4 1 5 2 10 3 6 4 9 5 7 6 2 7 1 8 3 9 8 10
REMARK H PARENT 8 11
REMARK Flexibility Score: inf
ROOT
ATOM      1  C   UNL     1       8.625  -7.118  -8.744  1.00  0.00    -0.003 A 
ATOM      2  C   UNL     1      10.021  -7.136  -8.573  1.00  0.00     0.014 A 
ATOM      3  C   UNL     1       7.839  -6.351  -7.865  1.00  0.00     0.014 A 
ATOM      4  C   UNL     1      10.617  -6.402  -7.542  1.00  0.00     0.047 A 
ATOM      5  C   UNL     1       8.439  -5.618  -6.835  1.00  0.00     0.047 A 
ATOM      6  C   UNL     1       9.827  -5.642  -6.671  1.00  0.00     0.115 A 
ENDROOT
BRANCH   1   7
ATOM      7  C   UNL     1       7.997  -7.895  -9.835  1.00  0.00     0.071 C 
ATOM      8  O   UNL     1       7.506  -9.034  -9.609  1.00  0.00    -0.545 OA
ATOM      9  O   UNL     1       7.939  -7.381 -11.124  1.00  0.00    -0.545 OA
ENDBRANCH   1   7
BRANCH   6  10
ATOM     10  O   UNL     1      10.410  -4.907  -5.641  1.00  0.00    -0.508 OA
ATOM     11  H   UNL     1      10.121  -5.025  -4.677  1.00  0.00     0.293 HD
ENDBRANCH   6  10
TORSDOF 2
ENDMDL
MODEL 5
REMARK VINA RESULT:    -4.122     16.185     17.547
REMARK INTER + INTRA:          -4.510
REMARK INTER:                  -4.479
REMARK INTRA:                  -0.031
REMARK UNBOUND:                -0.027
REMARK SMILES O=C([O-])c1ccc(O)cc1
REMARK SMILES IDX 4 1 5 2 10 3 6 4 9 5 7 6 2 7 1 8 3 9 8 10
REMARK H PARENT 8 11
REMARK Flexibility Score: inf
ROOT
ATOM      1  C   UNL     1       9.870  -6.349  -8.273  1.00  0.00    -0.003 A 
ATOM      2  C   UNL     1       9.281  -5.825  -9.438  1.00  0.00     0.014 A 
ATOM      3  C   UNL     1       9.162  -6.276  -7.059  1.00  0.00     0.014 A 
ATOM      4  C   UNL     1       8.012  -5.240  -9.389  1.00  0.00     0.047 A 
ATOM      5  C   UNL     1       7.892  -5.691  -7.014  1.00  0.00     0.047 A 
ATOM      6  C   UNL     1       7.315  -5.172  -8.176  1.00  0.00     0.115 A 
ENDROOT
BRANCH   1   7
ATOM      7  C   UNL     1      11.213  -6.966  -8.328  1.00  0.00     0.071 C 
ATOM      8  O   UNL     1      12.146  -6.413  -8.969  1.00  0.00    -0.545 OA
ATOM      9  O   UNL     1      11.465  -8.166  -7.673  1.00  0.00    -0.545 OA
ENDBRANCH   1   7
BRANCH   6  10
ATOM     10  O   UNL     1       6.050  -4.592  -8.115  1.00  0.00    -0.508 OA
ATOM     11  H   UNL     1       5.211  -5.130  -8.298  1.00  0.00     0.293 HD
ENDBRANCH   6  10
TORSDOF 2
ENDMDL
MODEL 6
REMARK VINA RESULT:    -4.104     17.651     19.439
REMARK INTER + INTRA:          -4.491
REMARK INTER:                  -4.458
REMARK INTRA:                  -0.033
REMARK UNBOUND:                -0.027
REMARK SMILES O=C([O-])c1ccc(O)cc1
REMARK SMILES IDX 4 1 5 2 10 3 6 4 9 5 7 6 2 7 1 8 3 9 8 10
REMARK H PARENT 8 11
REMARK Flexibility Score: inf
ROOT
ATOM      1  C   UNL     1       5.518   4.979  -8.469  1.00  0.00    -0.003 A 
ATOM      2  C   UNL     1       5.271   3.997  -7.493  1.00  0.00     0.014 A 
ATOM      3  C   UNL     1       6.707   4.914  -9.216  1.00  0.00     0.014 A 
ATOM      4  C   UNL     1       6.196   2.972  -7.270  1.00  0.00     0.047 A 
ATOM      5  C   UNL     1       7.630   3.887  -8.991  1.00  0.00     0.047 A 
ATOM      6  C   UNL     1       7.378   2.915  -8.019  1.00  0.00     0.115 A 
ENDROOT
BRANCH   1   7
ATOM      7  C   UNL     1       4.538   6.062  -8.701  1.00  0.00     0.071 C 
ATOM      8  O   UNL     1       3.875   6.543  -7.743  1.00  0.00    -0.545 OA
ATOM      9  O   UNL     1       4.334   6.566  -9.980  1.00  0.00    -0.545 OA
ENDBRANCH   1   7
BRANCH   6  10
ATOM     10  O   UNL     1       8.307   1.899  -7.806  1.00  0.00    -0.508 OA
ATOM     11  H   UNL     1       9.297   2.045  -7.961  1.00  0.00     0.293 HD
ENDBRANCH   6  10
TORSDOF 2
ENDMDL
MODEL 7
REMARK VINA RESULT:    -4.099     12.376     13.494
REMARK INTER + INTRA:          -4.486
REMARK INTER:                  -4.456
REMARK INTRA:                  -0.030
REMARK UNBOUND:                -0.027
REMARK SMILES O=C([O-])c1ccc(O)cc1
REMARK SMILES IDX 4 1 5 2 10 3 6 4 9 5 7 6 2 7 1 8 3 9 8 10
REMARK H PARENT 8 11
REMARK Flexibility Score: inf
ROOT
ATOM      1  C   UNL     1      21.868  -2.717  -7.196  1.00  0.00    -0.003 A 
ATOM      2  C   UNL     1      21.427  -3.007  -5.893  1.00  0.00     0.014 A 
ATOM      3  C   UNL     1      20.916  -2.539  -8.216  1.00  0.00     0.014 A 
ATOM      4  C   UNL     1      20.060  -3.116  -5.616  1.00  0.00     0.047 A 
ATOM      5  C   UNL     1      19.550  -2.649  -7.935  1.00  0.00     0.047 A 
ATOM      6  C   UNL     1      19.119  -2.937  -6.638  1.00  0.00     0.115 A 
ENDROOT
BRANCH   1   7
ATOM      7  C   UNL     1      23.315  -2.603  -7.485  1.00  0.00     0.071 C 
ATOM      8  O   UNL     1      24.111  -3.514  -7.136  1.00  0.00    -0.545 OA
ATOM      9  O   UNL     1      23.815  -1.488  -8.147  1.00  0.00    -0.545 OA
ENDBRANCH   1   7
BRANCH   6  10
ATOM     10  O   UNL     1      17.755  -3.044  -6.374  1.00  0.00    -0.508 OA
ATOM     11  H   UNL     1      17.064  -2.601  -6.969  1.00  0.00     0.293 HD
ENDBRANCH   6  10
TORSDOF 2
ENDMDL
MODEL 8
REMARK VINA RESULT:    -3.964     17.277     18.670
REMARK INTER + INTRA:          -4.339
REMARK INTER:                  -4.303
REMARK INTRA:                  -0.036
REMARK UNBOUND:                -0.027
REMARK SMILES O=C([O-])c1ccc(O)cc1
REMARK SMILES IDX 4 1 5 2 10 3 6 4 9 5 7 6 2 7 1 8 3 9 8 10
REMARK H PARENT 8 11
REMARK Flexibility Score: inf
ROOT
ATOM      1  C   UNL     1       9.515  -7.781  -7.722  1.00  0.00    -0.003 A 
ATOM      2  C   UNL     1      10.095  -6.522  -7.487  1.00  0.00     0.014 A 
ATOM      3  C   UNL     1       8.339  -8.130  -7.034  1.00  0.00     0.014 A 
ATOM      4  C   UNL     1       9.510  -5.631  -6.582  1.00  0.00     0.047 A 
ATOM      5  C   UNL     1       7.757  -7.236  -6.129  1.00  0.00     0.047 A 
ATOM      6  C   UNL     1       8.339  -5.986  -5.901  1.00  0.00     0.115 A 
ENDROOT
BRANCH   1   7
ATOM      7  C   UNL     1      10.136  -8.722  -8.680  1.00  0.00     0.071 C 
ATOM      8  O   UNL     1       9.657  -9.875  -8.848  1.00  0.00    -0.545 OA
ATOM      9  O   UNL     1      11.258  -8.347  -9.410  1.00  0.00    -0.545 OA
ENDBRANCH   1   7
BRANCH   6  10
ATOM     10  O   UNL     1       7.748  -5.106  -4.997  1.00  0.00    -0.508 OA
ATOM     11  H   UNL     1       8.193  -4.234  -4.738  1.00  0.00     0.293 HD
ENDBRANCH   6  10
TORSDOF 2
ENDMDL
MODEL 9
REMARK VINA RESULT:    -3.398      1.199      4.490
REMARK INTER + INTRA:          -3.723
REMARK INTER:                  -3.688
REMARK INTRA:                  -0.036
REMARK UNBOUND:                -0.027
REMARK SMILES O=C([O-])c1ccc(O)cc1
REMARK SMILES IDX 4 1 5 2 10 3 6 4 9 5 7 6 2 7 1 8 3 9 8 10
REMARK H PARENT 8 11
REMARK Flexibility Score: inf
ROOT
ATOM      1  C   UNL     1      20.278  -0.814 -19.975  1.00  0.00    -0.003 A 
ATOM      2  C   UNL     1      20.852   0.454 -19.772  1.00  0.00     0.014 A 
ATOM      3  C   UNL     1      20.379  -1.413 -21.244  1.00  0.00     0.014 A 
ATOM      4  C   UNL     1      21.511   1.109 -20.816  1.00  0.00     0.047 A 
ATOM      5  C   UNL     1      21.041  -0.755 -22.287  1.00  0.00     0.047 A 
ATOM      6  C   UNL     1      21.607   0.505 -22.077  1.00  0.00     0.115 A 
ENDROOT
BRANCH   1   7
ATOM      7  C   UNL     1      19.580  -1.503 -18.868  1.00  0.00     0.071 C 
ATOM      8  O   UNL     1      19.190  -2.694 -19.000  1.00  0.00    -0.545 OA
ATOM      9  O   UNL     1      19.346  -0.848 -17.666  1.00  0.00    -0.545 OA
ENDBRANCH   1   7
BRANCH   6  10
ATOM     10  O   UNL     1      22.262   1.148 -23.125  1.00  0.00    -0.508 OA
ATOM     11  H   UNL     1      23.226   0.936 -23.357  1.00  0.00     0.293 HD
ENDBRANCH   6  10
TORSDOF 2
ENDMDL
