MODEL 1
REMARK VINA RESULT:    -2.597      0.000      0.000
REMARK INTER + INTRA:          -3.409
REMARK INTER:                  -3.280
REMARK INTRA:                  -0.129
REMARK UNBOUND:                -0.129
REMARK SMILES CSCC[C@H]([NH3+])C(=O)[O-]
REMARK SMILES IDX 4 1 5 2 6 3 7 7 8 8 9 9 3 10 2 11 1 12
REMARK H PARENT 6 4 6 5 6 6
REMARK Flexibility Score: inf
ROOT
ATOM      1  C   UNL     1      -3.358   7.144   5.572  1.00  0.00     0.082 C 
ENDROOT
BRANCH   1   2
ATOM      2  C   UNL     1      -3.855   5.683   5.526  1.00  0.00     0.228 C 
BRANCH   2   3
ATOM      3  N   UNL     1      -5.201   5.585   4.946  1.00  0.00    -0.350 N 
ATOM      4  H   UNL     1      -5.780   6.404   5.247  1.00  0.00     0.345 HD
ATOM      5  H   UNL     1      -5.156   5.565   3.901  1.00  0.00     0.345 HD
ATOM      6  H   UNL     1      -5.679   4.720   5.288  1.00  0.00     0.345 HD
ENDBRANCH   2   3
BRANCH   2   7
ATOM      7  C   UNL     1      -3.852   5.107   6.917  1.00  0.00     0.099 C 
ATOM      8  O   UNL     1      -3.713   5.863   7.915  1.00  0.00    -0.544 OA
ATOM      9  O   UNL     1      -4.024   3.742   7.111  1.00  0.00    -0.544 OA
ENDBRANCH   2   7
ENDBRANCH   1   2
BRANCH   1  10
ATOM     10  C   UNL     1      -2.290   7.438   4.513  1.00  0.00     0.076 C 
BRANCH  10  11
ATOM     11  S   UNL     1      -2.858   8.750   3.372  1.00  0.00    -0.165 SA
ATOM     12  C   UNL     1      -4.277   9.285   4.382  1.00  0.00     0.085 C 
ENDBRANCH  10  11
ENDBRANCH   1  10
TORSDOF 5
ENDMDL
MODEL 2
REMARK VINA RESULT:    -2.509      3.449      3.905
REMARK INTER + INTRA:          -3.299
REMARK INTER:                  -3.196
REMARK INTRA:                  -0.102
REMARK UNBOUND:                -0.129
REMARK SMILES CSCC[C@H]([NH3+])C(=O)[O-]
REMARK SMILES IDX 4 1 5 2 6 3 7 7 8 8 9 9 3 10 2 11 1 12
REMARK H PARENT 6 4 6 5 6 6
REMARK Flexibility Score: inf
ROOT
ATOM      1  C   UNL     1      -6.374   5.771   4.953  1.00  0.00     0.082 C 
ENDROOT
BRANCH   1   2
ATOM      2  C   UNL     1      -5.144   5.640   5.877  1.00  0.00     0.228 C 
BRANCH   2   3
ATOM      3  N   UNL     1      -3.896   5.532   5.109  1.00  0.00    -0.350 N 
ATOM      4  H   UNL     1      -3.769   6.383   4.514  1.00  0.00     0.345 HD
ATOM      5  H   UNL     1      -3.073   5.435   5.746  1.00  0.00     0.345 HD
ATOM      6  H   UNL     1      -3.938   4.706   4.470  1.00  0.00     0.345 HD
ENDBRANCH   2   3
BRANCH   2   7
ATOM      7  C   UNL     1      -5.308   4.435   6.764  1.00  0.00     0.099 C 
ATOM      8  O   UNL     1      -6.424   3.859   6.850  1.00  0.00    -0.544 OA
ATOM      9  O   UNL     1      -4.224   3.938   7.479  1.00  0.00    -0.544 OA
ENDBRANCH   2   7
ENDBRANCH   1   2
BRANCH   1  10
ATOM     10  C   UNL     1      -7.214   7.016   5.260  1.00  0.00     0.076 C 
BRANCH  10  11
ATOM     11  S   UNL     1      -8.996   6.604   5.275  1.00  0.00    -0.165 SA
ATOM     12  C   UNL     1      -8.967   5.564   3.778  1.00  0.00     0.085 C 
ENDBRANCH  10  11
ENDBRANCH   1  10
TORSDOF 5
ENDMDL
MODEL 3
REMARK VINA RESULT:    -2.509     11.117     11.421
REMARK INTER + INTRA:          -3.298
REMARK INTER:                  -3.129
REMARK INTRA:                  -0.168
REMARK UNBOUND:                -0.129
REMARK SMILES CSCC[C@H]([NH3+])C(=O)[O-]
REMARK SMILES IDX 4 1 5 2 6 3 7 7 8 8 9 9 3 10 2 11 1 12
REMARK H PARENT 6 4 6 5 6 6
REMARK Flexibility Score: inf
ROOT
ATOM      1  C   UNL     1      -5.965  -2.467  -0.331  1.00  0.00     0.082 C 
ENDROOT
BRANCH   1   2
ATOM      2  C   UNL     1      -6.044  -3.135   1.059  1.00  0.00     0.228 C 
BRANCH   2   3
ATOM      3  N   UNL     1      -6.395  -2.167   2.107  1.00  0.00    -0.350 N 
ATOM      4  H   UNL     1      -5.857  -2.375   2.980  1.00  0.00     0.345 HD
ATOM      5  H   UNL     1      -6.180  -1.190   1.799  1.00  0.00     0.345 HD
ATOM      6  H   UNL     1      -7.412  -2.240   2.339  1.00  0.00     0.345 HD
ENDBRANCH   2   3
BRANCH   2   7
ATOM      7  C   UNL     1      -4.724  -3.783   1.381  1.00  0.00     0.099 C 
ATOM      8  O   UNL     1      -4.431  -4.065   2.573  1.00  0.00    -0.544 OA
ATOM      9  O   UNL     1      -3.829  -4.094   0.363  1.00  0.00    -0.544 OA
ENDBRANCH   2   7
ENDBRANCH   1   2
BRANCH   1  10
ATOM     10  C   UNL     1      -6.894  -3.127  -1.356  1.00  0.00     0.076 C 
BRANCH  10  11
ATOM     11  S   UNL     1      -8.603  -3.223  -0.710  1.00  0.00    -0.165 SA
ATOM     12  C   UNL     1      -8.918  -1.428  -0.729  1.00  0.00     0.085 C 
ENDBRANCH  10  11
ENDBRANCH   1  10
TORSDOF 5
ENDMDL
MODEL 4
REMARK VINA RESULT:    -2.469     11.181     11.728
REMARK INTER + INTRA:          -3.247
REMARK INTER:                  -3.056
REMARK INTRA:                  -0.191
REMARK UNBOUND:                -0.129
REMARK SMILES CSCC[C@H]([NH3+])C(=O)[O-]
REMARK SMILES IDX 4 1 5 2 6 3 7 7 8 8 9 9 3 10 2 11 1 12
REMARK H PARENT 6 4 6 5 6 6
REMARK Flexibility Score: inf
ROOT
ATOM      1  C   UNL     1      -6.088  -2.343  -0.222  1.00  0.00     0.082 C 
ENDROOT
BRANCH   1   2
ATOM      2  C   UNL     1      -6.111  -3.087   1.131  1.00  0.00     0.228 C 
BRANCH   2   3
ATOM      3  N   UNL     1      -6.438  -2.183   2.242  1.00  0.00    -0.350 N 
ATOM      4  H   UNL     1      -6.823  -2.731   3.046  1.00  0.00     0.345 HD
ATOM      5  H   UNL     1      -5.589  -1.662   2.560  1.00  0.00     0.345 HD
ATOM      6  H   UNL     1      -7.172  -1.500   1.946  1.00  0.00     0.345 HD
ENDBRANCH   2   3
BRANCH   2   7
ATOM      7  C   UNL     1      -4.774  -3.735   1.372  1.00  0.00     0.099 C 
ATOM      8  O   UNL     1      -3.959  -3.877   0.422  1.00  0.00    -0.544 OA
ATOM      9  O   UNL     1      -4.422  -4.161   2.647  1.00  0.00    -0.544 OA
ENDBRANCH   2   7
ENDBRANCH   1   2
BRANCH   1  10
ATOM     10  C   UNL     1      -7.185  -2.822  -1.179  1.00  0.00     0.076 C 
BRANCH  10  11
ATOM     11  S   UNL     1      -6.625  -4.289  -2.118  1.00  0.00    -0.165 SA
ATOM     12  C   UNL     1      -5.196  -3.479  -2.909  1.00  0.00     0.085 C 
ENDBRANCH  10  11
ENDBRANCH   1  10
TORSDOF 5
ENDMDL
MODEL 5
REMARK VINA RESULT:    -2.467     10.197     11.131
REMARK INTER + INTRA:          -3.245
REMARK INTER:                  -3.100
REMARK INTRA:                  -0.144
REMARK UNBOUND:                -0.129
REMARK SMILES CSCC[C@H]([NH3+])C(=O)[O-]
REMARK SMILES IDX 4 1 5 2 6 3 7 7 8 8 9 9 3 10 2 11 1 12
REMARK H PARENT 6 4 6 5 6 6
REMARK Flexibility Score: inf
ROOT
ATOM      1  C   UNL     1      -6.298  -3.692   1.721  1.00  0.00     0.082 C 
ENDROOT
BRANCH   1   2
ATOM      2  C   UNL     1      -6.922  -2.489   0.981  1.00  0.00     0.228 C 
BRANCH   2   3
ATOM      3  N   UNL     1      -5.959  -1.851   0.074  1.00  0.00    -0.350 N 
ATOM      4  H   UNL     1      -5.587  -2.556  -0.605  1.00  0.00     0.345 HD
ATOM      5  H   UNL     1      -6.408  -1.070  -0.458  1.00  0.00     0.345 HD
ATOM      6  H   UNL     1      -5.147  -1.478   0.615  1.00  0.00     0.345 HD
ENDBRANCH   2   3
BRANCH   2   7
ATOM      7  C   UNL     1      -7.424  -1.487   1.985  1.00  0.00     0.099 C 
ATOM      8  O   UNL     1      -6.881  -1.399   3.119  1.00  0.00    -0.544 OA
ATOM      9  O   UNL     1      -8.475  -0.637   1.663  1.00  0.00    -0.544 OA
ENDBRANCH   2   7
ENDBRANCH   1   2
BRANCH   1  10
ATOM     10  C   UNL     1      -4.785  -3.799   1.502  1.00  0.00     0.076 C 
BRANCH  10  11
ATOM     11  S   UNL     1      -4.382  -5.271   0.493  1.00  0.00    -0.165 SA
ATOM     12  C   UNL     1      -3.366  -4.390  -0.737  1.00  0.00     0.085 C 
ENDBRANCH  10  11
ENDBRANCH   1  10
TORSDOF 5
ENDMDL
MODEL 6
REMARK VINA RESULT:    -2.401     10.410     11.251
REMARK INTER + INTRA:          -3.161
REMARK INTER:                  -2.936
REMARK INTRA:                  -0.226
REMARK UNBOUND:                -0.129
REMARK SMILES CSCC[C@H]([NH3+])C(=O)[O-]
REMARK SMILES IDX 4 1 5 2 6 3 7 7 8 8 9 9 3 10 2 11 1 12
REMARK H PARENT 6 4 6 5 6 6
REMARK Flexibility Score: inf
ROOT
ATOM      1  C   UNL     1      -7.863  -3.786   1.190  1.00  0.00     0.082 C 
ENDROOT
BRANCH   1   2
ATOM      2  C   UNL     1      -6.876  -2.598   1.208  1.00  0.00     0.228 C 
BRANCH   2   3
ATOM      3  N   UNL     1      -5.588  -2.972   1.808  1.00  0.00    -0.350 N 
ATOM      4  H   UNL     1      -4.932  -2.157   1.782  1.00  0.00     0.345 HD
ATOM      5  H   UNL     1      -5.714  -3.276   2.801  1.00  0.00     0.345 HD
ATOM      6  H   UNL     1      -5.148  -3.747   1.262  1.00  0.00     0.345 HD
ENDBRANCH   2   3
BRANCH   2   7
ATOM      7  C   UNL     1      -7.484  -1.451   1.969  1.00  0.00     0.099 C 
ATOM      8  O   UNL     1      -7.034  -1.133   3.102  1.00  0.00    -0.544 OA
ATOM      9  O   UNL     1      -8.531  -0.721   1.419  1.00  0.00    -0.544 OA
ENDBRANCH   2   7
ENDBRANCH   1   2
BRANCH   1  10
ATOM     10  C   UNL     1      -8.620  -3.905  -0.137  1.00  0.00     0.076 C 
BRANCH  10  11
ATOM     11  S   UNL     1      -7.735  -3.011  -1.466  1.00  0.00    -0.165 SA
ATOM     12  C   UNL     1      -9.118  -1.911  -1.912  1.00  0.00     0.085 C 
ENDBRANCH  10  11
ENDBRANCH   1  10
TORSDOF 5
ENDMDL
MODEL 7
REMARK VINA RESULT:    -2.382      2.683      3.065
REMARK INTER + INTRA:          -3.138
REMARK INTER:                  -2.898
REMARK INTRA:                  -0.239
REMARK UNBOUND:                -0.129
REMARK SMILES CSCC[C@H]([NH3+])C(=O)[O-]
REMARK SMILES IDX 4 1 5 2 6 3 7 7 8 8 9 9 3 10 2 11 1 12
REMARK H PARENT 6 4 6 5 6 6
REMARK Flexibility Score: inf
ROOT
ATOM      1  C   UNL     1      -5.097   6.452   7.023  1.00  0.00     0.082 C 
ENDROOT
BRANCH   1   2
ATOM      2  C   UNL     1      -4.117   5.336   6.601  1.00  0.00     0.228 C 
BRANCH   2   3
ATOM      3  N   UNL     1      -3.849   5.365   5.157  1.00  0.00    -0.350 N 
ATOM      4  H   UNL     1      -4.662   4.961   4.636  1.00  0.00     0.345 HD
ATOM      5  H   UNL     1      -3.687   6.345   4.828  1.00  0.00     0.345 HD
ATOM      6  H   UNL     1      -3.011   4.783   4.934  1.00  0.00     0.345 HD
ENDBRANCH   2   3
BRANCH   2   7
ATOM      7  C   UNL     1      -4.681   3.997   6.992  1.00  0.00     0.099 C 
ATOM      8  O   UNL     1      -3.915   3.073   7.374  1.00  0.00    -0.544 OA
ATOM      9  O   UNL     1      -6.053   3.776   6.954  1.00  0.00    -0.544 OA
ENDBRANCH   2   7
ENDBRANCH   1   2
BRANCH   1  10
ATOM     10  C   UNL     1      -5.562   7.307   5.839  1.00  0.00     0.076 C 
BRANCH  10  11
ATOM     11  S   UNL     1      -7.377   7.199   5.639  1.00  0.00    -0.165 SA
ATOM     12  C   UNL     1      -7.354   5.886   4.374  1.00  0.00     0.085 C 
ENDBRANCH  10  11
ENDBRANCH   1  10
TORSDOF 5
ENDMDL
MODEL 8
REMARK VINA RESULT:    -2.379      8.298      8.962
REMARK INTER + INTRA:          -3.133
REMARK INTER:                  -3.078
REMARK INTRA:                  -0.056
REMARK UNBOUND:                -0.129
REMARK SMILES CSCC[C@H]([NH3+])C(=O)[O-]
REMARK SMILES IDX 4 1 5 2 6 3 7 7 8 8 9 9 3 10 2 11 1 12
REMARK H PARENT 6 4 6 5 6 6
REMARK Flexibility Score: inf
ROOT
ATOM      1  C   UNL     1       3.756   2.939   4.345  1.00  0.00     0.082 C 
ENDROOT
BRANCH   1   2
ATOM      2  C   UNL     1       3.909   3.840   3.100  1.00  0.00     0.228 C 
BRANCH   2   3
ATOM      3  N   UNL     1       3.202   5.118   3.266  1.00  0.00    -0.350 N 
ATOM      4  H   UNL     1       3.788   5.780   3.826  1.00  0.00     0.345 HD
ATOM      5  H   UNL     1       2.993   5.551   2.337  1.00  0.00     0.345 HD
ATOM      6  H   UNL     1       2.309   4.970   3.788  1.00  0.00     0.345 HD
ENDBRANCH   2   3
BRANCH   2   7
ATOM      7  C   UNL     1       3.386   3.117   1.888  1.00  0.00     0.099 C 
ATOM      8  O   UNL     1       2.240   2.593   1.909  1.00  0.00    -0.544 OA
ATOM      9  O   UNL     1       4.153   3.040   0.732  1.00  0.00    -0.544 OA
ENDBRANCH   2   7
ENDBRANCH   1   2
BRANCH   1  10
ATOM     10  C   UNL     1       3.408   3.732   5.609  1.00  0.00     0.076 C 
BRANCH  10  11
ATOM     11  S   UNL     1       3.287   2.619   7.055  1.00  0.00    -0.165 SA
ATOM     12  C   UNL     1       3.305   3.936   8.315  1.00  0.00     0.085 C 
ENDBRANCH  10  11
ENDBRANCH   1  10
TORSDOF 5
ENDMDL
MODEL 9
REMARK VINA RESULT:    -2.340     10.482     11.410
REMARK INTER + INTRA:          -3.085
REMARK INTER:                  -2.887
REMARK INTRA:                  -0.198
REMARK UNBOUND:                -0.129
REMARK SMILES CSCC[C@H]([NH3+])C(=O)[O-]
REMARK SMILES IDX 4 1 5 2 6 3 7 7 8 8 9 9 3 10 2 11 1 12
REMARK H PARENT 6 4 6 5 6 6
REMARK Flexibility Score: inf
ROOT
ATOM      1  C   UNL     1      -7.715  -3.796   1.072  1.00  0.00     0.082 C 
ENDROOT
BRANCH   1   2
ATOM      2  C   UNL     1      -6.712  -2.639   1.272  1.00  0.00     0.228 C 
BRANCH   2   3
ATOM      3  N   UNL     1      -5.477  -3.098   1.923  1.00  0.00    -0.350 N 
ATOM      4  H   UNL     1      -4.731  -2.370   1.825  1.00  0.00     0.345 HD
ATOM      5  H   UNL     1      -5.638  -3.287   2.939  1.00  0.00     0.345 HD
ATOM      6  H   UNL     1      -5.128  -3.968   1.461  1.00  0.00     0.345 HD
ENDBRANCH   2   3
BRANCH   2   7
ATOM      7  C   UNL     1      -7.353  -1.555   2.095  1.00  0.00     0.099 C 
ATOM      8  O   UNL     1      -6.980  -1.355   3.281  1.00  0.00    -0.544 OA
ATOM      9  O   UNL     1      -8.347  -0.752   1.545  1.00  0.00    -0.544 OA
ENDBRANCH   2   7
ENDBRANCH   1   2
BRANCH   1  10
ATOM     10  C   UNL     1      -8.148  -3.956  -0.389  1.00  0.00     0.076 C 
BRANCH  10  11
ATOM     11  S   UNL     1      -7.039  -3.014  -1.497  1.00  0.00    -0.165 SA
ATOM     12  C   UNL     1      -5.978  -4.424  -1.955  1.00  0.00     0.085 C 
ENDBRANCH  10  11
ENDBRANCH   1  10
TORSDOF 5
ENDMDL
