MODEL 1
REMARK VINA RESULT:    -3.766      0.000      0.000
REMARK INTER + INTRA:         -12.694
REMARK INTER:                  -8.610
REMARK INTRA:                  -4.083
REMARK UNBOUND:                -4.083
REMARK SMILES CCCCCCCCCCCCCCCCCCCCCCCC(=O)[O-]
REMARK SMILES IDX 13 1 14 2 15 3 16 4 17 5 18 6 19 7 20 8 21 9 22 10 23 11
REMARK SMILES IDX 24 12 25 13 26 14 12 15 11 16 10 17 9 18 8 19 7 20 6 21 5 22
REMARK SMILES IDX 4 23 3 24 2 25 1 26
REMARK H PARENT
REMARK Flexibility Score: inf
ROOT
ATOM      1  C   UNL     1      -3.305  25.496   2.488  1.00  0.00     0.000 C 
ENDROOT
BRANCH   1   2
ATOM      2  C   UNL     1      -3.746  26.678   3.372  1.00  0.00     0.000 C 
BRANCH   2   3
ATOM      3  C   UNL     1      -3.418  28.049   2.756  1.00  0.00     0.000 C 
BRANCH   3   4
ATOM      4  C   UNL     1      -2.601  28.945   3.700  1.00  0.00     0.000 C 
BRANCH   4   5
ATOM      5  C   UNL     1      -1.728  29.987   2.968  1.00  0.00     0.000 C 
BRANCH   5   6
ATOM      6  C   UNL     1      -0.324  29.449   2.654  1.00  0.00     0.000 C 
BRANCH   6   7
ATOM      7  C   UNL     1       0.092  29.807   1.219  1.00  0.00     0.000 C 
BRANCH   7   8
ATOM      8  C   UNL     1      -0.501  28.846   0.176  1.00  0.00     0.000 C 
BRANCH   8   9
ATOM      9  C   UNL     1      -1.496  29.547  -0.765  1.00  0.00     0.000 C 
BRANCH   9  10
ATOM     10  C   UNL     1      -2.893  28.904  -0.741  1.00  0.00     0.006 C 
BRANCH  10  11
ATOM     11  C   UNL     1      -4.011  29.899  -1.083  1.00  0.00     0.053 C 
BRANCH  11  12
ATOM     12  C   UNL     1      -4.788  30.283   0.140  1.00  0.00     0.041 C 
ATOM     13  O   UNL     1      -4.319  31.130   0.944  1.00  0.00    -0.550 OA
ATOM     14  O   UNL     1      -5.995  29.656   0.432  1.00  0.00    -0.550 OA
ENDBRANCH  11  12
ENDBRANCH  10  11
ENDBRANCH   9  10
ENDBRANCH   8   9
ENDBRANCH   7   8
ENDBRANCH   6   7
ENDBRANCH   5   6
ENDBRANCH   4   5
ENDBRANCH   3   4
ENDBRANCH   2   3
ENDBRANCH   1   2
BRANCH   1  15
ATOM     15  C   UNL     1      -2.268  25.832   1.400  1.00  0.00     0.000 C 
BRANCH  15  16
ATOM     16  C   UNL     1      -2.183  24.764   0.296  1.00  0.00     0.000 C 
BRANCH  16  17
ATOM     17  C   UNL     1      -2.798  25.232  -1.034  1.00  0.00     0.000 C 
BRANCH  17  18
ATOM     18  C   UNL     1      -4.304  24.944  -1.196  1.00  0.00    -0.000 C 
BRANCH  18  19
ATOM     19  C   UNL     1      -5.229  26.160  -0.996  1.00  0.00    -0.000 C 
BRANCH  19  20
ATOM     20  C   UNL     1      -6.056  26.142   0.303  1.00  0.00    -0.000 C 
BRANCH  20  21
ATOM     21  C   UNL     1      -6.534  24.733   0.687  1.00  0.00    -0.000 C 
BRANCH  21  22
ATOM     22  C   UNL     1      -7.524  24.786   1.861  1.00  0.00    -0.000 C 
BRANCH  22  23
ATOM     23  C   UNL     1      -7.482  26.126   2.620  1.00  0.00    -0.000 C 
BRANCH  23  24
ATOM     24  C   UNL     1      -8.062  26.082   4.045  1.00  0.00    -0.000 C 
BRANCH  24  25
ATOM     25  C   UNL     1      -6.983  26.197   5.130  1.00  0.00    -0.003 C 
ATOM     26  C   UNL     1      -7.489  25.659   6.466  1.00  0.00     0.004 C 
ENDBRANCH  24  25
ENDBRANCH  23  24
ENDBRANCH  22  23
ENDBRANCH  21  22
ENDBRANCH  20  21
ENDBRANCH  19  20
ENDBRANCH  18  19
ENDBRANCH  17  18
ENDBRANCH  16  17
ENDBRANCH  15  16
ENDBRANCH   1  15
TORSDOF 22
ENDMDL
MODEL 2
REMARK VINA RESULT:    -3.710      1.705      2.184
REMARK INTER + INTRA:         -12.566
REMARK INTER:                  -9.573
REMARK INTRA:                  -2.993
REMARK UNBOUND:                -4.083
REMARK SMILES CCCCCCCCCCCCCCCCCCCCCCCC(=O)[O-]
REMARK SMILES IDX 13 1 14 2 15 3 16 4 17 5 18 6 19 7 20 8 21 9 22 10 23 11
REMARK SMILES IDX 24 12 25 13 26 14 12 15 11 16 10 17 9 18 8 19 7 20 6 21 5 22
REMARK SMILES IDX 4 23 3 24 2 25 1 26
REMARK H PARENT
REMARK Flexibility Score: inf
ROOT
ATOM      1  C   UNL     1      -2.001  26.803   0.795  1.00  0.00     0.000 C 
ENDROOT
BRANCH   1   2
ATOM      2  C   UNL     1      -3.465  27.277   0.716  1.00  0.00     0.000 C 
BRANCH   2   3
ATOM      3  C   UNL     1      -3.998  27.817   2.053  1.00  0.00     0.000 C 
BRANCH   3   4
ATOM      4  C   UNL     1      -3.033  27.564   3.224  1.00  0.00     0.000 C 
BRANCH   4   5
ATOM      5  C   UNL     1      -2.236  28.815   3.653  1.00  0.00     0.000 C 
BRANCH   5   6
ATOM      6  C   UNL     1      -2.697  30.079   2.912  1.00  0.00     0.000 C 
BRANCH   6   7
ATOM      7  C   UNL     1      -1.655  30.516   1.871  1.00  0.00     0.000 C 
BRANCH   7   8
ATOM      8  C   UNL     1      -2.240  30.597   0.451  1.00  0.00     0.000 C 
BRANCH   8   9
ATOM      9  C   UNL     1      -3.305  31.699   0.321  1.00  0.00     0.000 C 
BRANCH   9  10
ATOM     10  C   UNL     1      -4.740  31.145   0.350  1.00  0.00     0.006 C 
BRANCH  10  11
ATOM     11  C   UNL     1      -5.676  31.867  -0.630  1.00  0.00     0.053 C 
BRANCH  11  12
ATOM     12  C   UNL     1      -6.733  30.942  -1.152  1.00  0.00     0.041 C 
ATOM     13  O   UNL     1      -6.411  29.822  -1.628  1.00  0.00    -0.550 OA
ATOM     14  O   UNL     1      -8.066  31.342  -1.181  1.00  0.00    -0.550 OA
ENDBRANCH  11  12
ENDBRANCH  10  11
ENDBRANCH   9  10
ENDBRANCH   8   9
ENDBRANCH   7   8
ENDBRANCH   6   7
ENDBRANCH   5   6
ENDBRANCH   4   5
ENDBRANCH   3   4
ENDBRANCH   2   3
ENDBRANCH   1   2
BRANCH   1  15
ATOM     15  C   UNL     1      -1.534  25.892  -0.355  1.00  0.00     0.000 C 
BRANCH  15  16
ATOM     16  C   UNL     1      -2.682  25.439  -1.273  1.00  0.00     0.000 C 
BRANCH  16  17
ATOM     17  C   UNL     1      -2.911  23.918  -1.235  1.00  0.00     0.000 C 
BRANCH  17  18
ATOM     18  C   UNL     1      -3.458  23.371   0.099  1.00  0.00    -0.000 C 
BRANCH  18  19
ATOM     19  C   UNL     1      -4.891  23.817   0.451  1.00  0.00    -0.000 C 
BRANCH  19  20
ATOM     20  C   UNL     1      -5.087  24.282   1.907  1.00  0.00    -0.000 C 
BRANCH  20  21
ATOM     21  C   UNL     1      -6.547  24.185   2.374  1.00  0.00    -0.000 C 
BRANCH  21  22
ATOM     22  C   UNL     1      -7.357  25.407   1.912  1.00  0.00    -0.000 C 
BRANCH  22  23
ATOM     23  C   UNL     1      -7.467  26.497   2.994  1.00  0.00    -0.000 C 
BRANCH  23  24
ATOM     24  C   UNL     1      -6.859  26.122   4.357  1.00  0.00    -0.000 C 
BRANCH  24  25
ATOM     25  C   UNL     1      -7.919  25.715   5.390  1.00  0.00    -0.003 C 
ATOM     26  C   UNL     1      -7.347  25.749   6.805  1.00  0.00     0.004 C 
ENDBRANCH  24  25
ENDBRANCH  23  24
ENDBRANCH  22  23
ENDBRANCH  21  22
ENDBRANCH  20  21
ENDBRANCH  19  20
ENDBRANCH  18  19
ENDBRANCH  17  18
ENDBRANCH  16  17
ENDBRANCH  15  16
ENDBRANCH   1  15
TORSDOF 22
ENDMDL
MODEL 3
REMARK VINA RESULT:    -3.631      2.238      3.686
REMARK INTER + INTRA:         -12.384
REMARK INTER:                  -9.337
REMARK INTRA:                  -3.047
REMARK UNBOUND:                -4.083
REMARK SMILES CCCCCCCCCCCCCCCCCCCCCCCC(=O)[O-]
REMARK SMILES IDX 13 1 14 2 15 3 16 4 17 5 18 6 19 7 20 8 21 9 22 10 23 11
REMARK SMILES IDX 24 12 25 13 26 14 12 15 11 16 10 17 9 18 8 19 7 20 6 21 5 22
REMARK SMILES IDX 4 23 3 24 2 25 1 26
REMARK H PARENT
REMARK Flexibility Score: inf
ROOT
ATOM      1  C   UNL     1      -0.782  21.859  -1.146  1.00  0.00     0.000 C 
ENDROOT
BRANCH   1   2
ATOM      2  C   UNL     1      -0.104  23.194  -0.786  1.00  0.00     0.000 C 
BRANCH   2   3
ATOM      3  C   UNL     1      -0.864  23.985   0.292  1.00  0.00     0.000 C 
BRANCH   3   4
ATOM      4  C   UNL     1      -1.398  25.332  -0.223  1.00  0.00     0.000 C 
BRANCH   4   5
ATOM      5  C   UNL     1      -1.285  26.479   0.803  1.00  0.00     0.000 C 
BRANCH   5   6
ATOM      6  C   UNL     1      -2.491  27.429   0.746  1.00  0.00     0.000 C 
BRANCH   6   7
ATOM      7  C   UNL     1      -3.493  26.981  -0.329  1.00  0.00     0.000 C 
BRANCH   7   8
ATOM      8  C   UNL     1      -4.454  28.106  -0.744  1.00  0.00     0.000 C 
BRANCH   8   9
ATOM      9  C   UNL     1      -4.519  29.233   0.301  1.00  0.00     0.000 C 
BRANCH   9  10
ATOM     10  C   UNL     1      -5.869  29.971   0.299  1.00  0.00     0.006 C 
BRANCH  10  11
ATOM     11  C   UNL     1      -5.758  31.412  -0.220  1.00  0.00     0.053 C 
BRANCH  11  12
ATOM     12  C   UNL     1      -6.935  31.773  -1.075  1.00  0.00     0.041 C 
ATOM     13  O   UNL     1      -8.088  31.377  -0.758  1.00  0.00    -0.550 OA
ATOM     14  O   UNL     1      -6.755  32.482  -2.257  1.00  0.00    -0.550 OA
ENDBRANCH  11  12
ENDBRANCH  10  11
ENDBRANCH   9  10
ENDBRANCH   8   9
ENDBRANCH   7   8
ENDBRANCH   6   7
ENDBRANCH   5   6
ENDBRANCH   4   5
ENDBRANCH   3   4
ENDBRANCH   2   3
ENDBRANCH   1   2
BRANCH   1  15
ATOM     15  C   UNL     1      -1.818  21.344  -0.130  1.00  0.00     0.000 C 
BRANCH  15  16
ATOM     16  C   UNL     1      -3.226  21.189  -0.728  1.00  0.00     0.000 C 
BRANCH  16  17
ATOM     17  C   UNL     1      -3.704  22.453  -1.464  1.00  0.00     0.000 C 
BRANCH  17  18
ATOM     18  C   UNL     1      -4.715  23.320  -0.687  1.00  0.00    -0.000 C 
BRANCH  18  19
ATOM     19  C   UNL     1      -4.428  23.471   0.820  1.00  0.00    -0.000 C 
BRANCH  19  20
ATOM     20  C   UNL     1      -5.493  24.257   1.608  1.00  0.00    -0.000 C 
BRANCH  20  21
ATOM     21  C   UNL     1      -4.884  25.198   2.658  1.00  0.00    -0.000 C 
BRANCH  21  22
ATOM     22  C   UNL     1      -5.747  26.458   2.837  1.00  0.00    -0.000 C 
BRANCH  22  23
ATOM     23  C   UNL     1      -7.256  26.170   2.738  1.00  0.00    -0.000 C 
BRANCH  23  24
ATOM     24  C   UNL     1      -7.970  25.977   4.087  1.00  0.00    -0.000 C 
BRANCH  24  25
ATOM     25  C   UNL     1      -7.057  26.258   5.289  1.00  0.00    -0.003 C 
ATOM     26  C   UNL     1      -7.593  25.592   6.553  1.00  0.00     0.004 C 
ENDBRANCH  24  25
ENDBRANCH  23  24
ENDBRANCH  22  23
ENDBRANCH  21  22
ENDBRANCH  20  21
ENDBRANCH  19  20
ENDBRANCH  18  19
ENDBRANCH  17  18
ENDBRANCH  16  17
ENDBRANCH  15  16
ENDBRANCH   1  15
TORSDOF 22
ENDMDL
MODEL 4
REMARK VINA RESULT:    -3.615      2.071      3.674
REMARK INTER + INTRA:         -12.349
REMARK INTER:                  -8.519
REMARK INTRA:                  -3.830
REMARK UNBOUND:                -4.083
REMARK SMILES CCCCCCCCCCCCCCCCCCCCCCCC(=O)[O-]
REMARK SMILES IDX 13 1 14 2 15 3 16 4 17 5 18 6 19 7 20 8 21 9 22 10 23 11
REMARK SMILES IDX 24 12 25 13 26 14 12 15 11 16 10 17 9 18 8 19 7 20 6 21 5 22
REMARK SMILES IDX 4 23 3 24 2 25 1 26
REMARK H PARENT
REMARK Flexibility Score: inf
ROOT
ATOM      1  C   UNL     1      -1.664  26.964   1.188  1.00  0.00     0.000 C 
ENDROOT
BRANCH   1   2
ATOM      2  C   UNL     1      -1.426  28.278   1.956  1.00  0.00     0.000 C 
BRANCH   2   3
ATOM      3  C   UNL     1      -2.664  28.758   2.731  1.00  0.00     0.000 C 
BRANCH   3   4
ATOM      4  C   UNL     1      -2.921  30.265   2.568  1.00  0.00     0.000 C 
BRANCH   4   5
ATOM      5  C   UNL     1      -3.680  30.630   1.274  1.00  0.00     0.000 C 
BRANCH   5   6
ATOM      6  C   UNL     1      -4.433  29.428   0.685  1.00  0.00     0.000 C 
BRANCH   6   7
ATOM      7  C   UNL     1      -4.061  29.217  -0.791  1.00  0.00     0.000 C 
BRANCH   7   8
ATOM      8  C   UNL     1      -5.259  29.414  -1.735  1.00  0.00     0.000 C 
BRANCH   8   9
ATOM      9  C   UNL     1      -5.056  30.598  -2.695  1.00  0.00     0.000 C 
BRANCH   9  10
ATOM     10  C   UNL     1      -6.105  31.706  -2.503  1.00  0.00     0.006 C 
BRANCH  10  11
ATOM     11  C   UNL     1      -6.200  32.189  -1.048  1.00  0.00     0.053 C 
BRANCH  11  12
ATOM     12  C   UNL     1      -7.506  31.792  -0.429  1.00  0.00     0.041 C 
ATOM     13  O   UNL     1      -7.703  31.982   0.800  1.00  0.00    -0.550 OA
ATOM     14  O   UNL     1      -8.478  31.148  -1.187  1.00  0.00    -0.550 OA
ENDBRANCH  11  12
ENDBRANCH  10  11
ENDBRANCH   9  10
ENDBRANCH   8   9
ENDBRANCH   7   8
ENDBRANCH   6   7
ENDBRANCH   5   6
ENDBRANCH   4   5
ENDBRANCH   3   4
ENDBRANCH   2   3
ENDBRANCH   1   2
BRANCH   1  15
ATOM     15  C   UNL     1      -1.003  26.876  -0.200  1.00  0.00     0.000 C 
BRANCH  15  16
ATOM     16  C   UNL     1      -0.758  25.430  -0.662  1.00  0.00     0.000 C 
BRANCH  16  17
ATOM     17  C   UNL     1      -1.127  24.390   0.410  1.00  0.00     0.000 C 
BRANCH  17  18
ATOM     18  C   UNL     1      -1.008  22.919  -0.036  1.00  0.00    -0.000 C 
BRANCH  18  19
ATOM     19  C   UNL     1      -2.347  22.207  -0.315  1.00  0.00    -0.000 C 
BRANCH  19  20
ATOM     20  C   UNL     1      -3.603  23.025   0.042  1.00  0.00    -0.000 C 
BRANCH  20  21
ATOM     21  C   UNL     1      -4.473  23.348  -1.182  1.00  0.00    -0.000 C 
BRANCH  21  22
ATOM     22  C   UNL     1      -4.432  24.849  -1.509  1.00  0.00    -0.000 C 
BRANCH  22  23
ATOM     23  C   UNL     1      -4.637  25.738  -0.268  1.00  0.00    -0.000 C 
BRANCH  23  24
ATOM     24  C   UNL     1      -6.105  25.948   0.143  1.00  0.00    -0.000 C 
BRANCH  24  25
ATOM     25  C   UNL     1      -6.260  26.340   1.619  1.00  0.00    -0.003 C 
ATOM     26  C   UNL     1      -5.052  25.887   2.436  1.00  0.00     0.004 C 
ENDBRANCH  24  25
ENDBRANCH  23  24
ENDBRANCH  22  23
ENDBRANCH  21  22
ENDBRANCH  20  21
ENDBRANCH  19  20
ENDBRANCH  18  19
ENDBRANCH  17  18
ENDBRANCH  16  17
ENDBRANCH  15  16
ENDBRANCH   1  15
TORSDOF 22
ENDMDL
MODEL 5
REMARK VINA RESULT:    -3.604      2.290      4.401
REMARK INTER + INTRA:         -12.321
REMARK INTER:                  -8.752
REMARK INTRA:                  -3.570
REMARK UNBOUND:                -4.083
REMARK SMILES CCCCCCCCCCCCCCCCCCCCCCCC(=O)[O-]
REMARK SMILES IDX 13 1 14 2 15 3 16 4 17 5 18 6 19 7 20 8 21 9 22 10 23 11
REMARK SMILES IDX 24 12 25 13 26 14 12 15 11 16 10 17 9 18 8 19 7 20 6 21 5 22
REMARK SMILES IDX 4 23 3 24 2 25 1 26
REMARK H PARENT
REMARK Flexibility Score: inf
ROOT
ATOM      1  C   UNL     1      -3.134  25.336   2.604  1.00  0.00     0.000 C 
ENDROOT
BRANCH   1   2
ATOM      2  C   UNL     1      -2.589  26.756   2.357  1.00  0.00     0.000 C 
BRANCH   2   3
ATOM      3  C   UNL     1      -3.048  27.771   3.417  1.00  0.00     0.000 C 
BRANCH   3   4
ATOM      4  C   UNL     1      -2.059  28.936   3.593  1.00  0.00     0.000 C 
BRANCH   4   5
ATOM      5  C   UNL     1      -2.666  30.319   3.278  1.00  0.00     0.000 C 
BRANCH   5   6
ATOM      6  C   UNL     1      -3.292  30.373   1.876  1.00  0.00     0.000 C 
BRANCH   6   7
ATOM      7  C   UNL     1      -2.206  30.459   0.793  1.00  0.00     0.000 C 
BRANCH   7   8
ATOM      8  C   UNL     1      -2.541  31.493  -0.295  1.00  0.00     0.000 C 
BRANCH   8   9
ATOM      9  C   UNL     1      -3.841  31.150  -1.044  1.00  0.00     0.000 C 
BRANCH   9  10
ATOM     10  C   UNL     1      -4.781  32.360  -1.187  1.00  0.00     0.006 C 
BRANCH  10  11
ATOM     11  C   UNL     1      -6.227  31.953  -1.507  1.00  0.00     0.053 C 
BRANCH  11  12
ATOM     12  C   UNL     1      -6.965  31.550  -0.266  1.00  0.00     0.041 C 
ATOM     13  O   UNL     1      -7.888  32.279   0.182  1.00  0.00    -0.550 OA
ATOM     14  O   UNL     1      -6.588  30.411   0.438  1.00  0.00    -0.550 OA
ENDBRANCH  11  12
ENDBRANCH  10  11
ENDBRANCH   9  10
ENDBRANCH   8   9
ENDBRANCH   7   8
ENDBRANCH   6   7
ENDBRANCH   5   6
ENDBRANCH   4   5
ENDBRANCH   3   4
ENDBRANCH   2   3
ENDBRANCH   1   2
BRANCH   1  15
ATOM     15  C   UNL     1      -4.612  25.118   2.231  1.00  0.00     0.000 C 
BRANCH  15  16
ATOM     16  C   UNL     1      -4.838  23.869   1.362  1.00  0.00     0.000 C 
BRANCH  16  17
ATOM     17  C   UNL     1      -3.863  23.785   0.174  1.00  0.00     0.000 C 
BRANCH  17  18
ATOM     18  C   UNL     1      -3.291  22.380  -0.105  1.00  0.00    -0.000 C 
BRANCH  18  19
ATOM     19  C   UNL     1      -1.786  22.338  -0.432  1.00  0.00    -0.000 C 
BRANCH  19  20
ATOM     20  C   UNL     1      -0.928  23.371   0.323  1.00  0.00    -0.000 C 
BRANCH  20  21
ATOM     21  C   UNL     1      -0.116  24.275  -0.616  1.00  0.00    -0.000 C 
BRANCH  21  22
ATOM     22  C   UNL     1      -0.596  25.732  -0.533  1.00  0.00    -0.000 C 
BRANCH  22  23
ATOM     23  C   UNL     1      -1.600  26.097  -1.642  1.00  0.00    -0.000 C 
BRANCH  23  24
ATOM     24  C   UNL     1      -2.440  27.356  -1.368  1.00  0.00    -0.000 C 
BRANCH  24  25
ATOM     25  C   UNL     1      -3.945  27.122  -1.564  1.00  0.00    -0.003 C 
ATOM     26  C   UNL     1      -4.743  27.669  -0.383  1.00  0.00     0.004 C 
ENDBRANCH  24  25
ENDBRANCH  23  24
ENDBRANCH  22  23
ENDBRANCH  21  22
ENDBRANCH  20  21
ENDBRANCH  19  20
ENDBRANCH  18  19
ENDBRANCH  17  18
ENDBRANCH  16  17
ENDBRANCH  15  16
ENDBRANCH   1  15
TORSDOF 22
ENDMDL
MODEL 6
REMARK VINA RESULT:    -3.603      2.559      6.363
REMARK INTER + INTRA:         -12.320
REMARK INTER:                  -8.076
REMARK INTRA:                  -4.243
REMARK UNBOUND:                -4.083
REMARK SMILES CCCCCCCCCCCCCCCCCCCCCCCC(=O)[O-]
REMARK SMILES IDX 13 1 14 2 15 3 16 4 17 5 18 6 19 7 20 8 21 9 22 10 23 11
REMARK SMILES IDX 24 12 25 13 26 14 12 15 11 16 10 17 9 18 8 19 7 20 6 21 5 22
REMARK SMILES IDX 4 23 3 24 2 25 1 26
REMARK H PARENT
REMARK Flexibility Score: inf
ROOT
ATOM      1  C   UNL     1      -1.858  26.588   1.539  1.00  0.00     0.000 C 
ENDROOT
BRANCH   1   2
ATOM      2  C   UNL     1      -1.427  25.307   0.800  1.00  0.00     0.000 C 
BRANCH   2   3
ATOM      3  C   UNL     1      -1.029  25.560  -0.664  1.00  0.00     0.000 C 
BRANCH   3   4
ATOM      4  C   UNL     1      -0.625  24.272  -1.401  1.00  0.00     0.000 C 
BRANCH   4   5
ATOM      5  C   UNL     1      -0.330  23.084  -0.461  1.00  0.00     0.000 C 
BRANCH   5   6
ATOM      6  C   UNL     1      -1.424  22.008  -0.524  1.00  0.00     0.000 C 
BRANCH   6   7
ATOM      7  C   UNL     1      -2.538  22.415  -1.501  1.00  0.00     0.000 C 
BRANCH   7   8
ATOM      8  C   UNL     1      -3.937  22.318  -0.872  1.00  0.00     0.000 C 
BRANCH   8   9
ATOM      9  C   UNL     1      -4.427  23.671  -0.327  1.00  0.00     0.000 C 
BRANCH   9  10
ATOM     10  C   UNL     1      -4.800  23.612   1.165  1.00  0.00     0.006 C 
BRANCH  10  11
ATOM     11  C   UNL     1      -5.838  24.672   1.559  1.00  0.00     0.053 C 
BRANCH  11  12
ATOM     12  C   UNL     1      -6.988  24.690   0.598  1.00  0.00     0.041 C 
ATOM     13  O   UNL     1      -7.123  25.652  -0.204  1.00  0.00    -0.550 OA
ATOM     14  O   UNL     1      -7.950  23.686   0.632  1.00  0.00    -0.550 OA
ENDBRANCH  11  12
ENDBRANCH  10  11
ENDBRANCH   9  10
ENDBRANCH   8   9
ENDBRANCH   7   8
ENDBRANCH   6   7
ENDBRANCH   5   6
ENDBRANCH   4   5
ENDBRANCH   3   4
ENDBRANCH   2   3
ENDBRANCH   1   2
BRANCH   1  15
ATOM     15  C   UNL     1      -2.839  26.382   2.708  1.00  0.00     0.000 C 
BRANCH  15  16
ATOM     16  C   UNL     1      -3.204  27.691   3.430  1.00  0.00     0.000 C 
BRANCH  16  17
ATOM     17  C   UNL     1      -2.075  28.735   3.377  1.00  0.00     0.000 C 
BRANCH  17  18
ATOM     18  C   UNL     1      -2.519  30.160   2.989  1.00  0.00    -0.000 C 
BRANCH  18  19
ATOM     19  C   UNL     1      -2.715  30.397   1.479  1.00  0.00    -0.000 C 
BRANCH  19  20
ATOM     20  C   UNL     1      -4.075  31.006   1.089  1.00  0.00    -0.000 C 
BRANCH  20  21
ATOM     21  C   UNL     1      -4.791  30.211  -0.014  1.00  0.00    -0.000 C 
BRANCH  21  22
ATOM     22  C   UNL     1      -5.033  28.757   0.421  1.00  0.00    -0.000 C 
BRANCH  22  23
ATOM     23  C   UNL     1      -4.530  27.732  -0.611  1.00  0.00    -0.000 C 
BRANCH  23  24
ATOM     24  C   UNL     1      -3.376  28.222  -1.504  1.00  0.00    -0.000 C 
BRANCH  24  25
ATOM     25  C   UNL     1      -3.384  27.575  -2.896  1.00  0.00    -0.003 C 
ATOM     26  C   UNL     1      -4.026  26.190  -2.853  1.00  0.00     0.004 C 
ENDBRANCH  24  25
ENDBRANCH  23  24
ENDBRANCH  22  23
ENDBRANCH  21  22
ENDBRANCH  20  21
ENDBRANCH  19  20
ENDBRANCH  18  19
ENDBRANCH  17  18
ENDBRANCH  16  17
ENDBRANCH  15  16
ENDBRANCH   1  15
TORSDOF 22
ENDMDL
MODEL 7
REMARK VINA RESULT:    -3.582      2.409      5.487
REMARK INTER + INTRA:         -12.272
REMARK INTER:                  -7.751
REMARK INTRA:                  -4.521
REMARK UNBOUND:                -4.083
REMARK SMILES CCCCCCCCCCCCCCCCCCCCCCCC(=O)[O-]
REMARK SMILES IDX 13 1 14 2 15 3 16 4 17 5 18 6 19 7 20 8 21 9 22 10 23 11
REMARK SMILES IDX 24 12 25 13 26 14 12 15 11 16 10 17 9 18 8 19 7 20 6 21 5 22
REMARK SMILES IDX 4 23 3 24 2 25 1 26
REMARK H PARENT
REMARK Flexibility Score: inf
ROOT
ATOM      1  C   UNL     1      -4.057  23.002  -1.111  1.00  0.00     0.000 C 
ENDROOT
BRANCH   1   2
ATOM      2  C   UNL     1      -2.872  22.394  -0.338  1.00  0.00     0.000 C 
BRANCH   2   3
ATOM      3  C   UNL     1      -1.535  23.095  -0.633  1.00  0.00     0.000 C 
BRANCH   3   4
ATOM      4  C   UNL     1      -1.109  24.058   0.488  1.00  0.00     0.000 C 
BRANCH   4   5
ATOM      5  C   UNL     1      -1.265  25.549   0.120  1.00  0.00     0.000 C 
BRANCH   5   6
ATOM      6  C   UNL     1      -2.133  26.308   1.135  1.00  0.00     0.000 C 
BRANCH   6   7
ATOM      7  C   UNL     1      -2.753  25.344   2.157  1.00  0.00     0.000 C 
BRANCH   7   8
ATOM      8  C   UNL     1      -3.868  26.002   2.987  1.00  0.00     0.000 C 
BRANCH   8   9
ATOM      9  C   UNL     1      -4.561  27.147   2.228  1.00  0.00     0.000 C 
BRANCH   9  10
ATOM     10  C   UNL     1      -6.017  26.819   1.855  1.00  0.00     0.006 C 
BRANCH  10  11
ATOM     11  C   UNL     1      -6.535  25.550   2.547  1.00  0.00     0.053 C 
BRANCH  11  12
ATOM     12  C   UNL     1      -8.034  25.518   2.570  1.00  0.00     0.041 C 
ATOM     13  O   UNL     1      -8.672  25.175   1.540  1.00  0.00    -0.550 OA
ATOM     14  O   UNL     1      -8.729  25.935   3.700  1.00  0.00    -0.550 OA
ENDBRANCH  11  12
ENDBRANCH  10  11
ENDBRANCH   9  10
ENDBRANCH   8   9
ENDBRANCH   7   8
ENDBRANCH   6   7
ENDBRANCH   5   6
ENDBRANCH   4   5
ENDBRANCH   3   4
ENDBRANCH   2   3
ENDBRANCH   1   2
BRANCH   1  15
ATOM     15  C   UNL     1      -4.827  24.116  -0.378  1.00  0.00     0.000 C 
BRANCH  15  16
ATOM     16  C   UNL     1      -5.377  25.195  -1.325  1.00  0.00     0.000 C 
BRANCH  16  17
ATOM     17  C   UNL     1      -4.266  26.015  -2.004  1.00  0.00     0.000 C 
BRANCH  17  18
ATOM     18  C   UNL     1      -4.163  27.484  -1.545  1.00  0.00    -0.000 C 
BRANCH  18  19
ATOM     19  C   UNL     1      -5.488  28.271  -1.562  1.00  0.00    -0.000 C 
BRANCH  19  20
ATOM     20  C   UNL     1      -5.354  29.773  -1.250  1.00  0.00    -0.000 C 
BRANCH  20  21
ATOM     21  C   UNL     1      -5.537  30.092   0.242  1.00  0.00    -0.000 C 
BRANCH  21  22
ATOM     22  C   UNL     1      -4.406  30.997   0.756  1.00  0.00    -0.000 C 
BRANCH  22  23
ATOM     23  C   UNL     1      -3.041  30.669   0.124  1.00  0.00    -0.000 C 
BRANCH  23  24
ATOM     24  C   UNL     1      -2.141  29.747   0.965  1.00  0.00    -0.000 C 
BRANCH  24  25
ATOM     25  C   UNL     1      -1.730  30.377   2.304  1.00  0.00    -0.003 C 
ATOM     26  C   UNL     1      -2.320  29.601   3.479  1.00  0.00     0.004 C 
ENDBRANCH  24  25
ENDBRANCH  23  24
ENDBRANCH  22  23
ENDBRANCH  21  22
ENDBRANCH  20  21
ENDBRANCH  19  20
ENDBRANCH  18  19
ENDBRANCH  17  18
ENDBRANCH  16  17
ENDBRANCH  15  16
ENDBRANCH   1  15
TORSDOF 22
ENDMDL
MODEL 8
REMARK VINA RESULT:    -3.582      2.260      4.605
REMARK INTER + INTRA:         -12.271
REMARK INTER:                  -8.308
REMARK INTRA:                  -3.963
REMARK UNBOUND:                -4.083
REMARK SMILES CCCCCCCCCCCCCCCCCCCCCCCC(=O)[O-]
REMARK SMILES IDX 13 1 14 2 15 3 16 4 17 5 18 6 19 7 20 8 21 9 22 10 23 11
REMARK SMILES IDX 24 12 25 13 26 14 12 15 11 16 10 17 9 18 8 19 7 20 6 21 5 22
REMARK SMILES IDX 4 23 3 24 2 25 1 26
REMARK H PARENT
REMARK Flexibility Score: inf
ROOT
ATOM      1  C   UNL     1      -0.377  24.166  -0.560  1.00  0.00     0.000 C 
ENDROOT
BRANCH   1   2
ATOM      2  C   UNL     1      -0.774  25.615  -0.219  1.00  0.00     0.000 C 
BRANCH   2   3
ATOM      3  C   UNL     1      -1.552  26.309  -1.350  1.00  0.00     0.000 C 
BRANCH   3   4
ATOM      4  C   UNL     1      -3.061  26.398  -1.067  1.00  0.00     0.000 C 
BRANCH   4   5
ATOM      5  C   UNL     1      -3.795  27.443  -1.934  1.00  0.00     0.000 C 
BRANCH   5   6
ATOM      6  C   UNL     1      -4.525  28.493  -1.083  1.00  0.00     0.000 C 
BRANCH   6   7
ATOM      7  C   UNL     1      -3.572  29.628  -0.677  1.00  0.00     0.000 C 
BRANCH   7   8
ATOM      8  C   UNL     1      -4.056  30.385   0.570  1.00  0.00     0.000 C 
BRANCH   8   9
ATOM      9  C   UNL     1      -4.427  31.846   0.259  1.00  0.00     0.000 C 
BRANCH   9  10
ATOM     10  C   UNL     1      -4.749  32.074  -1.228  1.00  0.00     0.006 C 
BRANCH  10  11
ATOM     11  C   UNL     1      -6.138  32.691  -1.447  1.00  0.00     0.053 C 
BRANCH  11  12
ATOM     12  C   UNL     1      -7.218  31.797  -0.916  1.00  0.00     0.041 C 
ATOM     13  O   UNL     1      -7.935  32.179   0.046  1.00  0.00    -0.550 OA
ATOM     14  O   UNL     1      -7.390  30.517  -1.432  1.00  0.00    -0.550 OA
ENDBRANCH  11  12
ENDBRANCH  10  11
ENDBRANCH   9  10
ENDBRANCH   8   9
ENDBRANCH   7   8
ENDBRANCH   6   7
ENDBRANCH   5   6
ENDBRANCH   4   5
ENDBRANCH   3   4
ENDBRANCH   2   3
ENDBRANCH   1   2
BRANCH   1  15
ATOM     15  C   UNL     1      -0.966  23.082   0.362  1.00  0.00     0.000 C 
BRANCH  15  16
ATOM     16  C   UNL     1      -1.650  21.939  -0.408  1.00  0.00     0.000 C 
BRANCH  16  17
ATOM     17  C   UNL     1      -3.142  21.794  -0.059  1.00  0.00     0.000 C 
BRANCH  17  18
ATOM     18  C   UNL     1      -3.974  23.085  -0.196  1.00  0.00    -0.000 C 
BRANCH  18  19
ATOM     19  C   UNL     1      -4.700  23.536   1.086  1.00  0.00    -0.000 C 
BRANCH  19  20
ATOM     20  C   UNL     1      -4.061  24.739   1.805  1.00  0.00    -0.000 C 
BRANCH  20  21
ATOM     21  C   UNL     1      -5.034  25.913   1.988  1.00  0.00    -0.000 C 
BRANCH  21  22
ATOM     22  C   UNL     1      -4.305  27.160   2.512  1.00  0.00    -0.000 C 
BRANCH  22  23
ATOM     23  C   UNL     1      -2.779  26.971   2.594  1.00  0.00    -0.000 C 
BRANCH  23  24
ATOM     24  C   UNL     1      -1.983  28.252   2.902  1.00  0.00    -0.000 C 
BRANCH  24  25
ATOM     25  C   UNL     1      -1.002  28.626   1.781  1.00  0.00    -0.003 C 
ATOM     26  C   UNL     1      -0.556  30.081   1.907  1.00  0.00     0.004 C 
ENDBRANCH  24  25
ENDBRANCH  23  24
ENDBRANCH  22  23
ENDBRANCH  21  22
ENDBRANCH  20  21
ENDBRANCH  19  20
ENDBRANCH  18  19
ENDBRANCH  17  18
ENDBRANCH  16  17
ENDBRANCH  15  16
ENDBRANCH   1  15
TORSDOF 22
ENDMDL
MODEL 9
REMARK VINA RESULT:    -3.554      2.758      5.814
REMARK INTER + INTRA:         -12.207
REMARK INTER:                  -8.494
REMARK INTRA:                  -3.713
REMARK UNBOUND:                -4.083
REMARK SMILES CCCCCCCCCCCCCCCCCCCCCCCC(=O)[O-]
REMARK SMILES IDX 13 1 14 2 15 3 16 4 17 5 18 6 19 7 20 8 21 9 22 10 23 11
REMARK SMILES IDX 24 12 25 13 26 14 12 15 11 16 10 17 9 18 8 19 7 20 6 21 5 22
REMARK SMILES IDX 4 23 3 24 2 25 1 26
REMARK H PARENT
REMARK Flexibility Score: inf
ROOT
ATOM      1  C   UNL     1      -2.299  21.746  -0.394  1.00  0.00     0.000 C 
ENDROOT
BRANCH   1   2
ATOM      2  C   UNL     1      -1.180  22.581  -1.043  1.00  0.00     0.000 C 
BRANCH   2   3
ATOM      3  C   UNL     1      -0.405  23.443  -0.032  1.00  0.00     0.000 C 
BRANCH   3   4
ATOM      4  C   UNL     1      -0.933  24.885   0.047  1.00  0.00     0.000 C 
BRANCH   4   5
ATOM      5  C   UNL     1      -2.068  25.076   1.074  1.00  0.00     0.000 C 
BRANCH   5   6
ATOM      6  C   UNL     1      -2.095  26.500   1.651  1.00  0.00     0.000 C 
BRANCH   6   7
ATOM      7  C   UNL     1      -3.013  26.575   2.882  1.00  0.00     0.000 C 
BRANCH   7   8
ATOM      8  C   UNL     1      -4.357  25.863   2.659  1.00  0.00     0.000 C 
BRANCH   8   9
ATOM      9  C   UNL     1      -5.526  26.598   3.336  1.00  0.00     0.000 C 
BRANCH   9  10
ATOM     10  C   UNL     1      -6.716  26.825   2.388  1.00  0.00     0.006 C 
BRANCH  10  11
ATOM     11  C   UNL     1      -7.886  25.868   2.663  1.00  0.00     0.053 C 
BRANCH  11  12
ATOM     12  C   UNL     1      -7.875  24.710   1.712  1.00  0.00     0.041 C 
ATOM     13  O   UNL     1      -8.685  24.679   0.748  1.00  0.00    -0.550 OA
ATOM     14  O   UNL     1      -7.024  23.631   1.927  1.00  0.00    -0.550 OA
ENDBRANCH  11  12
ENDBRANCH  10  11
ENDBRANCH   9  10
ENDBRANCH   8   9
ENDBRANCH   7   8
ENDBRANCH   6   7
ENDBRANCH   5   6
ENDBRANCH   4   5
ENDBRANCH   3   4
ENDBRANCH   2   3
ENDBRANCH   1   2
BRANCH   1  15
ATOM     15  C   UNL     1      -3.703  21.932  -0.999  1.00  0.00     0.000 C 
BRANCH  15  16
ATOM     16  C   UNL     1      -3.960  23.362  -1.504  1.00  0.00     0.000 C 
BRANCH  16  17
ATOM     17  C   UNL     1      -5.230  23.988  -0.902  1.00  0.00     0.000 C 
BRANCH  17  18
ATOM     18  C   UNL     1      -5.285  25.528  -0.947  1.00  0.00    -0.000 C 
BRANCH  18  19
ATOM     19  C   UNL     1      -4.069  26.209  -1.605  1.00  0.00    -0.000 C 
BRANCH  19  20
ATOM     20  C   UNL     1      -4.087  27.748  -1.567  1.00  0.00    -0.000 C 
BRANCH  20  21
ATOM     21  C   UNL     1      -4.463  28.307  -0.186  1.00  0.00    -0.000 C 
BRANCH  21  22
ATOM     22  C   UNL     1      -3.692  29.602   0.114  1.00  0.00    -0.000 C 
BRANCH  22  23
ATOM     23  C   UNL     1      -4.600  30.735   0.627  1.00  0.00    -0.000 C 
BRANCH  23  24
ATOM     24  C   UNL     1      -4.551  32.031  -0.201  1.00  0.00    -0.000 C 
BRANCH  24  25
ATOM     25  C   UNL     1      -5.205  31.881  -1.582  1.00  0.00    -0.003 C 
ATOM     26  C   UNL     1      -6.705  31.629  -1.453  1.00  0.00     0.004 C 
ENDBRANCH  24  25
ENDBRANCH  23  24
ENDBRANCH  22  23
ENDBRANCH  21  22
ENDBRANCH  20  21
ENDBRANCH  19  20
ENDBRANCH  18  19
ENDBRANCH  17  18
ENDBRANCH  16  17
ENDBRANCH  15  16
ENDBRANCH   1  15
TORSDOF 22
ENDMDL
