MODEL 1
REMARK VINA RESULT:    -6.891      0.000      0.000
REMARK INTER + INTRA:         -10.510
REMARK INTER:                  -9.510
REMARK INTRA:                  -1.000
REMARK UNBOUND:                -1.000
REMARK SMILES C=C(CC[C@@H](C(=O)[O-])[C@@H]1CC[C@@]2(C)C3=C(CC[C@]12C)[C@]1(C)CC[C@H](O)C(C)(C)[C@@H]1CC3)C(C)C
REMARK SMILES IDX 4 1 5 2 6 3 7 4 8 5 9 6 10 7 18 8 11 9 12 10 17 11 19 12
REMARK SMILES IDX 13 13 14 14 16 15 15 16 31 17 20 18 30 19 29 20 22 21 21 22
REMARK SMILES IDX 26 23 23 24 24 25 27 26 28 27 25 28 3 30 2 31 1 32 32 33
REMARK SMILES IDX 33 34 34 35
REMARK H PARENT 25 29
REMARK Flexibility Score: inf
ROOT
ATOM      1  C   UNL     1     173.831 158.799 153.867  1.00  0.00     0.014 C 
ENDROOT
BRANCH   1   2
ATOM      2  C   UNL     1     172.332 159.020 154.260  1.00  0.00     0.039 C 
BRANCH   2   3
ATOM      3  C   UNL     1     171.494 157.819 153.873  1.00  0.00     0.045 C 
ATOM      4  O   UNL     1     170.300 157.981 153.507  1.00  0.00    -0.550 OA
ATOM      5  O   UNL     1     172.011 156.529 153.933  1.00  0.00    -0.550 OA
ENDBRANCH   2   3
BRANCH   2   6
ATOM      6  C   UNL     1     171.964 159.471 155.724  1.00  0.00     0.004 C 
ATOM      7  C   UNL     1     172.003 160.993 156.002  1.00  0.00     0.006 C 
ATOM      8  C   UNL     1     172.603 158.804 156.998  1.00  0.00    -0.020 C 
ATOM      9  C   UNL     1     172.598 161.182 157.408  1.00  0.00     0.012 C 
ATOM     10  C   UNL     1     173.471 159.936 157.630  1.00  0.00    -0.006 C 
ATOM     11  C   UNL     1     173.474 157.536 156.868  1.00  0.00     0.012 C 
ATOM     12  C   UNL     1     171.392 158.395 157.921  1.00  0.00     0.012 C 
ATOM     13  C   UNL     1     174.843 160.218 156.943  1.00  0.00     0.017 C 
ATOM     14  C   UNL     1     173.804 159.552 159.063  1.00  0.00    -0.064 C 
ATOM     15  C   UNL     1     174.247 157.215 158.187  1.00  0.00     0.032 C 
ATOM     16  C   UNL     1     174.220 158.272 159.324  1.00  0.00    -0.064 C 
ATOM     17  C   UNL     1     173.907 160.622 160.118  1.00  0.00     0.032 C 
ATOM     18  C   UNL     1     174.627 157.835 160.768  1.00  0.00    -0.008 C 
ATOM     19  C   UNL     1     175.167 160.388 160.923  1.00  0.00     0.009 C 
ATOM     20  C   UNL     1     175.097 159.050 161.704  1.00  0.00     0.007 C 
ATOM     21  C   UNL     1     173.417 157.063 161.372  1.00  0.00     0.014 C 
ATOM     22  C   UNL     1     175.811 156.835 160.667  1.00  0.00     0.016 C 
ATOM     23  C   UNL     1     174.406 159.117 163.142  1.00  0.00    -0.006 C 
ATOM     24  C   UNL     1     172.354 157.999 161.924  1.00  0.00     0.033 C 
ATOM     25  C   UNL     1     172.847 158.849 163.108  1.00  0.00     0.120 C 
ATOM     26  C   UNL     1     174.689 160.472 163.854  1.00  0.00     0.014 C 
ATOM     27  C   UNL     1     175.084 158.059 164.067  1.00  0.00     0.014 C 
BRANCH  25  28
ATOM     28  O   UNL     1     172.109 160.050 163.099  1.00  0.00    -0.393 OA
ATOM     29  H   UNL     1     171.202 159.848 163.450  1.00  0.00     0.210 HD
ENDBRANCH  25  28
ENDBRANCH   2   6
ENDBRANCH   1   2
BRANCH   1  30
ATOM     30  C   UNL     1     174.250 159.250 152.451  1.00  0.00     0.031 C 
BRANCH  30  31
ATOM     31  C   UNL     1     175.165 160.468 152.435  1.00  0.00    -0.075 C 
ATOM     32  C   UNL     1     175.229 161.245 153.531  1.00  0.00     0.008 C 
BRANCH  31  33
ATOM     33  C   UNL     1     175.979 160.870 151.206  1.00  0.00     0.008 C 
ATOM     34  C   UNL     1     175.757 162.348 150.864  1.00  0.00     0.012 C 
ATOM     35  C   UNL     1     175.722 159.982 149.981  1.00  0.00     0.012 C 
ENDBRANCH  31  33
ENDBRANCH  30  31
ENDBRANCH   1  30
TORSDOF 7
ENDMDL
MODEL 2
REMARK VINA RESULT:    -6.886      1.768      8.473
REMARK INTER + INTRA:         -10.503
REMARK INTER:                  -8.906
REMARK INTRA:                  -1.597
REMARK UNBOUND:                -1.000
REMARK SMILES C=C(CC[C@@H](C(=O)[O-])[C@@H]1CC[C@@]2(C)C3=C(CC[C@]12C)[C@]1(C)CC[C@H](O)C(C)(C)[C@@H]1CC3)C(C)C
REMARK SMILES IDX 4 1 5 2 6 3 7 4 8 5 9 6 10 7 18 8 11 9 12 10 17 11 19 12
REMARK SMILES IDX 13 13 14 14 16 15 15 16 31 17 20 18 30 19 29 20 22 21 21 22
REMARK SMILES IDX 26 23 23 24 24 25 27 26 28 27 25 28 3 30 2 31 1 32 32 33
REMARK SMILES IDX 33 34 34 35
REMARK H PARENT 25 29
REMARK Flexibility Score: inf
ROOT
ATOM      1  C   UNL     1     173.145 160.537 159.888  1.00  0.00     0.014 C 
ENDROOT
BRANCH   1   2
ATOM      2  C   UNL     1     172.414 159.199 159.533  1.00  0.00     0.039 C 
BRANCH   2   3
ATOM      3  C   UNL     1     170.949 159.271 159.911  1.00  0.00     0.045 C 
ATOM      4  O   UNL     1     170.431 160.382 160.200  1.00  0.00    -0.550 OA
ATOM      5  O   UNL     1     170.161 158.126 159.965  1.00  0.00    -0.550 OA
ENDBRANCH   2   3
BRANCH   2   6
ATOM      6  C   UNL     1     172.558 158.587 158.089  1.00  0.00     0.004 C 
ATOM      7  C   UNL     1     173.674 157.531 157.898  1.00  0.00     0.006 C 
ATOM      8  C   UNL     1     172.615 159.483 156.796  1.00  0.00    -0.020 C 
ATOM      9  C   UNL     1     174.311 157.788 156.521  1.00  0.00     0.012 C 
ATOM     10  C   UNL     1     174.063 159.281 156.252  1.00  0.00    -0.006 C 
ATOM     11  C   UNL     1     172.330 160.997 156.876  1.00  0.00     0.012 C 
ATOM     12  C   UNL     1     171.524 158.896 155.820  1.00  0.00     0.012 C 
ATOM     13  C   UNL     1     175.192 160.065 156.989  1.00  0.00     0.017 C 
ATOM     14  C   UNL     1     174.112 159.756 154.809  1.00  0.00    -0.064 C 
ATOM     15  C   UNL     1     172.728 161.742 155.561  1.00  0.00     0.032 C 
ATOM     16  C   UNL     1     173.521 160.950 154.486  1.00  0.00    -0.064 C 
ATOM     17  C   UNL     1     175.001 159.049 153.819  1.00  0.00     0.032 C 
ATOM     18  C   UNL     1     173.585 161.515 153.030  1.00  0.00    -0.008 C 
ATOM     19  C   UNL     1     175.774 160.087 153.035  1.00  0.00     0.009 C 
ATOM     20  C   UNL     1     174.828 160.967 152.177  1.00  0.00     0.007 C 
ATOM     21  C   UNL     1     172.221 161.193 152.352  1.00  0.00     0.014 C 
ATOM     22  C   UNL     1     173.712 163.061 153.105  1.00  0.00     0.016 C 
ATOM     23  C   UNL     1     174.471 160.399 150.729  1.00  0.00    -0.006 C 
ATOM     24  C   UNL     1     172.160 159.768 151.827  1.00  0.00     0.033 C 
ATOM     25  C   UNL     1     173.177 159.489 150.706  1.00  0.00     0.120 C 
ATOM     26  C   UNL     1     175.667 159.625 150.102  1.00  0.00     0.014 C 
ATOM     27  C   UNL     1     174.259 161.606 149.762  1.00  0.00     0.014 C 
BRANCH  25  28
ATOM     28  O   UNL     1     173.500 158.118 150.764  1.00  0.00    -0.393 OA
ATOM     29  H   UNL     1     172.769 157.656 151.252  1.00  0.00     0.210 HD
ENDBRANCH  25  28
ENDBRANCH   2   6
ENDBRANCH   1   2
BRANCH   1  30
ATOM     30  C   UNL     1     174.038 160.525 161.148  1.00  0.00     0.031 C 
BRANCH  30  31
ATOM     31  C   UNL     1     175.055 159.391 161.175  1.00  0.00    -0.075 C 
ATOM     32  C   UNL     1     176.125 159.462 160.364  1.00  0.00     0.008 C 
BRANCH  31  33
ATOM     33  C   UNL     1     174.884 158.152 162.052  1.00  0.00     0.008 C 
ATOM     34  C   UNL     1     174.958 156.873 161.211  1.00  0.00     0.012 C 
ATOM     35  C   UNL     1     173.606 158.173 162.902  1.00  0.00     0.012 C 
ENDBRANCH  31  33
ENDBRANCH  30  31
ENDBRANCH   1  30
TORSDOF 7
ENDMDL
MODEL 3
REMARK VINA RESULT:    -6.875      1.760      2.961
REMARK INTER + INTRA:         -10.488
REMARK INTER:                  -9.055
REMARK INTRA:                  -1.432
REMARK UNBOUND:                -1.000
REMARK SMILES C=C(CC[C@@H](C(=O)[O-])[C@@H]1CC[C@@]2(C)C3=C(CC[C@]12C)[C@]1(C)CC[C@H](O)C(C)(C)[C@@H]1CC3)C(C)C
REMARK SMILES IDX 4 1 5 2 6 3 7 4 8 5 9 6 10 7 18 8 11 9 12 10 17 11 19 12
REMARK SMILES IDX 13 13 14 14 16 15 15 16 31 17 20 18 30 19 29 20 22 21 21 22
REMARK SMILES IDX 26 23 23 24 24 25 27 26 28 27 25 28 3 30 2 31 1 32 32 33
REMARK SMILES IDX 33 34 34 35
REMARK H PARENT 25 29
REMARK Flexibility Score: inf
ROOT
ATOM      1  C   UNL     1     171.064 160.222 152.355  1.00  0.00     0.014 C 
ENDROOT
BRANCH   1   2
ATOM      2  C   UNL     1     171.533 159.163 153.408  1.00  0.00     0.039 C 
BRANCH   2   3
ATOM      3  C   UNL     1     171.928 157.869 152.728  1.00  0.00     0.045 C 
ATOM      4  O   UNL     1     171.591 156.766 153.236  1.00  0.00    -0.550 OA
ATOM      5  O   UNL     1     172.679 157.869 151.556  1.00  0.00    -0.550 OA
ENDBRANCH   2   3
BRANCH   2   6
ATOM      6  C   UNL     1     172.621 159.551 154.478  1.00  0.00     0.004 C 
ATOM      7  C   UNL     1     174.010 158.885 154.318  1.00  0.00     0.006 C 
ATOM      8  C   UNL     1     172.329 159.525 156.025  1.00  0.00    -0.020 C 
ATOM      9  C   UNL     1     174.512 158.537 155.730  1.00  0.00     0.012 C 
ATOM     10  C   UNL     1     173.232 158.374 156.567  1.00  0.00    -0.006 C 
ATOM     11  C   UNL     1     170.895 159.309 156.550  1.00  0.00     0.012 C 
ATOM     12  C   UNL     1     172.773 160.937 156.568  1.00  0.00     0.012 C 
ATOM     13  C   UNL     1     172.717 156.922 156.324  1.00  0.00     0.017 C 
ATOM     14  C   UNL     1     173.352 158.518 158.075  1.00  0.00    -0.064 C 
ATOM     15  C   UNL     1     170.867 159.019 158.085  1.00  0.00     0.032 C 
ATOM     16  C   UNL     1     172.221 158.777 158.806  1.00  0.00    -0.064 C 
ATOM     17  C   UNL     1     174.639 158.141 158.763  1.00  0.00     0.032 C 
ATOM     18  C   UNL     1     172.273 158.882 160.364  1.00  0.00    -0.008 C 
ATOM     19  C   UNL     1     174.311 157.292 159.971  1.00  0.00     0.009 C 
ATOM     20  C   UNL     1     173.506 158.098 161.025  1.00  0.00     0.007 C 
ATOM     21  C   UNL     1     172.283 160.398 160.721  1.00  0.00     0.014 C 
ATOM     22  C   UNL     1     170.966 158.278 160.945  1.00  0.00     0.016 C 
ATOM     23  C   UNL     1     174.372 158.935 162.072  1.00  0.00    -0.006 C 
ATOM     24  C   UNL     1     173.670 161.008 160.605  1.00  0.00     0.033 C 
ATOM     25  C   UNL     1     174.682 160.413 161.599  1.00  0.00     0.120 C 
ATOM     26  C   UNL     1     175.703 158.210 162.431  1.00  0.00     0.014 C 
ATOM     27  C   UNL     1     173.598 158.987 163.426  1.00  0.00     0.014 C 
BRANCH  25  28
ATOM     28  O   UNL     1     175.959 160.518 161.011  1.00  0.00    -0.393 OA
ATOM     29  H   UNL     1     176.576 159.932 161.523  1.00  0.00     0.210 HD
ENDBRANCH  25  28
ENDBRANCH   2   6
ENDBRANCH   1   2
BRANCH   1  30
ATOM     30  C   UNL     1     172.008 161.419 152.108  1.00  0.00     0.031 C 
BRANCH  30  31
ATOM     31  C   UNL     1     172.789 161.332 150.803  1.00  0.00    -0.075 C 
ATOM     32  C   UNL     1     172.119 161.102 149.661  1.00  0.00     0.008 C 
BRANCH  31  33
ATOM     33  C   UNL     1     174.312 161.448 150.747  1.00  0.00     0.008 C 
ATOM     34  C   UNL     1     174.933 160.188 150.132  1.00  0.00     0.012 C 
ATOM     35  C   UNL     1     174.955 161.766 152.103  1.00  0.00     0.012 C 
ENDBRANCH  31  33
ENDBRANCH  30  31
ENDBRANCH   1  30
TORSDOF 7
ENDMDL
MODEL 4
REMARK VINA RESULT:    -6.837     12.055     15.707
REMARK INTER + INTRA:         -10.434
REMARK INTER:                  -8.790
REMARK INTRA:                  -1.644
REMARK UNBOUND:                -1.000
REMARK SMILES C=C(CC[C@@H](C(=O)[O-])[C@@H]1CC[C@@]2(C)C3=C(CC[C@]12C)[C@]1(C)CC[C@H](O)C(C)(C)[C@@H]1CC3)C(C)C
REMARK SMILES IDX 4 1 5 2 6 3 7 4 8 5 9 6 10 7 18 8 11 9 12 10 17 11 19 12
REMARK SMILES IDX 13 13 14 14 16 15 15 16 31 17 20 18 30 19 29 20 22 21 21 22
REMARK SMILES IDX 26 23 23 24 24 25 27 26 28 27 25 28 3 30 2 31 1 32 32 33
REMARK SMILES IDX 33 34 34 35
REMARK H PARENT 25 29
REMARK Flexibility Score: inf
ROOT
ATOM      1  C   UNL     1     174.557 171.758 150.562  1.00  0.00     0.014 C 
ENDROOT
BRANCH   1   2
ATOM      2  C   UNL     1     174.429 172.245 152.044  1.00  0.00     0.039 C 
BRANCH   2   3
ATOM      3  C   UNL     1     174.846 173.696 152.170  1.00  0.00     0.045 C 
ATOM      4  O   UNL     1     175.316 174.301 151.170  1.00  0.00    -0.550 OA
ATOM      5  O   UNL     1     174.740 174.375 153.380  1.00  0.00    -0.550 OA
ENDBRANCH   2   3
BRANCH   2   6
ATOM      6  C   UNL     1     173.086 172.012 152.833  1.00  0.00     0.004 C 
ATOM      7  C   UNL     1     172.735 170.542 153.171  1.00  0.00     0.006 C 
ATOM      8  C   UNL     1     171.724 172.668 152.391  1.00  0.00    -0.020 C 
ATOM      9  C   UNL     1     171.217 170.381 152.977  1.00  0.00     0.012 C 
ATOM     10  C   UNL     1     170.842 171.460 151.947  1.00  0.00    -0.006 C 
ATOM     11  C   UNL     1     171.691 173.733 151.276  1.00  0.00     0.012 C 
ATOM     12  C   UNL     1     171.156 173.380 153.678  1.00  0.00     0.012 C 
ATOM     13  C   UNL     1     171.149 170.864 150.538  1.00  0.00     0.017 C 
ATOM     14  C   UNL     1     169.392 171.910 151.892  1.00  0.00    -0.064 C 
ATOM     15  C   UNL     1     170.237 174.030 150.789  1.00  0.00     0.032 C 
ATOM     16  C   UNL     1     169.094 173.110 151.299  1.00  0.00    -0.064 C 
ATOM     17  C   UNL     1     168.295 170.945 152.261  1.00  0.00     0.032 C 
ATOM     18  C   UNL     1     167.617 173.601 151.165  1.00  0.00    -0.008 C 
ATOM     19  C   UNL     1     167.211 171.018 151.208  1.00  0.00     0.009 C 
ATOM     20  C   UNL     1     166.537 172.414 151.188  1.00  0.00     0.007 C 
ATOM     21  C   UNL     1     167.373 174.637 152.301  1.00  0.00     0.014 C 
ATOM     22  C   UNL     1     167.464 174.349 149.814  1.00  0.00     0.016 C 
ATOM     23  C   UNL     1     165.317 172.614 152.198  1.00  0.00    -0.006 C 
ATOM     24  C   UNL     1     167.062 173.972 153.632  1.00  0.00     0.033 C 
ATOM     25  C   UNL     1     165.754 173.162 153.617  1.00  0.00     0.120 C 
ATOM     26  C   UNL     1     164.493 171.305 152.374  1.00  0.00     0.014 C 
ATOM     27  C   UNL     1     164.302 173.612 151.559  1.00  0.00     0.014 C 
BRANCH  25  28
ATOM     28  O   UNL     1     165.892 172.124 154.560  1.00  0.00    -0.393 OA
ATOM     29  H   UNL     1     166.859 172.023 154.758  1.00  0.00     0.210 HD
ENDBRANCH  25  28
ENDBRANCH   2   6
ENDBRANCH   1   2
BRANCH   1  30
ATOM     30  C   UNL     1     175.502 170.564 150.305  1.00  0.00     0.031 C 
BRANCH  30  31
ATOM     31  C   UNL     1     174.934 169.220 150.742  1.00  0.00    -0.075 C 
ATOM     32  C   UNL     1     175.346 168.690 151.907  1.00  0.00     0.008 C 
BRANCH  31  33
ATOM     33  C   UNL     1     173.949 168.425 149.886  1.00  0.00     0.008 C 
ATOM     34  C   UNL     1     172.952 167.662 150.767  1.00  0.00     0.012 C 
ATOM     35  C   UNL     1     174.628 167.480 148.886  1.00  0.00     0.012 C 
ENDBRANCH  31  33
ENDBRANCH  30  31
ENDBRANCH   1  30
TORSDOF 7
ENDMDL
MODEL 5
REMARK VINA RESULT:    -6.765      1.532      2.350
REMARK INTER + INTRA:         -10.336
REMARK INTER:                  -9.202
REMARK INTRA:                  -1.134
REMARK UNBOUND:                -1.000
REMARK SMILES C=C(CC[C@@H](C(=O)[O-])[C@@H]1CC[C@@]2(C)C3=C(CC[C@]12C)[C@]1(C)CC[C@H](O)C(C)(C)[C@@H]1CC3)C(C)C
REMARK SMILES IDX 4 1 5 2 6 3 7 4 8 5 9 6 10 7 18 8 11 9 12 10 17 11 19 12
REMARK SMILES IDX 13 13 14 14 16 15 15 16 31 17 20 18 30 19 29 20 22 21 21 22
REMARK SMILES IDX 26 23 23 24 24 25 27 26 28 27 25 28 3 30 2 31 1 32 32 33
REMARK SMILES IDX 33 34 34 35
REMARK H PARENT 25 29
REMARK Flexibility Score: inf
ROOT
ATOM      1  C   UNL     1     174.390 159.316 153.179  1.00  0.00     0.014 C 
ENDROOT
BRANCH   1   2
ATOM      2  C   UNL     1     173.112 159.675 154.008  1.00  0.00     0.039 C 
BRANCH   2   3
ATOM      3  C   UNL     1     171.902 159.794 153.104  1.00  0.00     0.045 C 
ATOM      4  O   UNL     1     171.214 160.850 153.115  1.00  0.00    -0.550 OA
ATOM      5  O   UNL     1     171.519 158.749 152.270  1.00  0.00    -0.550 OA
ENDBRANCH   2   3
BRANCH   2   6
ATOM      6  C   UNL     1     172.739 158.826 155.281  1.00  0.00     0.004 C 
ATOM      7  C   UNL     1     171.251 158.849 155.709  1.00  0.00     0.006 C 
ATOM      8  C   UNL     1     173.555 158.917 156.624  1.00  0.00    -0.020 C 
ATOM      9  C   UNL     1     171.223 158.901 157.247  1.00  0.00     0.012 C 
ATOM     10  C   UNL     1     172.557 159.559 157.637  1.00  0.00    -0.006 C 
ATOM     11  C   UNL     1     174.883 159.699 156.685  1.00  0.00     0.012 C 
ATOM     12  C   UNL     1     173.918 157.431 157.005  1.00  0.00     0.012 C 
ATOM     13  C   UNL     1     172.351 161.101 157.519  1.00  0.00     0.017 C 
ATOM     14  C   UNL     1     173.074 159.323 159.046  1.00  0.00    -0.064 C 
ATOM     15  C   UNL     1     175.371 159.918 158.153  1.00  0.00     0.032 C 
ATOM     16  C   UNL     1     174.403 159.540 159.307  1.00  0.00    -0.064 C 
ATOM     17  C   UNL     1     172.100 159.097 160.173  1.00  0.00     0.032 C 
ATOM     18  C   UNL     1     174.982 159.366 160.748  1.00  0.00    -0.008 C 
ATOM     19  C   UNL     1     172.508 159.961 161.347  1.00  0.00     0.009 C 
ATOM     20  C   UNL     1     173.888 159.533 161.909  1.00  0.00     0.007 C 
ATOM     21  C   UNL     1     175.683 157.977 160.796  1.00  0.00     0.014 C 
ATOM     22  C   UNL     1     176.076 160.445 160.975  1.00  0.00     0.016 C 
ATOM     23  C   UNL     1     173.865 158.371 163.003  1.00  0.00    -0.006 C 
ATOM     24  C   UNL     1     174.697 156.842 161.025  1.00  0.00     0.033 C 
ATOM     25  C   UNL     1     173.986 156.919 162.387  1.00  0.00     0.120 C 
ATOM     26  C   UNL     1     172.598 158.453 163.905  1.00  0.00     0.014 C 
ATOM     27  C   UNL     1     175.046 158.601 163.996  1.00  0.00     0.014 C 
BRANCH  25  28
ATOM     28  O   UNL     1     172.725 156.306 162.238  1.00  0.00    -0.393 OA
ATOM     29  H   UNL     1     172.690 155.908 161.329  1.00  0.00     0.210 HD
ENDBRANCH  25  28
ENDBRANCH   2   6
ENDBRANCH   1   2
BRANCH   1  30
ATOM     30  C   UNL     1     175.089 160.480 152.444  1.00  0.00     0.031 C 
BRANCH  30  31
ATOM     31  C   UNL     1     174.768 160.554 150.957  1.00  0.00    -0.075 C 
ATOM     32  C   UNL     1     175.302 159.636 150.132  1.00  0.00     0.008 C 
BRANCH  31  33
ATOM     33  C   UNL     1     173.901 161.659 150.355  1.00  0.00     0.008 C 
ATOM     34  C   UNL     1     173.644 162.770 151.380  1.00  0.00     0.012 C 
ATOM     35  C   UNL     1     172.582 161.150 149.760  1.00  0.00     0.012 C 
ENDBRANCH  31  33
ENDBRANCH  30  31
ENDBRANCH   1  30
TORSDOF 7
ENDMDL
MODEL 6
REMARK VINA RESULT:    -6.761      6.242     10.286
REMARK INTER + INTRA:         -10.330
REMARK INTER:                  -8.573
REMARK INTRA:                  -1.757
REMARK UNBOUND:                -1.000
REMARK SMILES C=C(CC[C@@H](C(=O)[O-])[C@@H]1CC[C@@]2(C)C3=C(CC[C@]12C)[C@]1(C)CC[C@H](O)C(C)(C)[C@@H]1CC3)C(C)C
REMARK SMILES IDX 4 1 5 2 6 3 7 4 8 5 9 6 10 7 18 8 11 9 12 10 17 11 19 12
REMARK SMILES IDX 13 13 14 14 16 15 15 16 31 17 20 18 30 19 29 20 22 21 21 22
REMARK SMILES IDX 26 23 23 24 24 25 27 26 28 27 25 28 3 30 2 31 1 32 32 33
REMARK SMILES IDX 33 34 34 35
REMARK H PARENT 25 29
REMARK Flexibility Score: inf
ROOT
ATOM      1  C   UNL     1     171.674 168.831 150.743  1.00  0.00     0.014 C 
ENDROOT
BRANCH   1   2
ATOM      2  C   UNL     1     172.123 168.905 152.241  1.00  0.00     0.039 C 
BRANCH   2   3
ATOM      3  C   UNL     1     170.971 169.336 153.126  1.00  0.00     0.045 C 
ATOM      4  O   UNL     1     170.537 168.553 154.012  1.00  0.00    -0.550 OA
ATOM      5  O   UNL     1     170.364 170.577 152.966  1.00  0.00    -0.550 OA
ENDBRANCH   2   3
BRANCH   2   6
ATOM      6  C   UNL     1     172.864 167.681 152.899  1.00  0.00     0.004 C 
ATOM      7  C   UNL     1     174.402 167.801 153.031  1.00  0.00     0.006 C 
ATOM      8  C   UNL     1     172.606 166.196 152.445  1.00  0.00    -0.020 C 
ATOM      9  C   UNL     1     174.994 166.417 152.712  1.00  0.00     0.012 C 
ATOM     10  C   UNL     1     173.954 165.752 151.797  1.00  0.00    -0.006 C 
ATOM     11  C   UNL     1     171.460 165.861 151.467  1.00  0.00     0.012 C 
ATOM     12  C   UNL     1     172.287 165.394 153.764  1.00  0.00     0.012 C 
ATOM     13  C   UNL     1     174.228 166.272 150.351  1.00  0.00     0.017 C 
ATOM     14  C   UNL     1     173.969 164.235 151.695  1.00  0.00    -0.064 C 
ATOM     15  C   UNL     1     171.562 164.402 150.917  1.00  0.00     0.032 C 
ATOM     16  C   UNL     1     172.850 163.593 151.230  1.00  0.00    -0.064 C 
ATOM     17  C   UNL     1     175.266 163.488 151.866  1.00  0.00     0.032 C 
ATOM     18  C   UNL     1     172.825 162.041 151.053  1.00  0.00    -0.008 C 
ATOM     19  C   UNL     1     175.387 162.468 150.755  1.00  0.00     0.009 C 
ATOM     20  C   UNL     1     174.278 161.389 150.856  1.00  0.00     0.007 C 
ATOM     21  C   UNL     1     172.080 161.450 152.286  1.00  0.00     0.014 C 
ATOM     22  C   UNL     1     171.982 161.700 149.795  1.00  0.00     0.016 C 
ATOM     23  C   UNL     1     174.604 160.139 151.795  1.00  0.00    -0.006 C 
ATOM     24  C   UNL     1     172.984 161.326 153.501  1.00  0.00     0.033 C 
ATOM     25  C   UNL     1     174.147 160.340 153.296  1.00  0.00     0.120 C 
ATOM     26  C   UNL     1     176.114 159.765 151.752  1.00  0.00     0.014 C 
ATOM     27  C   UNL     1     173.890 158.881 151.210  1.00  0.00     0.014 C 
BRANCH  25  28
ATOM     28  O   UNL     1     175.212 160.770 154.114  1.00  0.00    -0.393 OA
ATOM     29  H   UNL     1     174.850 160.913 155.028  1.00  0.00     0.210 HD
ENDBRANCH  25  28
ENDBRANCH   2   6
ENDBRANCH   1   2
BRANCH   1  30
ATOM     30  C   UNL     1     172.621 169.470 149.704  1.00  0.00     0.031 C 
BRANCH  30  31
ATOM     31  C   UNL     1     173.187 170.819 150.130  1.00  0.00    -0.075 C 
ATOM     32  C   UNL     1     172.377 171.892 150.123  1.00  0.00     0.008 C 
BRANCH  31  33
ATOM     33  C   UNL     1     174.652 171.011 150.520  1.00  0.00     0.008 C 
ATOM     34  C   UNL     1     175.481 169.775 150.153  1.00  0.00     0.012 C 
ATOM     35  C   UNL     1     174.851 171.384 151.995  1.00  0.00     0.012 C 
ENDBRANCH  31  33
ENDBRANCH  30  31
ENDBRANCH   1  30
TORSDOF 7
ENDMDL
MODEL 7
REMARK VINA RESULT:    -6.760     10.763     14.940
REMARK INTER + INTRA:         -10.328
REMARK INTER:                  -8.910
REMARK INTRA:                  -1.419
REMARK UNBOUND:                -1.000
REMARK SMILES C=C(CC[C@@H](C(=O)[O-])[C@@H]1CC[C@@]2(C)C3=C(CC[C@]12C)[C@]1(C)CC[C@H](O)C(C)(C)[C@@H]1CC3)C(C)C
REMARK SMILES IDX 4 1 5 2 6 3 7 4 8 5 9 6 10 7 18 8 11 9 12 10 17 11 19 12
REMARK SMILES IDX 13 13 14 14 16 15 15 16 31 17 20 18 30 19 29 20 22 21 21 22
REMARK SMILES IDX 26 23 23 24 24 25 27 26 28 27 25 28 3 30 2 31 1 32 32 33
REMARK SMILES IDX 33 34 34 35
REMARK H PARENT 25 29
REMARK Flexibility Score: inf
ROOT
ATOM      1  C   UNL     1     173.200 170.742 159.595  1.00  0.00     0.014 C 
ENDROOT
BRANCH   1   2
ATOM      2  C   UNL     1     173.785 169.445 158.941  1.00  0.00     0.039 C 
BRANCH   2   3
ATOM      3  C   UNL     1     172.786 168.309 159.016  1.00  0.00     0.045 C 
ATOM      4  O   UNL     1     171.738 168.442 159.702  1.00  0.00    -0.550 OA
ATOM      5  O   UNL     1     173.011 167.106 158.355  1.00  0.00    -0.550 OA
ENDBRANCH   2   3
BRANCH   2   6
ATOM      6  C   UNL     1     174.404 169.509 157.494  1.00  0.00     0.004 C 
ATOM      7  C   UNL     1     175.873 169.989 157.397  1.00  0.00     0.006 C 
ATOM      8  C   UNL     1     173.665 170.202 156.290  1.00  0.00    -0.020 C 
ATOM      9  C   UNL     1     175.975 170.885 156.151  1.00  0.00     0.012 C 
ATOM     10  C   UNL     1     174.555 171.439 155.953  1.00  0.00    -0.006 C 
ATOM     11  C   UNL     1     172.203 170.677 156.433  1.00  0.00     0.012 C 
ATOM     12  C   UNL     1     173.655 169.140 155.125  1.00  0.00     0.012 C 
ATOM     13  C   UNL     1     174.414 172.668 156.903  1.00  0.00     0.017 C 
ATOM     14  C   UNL     1     174.180 171.947 154.570  1.00  0.00    -0.064 C 
ATOM     15  C   UNL     1     171.763 171.594 155.248  1.00  0.00     0.032 C 
ATOM     16  C   UNL     1     172.853 172.068 154.248  1.00  0.00    -0.064 C 
ATOM     17  C   UNL     1     175.242 172.531 153.675  1.00  0.00     0.032 C 
ATOM     18  C   UNL     1     172.407 172.634 152.862  1.00  0.00    -0.008 C 
ATOM     19  C   UNL     1     174.723 173.826 153.090  1.00  0.00     0.009 C 
ATOM     20  C   UNL     1     173.502 173.578 152.166  1.00  0.00     0.007 C 
ATOM     21  C   UNL     1     172.029 171.416 151.969  1.00  0.00     0.014 C 
ATOM     22  C   UNL     1     171.120 173.479 153.063  1.00  0.00     0.016 C 
ATOM     23  C   UNL     1     173.838 173.233 150.644  1.00  0.00    -0.006 C 
ATOM     24  C   UNL     1     173.248 170.761 151.341  1.00  0.00     0.033 C 
ATOM     25  C   UNL     1     174.001 171.684 150.366  1.00  0.00     0.120 C 
ATOM     26  C   UNL     1     175.105 173.990 150.148  1.00  0.00     0.014 C 
ATOM     27  C   UNL     1     172.693 173.793 149.744  1.00  0.00     0.014 C 
BRANCH  25  28
ATOM     28  O   UNL     1     175.354 171.289 150.375  1.00  0.00    -0.393 OA
ATOM     29  H   UNL     1     175.605 171.054 149.444  1.00  0.00     0.210 HD
ENDBRANCH  25  28
ENDBRANCH   2   6
ENDBRANCH   1   2
BRANCH   1  30
ATOM     30  C   UNL     1     173.864 171.216 160.906  1.00  0.00     0.031 C 
BRANCH  30  31
ATOM     31  C   UNL     1     174.906 172.310 160.711  1.00  0.00    -0.075 C 
ATOM     32  C   UNL     1     176.123 171.971 160.250  1.00  0.00     0.008 C 
BRANCH  31  33
ATOM     33  C   UNL     1     174.639 173.773 161.063  1.00  0.00     0.008 C 
ATOM     34  C   UNL     1     175.364 174.710 160.090  1.00  0.00     0.012 C 
ATOM     35  C   UNL     1     174.980 174.126 162.517  1.00  0.00     0.012 C 
ENDBRANCH  31  33
ENDBRANCH  30  31
ENDBRANCH   1  30
TORSDOF 7
ENDMDL
MODEL 8
REMARK VINA RESULT:    -6.742      2.997      4.884
REMARK INTER + INTRA:         -10.304
REMARK INTER:                  -8.906
REMARK INTRA:                  -1.397
REMARK UNBOUND:                -1.000
REMARK SMILES C=C(CC[C@@H](C(=O)[O-])[C@@H]1CC[C@@]2(C)C3=C(CC[C@]12C)[C@]1(C)CC[C@H](O)C(C)(C)[C@@H]1CC3)C(C)C
REMARK SMILES IDX 4 1 5 2 6 3 7 4 8 5 9 6 10 7 18 8 11 9 12 10 17 11 19 12
REMARK SMILES IDX 13 13 14 14 16 15 15 16 31 17 20 18 30 19 29 20 22 21 21 22
REMARK SMILES IDX 26 23 23 24 24 25 27 26 28 27 25 28 3 30 2 31 1 32 32 33
REMARK SMILES IDX 33 34 34 35
REMARK H PARENT 25 29
REMARK Flexibility Score: inf
ROOT
ATOM      1  C   UNL     1     171.216 161.118 149.357  1.00  0.00     0.014 C 
ENDROOT
BRANCH   1   2
ATOM      2  C   UNL     1     171.946 160.363 150.517  1.00  0.00     0.039 C 
BRANCH   2   3
ATOM      3  C   UNL     1     173.380 160.056 150.139  1.00  0.00     0.045 C 
ATOM      4  O   UNL     1     173.791 158.865 150.156  1.00  0.00    -0.550 OA
ATOM      5  O   UNL     1     174.267 161.069 149.789  1.00  0.00    -0.550 OA
ENDBRANCH   2   3
BRANCH   2   6
ATOM      6  C   UNL     1     171.899 160.943 151.981  1.00  0.00     0.004 C 
ATOM      7  C   UNL     1     172.808 162.163 152.265  1.00  0.00     0.006 C 
ATOM      8  C   UNL     1     172.030 160.027 153.255  1.00  0.00    -0.020 C 
ATOM      9  C   UNL     1     173.397 161.972 153.674  1.00  0.00     0.012 C 
ATOM     10  C   UNL     1     173.389 160.450 153.893  1.00  0.00    -0.006 C 
ATOM     11  C   UNL     1     172.011 158.490 153.123  1.00  0.00     0.012 C 
ATOM     12  C   UNL     1     170.802 160.392 154.172  1.00  0.00     0.012 C 
ATOM     13  C   UNL     1     174.676 159.890 153.212  1.00  0.00     0.017 C 
ATOM     14  C   UNL     1     173.433 159.943 155.326  1.00  0.00    -0.064 C 
ATOM     15  C   UNL     1     172.451 157.780 154.443  1.00  0.00     0.032 C 
ATOM     16  C   UNL     1     173.034 158.657 155.584  1.00  0.00    -0.064 C 
ATOM     17  C   UNL     1     174.131 160.756 156.386  1.00  0.00     0.032 C 
ATOM     18  C   UNL     1     173.107 158.064 157.028  1.00  0.00    -0.008 C 
ATOM     19  C   UNL     1     175.021 159.837 157.193  1.00  0.00     0.009 C 
ATOM     20  C   UNL     1     174.187 158.784 157.970  1.00  0.00     0.007 C 
ATOM     21  C   UNL     1     171.670 158.131 157.625  1.00  0.00     0.014 C 
ATOM     22  C   UNL     1     173.497 156.564 156.926  1.00  0.00     0.016 C 
ATOM     23  C   UNL     1     173.656 159.236 159.405  1.00  0.00    -0.006 C 
ATOM     24  C   UNL     1     171.340 159.508 158.177  1.00  0.00     0.033 C 
ATOM     25  C   UNL     1     172.228 159.916 159.366  1.00  0.00     0.120 C 
ATOM     26  C   UNL     1     174.665 160.178 160.124  1.00  0.00     0.014 C 
ATOM     27  C   UNL     1     173.594 157.980 160.329  1.00  0.00     0.014 C 
BRANCH  25  28
ATOM     28  O   UNL     1     172.318 161.323 159.359  1.00  0.00    -0.393 OA
ATOM     29  H   UNL     1     171.907 161.647 158.515  1.00  0.00     0.210 HD
ENDBRANCH  25  28
ENDBRANCH   2   6
ENDBRANCH   1   2
BRANCH   1  30
ATOM     30  C   UNL     1     169.818 160.594 148.961  1.00  0.00     0.031 C 
BRANCH  30  31
ATOM     31  C   UNL     1     169.503 159.204 149.501  1.00  0.00    -0.075 C 
ATOM     32  C   UNL     1     170.111 158.141 148.947  1.00  0.00     0.008 C 
BRANCH  31  33
ATOM     33  C   UNL     1     168.487 158.965 150.617  1.00  0.00     0.008 C 
ATOM     34  C   UNL     1     168.271 160.240 151.441  1.00  0.00     0.012 C 
ATOM     35  C   UNL     1     168.840 157.781 151.526  1.00  0.00     0.012 C 
ENDBRANCH  31  33
ENDBRANCH  30  31
ENDBRANCH   1  30
TORSDOF 7
ENDMDL
MODEL 9
REMARK VINA RESULT:    -6.702     13.635     16.943
REMARK INTER + INTRA:         -10.249
REMARK INTER:                  -8.647
REMARK INTRA:                  -1.603
REMARK UNBOUND:                -1.000
REMARK SMILES C=C(CC[C@@H](C(=O)[O-])[C@@H]1CC[C@@]2(C)C3=C(CC[C@]12C)[C@]1(C)CC[C@H](O)C(C)(C)[C@@H]1CC3)C(C)C
REMARK SMILES IDX 4 1 5 2 6 3 7 4 8 5 9 6 10 7 18 8 11 9 12 10 17 11 19 12
REMARK SMILES IDX 13 13 14 14 16 15 15 16 31 17 20 18 30 19 29 20 22 21 21 22
REMARK SMILES IDX 26 23 23 24 24 25 27 26 28 27 25 28 3 30 2 31 1 32 32 33
REMARK SMILES IDX 33 34 34 35
REMARK H PARENT 25 29
REMARK Flexibility Score: inf
ROOT
ATOM      1  C   UNL     1     164.668 173.014 150.503  1.00  0.00     0.014 C 
ENDROOT
BRANCH   1   2
ATOM      2  C   UNL     1     164.821 172.770 152.041  1.00  0.00     0.039 C 
BRANCH   2   3
ATOM      3  C   UNL     1     164.425 171.353 152.402  1.00  0.00     0.045 C 
ATOM      4  O   UNL     1     164.548 170.952 153.590  1.00  0.00    -0.550 OA
ATOM      5  O   UNL     1     163.942 170.472 151.439  1.00  0.00    -0.550 OA
ENDBRANCH   2   3
BRANCH   2   6
ATOM      6  C   UNL     1     166.171 173.141 152.763  1.00  0.00     0.004 C 
ATOM      7  C   UNL     1     166.470 174.651 152.926  1.00  0.00     0.006 C 
ATOM      8  C   UNL     1     167.547 172.490 152.363  1.00  0.00    -0.020 C 
ATOM      9  C   UNL     1     167.975 174.845 152.676  1.00  0.00     0.012 C 
ATOM     10  C   UNL     1     168.371 173.672 151.764  1.00  0.00    -0.006 C 
ATOM     11  C   UNL     1     167.599 171.308 151.373  1.00  0.00     0.012 C 
ATOM     12  C   UNL     1     168.172 171.949 153.706  1.00  0.00     0.012 C 
ATOM     13  C   UNL     1     168.010 174.094 150.305  1.00  0.00     0.017 C 
ATOM     14  C   UNL     1     169.837 173.273 151.722  1.00  0.00    -0.064 C 
ATOM     15  C   UNL     1     169.053 171.012 150.884  1.00  0.00     0.032 C 
ATOM     16  C   UNL     1     170.169 172.026 151.259  1.00  0.00    -0.064 C 
ATOM     17  C   UNL     1     170.902 174.313 151.952  1.00  0.00     0.032 C 
ATOM     18  C   UNL     1     171.661 171.578 151.143  1.00  0.00    -0.008 C 
ATOM     19  C   UNL     1     171.964 174.162 150.885  1.00  0.00     0.009 C 
ATOM     20  C   UNL     1     172.694 172.799 151.004  1.00  0.00     0.007 C 
ATOM     21  C   UNL     1     171.971 170.686 152.381  1.00  0.00     0.014 C 
ATOM     22  C   UNL     1     171.814 170.688 149.880  1.00  0.00     0.016 C 
ATOM     23  C   UNL     1     173.942 172.759 151.999  1.00  0.00    -0.006 C 
ATOM     24  C   UNL     1     172.283 171.508 153.620  1.00  0.00     0.033 C 
ATOM     25  C   UNL     1     173.558 172.359 153.480  1.00  0.00     0.120 C 
ATOM     26  C   UNL     1     174.716 174.110 152.005  1.00  0.00     0.014 C 
ATOM     27  C   UNL     1     174.982 171.735 151.449  1.00  0.00     0.014 C 
BRANCH  25  28
ATOM     28  O   UNL     1     173.399 173.491 154.305  1.00  0.00    -0.393 OA
ATOM     29  H   UNL     1     174.238 174.021 154.254  1.00  0.00     0.210 HD
ENDBRANCH  25  28
ENDBRANCH   2   6
ENDBRANCH   1   2
BRANCH   1  30
ATOM     30  C   UNL     1     163.504 173.925 150.058  1.00  0.00     0.031 C 
BRANCH  30  31
ATOM     31  C   UNL     1     163.666 175.383 150.470  1.00  0.00    -0.075 C 
ATOM     32  C   UNL     1     164.790 176.034 150.120  1.00  0.00     0.008 C 
BRANCH  31  33
ATOM     33  C   UNL     1     162.624 176.122 151.308  1.00  0.00     0.008 C 
ATOM     34  C   UNL     1     162.710 175.703 152.780  1.00  0.00     0.012 C 
ATOM     35  C   UNL     1     161.192 175.972 150.780  1.00  0.00     0.012 C 
ENDBRANCH  31  33
ENDBRANCH  30  31
ENDBRANCH   1  30
TORSDOF 7
ENDMDL
