MODEL 1
REMARK VINA RESULT:    -3.962      0.000      0.000
REMARK INTER + INTRA:         -16.188
REMARK INTER:                 -10.448
REMARK INTRA:                  -5.740
REMARK UNBOUND:                -5.740
REMARK SMILES CCCCCCCCCCCCCCCCCCCCCCCCCCCCCC(=O)[O-]
REMARK SMILES IDX 16 1 17 2 18 3 19 4 20 5 21 6 22 7 23 8 24 9 25 10 26 11
REMARK SMILES IDX 27 12 28 13 29 14 30 15 31 16 32 17 15 18 14 19 13 20 12 21
REMARK SMILES IDX 11 22 10 23 9 24 8 25 7 26 6 27 5 28 4 29 3 30 2 31 1 32
REMARK H PARENT
REMARK Flexibility Score: inf
ROOT
ATOM      1  C   UNL     1     -33.189  15.707  28.282  1.00  0.00     0.000 C 
ENDROOT
BRANCH   1   2
ATOM      2  C   UNL     1     -32.513  14.329  28.363  1.00  0.00     0.000 C 
BRANCH   2   3
ATOM      3  C   UNL     1     -32.822  13.447  27.143  1.00  0.00     0.000 C 
BRANCH   3   4
ATOM      4  C   UNL     1     -31.584  13.289  26.252  1.00  0.00     0.000 C 
BRANCH   4   5
ATOM      5  C   UNL     1     -31.846  13.839  24.843  1.00  0.00     0.000 C 
BRANCH   5   6
ATOM      6  C   UNL     1     -31.010  15.091  24.521  1.00  0.00     0.000 C 
BRANCH   6   7
ATOM      7  C   UNL     1     -30.126  15.599  25.675  1.00  0.00     0.000 C 
BRANCH   7   8
ATOM      8  C   UNL     1     -29.929  17.126  25.728  1.00  0.00     0.000 C 
BRANCH   8   9
ATOM      9  C   UNL     1     -30.547  17.792  26.976  1.00  0.00     0.000 C 
BRANCH   9  10
ATOM     10  C   UNL     1     -29.681  18.940  27.524  1.00  0.00     0.000 C 
BRANCH  10  11
ATOM     11  C   UNL     1     -30.445  20.271  27.612  1.00  0.00     0.000 C 
BRANCH  11  12
ATOM     12  C   UNL     1     -29.594  21.473  27.164  1.00  0.00     0.000 C 
BRANCH  12  13
ATOM     13  C   UNL     1     -29.881  22.739  27.998  1.00  0.00     0.006 C 
BRANCH  13  14
ATOM     14  C   UNL     1     -30.227  22.441  29.466  1.00  0.00     0.053 C 
BRANCH  14  15
ATOM     15  C   UNL     1     -31.552  23.010  29.865  1.00  0.00     0.041 C 
ATOM     16  O   UNL     1     -32.384  22.302  30.491  1.00  0.00    -0.550 OA
ATOM     17  O   UNL     1     -31.878  24.319  29.527  1.00  0.00    -0.550 OA
ENDBRANCH  14  15
ENDBRANCH  13  14
ENDBRANCH  12  13
ENDBRANCH  11  12
ENDBRANCH  10  11
ENDBRANCH   9  10
ENDBRANCH   8   9
ENDBRANCH   7   8
ENDBRANCH   6   7
ENDBRANCH   5   6
ENDBRANCH   4   5
ENDBRANCH   3   4
ENDBRANCH   2   3
ENDBRANCH   1   2
BRANCH   1  18
ATOM     18  C   UNL     1     -34.295  15.762  27.220  1.00  0.00     0.000 C 
BRANCH  18  19
ATOM     19  C   UNL     1     -34.227  17.072  26.425  1.00  0.00     0.000 C 
BRANCH  19  20
ATOM     20  C   UNL     1     -34.262  16.805  24.915  1.00  0.00     0.000 C 
BRANCH  20  21
ATOM     21  C   UNL     1     -33.348  17.782  24.164  1.00  0.00     0.000 C 
BRANCH  21  22
ATOM     22  C   UNL     1     -33.308  19.178  24.808  1.00  0.00     0.000 C 
BRANCH  22  23
ATOM     23  C   UNL     1     -32.054  19.997  24.432  1.00  0.00     0.000 C 
BRANCH  23  24
ATOM     24  C   UNL     1     -31.251  19.340  23.295  1.00  0.00    -0.000 C 
BRANCH  24  25
ATOM     25  C   UNL     1     -30.246  20.315  22.642  1.00  0.00    -0.000 C 
BRANCH  25  26
ATOM     26  C   UNL     1     -29.615  21.312  23.634  1.00  0.00    -0.000 C 
BRANCH  26  27
ATOM     27  C   UNL     1     -28.076  21.300  23.675  1.00  0.00    -0.000 C 
BRANCH  27  28
ATOM     28  C   UNL     1     -27.444  19.929  23.990  1.00  0.00    -0.000 C 
BRANCH  28  29
ATOM     29  C   UNL     1     -26.932  19.147  22.764  1.00  0.00    -0.000 C 
BRANCH  29  30
ATOM     30  C   UNL     1     -26.842  17.623  22.955  1.00  0.00    -0.000 C 
BRANCH  30  31
ATOM     31  C   UNL     1     -28.149  16.900  22.596  1.00  0.00    -0.003 C 
ATOM     32  C   UNL     1     -28.565  17.199  21.158  1.00  0.00     0.004 C 
ENDBRANCH  30  31
ENDBRANCH  29  30
ENDBRANCH  28  29
ENDBRANCH  27  28
ENDBRANCH  26  27
ENDBRANCH  25  26
ENDBRANCH  24  25
ENDBRANCH  23  24
ENDBRANCH  22  23
ENDBRANCH  21  22
ENDBRANCH  20  21
ENDBRANCH  19  20
ENDBRANCH  18  19
ENDBRANCH   1  18
TORSDOF 28
ENDMDL
MODEL 2
REMARK VINA RESULT:    -3.936      1.428      5.043
REMARK INTER + INTRA:         -16.120
REMARK INTER:                 -10.916
REMARK INTRA:                  -5.203
REMARK UNBOUND:                -5.740
REMARK SMILES CCCCCCCCCCCCCCCCCCCCCCCCCCCCCC(=O)[O-]
REMARK SMILES IDX 16 1 17 2 18 3 19 4 20 5 21 6 22 7 23 8 24 9 25 10 26 11
REMARK SMILES IDX 27 12 28 13 29 14 30 15 31 16 32 17 15 18 14 19 13 20 12 21
REMARK SMILES IDX 11 22 10 23 9 24 8 25 7 26 6 27 5 28 4 29 3 30 2 31 1 32
REMARK H PARENT
REMARK Flexibility Score: inf
ROOT
ATOM      1  C   UNL     1     -31.288  19.740  23.424  1.00  0.00     0.000 C 
ENDROOT
BRANCH   1   2
ATOM      2  C   UNL     1     -30.140  20.507  22.750  1.00  0.00     0.000 C 
BRANCH   2   3
ATOM      3  C   UNL     1     -29.380  21.415  23.731  1.00  0.00     0.000 C 
BRANCH   3   4
ATOM      4  C   UNL     1     -27.866  21.207  23.611  1.00  0.00     0.000 C 
BRANCH   4   5
ATOM      5  C   UNL     1     -27.536  19.750  23.258  1.00  0.00     0.000 C 
BRANCH   5   6
ATOM      6  C   UNL     1     -26.858  18.990  24.413  1.00  0.00     0.000 C 
BRANCH   6   7
ATOM      7  C   UNL     1     -27.708  18.849  25.689  1.00  0.00     0.000 C 
BRANCH   7   8
ATOM      8  C   UNL     1     -27.095  19.471  26.958  1.00  0.00     0.000 C 
BRANCH   8   9
ATOM      9  C   UNL     1     -27.709  20.833  27.345  1.00  0.00     0.000 C 
BRANCH   9  10
ATOM     10  C   UNL     1     -29.202  20.729  27.702  1.00  0.00     0.000 C 
BRANCH  10  11
ATOM     11  C   UNL     1     -29.926  22.084  27.630  1.00  0.00     0.000 C 
BRANCH  11  12
ATOM     12  C   UNL     1     -31.203  22.119  28.490  1.00  0.00     0.000 C 
BRANCH  12  13
ATOM     13  C   UNL     1     -31.208  23.300  29.484  1.00  0.00     0.006 C 
BRANCH  13  14
ATOM     14  C   UNL     1     -32.569  24.008  29.588  1.00  0.00     0.053 C 
BRANCH  14  15
ATOM     15  C   UNL     1     -32.592  25.038  30.673  1.00  0.00     0.041 C 
ATOM     16  O   UNL     1     -31.570  25.737  30.906  1.00  0.00    -0.550 OA
ATOM     17  O   UNL     1     -33.737  25.213  31.442  1.00  0.00    -0.550 OA
ENDBRANCH  14  15
ENDBRANCH  13  14
ENDBRANCH  12  13
ENDBRANCH  11  12
ENDBRANCH  10  11
ENDBRANCH   9  10
ENDBRANCH   8   9
ENDBRANCH   7   8
ENDBRANCH   6   7
ENDBRANCH   5   6
ENDBRANCH   4   5
ENDBRANCH   3   4
ENDBRANCH   2   3
ENDBRANCH   1   2
BRANCH   1  18
ATOM     18  C   UNL     1     -31.223  19.803  24.956  1.00  0.00     0.000 C 
BRANCH  18  19
ATOM     19  C   UNL     1     -32.477  19.180  25.584  1.00  0.00     0.000 C 
BRANCH  19  20
ATOM     20  C   UNL     1     -33.480  18.752  24.506  1.00  0.00     0.000 C 
BRANCH  20  21
ATOM     21  C   UNL     1     -33.945  17.307  24.733  1.00  0.00     0.000 C 
BRANCH  21  22
ATOM     22  C   UNL     1     -34.343  17.030  26.193  1.00  0.00     0.000 C 
BRANCH  22  23
ATOM     23  C   UNL     1     -34.126  15.564  26.624  1.00  0.00     0.000 C 
BRANCH  23  24
ATOM     24  C   UNL     1     -33.672  15.450  28.090  1.00  0.00    -0.000 C 
BRANCH  24  25
ATOM     25  C   UNL     1     -32.252  16.017  28.315  1.00  0.00    -0.000 C 
BRANCH  25  26
ATOM     26  C   UNL     1     -31.182  15.390  27.400  1.00  0.00    -0.000 C 
BRANCH  26  27
ATOM     27  C   UNL     1     -30.651  16.319  26.293  1.00  0.00    -0.000 C 
BRANCH  27  28
ATOM     28  C   UNL     1     -30.779  15.764  24.860  1.00  0.00    -0.000 C 
BRANCH  28  29
ATOM     29  C   UNL     1     -29.794  16.362  23.836  1.00  0.00    -0.000 C 
BRANCH  29  30
ATOM     30  C   UNL     1     -30.023  15.922  22.379  1.00  0.00    -0.000 C 
BRANCH  30  31
ATOM     31  C   UNL     1     -29.420  16.900  21.360  1.00  0.00    -0.003 C 
ATOM     32  C   UNL     1     -30.503  17.506  20.471  1.00  0.00     0.004 C 
ENDBRANCH  30  31
ENDBRANCH  29  30
ENDBRANCH  28  29
ENDBRANCH  27  28
ENDBRANCH  26  27
ENDBRANCH  25  26
ENDBRANCH  24  25
ENDBRANCH  23  24
ENDBRANCH  22  23
ENDBRANCH  21  22
ENDBRANCH  20  21
ENDBRANCH  19  20
ENDBRANCH  18  19
ENDBRANCH   1  18
TORSDOF 28
ENDMDL
MODEL 3
REMARK VINA RESULT:    -3.912      1.961      5.593
REMARK INTER + INTRA:         -16.056
REMARK INTER:                 -10.912
REMARK INTRA:                  -5.144
REMARK UNBOUND:                -5.740
REMARK SMILES CCCCCCCCCCCCCCCCCCCCCCCCCCCCCC(=O)[O-]
REMARK SMILES IDX 16 1 17 2 18 3 19 4 20 5 21 6 22 7 23 8 24 9 25 10 26 11
REMARK SMILES IDX 27 12 28 13 29 14 30 15 31 16 32 17 15 18 14 19 13 20 12 21
REMARK SMILES IDX 11 22 10 23 9 24 8 25 7 26 6 27 5 28 4 29 3 30 2 31 1 32
REMARK H PARENT
REMARK Flexibility Score: inf
ROOT
ATOM      1  C   UNL     1     -30.332  19.131  26.984  1.00  0.00     0.000 C 
ENDROOT
BRANCH   1   2
ATOM      2  C   UNL     1     -30.988  20.517  26.886  1.00  0.00     0.000 C 
BRANCH   2   3
ATOM      3  C   UNL     1     -30.642  21.420  28.082  1.00  0.00     0.000 C 
BRANCH   3   4
ATOM      4  C   UNL     1     -29.813  22.630  27.635  1.00  0.00     0.000 C 
BRANCH   4   5
ATOM      5  C   UNL     1     -28.536  22.185  26.909  1.00  0.00     0.000 C 
BRANCH   5   6
ATOM      6  C   UNL     1     -27.555  21.431  27.827  1.00  0.00     0.000 C 
BRANCH   6   7
ATOM      7  C   UNL     1     -26.759  22.321  28.801  1.00  0.00     0.000 C 
BRANCH   7   8
ATOM      8  C   UNL     1     -27.001  22.035  30.295  1.00  0.00     0.000 C 
BRANCH   8   9
ATOM      9  C   UNL     1     -27.843  20.769  30.561  1.00  0.00     0.000 C 
BRANCH   9  10
ATOM     10  C   UNL     1     -29.149  21.075  31.315  1.00  0.00     0.000 C 
BRANCH  10  11
ATOM     11  C   UNL     1     -29.457  22.579  31.385  1.00  0.00     0.000 C 
BRANCH  11  12
ATOM     12  C   UNL     1     -30.967  22.871  31.473  1.00  0.00     0.000 C 
BRANCH  12  13
ATOM     13  C   UNL     1     -31.319  24.291  30.981  1.00  0.00     0.006 C 
BRANCH  13  14
ATOM     14  C   UNL     1     -32.592  24.344  30.121  1.00  0.00     0.053 C 
BRANCH  14  15
ATOM     15  C   UNL     1     -33.671  25.166  30.753  1.00  0.00     0.041 C 
ATOM     16  O   UNL     1     -33.716  25.301  32.004  1.00  0.00    -0.550 OA
ATOM     17  O   UNL     1     -34.642  25.768  29.960  1.00  0.00    -0.550 OA
ENDBRANCH  14  15
ENDBRANCH  13  14
ENDBRANCH  12  13
ENDBRANCH  11  12
ENDBRANCH  10  11
ENDBRANCH   9  10
ENDBRANCH   8   9
ENDBRANCH   7   8
ENDBRANCH   6   7
ENDBRANCH   5   6
ENDBRANCH   4   5
ENDBRANCH   3   4
ENDBRANCH   2   3
ENDBRANCH   1   2
BRANCH   1  18
ATOM     18  C   UNL     1     -30.225  18.627  28.430  1.00  0.00     0.000 C 
BRANCH  18  19
ATOM     19  C   UNL     1     -30.806  17.213  28.561  1.00  0.00     0.000 C 
BRANCH  19  20
ATOM     20  C   UNL     1     -30.737  16.462  27.226  1.00  0.00     0.000 C 
BRANCH  20  21
ATOM     21  C   UNL     1     -31.846  15.405  27.134  1.00  0.00     0.000 C 
BRANCH  21  22
ATOM     22  C   UNL     1     -32.876  15.520  28.270  1.00  0.00     0.000 C 
BRANCH  22  23
ATOM     23  C   UNL     1     -34.271  15.979  27.795  1.00  0.00     0.000 C 
BRANCH  23  24
ATOM     24  C   UNL     1     -34.297  16.293  26.288  1.00  0.00    -0.000 C 
BRANCH  24  25
ATOM     25  C   UNL     1     -34.158  17.804  25.996  1.00  0.00    -0.000 C 
BRANCH  25  26
ATOM     26  C   UNL     1     -33.329  18.119  24.736  1.00  0.00    -0.000 C 
BRANCH  26  27
ATOM     27  C   UNL     1     -33.148  16.936  23.767  1.00  0.00    -0.000 C 
BRANCH  27  28
ATOM     28  C   UNL     1     -31.691  16.656  23.347  1.00  0.00    -0.000 C 
BRANCH  28  29
ATOM     29  C   UNL     1     -30.685  17.773  23.689  1.00  0.00    -0.000 C 
BRANCH  29  30
ATOM     30  C   UNL     1     -30.182  18.587  22.484  1.00  0.00    -0.000 C 
BRANCH  30  31
ATOM     31  C   UNL     1     -30.594  20.065  22.550  1.00  0.00    -0.003 C 
ATOM     32  C   UNL     1     -29.792  20.814  23.612  1.00  0.00     0.004 C 
ENDBRANCH  30  31
ENDBRANCH  29  30
ENDBRANCH  28  29
ENDBRANCH  27  28
ENDBRANCH  26  27
ENDBRANCH  25  26
ENDBRANCH  24  25
ENDBRANCH  23  24
ENDBRANCH  22  23
ENDBRANCH  21  22
ENDBRANCH  20  21
ENDBRANCH  19  20
ENDBRANCH  18  19
ENDBRANCH   1  18
TORSDOF 28
ENDMDL
MODEL 4
REMARK VINA RESULT:    -3.905      1.365      6.058
REMARK INTER + INTRA:         -16.037
REMARK INTER:                 -10.541
REMARK INTRA:                  -5.496
REMARK UNBOUND:                -5.740
REMARK SMILES CCCCCCCCCCCCCCCCCCCCCCCCCCCCCC(=O)[O-]
REMARK SMILES IDX 16 1 17 2 18 3 19 4 20 5 21 6 22 7 23 8 24 9 25 10 26 11
REMARK SMILES IDX 27 12 28 13 29 14 30 15 31 16 32 17 15 18 14 19 13 20 12 21
REMARK SMILES IDX 11 22 10 23 9 24 8 25 7 26 6 27 5 28 4 29 3 30 2 31 1 32
REMARK H PARENT
REMARK Flexibility Score: inf
ROOT
ATOM      1  C   UNL     1     -27.321  19.176  24.493  1.00  0.00     0.000 C 
ENDROOT
BRANCH   1   2
ATOM      2  C   UNL     1     -27.516  19.899  23.151  1.00  0.00     0.000 C 
BRANCH   2   3
ATOM      3  C   UNL     1     -27.852  21.389  23.326  1.00  0.00     0.000 C 
BRANCH   3   4
ATOM      4  C   UNL     1     -29.364  21.625  23.233  1.00  0.00     0.000 C 
BRANCH   4   5
ATOM      5  C   UNL     1     -30.093  20.353  22.780  1.00  0.00     0.000 C 
BRANCH   5   6
ATOM      6  C   UNL     1     -31.045  19.791  23.852  1.00  0.00     0.000 C 
BRANCH   6   7
ATOM      7  C   UNL     1     -31.043  20.554  25.190  1.00  0.00     0.000 C 
BRANCH   7   8
ATOM      8  C   UNL     1     -31.100  19.669  26.449  1.00  0.00     0.000 C 
BRANCH   8   9
ATOM      9  C   UNL     1     -29.952  19.931  27.448  1.00  0.00     0.000 C 
BRANCH   9  10
ATOM     10  C   UNL     1     -29.038  21.088  27.009  1.00  0.00     0.000 C 
BRANCH  10  11
ATOM     11  C   UNL     1     -28.551  21.943  28.191  1.00  0.00     0.000 C 
BRANCH  11  12
ATOM     12  C   UNL     1     -29.646  22.164  29.251  1.00  0.00     0.000 C 
BRANCH  12  13
ATOM     13  C   UNL     1     -30.658  23.251  28.831  1.00  0.00     0.006 C 
BRANCH  13  14
ATOM     14  C   UNL     1     -31.879  23.343  29.760  1.00  0.00     0.053 C 
BRANCH  14  15
ATOM     15  C   UNL     1     -31.686  24.345  30.854  1.00  0.00     0.041 C 
ATOM     16  O   UNL     1     -32.123  25.520  30.723  1.00  0.00    -0.550 OA
ATOM     17  O   UNL     1     -31.005  23.989  32.013  1.00  0.00    -0.550 OA
ENDBRANCH  14  15
ENDBRANCH  13  14
ENDBRANCH  12  13
ENDBRANCH  11  12
ENDBRANCH  10  11
ENDBRANCH   9  10
ENDBRANCH   8   9
ENDBRANCH   7   8
ENDBRANCH   6   7
ENDBRANCH   5   6
ENDBRANCH   4   5
ENDBRANCH   3   4
ENDBRANCH   2   3
ENDBRANCH   1   2
BRANCH   1  18
ATOM     18  C   UNL     1     -28.106  17.860  24.577  1.00  0.00     0.000 C 
BRANCH  18  19
ATOM     19  C   UNL     1     -27.904  17.188  25.942  1.00  0.00     0.000 C 
BRANCH  19  20
ATOM     20  C   UNL     1     -29.177  16.462  26.393  1.00  0.00     0.000 C 
BRANCH  20  21
ATOM     21  C   UNL     1     -30.184  16.353  25.240  1.00  0.00     0.000 C 
BRANCH  21  22
ATOM     22  C   UNL     1     -30.922  15.003  25.218  1.00  0.00     0.000 C 
BRANCH  22  23
ATOM     23  C   UNL     1     -31.920  14.865  24.048  1.00  0.00     0.000 C 
BRANCH  23  24
ATOM     24  C   UNL     1     -32.343  16.232  23.480  1.00  0.00    -0.000 C 
BRANCH  24  25
ATOM     25  C   UNL     1     -33.786  16.616  23.878  1.00  0.00    -0.000 C 
BRANCH  25  26
ATOM     26  C   UNL     1     -33.861  17.755  24.914  1.00  0.00    -0.000 C 
BRANCH  26  27
ATOM     27  C   UNL     1     -34.497  17.364  26.261  1.00  0.00    -0.000 C 
BRANCH  27  28
ATOM     28  C   UNL     1     -34.498  15.853  26.567  1.00  0.00    -0.000 C 
BRANCH  28  29
ATOM     29  C   UNL     1     -33.916  15.463  27.940  1.00  0.00    -0.000 C 
BRANCH  29  30
ATOM     30  C   UNL     1     -33.195  14.103  27.979  1.00  0.00    -0.000 C 
BRANCH  30  31
ATOM     31  C   UNL     1     -31.874  14.152  28.760  1.00  0.00    -0.003 C 
ATOM     32  C   UNL     1     -31.538  15.579  29.185  1.00  0.00     0.004 C 
ENDBRANCH  30  31
ENDBRANCH  29  30
ENDBRANCH  28  29
ENDBRANCH  27  28
ENDBRANCH  26  27
ENDBRANCH  25  26
ENDBRANCH  24  25
ENDBRANCH  23  24
ENDBRANCH  22  23
ENDBRANCH  21  22
ENDBRANCH  20  21
ENDBRANCH  19  20
ENDBRANCH  18  19
ENDBRANCH   1  18
TORSDOF 28
ENDMDL
MODEL 5
REMARK VINA RESULT:    -3.896      2.969      7.225
REMARK INTER + INTRA:         -16.013
REMARK INTER:                 -10.384
REMARK INTRA:                  -5.629
REMARK UNBOUND:                -5.740
REMARK SMILES CCCCCCCCCCCCCCCCCCCCCCCCCCCCCC(=O)[O-]
REMARK SMILES IDX 16 1 17 2 18 3 19 4 20 5 21 6 22 7 23 8 24 9 25 10 26 11
REMARK SMILES IDX 27 12 28 13 29 14 30 15 31 16 32 17 15 18 14 19 13 20 12 21
REMARK SMILES IDX 11 22 10 23 9 24 8 25 7 26 6 27 5 28 4 29 3 30 2 31 1 32
REMARK H PARENT
REMARK Flexibility Score: inf
ROOT
ATOM      1  C   UNL     1     -32.848  20.123  24.370  1.00  0.00     0.000 C 
ENDROOT
BRANCH   1   2
ATOM      2  C   UNL     1     -31.560  19.679  23.660  1.00  0.00     0.000 C 
BRANCH   2   3
ATOM      3  C   UNL     1     -30.322  20.447  24.152  1.00  0.00     0.000 C 
BRANCH   3   4
ATOM      4  C   UNL     1     -29.495  20.971  22.971  1.00  0.00     0.000 C 
BRANCH   4   5
ATOM      5  C   UNL     1     -27.993  20.776  23.221  1.00  0.00     0.000 C 
BRANCH   5   6
ATOM      6  C   UNL     1     -27.692  20.073  24.558  1.00  0.00     0.000 C 
BRANCH   6   7
ATOM      7  C   UNL     1     -27.044  18.681  24.431  1.00  0.00     0.000 C 
BRANCH   7   8
ATOM      8  C   UNL     1     -26.978  18.118  22.999  1.00  0.00     0.000 C 
BRANCH   8   9
ATOM      9  C   UNL     1     -25.541  17.947  22.461  1.00  0.00     0.000 C 
BRANCH   9  10
ATOM     10  C   UNL     1     -25.508  17.499  20.990  1.00  0.00     0.000 C 
BRANCH  10  11
ATOM     11  C   UNL     1     -26.868  17.654  20.291  1.00  0.00     0.000 C 
BRANCH  11  12
ATOM     12  C   UNL     1     -27.137  16.538  19.264  1.00  0.00     0.000 C 
BRANCH  12  13
ATOM     13  C   UNL     1     -28.437  15.765  19.567  1.00  0.00     0.006 C 
BRANCH  13  14
ATOM     14  C   UNL     1     -29.543  16.639  20.179  1.00  0.00     0.053 C 
BRANCH  14  15
ATOM     15  C   UNL     1     -30.003  16.126  21.508  1.00  0.00     0.041 C 
ATOM     16  O   UNL     1     -31.161  16.394  21.924  1.00  0.00    -0.550 OA
ATOM     17  O   UNL     1     -29.145  15.369  22.297  1.00  0.00    -0.550 OA
ENDBRANCH  14  15
ENDBRANCH  13  14
ENDBRANCH  12  13
ENDBRANCH  11  12
ENDBRANCH  10  11
ENDBRANCH   9  10
ENDBRANCH   8   9
ENDBRANCH   7   8
ENDBRANCH   6   7
ENDBRANCH   5   6
ENDBRANCH   4   5
ENDBRANCH   3   4
ENDBRANCH   2   3
ENDBRANCH   1   2
BRANCH   1  18
ATOM     18  C   UNL     1     -33.514  18.983  25.155  1.00  0.00     0.000 C 
BRANCH  18  19
ATOM     19  C   UNL     1     -33.477  17.674  24.356  1.00  0.00     0.000 C 
BRANCH  19  20
ATOM     20  C   UNL     1     -34.194  16.547  25.109  1.00  0.00     0.000 C 
BRANCH  20  21
ATOM     21  C   UNL     1     -34.359  16.899  26.594  1.00  0.00     0.000 C 
BRANCH  21  22
ATOM     22  C   UNL     1     -33.519  16.001  27.518  1.00  0.00     0.000 C 
BRANCH  22  23
ATOM     23  C   UNL     1     -32.815  14.843  26.779  1.00  0.00     0.000 C 
BRANCH  23  24
ATOM     24  C   UNL     1     -31.282  14.975  26.817  1.00  0.00    -0.000 C 
BRANCH  24  25
ATOM     25  C   UNL     1     -30.692  15.408  25.456  1.00  0.00    -0.000 C 
BRANCH  25  26
ATOM     26  C   UNL     1     -30.094  16.828  25.463  1.00  0.00    -0.000 C 
BRANCH  26  27
ATOM     27  C   UNL     1     -29.814  17.407  26.861  1.00  0.00    -0.000 C 
BRANCH  27  28
ATOM     28  C   UNL     1     -30.656  18.644  27.235  1.00  0.00    -0.000 C 
BRANCH  28  29
ATOM     29  C   UNL     1     -29.862  19.818  27.839  1.00  0.00    -0.000 C 
BRANCH  29  30
ATOM     30  C   UNL     1     -30.542  21.194  27.722  1.00  0.00    -0.000 C 
BRANCH  30  31
ATOM     31  C   UNL     1     -29.559  22.361  27.888  1.00  0.00    -0.003 C 
ATOM     32  C   UNL     1     -29.053  22.852  26.534  1.00  0.00     0.004 C 
ENDBRANCH  30  31
ENDBRANCH  29  30
ENDBRANCH  28  29
ENDBRANCH  27  28
ENDBRANCH  26  27
ENDBRANCH  25  26
ENDBRANCH  24  25
ENDBRANCH  23  24
ENDBRANCH  22  23
ENDBRANCH  21  22
ENDBRANCH  20  21
ENDBRANCH  19  20
ENDBRANCH  18  19
ENDBRANCH   1  18
TORSDOF 28
ENDMDL
MODEL 6
REMARK VINA RESULT:    -3.849      1.827      5.456
REMARK INTER + INTRA:         -15.890
REMARK INTER:                 -10.938
REMARK INTRA:                  -4.952
REMARK UNBOUND:                -5.740
REMARK SMILES CCCCCCCCCCCCCCCCCCCCCCCCCCCCCC(=O)[O-]
REMARK SMILES IDX 16 1 17 2 18 3 19 4 20 5 21 6 22 7 23 8 24 9 25 10 26 11
REMARK SMILES IDX 27 12 28 13 29 14 30 15 31 16 32 17 15 18 14 19 13 20 12 21
REMARK SMILES IDX 11 22 10 23 9 24 8 25 7 26 6 27 5 28 4 29 3 30 2 31 1 32
REMARK H PARENT
REMARK Flexibility Score: inf
ROOT
ATOM      1  C   UNL     1     -33.562  17.685  24.367  1.00  0.00     0.000 C 
ENDROOT
BRANCH   1   2
ATOM      2  C   UNL     1     -33.531  19.036  25.100  1.00  0.00     0.000 C 
BRANCH   2   3
ATOM      3  C   UNL     1     -32.444  19.977  24.555  1.00  0.00     0.000 C 
BRANCH   3   4
ATOM      4  C   UNL     1     -31.558  19.258  23.530  1.00  0.00     0.000 C 
BRANCH   4   5
ATOM      5  C   UNL     1     -30.443  20.182  23.023  1.00  0.00     0.000 C 
BRANCH   5   6
ATOM      6  C   UNL     1     -29.065  19.849  23.626  1.00  0.00     0.000 C 
BRANCH   6   7
ATOM      7  C   UNL     1     -28.789  20.473  25.007  1.00  0.00     0.000 C 
BRANCH   7   8
ATOM      8  C   UNL     1     -28.302  21.934  24.980  1.00  0.00     0.000 C 
BRANCH   8   9
ATOM      9  C   UNL     1     -28.511  22.687  26.311  1.00  0.00     0.000 C 
BRANCH   9  10
ATOM     10  C   UNL     1     -29.761  22.208  27.072  1.00  0.00     0.000 C 
BRANCH  10  11
ATOM     11  C   UNL     1     -29.637  22.391  28.593  1.00  0.00     0.000 C 
BRANCH  11  12
ATOM     12  C   UNL     1     -31.006  22.478  29.292  1.00  0.00     0.000 C 
BRANCH  12  13
ATOM     13  C   UNL     1     -31.617  23.893  29.210  1.00  0.00     0.006 C 
BRANCH  13  14
ATOM     14  C   UNL     1     -31.706  24.603  30.569  1.00  0.00     0.053 C 
BRANCH  14  15
ATOM     15  C   UNL     1     -33.118  24.765  31.036  1.00  0.00     0.041 C 
ATOM     16  O   UNL     1     -33.621  23.931  31.836  1.00  0.00    -0.550 OA
ATOM     17  O   UNL     1     -33.888  25.825  30.571  1.00  0.00    -0.550 OA
ENDBRANCH  14  15
ENDBRANCH  13  14
ENDBRANCH  12  13
ENDBRANCH  11  12
ENDBRANCH  10  11
ENDBRANCH   9  10
ENDBRANCH   8   9
ENDBRANCH   7   8
ENDBRANCH   6   7
ENDBRANCH   5   6
ENDBRANCH   4   5
ENDBRANCH   3   4
ENDBRANCH   2   3
ENDBRANCH   1   2
BRANCH   1  18
ATOM     18  C   UNL     1     -34.233  16.579  25.194  1.00  0.00     0.000 C 
BRANCH  18  19
ATOM     19  C   UNL     1     -34.430  17.025  26.649  1.00  0.00     0.000 C 
BRANCH  19  20
ATOM     20  C   UNL     1     -33.965  15.939  27.627  1.00  0.00     0.000 C 
BRANCH  20  21
ATOM     21  C   UNL     1     -32.953  14.998  26.960  1.00  0.00     0.000 C 
BRANCH  21  22
ATOM     22  C   UNL     1     -31.497  15.325  27.334  1.00  0.00     0.000 C 
BRANCH  22  23
ATOM     23  C   UNL     1     -30.626  15.732  26.126  1.00  0.00     0.000 C 
BRANCH  23  24
ATOM     24  C   UNL     1     -30.282  17.232  26.137  1.00  0.00    -0.000 C 
BRANCH  24  25
ATOM     25  C   UNL     1     -30.792  17.946  27.409  1.00  0.00    -0.000 C 
BRANCH  25  26
ATOM     26  C   UNL     1     -29.667  18.519  28.292  1.00  0.00    -0.000 C 
BRANCH  26  27
ATOM     27  C   UNL     1     -28.553  17.519  28.653  1.00  0.00    -0.000 C 
BRANCH  27  28
ATOM     28  C   UNL     1     -28.932  16.485  29.733  1.00  0.00    -0.000 C 
BRANCH  28  29
ATOM     29  C   UNL     1     -29.892  17.000  30.823  1.00  0.00    -0.000 C 
BRANCH  29  30
ATOM     30  C   UNL     1     -30.813  15.930  31.437  1.00  0.00    -0.000 C 
BRANCH  30  31
ATOM     31  C   UNL     1     -30.601  14.538  30.823  1.00  0.00    -0.003 C 
ATOM     32  C   UNL     1     -31.931  13.820  30.615  1.00  0.00     0.004 C 
ENDBRANCH  30  31
ENDBRANCH  29  30
ENDBRANCH  28  29
ENDBRANCH  27  28
ENDBRANCH  26  27
ENDBRANCH  25  26
ENDBRANCH  24  25
ENDBRANCH  23  24
ENDBRANCH  22  23
ENDBRANCH  21  22
ENDBRANCH  20  21
ENDBRANCH  19  20
ENDBRANCH  18  19
ENDBRANCH   1  18
TORSDOF 28
ENDMDL
MODEL 7
REMARK VINA RESULT:    -3.836      1.376      4.886
REMARK INTER + INTRA:         -15.854
REMARK INTER:                  -9.644
REMARK INTRA:                  -6.211
REMARK UNBOUND:                -5.740
REMARK SMILES CCCCCCCCCCCCCCCCCCCCCCCCCCCCCC(=O)[O-]
REMARK SMILES IDX 16 1 17 2 18 3 19 4 20 5 21 6 22 7 23 8 24 9 25 10 26 11
REMARK SMILES IDX 27 12 28 13 29 14 30 15 31 16 32 17 15 18 14 19 13 20 12 21
REMARK SMILES IDX 11 22 10 23 9 24 8 25 7 26 6 27 5 28 4 29 3 30 2 31 1 32
REMARK H PARENT
REMARK Flexibility Score: inf
ROOT
ATOM      1  C   UNL     1     -32.765  19.707  24.479  1.00  0.00     0.000 C 
ENDROOT
BRANCH   1   2
ATOM      2  C   UNL     1     -31.368  20.070  25.007  1.00  0.00     0.000 C 
BRANCH   2   3
ATOM      3  C   UNL     1     -30.411  20.510  23.888  1.00  0.00     0.000 C 
BRANCH   3   4
ATOM      4  C   UNL     1     -29.452  21.600  24.382  1.00  0.00     0.000 C 
BRANCH   4   5
ATOM      5  C   UNL     1     -28.205  21.681  23.491  1.00  0.00     0.000 C 
BRANCH   5   6
ATOM      6  C   UNL     1     -27.973  20.403  22.664  1.00  0.00     0.000 C 
BRANCH   6   7
ATOM      7  C   UNL     1     -26.710  19.605  23.038  1.00  0.00     0.000 C 
BRANCH   7   8
ATOM      8  C   UNL     1     -26.965  18.300  23.816  1.00  0.00     0.000 C 
BRANCH   8   9
ATOM      9  C   UNL     1     -26.383  18.301  25.245  1.00  0.00     0.000 C 
BRANCH   9  10
ATOM     10  C   UNL     1     -27.463  18.494  26.324  1.00  0.00     0.000 C 
BRANCH  10  11
ATOM     11  C   UNL     1     -27.653  19.969  26.716  1.00  0.00     0.000 C 
BRANCH  11  12
ATOM     12  C   UNL     1     -28.124  20.138  28.173  1.00  0.00     0.000 C 
BRANCH  12  13
ATOM     13  C   UNL     1     -29.576  20.652  28.264  1.00  0.00     0.006 C 
BRANCH  13  14
ATOM     14  C   UNL     1     -29.680  22.182  28.363  1.00  0.00     0.053 C 
BRANCH  14  15
ATOM     15  C   UNL     1     -30.637  22.619  29.427  1.00  0.00     0.041 C 
ATOM     16  O   UNL     1     -30.222  22.874  30.589  1.00  0.00    -0.550 OA
ATOM     17  O   UNL     1     -31.994  22.726  29.142  1.00  0.00    -0.550 OA
ENDBRANCH  14  15
ENDBRANCH  13  14
ENDBRANCH  12  13
ENDBRANCH  11  12
ENDBRANCH  10  11
ENDBRANCH   9  10
ENDBRANCH   8   9
ENDBRANCH   7   8
ENDBRANCH   6   7
ENDBRANCH   5   6
ENDBRANCH   4   5
ENDBRANCH   3   4
ENDBRANCH   2   3
ENDBRANCH   1   2
BRANCH   1  18
ATOM     18  C   UNL     1     -33.457  18.629  25.326  1.00  0.00     0.000 C 
BRANCH  18  19
ATOM     19  C   UNL     1     -33.867  17.431  24.460  1.00  0.00     0.000 C 
BRANCH  19  20
ATOM     20  C   UNL     1     -33.842  16.129  25.270  1.00  0.00     0.000 C 
BRANCH  20  21
ATOM     21  C   UNL     1     -34.854  16.182  26.422  1.00  0.00     0.000 C 
BRANCH  21  22
ATOM     22  C   UNL     1     -34.194  16.032  27.803  1.00  0.00     0.000 C 
BRANCH  22  23
ATOM     23  C   UNL     1     -33.384  14.726  27.962  1.00  0.00     0.000 C 
BRANCH  23  24
ATOM     24  C   UNL     1     -31.880  14.994  28.146  1.00  0.00    -0.000 C 
BRANCH  24  25
ATOM     25  C   UNL     1     -31.566  16.495  28.340  1.00  0.00    -0.000 C 
BRANCH  25  26
ATOM     26  C   UNL     1     -30.710  17.100  27.210  1.00  0.00    -0.000 C 
BRANCH  26  27
ATOM     27  C   UNL     1     -30.225  16.092  26.152  1.00  0.00    -0.000 C 
BRANCH  27  28
ATOM     28  C   UNL     1     -30.210  16.623  24.705  1.00  0.00    -0.000 C 
BRANCH  28  29
ATOM     29  C   UNL     1     -30.668  15.615  23.633  1.00  0.00    -0.000 C 
BRANCH  29  30
ATOM     30  C   UNL     1     -31.082  16.237  22.288  1.00  0.00    -0.000 C 
BRANCH  30  31
ATOM     31  C   UNL     1     -30.253  17.478  21.925  1.00  0.00    -0.003 C 
ATOM     32  C   UNL     1     -29.151  17.131  20.928  1.00  0.00     0.004 C 
ENDBRANCH  30  31
ENDBRANCH  29  30
ENDBRANCH  28  29
ENDBRANCH  27  28
ENDBRANCH  26  27
ENDBRANCH  25  26
ENDBRANCH  24  25
ENDBRANCH  23  24
ENDBRANCH  22  23
ENDBRANCH  21  22
ENDBRANCH  20  21
ENDBRANCH  19  20
ENDBRANCH  18  19
ENDBRANCH   1  18
TORSDOF 28
ENDMDL
MODEL 8
REMARK VINA RESULT:    -3.810      2.066      5.637
REMARK INTER + INTRA:         -15.788
REMARK INTER:                  -9.684
REMARK INTRA:                  -6.104
REMARK UNBOUND:                -5.740
REMARK SMILES CCCCCCCCCCCCCCCCCCCCCCCCCCCCCC(=O)[O-]
REMARK SMILES IDX 16 1 17 2 18 3 19 4 20 5 21 6 22 7 23 8 24 9 25 10 26 11
REMARK SMILES IDX 27 12 28 13 29 14 30 15 31 16 32 17 15 18 14 19 13 20 12 21
REMARK SMILES IDX 11 22 10 23 9 24 8 25 7 26 6 27 5 28 4 29 3 30 2 31 1 32
REMARK H PARENT
REMARK Flexibility Score: inf
ROOT
ATOM      1  C   UNL     1     -31.756  20.116  24.324  1.00  0.00     0.000 C 
ENDROOT
BRANCH   1   2
ATOM      2  C   UNL     1     -31.106  19.733  22.985  1.00  0.00     0.000 C 
BRANCH   2   3
ATOM      3  C   UNL     1     -30.600  18.281  22.969  1.00  0.00     0.000 C 
BRANCH   3   4
ATOM      4  C   UNL     1     -29.697  18.001  24.177  1.00  0.00     0.000 C 
BRANCH   4   5
ATOM      5  C   UNL     1     -28.311  17.517  23.727  1.00  0.00     0.000 C 
BRANCH   5   6
ATOM      6  C   UNL     1     -27.570  18.545  22.852  1.00  0.00     0.000 C 
BRANCH   6   7
ATOM      7  C   UNL     1     -27.122  19.823  23.585  1.00  0.00     0.000 C 
BRANCH   7   8
ATOM      8  C   UNL     1     -27.756  21.130  23.071  1.00  0.00     0.000 C 
BRANCH   8   9
ATOM      9  C   UNL     1     -28.427  21.974  24.176  1.00  0.00     0.000 C 
BRANCH   9  10
ATOM     10  C   UNL     1     -28.402  21.281  25.549  1.00  0.00     0.000 C 
BRANCH  10  11
ATOM     11  C   UNL     1     -28.957  22.170  26.674  1.00  0.00     0.000 C 
BRANCH  11  12
ATOM     12  C   UNL     1     -30.198  21.561  27.352  1.00  0.00     0.000 C 
BRANCH  12  13
ATOM     13  C   UNL     1     -30.116  20.023  27.452  1.00  0.00     0.006 C 
BRANCH  13  14
ATOM     14  C   UNL     1     -29.722  19.520  28.850  1.00  0.00     0.053 C 
BRANCH  14  15
ATOM     15  C   UNL     1     -28.376  18.868  28.861  1.00  0.00     0.041 C 
ATOM     16  O   UNL     1     -27.354  19.515  28.509  1.00  0.00    -0.550 OA
ATOM     17  O   UNL     1     -28.250  17.536  29.242  1.00  0.00    -0.550 OA
ENDBRANCH  14  15
ENDBRANCH  13  14
ENDBRANCH  12  13
ENDBRANCH  11  12
ENDBRANCH  10  11
ENDBRANCH   9  10
ENDBRANCH   8   9
ENDBRANCH   7   8
ENDBRANCH   6   7
ENDBRANCH   5   6
ENDBRANCH   4   5
ENDBRANCH   3   4
ENDBRANCH   2   3
ENDBRANCH   1   2
BRANCH   1  18
ATOM     18  C   UNL     1     -33.249  19.765  24.380  1.00  0.00     0.000 C 
BRANCH  18  19
ATOM     19  C   UNL     1     -33.509  18.631  25.381  1.00  0.00     0.000 C 
BRANCH  19  20
ATOM     20  C   UNL     1     -33.774  17.305  24.658  1.00  0.00     0.000 C 
BRANCH  20  21
ATOM     21  C   UNL     1     -34.611  16.363  25.532  1.00  0.00     0.000 C 
BRANCH  21  22
ATOM     22  C   UNL     1     -34.432  16.626  27.037  1.00  0.00     0.000 C 
BRANCH  22  23
ATOM     23  C   UNL     1     -33.978  15.383  27.832  1.00  0.00     0.000 C 
BRANCH  23  24
ATOM     24  C   UNL     1     -32.624  15.602  28.531  1.00  0.00    -0.000 C 
BRANCH  24  25
ATOM     25  C   UNL     1     -31.708  16.572  27.752  1.00  0.00    -0.000 C 
BRANCH  25  26
ATOM     26  C   UNL     1     -30.545  15.875  27.021  1.00  0.00    -0.000 C 
BRANCH  26  27
ATOM     27  C   UNL     1     -30.968  14.939  25.873  1.00  0.00    -0.000 C 
BRANCH  27  28
ATOM     28  C   UNL     1     -30.585  13.458  26.065  1.00  0.00    -0.000 C 
BRANCH  28  29
ATOM     29  C   UNL     1     -31.689  12.445  25.703  1.00  0.00    -0.000 C 
BRANCH  29  30
ATOM     30  C   UNL     1     -33.034  13.067  25.289  1.00  0.00    -0.000 C 
BRANCH  30  31
ATOM     31  C   UNL     1     -33.386  12.800  23.818  1.00  0.00    -0.003 C 
ATOM     32  C   UNL     1     -33.058  14.009  22.945  1.00  0.00     0.004 C 
ENDBRANCH  30  31
ENDBRANCH  29  30
ENDBRANCH  28  29
ENDBRANCH  27  28
ENDBRANCH  26  27
ENDBRANCH  25  26
ENDBRANCH  24  25
ENDBRANCH  23  24
ENDBRANCH  22  23
ENDBRANCH  21  22
ENDBRANCH  20  21
ENDBRANCH  19  20
ENDBRANCH  18  19
ENDBRANCH   1  18
TORSDOF 28
ENDMDL
MODEL 9
REMARK VINA RESULT:    -3.798      2.862      7.422
REMARK INTER + INTRA:         -15.756
REMARK INTER:                 -10.093
REMARK INTRA:                  -5.664
REMARK UNBOUND:                -5.740
REMARK SMILES CCCCCCCCCCCCCCCCCCCCCCCCCCCCCC(=O)[O-]
REMARK SMILES IDX 16 1 17 2 18 3 19 4 20 5 21 6 22 7 23 8 24 9 25 10 26 11
REMARK SMILES IDX 27 12 28 13 29 14 30 15 31 16 32 17 15 18 14 19 13 20 12 21
REMARK SMILES IDX 11 22 10 23 9 24 8 25 7 26 6 27 5 28 4 29 3 30 2 31 1 32
REMARK H PARENT
REMARK Flexibility Score: inf
ROOT
ATOM      1  C   UNL     1     -31.224  24.253  29.646  1.00  0.00     0.000 C 
ENDROOT
BRANCH   1   2
ATOM      2  C   UNL     1     -31.979  25.241  30.549  1.00  0.00     0.000 C 
BRANCH   2   3
ATOM      3  C   UNL     1     -33.504  25.069  30.466  1.00  0.00     0.000 C 
BRANCH   3   4
ATOM      4  C   UNL     1     -34.136  25.092  31.863  1.00  0.00     0.000 C 
BRANCH   4   5
ATOM      5  C   UNL     1     -33.170  24.531  32.914  1.00  0.00     0.000 C 
BRANCH   5   6
ATOM      6  C   UNL     1     -33.181  22.992  32.980  1.00  0.00     0.000 C 
BRANCH   6   7
ATOM      7  C   UNL     1     -31.800  22.338  33.173  1.00  0.00     0.000 C 
BRANCH   7   8
ATOM      8  C   UNL     1     -30.635  23.320  33.402  1.00  0.00     0.000 C 
BRANCH   8   9
ATOM      9  C   UNL     1     -29.294  22.849  32.799  1.00  0.00     0.000 C 
BRANCH   9  10
ATOM     10  C   UNL     1     -29.465  21.674  31.821  1.00  0.00     0.000 C 
BRANCH  10  11
ATOM     11  C   UNL     1     -28.274  21.523  30.860  1.00  0.00     0.000 C 
BRANCH  11  12
ATOM     12  C   UNL     1     -27.977  20.053  30.512  1.00  0.00     0.000 C 
BRANCH  12  13
ATOM     13  C   UNL     1     -29.012  19.085  31.121  1.00  0.00     0.006 C 
BRANCH  13  14
ATOM     14  C   UNL     1     -29.722  18.209  30.076  1.00  0.00     0.053 C 
BRANCH  14  15
ATOM     15  C   UNL     1     -30.183  16.904  30.646  1.00  0.00     0.041 C 
ATOM     16  O   UNL     1     -30.947  16.156  29.982  1.00  0.00    -0.550 OA
ATOM     17  O   UNL     1     -29.784  16.523  31.923  1.00  0.00    -0.550 OA
ENDBRANCH  14  15
ENDBRANCH  13  14
ENDBRANCH  12  13
ENDBRANCH  11  12
ENDBRANCH  10  11
ENDBRANCH   9  10
ENDBRANCH   8   9
ENDBRANCH   7   8
ENDBRANCH   6   7
ENDBRANCH   5   6
ENDBRANCH   4   5
ENDBRANCH   3   4
ENDBRANCH   2   3
ENDBRANCH   1   2
BRANCH   1  18
ATOM     18  C   UNL     1     -31.988  22.939  29.437  1.00  0.00     0.000 C 
BRANCH  18  19
ATOM     19  C   UNL     1     -31.168  21.957  28.589  1.00  0.00     0.000 C 
BRANCH  19  20
ATOM     20  C   UNL     1     -30.050  22.683  27.831  1.00  0.00     0.000 C 
BRANCH  20  21
ATOM     21  C   UNL     1     -29.036  21.683  27.261  1.00  0.00     0.000 C 
BRANCH  21  22
ATOM     22  C   UNL     1     -29.631  20.279  27.058  1.00  0.00     0.000 C 
BRANCH  22  23
ATOM     23  C   UNL     1     -28.591  19.226  26.615  1.00  0.00     0.000 C 
BRANCH  23  24
ATOM     24  C   UNL     1     -27.453  19.847  25.786  1.00  0.00    -0.000 C 
BRANCH  24  25
ATOM     25  C   UNL     1     -27.661  19.664  24.266  1.00  0.00    -0.000 C 
BRANCH  25  26
ATOM     26  C   UNL     1     -28.054  20.961  23.533  1.00  0.00    -0.000 C 
BRANCH  26  27
ATOM     27  C   UNL     1     -29.570  21.186  23.381  1.00  0.00    -0.000 C 
BRANCH  27  28
ATOM     28  C   UNL     1     -30.419  19.899  23.349  1.00  0.00    -0.000 C 
BRANCH  28  29
ATOM     29  C   UNL     1     -31.776  19.992  24.075  1.00  0.00    -0.000 C 
BRANCH  29  30
ATOM     30  C   UNL     1     -32.444  18.640  24.382  1.00  0.00    -0.000 C 
BRANCH  30  31
ATOM     31  C   UNL     1     -31.461  17.604  24.945  1.00  0.00    -0.003 C 
ATOM     32  C   UNL     1     -31.785  17.270  26.398  1.00  0.00     0.004 C 
ENDBRANCH  30  31
ENDBRANCH  29  30
ENDBRANCH  28  29
ENDBRANCH  27  28
ENDBRANCH  26  27
ENDBRANCH  25  26
ENDBRANCH  24  25
ENDBRANCH  23  24
ENDBRANCH  22  23
ENDBRANCH  21  22
ENDBRANCH  20  21
ENDBRANCH  19  20
ENDBRANCH  18  19
ENDBRANCH   1  18
TORSDOF 28
ENDMDL
