MODEL 1
REMARK VINA RESULT:    -3.083      0.000      0.000
REMARK INTER + INTRA:          -3.478
REMARK INTER:                  -3.443
REMARK INTRA:                  -0.035
REMARK UNBOUND:                -0.035
REMARK SMILES CCCC(=O)[O-]
REMARK SMILES IDX 3 1 4 2 5 3 6 4 2 5 1 6
REMARK H PARENT
REMARK Flexibility Score: inf
ROOT
ATOM      1  C   UNL     1     -36.155  84.758 -17.495  1.00  0.00     0.052 C 
ENDROOT
BRANCH   1   2
ATOM      2  C   UNL     1     -34.940  85.034 -18.323  1.00  0.00     0.041 C 
ATOM      3  O   UNL     1     -33.907  85.522 -17.792  1.00  0.00    -0.550 OA
ATOM      4  O   UNL     1     -34.929  84.707 -19.673  1.00  0.00    -0.550 OA
ENDBRANCH   1   2
BRANCH   1   5
ATOM      5  C   UNL     1     -36.853  83.484 -17.977  1.00  0.00     0.003 C 
ATOM      6  C   UNL     1     -36.075  82.238 -17.562  1.00  0.00     0.004 C 
ENDBRANCH   1   5
TORSDOF 2
ENDMDL
MODEL 2
REMARK VINA RESULT:    -3.071     16.257     17.460
REMARK INTER + INTRA:          -3.465
REMARK INTER:                  -3.458
REMARK INTRA:                  -0.007
REMARK UNBOUND:                -0.035
REMARK SMILES CCCC(=O)[O-]
REMARK SMILES IDX 3 1 4 2 5 3 6 4 2 5 1 6
REMARK H PARENT
REMARK Flexibility Score: inf
ROOT
ATOM      1  C   UNL     1     -25.717  94.732 -27.872  1.00  0.00     0.052 C 
ENDROOT
BRANCH   1   2
ATOM      2  C   UNL     1     -26.676  94.781 -26.726  1.00  0.00     0.041 C 
ATOM      3  O   UNL     1     -26.362  95.376 -25.661  1.00  0.00    -0.550 OA
ATOM      4  O   UNL     1     -27.937  94.212 -26.849  1.00  0.00    -0.550 OA
ENDBRANCH   1   2
BRANCH   1   5
ATOM      5  C   UNL     1     -25.160  96.128 -28.164  1.00  0.00     0.003 C 
ATOM      6  C   UNL     1     -24.426  96.160 -29.502  1.00  0.00     0.004 C 
ENDBRANCH   1   5
TORSDOF 2
ENDMDL
MODEL 3
REMARK VINA RESULT:    -2.872      2.476      2.878
REMARK INTER + INTRA:          -3.243
REMARK INTER:                  -3.204
REMARK INTRA:                  -0.039
REMARK UNBOUND:                -0.035
REMARK SMILES CCCC(=O)[O-]
REMARK SMILES IDX 3 1 4 2 5 3 6 4 2 5 1 6
REMARK H PARENT
REMARK Flexibility Score: inf
ROOT
ATOM      1  C   UNL     1     -37.134  83.209 -19.068  1.00  0.00     0.052 C 
ENDROOT
BRANCH   1   2
ATOM      2  C   UNL     1     -36.467  83.393 -17.741  1.00  0.00     0.041 C 
ATOM      3  O   UNL     1     -36.281  82.404 -16.983  1.00  0.00    -0.550 OA
ATOM      4  O   UNL     1     -36.007  84.647 -17.362  1.00  0.00    -0.550 OA
ENDBRANCH   1   2
BRANCH   1   5
ATOM      5  C   UNL     1     -36.850  81.810 -19.621  1.00  0.00     0.003 C 
ATOM      6  C   UNL     1     -38.133  80.991 -19.732  1.00  0.00     0.004 C 
ENDBRANCH   1   5
TORSDOF 2
ENDMDL
MODEL 4
REMARK VINA RESULT:    -2.866      2.085      3.070
REMARK INTER + INTRA:          -3.237
REMARK INTER:                  -3.194
REMARK INTRA:                  -0.043
REMARK UNBOUND:                -0.035
REMARK SMILES CCCC(=O)[O-]
REMARK SMILES IDX 3 1 4 2 5 3 6 4 2 5 1 6
REMARK H PARENT
REMARK Flexibility Score: inf
ROOT
ATOM      1  C   UNL     1     -36.087  82.255 -17.570  1.00  0.00     0.052 C 
ENDROOT
BRANCH   1   2
ATOM      2  C   UNL     1     -35.146  81.821 -18.649  1.00  0.00     0.041 C 
ATOM      3  O   UNL     1     -35.345  82.172 -19.843  1.00  0.00    -0.550 OA
ATOM      4  O   UNL     1     -34.022  81.070 -18.331  1.00  0.00    -0.550 OA
ENDBRANCH   1   2
BRANCH   1   5
ATOM      5  C   UNL     1     -36.776  83.567 -17.956  1.00  0.00     0.003 C 
ATOM      6  C   UNL     1     -35.986  84.772 -17.453  1.00  0.00     0.004 C 
ENDBRANCH   1   5
TORSDOF 2
ENDMDL
MODEL 5
REMARK VINA RESULT:    -2.865      2.231      3.269
REMARK INTER + INTRA:          -3.235
REMARK INTER:                  -3.215
REMARK INTRA:                  -0.020
REMARK UNBOUND:                -0.035
REMARK SMILES CCCC(=O)[O-]
REMARK SMILES IDX 3 1 4 2 5 3 6 4 2 5 1 6
REMARK H PARENT
REMARK Flexibility Score: inf
ROOT
ATOM      1  C   UNL     1     -36.337  83.040 -17.745  1.00  0.00     0.052 C 
ENDROOT
BRANCH   1   2
ATOM      2  C   UNL     1     -37.096  82.624 -18.964  1.00  0.00     0.041 C 
ATOM      3  O   UNL     1     -37.422  83.478 -19.831  1.00  0.00    -0.550 OA
ATOM      4  O   UNL     1     -37.403  81.285 -19.169  1.00  0.00    -0.550 OA
ENDBRANCH   1   2
BRANCH   1   5
ATOM      5  C   UNL     1     -36.307  84.566 -17.627  1.00  0.00     0.003 C 
ATOM      6  C   UNL     1     -34.951  85.125 -18.050  1.00  0.00     0.004 C 
ENDBRANCH   1   5
TORSDOF 2
ENDMDL
MODEL 6
REMARK VINA RESULT:    -2.759     13.076     13.775
REMARK INTER + INTRA:          -3.117
REMARK INTER:                  -3.048
REMARK INTRA:                  -0.069
REMARK UNBOUND:                -0.035
REMARK SMILES CCCC(=O)[O-]
REMARK SMILES IDX 3 1 4 2 5 3 6 4 2 5 1 6
REMARK H PARENT
REMARK Flexibility Score: inf
ROOT
ATOM      1  C   UNL     1     -22.219  84.643 -20.529  1.00  0.00     0.052 C 
ENDROOT
BRANCH   1   2
ATOM      2  C   UNL     1     -22.358  83.288 -19.912  1.00  0.00     0.041 C 
ATOM      3  O   UNL     1     -21.411  82.795 -19.244  1.00  0.00    -0.550 OA
ATOM      4  O   UNL     1     -23.552  82.588 -20.032  1.00  0.00    -0.550 OA
ENDBRANCH   1   2
BRANCH   1   5
ATOM      5  C   UNL     1     -22.473  84.573 -22.038  1.00  0.00     0.003 C 
ATOM      6  C   UNL     1     -21.334  83.855 -22.756  1.00  0.00     0.004 C 
ENDBRANCH   1   5
TORSDOF 2
ENDMDL
MODEL 7
REMARK VINA RESULT:    -2.740     17.978     18.871
REMARK INTER + INTRA:          -3.095
REMARK INTER:                  -3.084
REMARK INTRA:                  -0.011
REMARK UNBOUND:                -0.035
REMARK SMILES CCCC(=O)[O-]
REMARK SMILES IDX 3 1 4 2 5 3 6 4 2 5 1 6
REMARK H PARENT
REMARK Flexibility Score: inf
ROOT
ATOM      1  C   UNL     1     -24.665  94.560 -29.535  1.00  0.00     0.052 C 
ENDROOT
BRANCH   1   2
ATOM      2  C   UNL     1     -24.619  96.044 -29.356  1.00  0.00     0.041 C 
ATOM      3  O   UNL     1     -24.269  96.788 -30.310  1.00  0.00    -0.550 OA
ATOM      4  O   UNL     1     -25.009  96.611 -28.149  1.00  0.00    -0.550 OA
ENDBRANCH   1   2
BRANCH   1   5
ATOM      5  C   UNL     1     -24.696  93.857 -28.175  1.00  0.00     0.003 C 
ATOM      6  C   UNL     1     -23.963  92.520 -28.230  1.00  0.00     0.004 C 
ENDBRANCH   1   5
TORSDOF 2
ENDMDL
MODEL 8
REMARK VINA RESULT:    -2.731     16.491     17.205
REMARK INTER + INTRA:          -3.086
REMARK INTER:                  -3.078
REMARK INTRA:                  -0.008
REMARK UNBOUND:                -0.035
REMARK SMILES CCCC(=O)[O-]
REMARK SMILES IDX 3 1 4 2 5 3 6 4 2 5 1 6
REMARK H PARENT
REMARK Flexibility Score: inf
ROOT
ATOM      1  C   UNL     1     -25.722  93.559 -27.742  1.00  0.00     0.052 C 
ENDROOT
BRANCH   1   2
ATOM      2  C   UNL     1     -25.934  94.933 -27.190  1.00  0.00     0.041 C 
ATOM      3  O   UNL     1     -26.541  95.092 -26.098  1.00  0.00    -0.550 OA
ATOM      4  O   UNL     1     -25.419  96.038 -27.857  1.00  0.00    -0.550 OA
ENDBRANCH   1   2
BRANCH   1   5
ATOM      5  C   UNL     1     -24.342  93.452 -28.397  1.00  0.00     0.003 C 
ATOM      6  C   UNL     1     -23.766  92.048 -28.243  1.00  0.00     0.004 C 
ENDBRANCH   1   5
TORSDOF 2
ENDMDL
MODEL 9
REMARK VINA RESULT:    -2.654     18.425     19.556
REMARK INTER + INTRA:          -3.000
REMARK INTER:                  -2.987
REMARK INTRA:                  -0.013
REMARK UNBOUND:                -0.035
REMARK SMILES CCCC(=O)[O-]
REMARK SMILES IDX 3 1 4 2 5 3 6 4 2 5 1 6
REMARK H PARENT
REMARK Flexibility Score: inf
ROOT
ATOM      1  C   UNL     1     -24.453  95.035 -29.577  1.00  0.00     0.052 C 
ENDROOT
BRANCH   1   2
ATOM      2  C   UNL     1     -25.134  95.756 -28.457  1.00  0.00     0.041 C 
ATOM      3  O   UNL     1     -25.153  97.015 -28.431  1.00  0.00    -0.550 OA
ATOM      4  O   UNL     1     -25.791  95.038 -27.466  1.00  0.00    -0.550 OA
ENDBRANCH   1   2
BRANCH   1   5
ATOM      5  C   UNL     1     -23.914  96.033 -30.606  1.00  0.00     0.003 C 
ATOM      6  C   UNL     1     -23.487  95.325 -31.888  1.00  0.00     0.004 C 
ENDBRANCH   1   5
TORSDOF 2
ENDMDL
