MODEL 1
REMARK VINA RESULT:    -4.410      0.000      0.000
REMARK INTER + INTRA:         -10.199
REMARK INTER:                  -8.020
REMARK INTRA:                  -2.179
REMARK UNBOUND:                -2.179
REMARK SMILES CCCCCCCCCCCCCCCC(=O)[O-]
REMARK SMILES IDX 9 1 10 2 11 3 12 4 13 5 14 6 15 7 16 8 17 9 18 10 8 11 7 12
REMARK SMILES IDX 6 13 5 14 4 15 3 16 2 17 1 18
REMARK H PARENT
REMARK Flexibility Score: inf
ROOT
ATOM      1  C   UNL     1      75.504   7.516  30.545  1.00  0.00     0.000 C 
ENDROOT
BRANCH   1   2
ATOM      2  C   UNL     1      74.897   6.292  31.254  1.00  0.00     0.000 C 
BRANCH   2   3
ATOM      3  C   UNL     1      75.061   6.343  32.783  1.00  0.00     0.000 C 
BRANCH   3   4
ATOM      4  C   UNL     1      73.887   5.685  33.525  1.00  0.00     0.000 C 
BRANCH   4   5
ATOM      5  C   UNL     1      72.769   5.221  32.574  1.00  0.00     0.000 C 
BRANCH   5   6
ATOM      6  C   UNL     1      71.408   5.870  32.885  1.00  0.00     0.006 C 
BRANCH   6   7
ATOM      7  C   UNL     1      70.972   5.732  34.355  1.00  0.00     0.053 C 
BRANCH   7   8
ATOM      8  C   UNL     1      69.482   5.717  34.517  1.00  0.00     0.041 C 
ATOM      9  O   UNL     1      68.962   5.253  35.567  1.00  0.00    -0.550 OA
ATOM     10  O   UNL     1      68.666   6.183  33.495  1.00  0.00    -0.550 OA
ENDBRANCH   7   8
ENDBRANCH   6   7
ENDBRANCH   5   6
ENDBRANCH   4   5
ENDBRANCH   3   4
ENDBRANCH   2   3
ENDBRANCH   1   2
BRANCH   1  11
ATOM     11  C   UNL     1      74.562   8.725  30.403  1.00  0.00     0.000 C 
BRANCH  11  12
ATOM     12  C   UNL     1      73.076   8.348  30.522  1.00  0.00    -0.000 C 
BRANCH  12  13
ATOM     13  C   UNL     1      72.295   9.315  31.439  1.00  0.00    -0.000 C 
BRANCH  13  14
ATOM     14  C   UNL     1      72.645   9.165  32.931  1.00  0.00    -0.000 C 
BRANCH  14  15
ATOM     15  C   UNL     1      71.475   9.431  33.898  1.00  0.00    -0.000 C 
BRANCH  15  16
ATOM     16  C   UNL     1      70.071   9.343  33.263  1.00  0.00    -0.000 C 
BRANCH  16  17
ATOM     17  C   UNL     1      69.258  10.648  33.298  1.00  0.00    -0.003 C 
ATOM     18  C   UNL     1      69.020  11.243  31.910  1.00  0.00     0.004 C 
ENDBRANCH  16  17
ENDBRANCH  15  16
ENDBRANCH  14  15
ENDBRANCH  13  14
ENDBRANCH  12  13
ENDBRANCH  11  12
ENDBRANCH   1  11
TORSDOF 14
ENDMDL
MODEL 2
REMARK VINA RESULT:    -4.379     11.956     15.316
REMARK INTER + INTRA:         -10.141
REMARK INTER:                  -7.866
REMARK INTRA:                  -2.275
REMARK UNBOUND:                -2.179
REMARK SMILES CCCCCCCCCCCCCCCC(=O)[O-]
REMARK SMILES IDX 9 1 10 2 11 3 12 4 13 5 14 6 15 7 16 8 17 9 18 10 8 11 7 12
REMARK SMILES IDX 6 13 5 14 4 15 3 16 2 17 1 18
REMARK H PARENT
REMARK Flexibility Score: inf
ROOT
ATOM      1  C   UNL     1      60.615  18.765  38.192  1.00  0.00     0.000 C 
ENDROOT
BRANCH   1   2
ATOM      2  C   UNL     1      61.140  19.293  39.539  1.00  0.00     0.000 C 
BRANCH   2   3
ATOM      3  C   UNL     1      62.667  19.174  39.677  1.00  0.00     0.000 C 
BRANCH   3   4
ATOM      4  C   UNL     1      63.089  17.987  40.557  1.00  0.00     0.000 C 
BRANCH   4   5
ATOM      5  C   UNL     1      63.446  16.736  39.736  1.00  0.00     0.000 C 
BRANCH   5   6
ATOM      6  C   UNL     1      64.086  17.070  38.377  1.00  0.00     0.006 C 
BRANCH   6   7
ATOM      7  C   UNL     1      63.328  16.490  37.170  1.00  0.00     0.053 C 
BRANCH   7   8
ATOM      8  C   UNL     1      64.246  16.029  36.078  1.00  0.00     0.041 C 
ATOM      9  O   UNL     1      64.610  14.824  36.020  1.00  0.00    -0.550 OA
ATOM     10  O   UNL     1      64.727  16.937  35.144  1.00  0.00    -0.550 OA
ENDBRANCH   7   8
ENDBRANCH   6   7
ENDBRANCH   5   6
ENDBRANCH   4   5
ENDBRANCH   3   4
ENDBRANCH   2   3
ENDBRANCH   1   2
BRANCH   1  11
ATOM     11  C   UNL     1      59.833  17.442  38.266  1.00  0.00     0.000 C 
BRANCH  11  12
ATOM     12  C   UNL     1      59.256  17.161  39.664  1.00  0.00    -0.000 C 
BRANCH  12  13
ATOM     13  C   UNL     1      59.847  15.884  40.299  1.00  0.00    -0.000 C 
BRANCH  13  14
ATOM     14  C   UNL     1      60.323  14.846  39.265  1.00  0.00    -0.000 C 
BRANCH  14  15
ATOM     15  C   UNL     1      61.255  13.756  39.828  1.00  0.00    -0.000 C 
BRANCH  15  16
ATOM     16  C   UNL     1      62.428  13.361  38.907  1.00  0.00    -0.000 C 
BRANCH  16  17
ATOM     17  C   UNL     1      63.350  12.261  39.462  1.00  0.00    -0.003 C 
ATOM     18  C   UNL     1      62.674  11.391  40.521  1.00  0.00     0.004 C 
ENDBRANCH  16  17
ENDBRANCH  15  16
ENDBRANCH  14  15
ENDBRANCH  13  14
ENDBRANCH  12  13
ENDBRANCH  11  12
ENDBRANCH   1  11
TORSDOF 14
ENDMDL
MODEL 3
REMARK VINA RESULT:    -4.362      2.372      5.105
REMARK INTER + INTRA:         -10.111
REMARK INTER:                  -8.489
REMARK INTRA:                  -1.622
REMARK UNBOUND:                -2.179
REMARK SMILES CCCCCCCCCCCCCCCC(=O)[O-]
REMARK SMILES IDX 9 1 10 2 11 3 12 4 13 5 14 6 15 7 16 8 17 9 18 10 8 11 7 12
REMARK SMILES IDX 6 13 5 14 4 15 3 16 2 17 1 18
REMARK H PARENT
REMARK Flexibility Score: inf
ROOT
ATOM      1  C   UNL     1      72.202   5.725  34.069  1.00  0.00     0.000 C 
ENDROOT
BRANCH   1   2
ATOM      2  C   UNL     1      70.664   5.761  34.082  1.00  0.00     0.000 C 
BRANCH   2   3
ATOM      3  C   UNL     1      70.080   6.829  33.141  1.00  0.00     0.000 C 
BRANCH   3   4
ATOM      4  C   UNL     1      68.546   6.900  33.209  1.00  0.00     0.000 C 
BRANCH   4   5
ATOM      5  C   UNL     1      68.035   8.281  33.657  1.00  0.00     0.000 C 
BRANCH   5   6
ATOM      6  C   UNL     1      68.953   9.435  33.214  1.00  0.00     0.006 C 
BRANCH   6   7
ATOM      7  C   UNL     1      68.225  10.550  32.443  1.00  0.00     0.053 C 
BRANCH   7   8
ATOM      8  C   UNL     1      69.169  11.494  31.762  1.00  0.00     0.041 C 
ATOM      9  O   UNL     1      70.300  11.732  32.263  1.00  0.00    -0.550 OA
ATOM     10  O   UNL     1      68.787  12.137  30.592  1.00  0.00    -0.550 OA
ENDBRANCH   7   8
ENDBRANCH   6   7
ENDBRANCH   5   6
ENDBRANCH   4   5
ENDBRANCH   3   4
ENDBRANCH   2   3
ENDBRANCH   1   2
BRANCH   1  11
ATOM     11  C   UNL     1      72.838   5.355  32.717  1.00  0.00     0.000 C 
BRANCH  11  12
ATOM     12  C   UNL     1      74.371   5.243  32.784  1.00  0.00    -0.000 C 
BRANCH  12  13
ATOM     13  C   UNL     1      75.069   6.605  32.572  1.00  0.00    -0.000 C 
BRANCH  13  14
ATOM     14  C   UNL     1      75.181   7.016  31.092  1.00  0.00    -0.000 C 
BRANCH  14  15
ATOM     15  C   UNL     1      74.504   8.355  30.742  1.00  0.00    -0.000 C 
BRANCH  15  16
ATOM     16  C   UNL     1      72.962   8.345  30.811  1.00  0.00    -0.000 C 
BRANCH  16  17
ATOM     17  C   UNL     1      72.345   9.412  31.732  1.00  0.00    -0.003 C 
ATOM     18  C   UNL     1      72.691   9.204  33.206  1.00  0.00     0.004 C 
ENDBRANCH  16  17
ENDBRANCH  15  16
ENDBRANCH  14  15
ENDBRANCH  13  14
ENDBRANCH  12  13
ENDBRANCH  11  12
ENDBRANCH   1  11
TORSDOF 14
ENDMDL
MODEL 4
REMARK VINA RESULT:    -4.345     11.346     13.427
REMARK INTER + INTRA:         -10.080
REMARK INTER:                  -7.777
REMARK INTRA:                  -2.303
REMARK UNBOUND:                -2.179
REMARK SMILES CCCCCCCCCCCCCCCC(=O)[O-]
REMARK SMILES IDX 9 1 10 2 11 3 12 4 13 5 14 6 15 7 16 8 17 9 18 10 8 11 7 12
REMARK SMILES IDX 6 13 5 14 4 15 3 16 2 17 1 18
REMARK H PARENT
REMARK Flexibility Score: inf
ROOT
ATOM      1  C   UNL     1      64.677  17.642  36.943  1.00  0.00     0.000 C 
ENDROOT
BRANCH   1   2
ATOM      2  C   UNL     1      64.590  16.650  35.769  1.00  0.00     0.000 C 
BRANCH   2   3
ATOM      3  C   UNL     1      64.427  15.191  36.228  1.00  0.00     0.000 C 
BRANCH   3   4
ATOM      4  C   UNL     1      64.891  14.973  37.677  1.00  0.00     0.000 C 
BRANCH   4   5
ATOM      5  C   UNL     1      64.410  13.632  38.260  1.00  0.00     0.000 C 
BRANCH   5   6
ATOM      6  C   UNL     1      63.554  13.801  39.529  1.00  0.00     0.006 C 
BRANCH   6   7
ATOM      7  C   UNL     1      63.048  12.473  40.121  1.00  0.00     0.053 C 
BRANCH   7   8
ATOM      8  C   UNL     1      62.491  11.551  39.079  1.00  0.00     0.041 C 
ATOM      9  O   UNL     1      61.471  11.882  38.417  1.00  0.00    -0.550 OA
ATOM     10  O   UNL     1      63.077  10.311  38.863  1.00  0.00    -0.550 OA
ENDBRANCH   7   8
ENDBRANCH   6   7
ENDBRANCH   5   6
ENDBRANCH   4   5
ENDBRANCH   3   4
ENDBRANCH   2   3
ENDBRANCH   1   2
BRANCH   1  11
ATOM     11  C   UNL     1      63.394  18.446  37.218  1.00  0.00     0.000 C 
BRANCH  11  12
ATOM     12  C   UNL     1      63.224  18.818  38.701  1.00  0.00    -0.000 C 
BRANCH  12  13
ATOM     13  C   UNL     1      63.904  17.801  39.644  1.00  0.00    -0.000 C 
BRANCH  13  14
ATOM     14  C   UNL     1      62.975  17.272  40.753  1.00  0.00    -0.000 C 
BRANCH  14  15
ATOM     15  C   UNL     1      61.475  17.296  40.403  1.00  0.00    -0.000 C 
BRANCH  15  16
ATOM     16  C   UNL     1      60.925  15.989  39.795  1.00  0.00    -0.000 C 
BRANCH  16  17
ATOM     17  C   UNL     1      60.305  16.132  38.394  1.00  0.00    -0.003 C 
ATOM     18  C   UNL     1      60.959  15.222  37.354  1.00  0.00     0.004 C 
ENDBRANCH  16  17
ENDBRANCH  15  16
ENDBRANCH  14  15
ENDBRANCH  13  14
ENDBRANCH  12  13
ENDBRANCH  11  12
ENDBRANCH   1  11
TORSDOF 14
ENDMDL
MODEL 5
REMARK VINA RESULT:    -4.300     11.564     13.890
REMARK INTER + INTRA:          -9.998
REMARK INTER:                  -7.555
REMARK INTRA:                  -2.443
REMARK UNBOUND:                -2.179
REMARK SMILES CCCCCCCCCCCCCCCC(=O)[O-]
REMARK SMILES IDX 9 1 10 2 11 3 12 4 13 5 14 6 15 7 16 8 17 9 18 10 8 11 7 12
REMARK SMILES IDX 6 13 5 14 4 15 3 16 2 17 1 18
REMARK H PARENT
REMARK Flexibility Score: inf
ROOT
ATOM      1  C   UNL     1      60.757  16.558  38.234  1.00  0.00     0.000 C 
ENDROOT
BRANCH   1   2
ATOM      2  C   UNL     1      61.325  15.132  38.345  1.00  0.00     0.000 C 
BRANCH   2   3
ATOM      3  C   UNL     1      61.824  14.793  39.760  1.00  0.00     0.000 C 
BRANCH   3   4
ATOM      4  C   UNL     1      63.332  14.496  39.798  1.00  0.00     0.000 C 
BRANCH   4   5
ATOM      5  C   UNL     1      63.684  13.130  39.183  1.00  0.00     0.000 C 
BRANCH   5   6
ATOM      6  C   UNL     1      62.940  11.960  39.851  1.00  0.00     0.006 C 
BRANCH   6   7
ATOM      7  C   UNL     1      62.344  10.950  38.855  1.00  0.00     0.053 C 
BRANCH   7   8
ATOM      8  C   UNL     1      61.039  11.408  38.277  1.00  0.00     0.041 C 
ATOM      9  O   UNL     1      60.092  11.747  39.036  1.00  0.00    -0.550 OA
ATOM     10  O   UNL     1      60.857  11.428  36.900  1.00  0.00    -0.550 OA
ENDBRANCH   7   8
ENDBRANCH   6   7
ENDBRANCH   5   6
ENDBRANCH   4   5
ENDBRANCH   3   4
ENDBRANCH   2   3
ENDBRANCH   1   2
BRANCH   1  11
ATOM     11  C   UNL     1      60.848  17.402  39.518  1.00  0.00     0.000 C 
BRANCH  11  12
ATOM     12  C   UNL     1      61.757  18.633  39.365  1.00  0.00    -0.000 C 
BRANCH  12  13
ATOM     13  C   UNL     1      63.008  18.556  40.268  1.00  0.00    -0.000 C 
BRANCH  13  14
ATOM     14  C   UNL     1      64.227  17.916  39.578  1.00  0.00    -0.000 C 
BRANCH  14  15
ATOM     15  C   UNL     1      64.198  17.969  38.038  1.00  0.00    -0.000 C 
BRANCH  15  16
ATOM     16  C   UNL     1      64.965  16.832  37.331  1.00  0.00    -0.000 C 
BRANCH  16  17
ATOM     17  C   UNL     1      64.386  16.403  35.972  1.00  0.00    -0.003 C 
ATOM     18  C   UNL     1      64.051  14.913  35.906  1.00  0.00     0.004 C 
ENDBRANCH  16  17
ENDBRANCH  15  16
ENDBRANCH  14  15
ENDBRANCH  13  14
ENDBRANCH  12  13
ENDBRANCH  11  12
ENDBRANCH   1  11
TORSDOF 14
ENDMDL
MODEL 6
REMARK VINA RESULT:    -4.300     11.703     13.684
REMARK INTER + INTRA:          -9.998
REMARK INTER:                  -7.812
REMARK INTRA:                  -2.185
REMARK UNBOUND:                -2.179
REMARK SMILES CCCCCCCCCCCCCCCC(=O)[O-]
REMARK SMILES IDX 9 1 10 2 11 3 12 4 13 5 14 6 15 7 16 8 17 9 18 10 8 11 7 12
REMARK SMILES IDX 6 13 5 14 4 15 3 16 2 17 1 18
REMARK H PARENT
REMARK Flexibility Score: inf
ROOT
ATOM      1  C   UNL     1      64.268  15.362  35.980  1.00  0.00     0.000 C 
ENDROOT
BRANCH   1   2
ATOM      2  C   UNL     1      63.378  14.861  37.132  1.00  0.00     0.000 C 
BRANCH   2   3
ATOM      3  C   UNL     1      64.178  14.181  38.256  1.00  0.00     0.000 C 
BRANCH   3   4
ATOM      4  C   UNL     1      63.474  14.273  39.619  1.00  0.00     0.000 C 
BRANCH   4   5
ATOM      5  C   UNL     1      61.999  14.695  39.500  1.00  0.00     0.000 C 
BRANCH   5   6
ATOM      6  C   UNL     1      61.024  13.630  40.035  1.00  0.00     0.006 C 
BRANCH   6   7
ATOM      7  C   UNL     1      60.165  12.966  38.945  1.00  0.00     0.053 C 
BRANCH   7   8
ATOM      8  C   UNL     1      60.976  12.133  37.998  1.00  0.00     0.041 C 
ATOM      9  O   UNL     1      61.730  11.224  38.437  1.00  0.00    -0.550 OA
ATOM     10  O   UNL     1      60.924  12.382  36.633  1.00  0.00    -0.550 OA
ENDBRANCH   7   8
ENDBRANCH   6   7
ENDBRANCH   5   6
ENDBRANCH   4   5
ENDBRANCH   3   4
ENDBRANCH   2   3
ENDBRANCH   1   2
BRANCH   1  11
ATOM     11  C   UNL     1      64.248  16.883  35.748  1.00  0.00     0.000 C 
BRANCH  11  12
ATOM     12  C   UNL     1      65.045  17.664  36.807  1.00  0.00    -0.000 C 
BRANCH  12  13
ATOM     13  C   UNL     1      64.129  18.386  37.819  1.00  0.00    -0.000 C 
BRANCH  13  14
ATOM     14  C   UNL     1      64.217  17.815  39.247  1.00  0.00    -0.000 C 
BRANCH  14  15
ATOM     15  C   UNL     1      63.067  18.235  40.181  1.00  0.00    -0.000 C 
BRANCH  15  16
ATOM     16  C   UNL     1      62.089  19.271  39.588  1.00  0.00    -0.000 C 
BRANCH  16  17
ATOM     17  C   UNL     1      60.649  18.768  39.388  1.00  0.00    -0.003 C 
ATOM     18  C   UNL     1      60.500  17.846  38.178  1.00  0.00     0.004 C 
ENDBRANCH  16  17
ENDBRANCH  15  16
ENDBRANCH  14  15
ENDBRANCH  13  14
ENDBRANCH  12  13
ENDBRANCH  11  12
ENDBRANCH   1  11
TORSDOF 14
ENDMDL
MODEL 7
REMARK VINA RESULT:    -4.277     12.569     15.486
REMARK INTER + INTRA:          -9.956
REMARK INTER:                  -7.095
REMARK INTRA:                  -2.861
REMARK UNBOUND:                -2.179
REMARK SMILES CCCCCCCCCCCCCCCC(=O)[O-]
REMARK SMILES IDX 9 1 10 2 11 3 12 4 13 5 14 6 15 7 16 8 17 9 18 10 8 11 7 12
REMARK SMILES IDX 6 13 5 14 4 15 3 16 2 17 1 18
REMARK H PARENT
REMARK Flexibility Score: inf
ROOT
ATOM      1  C   UNL     1      63.042  18.945  39.517  1.00  0.00     0.000 C 
ENDROOT
BRANCH   1   2
ATOM      2  C   UNL     1      61.515  19.123  39.453  1.00  0.00     0.000 C 
BRANCH   2   3
ATOM      3  C   UNL     1      60.935  18.829  38.060  1.00  0.00     0.000 C 
BRANCH   3   4
ATOM      4  C   UNL     1      59.718  17.891  38.113  1.00  0.00     0.000 C 
BRANCH   4   5
ATOM      5  C   UNL     1      59.090  17.810  39.516  1.00  0.00     0.000 C 
BRANCH   5   6
ATOM      6  C   UNL     1      58.873  16.364  39.995  1.00  0.00     0.006 C 
BRANCH   6   7
ATOM      7  C   UNL     1      59.043  15.308  38.889  1.00  0.00     0.053 C 
BRANCH   7   8
ATOM      8  C   UNL     1      59.631  14.026  39.398  1.00  0.00     0.041 C 
ATOM      9  O   UNL     1      59.835  13.867  40.631  1.00  0.00    -0.550 OA
ATOM     10  O   UNL     1      59.984  13.020  38.508  1.00  0.00    -0.550 OA
ENDBRANCH   7   8
ENDBRANCH   6   7
ENDBRANCH   5   6
ENDBRANCH   4   5
ENDBRANCH   3   4
ENDBRANCH   2   3
ENDBRANCH   1   2
BRANCH   1  11
ATOM     11  C   UNL     1      63.530  17.751  40.357  1.00  0.00     0.000 C 
BRANCH  11  12
ATOM     12  C   UNL     1      62.582  16.542  40.290  1.00  0.00    -0.000 C 
BRANCH  12  13
ATOM     13  C   UNL     1      63.114  15.429  39.361  1.00  0.00    -0.000 C 
BRANCH  13  14
ATOM     14  C   UNL     1      62.630  15.560  37.904  1.00  0.00    -0.000 C 
BRANCH  14  15
ATOM     15  C   UNL     1      63.753  15.752  36.867  1.00  0.00    -0.000 C 
BRANCH  15  16
ATOM     16  C   UNL     1      63.876  17.180  36.294  1.00  0.00    -0.000 C 
BRANCH  16  17
ATOM     17  C   UNL     1      65.184  17.911  36.641  1.00  0.00    -0.003 C 
ATOM     18  C   UNL     1      66.081  17.116  37.591  1.00  0.00     0.004 C 
ENDBRANCH  16  17
ENDBRANCH  15  16
ENDBRANCH  14  15
ENDBRANCH  13  14
ENDBRANCH  12  13
ENDBRANCH  11  12
ENDBRANCH   1  11
TORSDOF 14
ENDMDL
MODEL 8
REMARK VINA RESULT:    -4.256     12.271     14.506
REMARK INTER + INTRA:          -9.918
REMARK INTER:                  -7.586
REMARK INTRA:                  -2.333
REMARK UNBOUND:                -2.179
REMARK SMILES CCCCCCCCCCCCCCCC(=O)[O-]
REMARK SMILES IDX 9 1 10 2 11 3 12 4 13 5 14 6 15 7 16 8 17 9 18 10 8 11 7 12
REMARK SMILES IDX 6 13 5 14 4 15 3 16 2 17 1 18
REMARK H PARENT
REMARK Flexibility Score: inf
ROOT
ATOM      1  C   UNL     1      61.697  15.493  38.077  1.00  0.00     0.000 C 
ENDROOT
BRANCH   1   2
ATOM      2  C   UNL     1      61.115  15.646  39.493  1.00  0.00     0.000 C 
BRANCH   2   3
ATOM      3  C   UNL     1      61.271  17.069  40.055  1.00  0.00     0.000 C 
BRANCH   3   4
ATOM      4  C   UNL     1      62.674  17.327  40.628  1.00  0.00     0.000 C 
BRANCH   4   5
ATOM      5  C   UNL     1      63.461  18.376  39.822  1.00  0.00     0.000 C 
BRANCH   5   6
ATOM      6  C   UNL     1      64.399  17.749  38.774  1.00  0.00     0.006 C 
BRANCH   6   7
ATOM      7  C   UNL     1      64.246  18.346  37.364  1.00  0.00     0.053 C 
BRANCH   7   8
ATOM      8  C   UNL     1      65.095  17.648  36.345  1.00  0.00     0.041 C 
ATOM      9  O   UNL     1      64.689  16.588  35.798  1.00  0.00    -0.550 OA
ATOM     10  O   UNL     1      66.350  18.149  36.024  1.00  0.00    -0.550 OA
ENDBRANCH   7   8
ENDBRANCH   6   7
ENDBRANCH   5   6
ENDBRANCH   4   5
ENDBRANCH   3   4
ENDBRANCH   2   3
ENDBRANCH   1   2
BRANCH   1  11
ATOM     11  C   UNL     1      62.884  14.519  37.957  1.00  0.00     0.000 C 
BRANCH  11  12
ATOM     12  C   UNL     1      63.346  13.964  39.315  1.00  0.00    -0.000 C 
BRANCH  12  13
ATOM     13  C   UNL     1      63.540  12.432  39.288  1.00  0.00    -0.000 C 
BRANCH  13  14
ATOM     14  C   UNL     1      62.712  11.687  40.352  1.00  0.00    -0.000 C 
BRANCH  14  15
ATOM     15  C   UNL     1      61.245  12.146  40.465  1.00  0.00    -0.000 C 
BRANCH  15  16
ATOM     16  C   UNL     1      60.263  11.435  39.510  1.00  0.00    -0.000 C 
BRANCH  16  17
ATOM     17  C   UNL     1      59.906  12.223  38.238  1.00  0.00    -0.003 C 
ATOM     18  C   UNL     1      60.624  11.705  36.992  1.00  0.00     0.004 C 
ENDBRANCH  16  17
ENDBRANCH  15  16
ENDBRANCH  14  15
ENDBRANCH  13  14
ENDBRANCH  12  13
ENDBRANCH  11  12
ENDBRANCH   1  11
TORSDOF 14
ENDMDL
MODEL 9
REMARK VINA RESULT:    -4.209     12.455     15.135
REMARK INTER + INTRA:          -9.833
REMARK INTER:                  -7.231
REMARK INTRA:                  -2.602
REMARK UNBOUND:                -2.179
REMARK SMILES CCCCCCCCCCCCCCCC(=O)[O-]
REMARK SMILES IDX 9 1 10 2 11 3 12 4 13 5 14 6 15 7 16 8 17 9 18 10 8 11 7 12
REMARK SMILES IDX 6 13 5 14 4 15 3 16 2 17 1 18
REMARK H PARENT
REMARK Flexibility Score: inf
ROOT
ATOM      1  C   UNL     1      60.746  18.874  38.068  1.00  0.00     0.000 C 
ENDROOT
BRANCH   1   2
ATOM      2  C   UNL     1      59.790  17.706  37.765  1.00  0.00     0.000 C 
BRANCH   2   3
ATOM      3  C   UNL     1      59.374  16.930  39.026  1.00  0.00     0.000 C 
BRANCH   3   4
ATOM      4  C   UNL     1      59.636  15.421  38.903  1.00  0.00     0.000 C 
BRANCH   4   5
ATOM      5  C   UNL     1      59.636  14.705  40.266  1.00  0.00     0.000 C 
BRANCH   5   6
ATOM      6  C   UNL     1      59.945  13.200  40.154  1.00  0.00     0.006 C 
BRANCH   6   7
ATOM      7  C   UNL     1      61.413  12.842  40.445  1.00  0.00     0.053 C 
BRANCH   7   8
ATOM      8  C   UNL     1      62.134  12.329  39.235  1.00  0.00     0.041 C 
ATOM      9  O   UNL     1      61.511  12.139  38.157  1.00  0.00    -0.550 OA
ATOM     10  O   UNL     1      63.488  12.028  39.308  1.00  0.00    -0.550 OA
ENDBRANCH   7   8
ENDBRANCH   6   7
ENDBRANCH   5   6
ENDBRANCH   4   5
ENDBRANCH   3   4
ENDBRANCH   2   3
ENDBRANCH   1   2
BRANCH   1  11
ATOM     11  C   UNL     1      61.230  18.965  39.526  1.00  0.00     0.000 C 
BRANCH  11  12
ATOM     12  C   UNL     1      62.733  19.270  39.643  1.00  0.00    -0.000 C 
BRANCH  12  13
ATOM     13  C   UNL     1      63.499  18.168  40.408  1.00  0.00    -0.000 C 
BRANCH  13  14
ATOM     14  C   UNL     1      62.773  16.810  40.422  1.00  0.00    -0.000 C 
BRANCH  14  15
ATOM     15  C   UNL     1      63.394  15.737  39.507  1.00  0.00    -0.000 C 
BRANCH  15  16
ATOM     16  C   UNL     1      63.115  15.923  38.000  1.00  0.00    -0.000 C 
BRANCH  16  17
ATOM     17  C   UNL     1      64.340  16.311  37.154  1.00  0.00    -0.003 C 
ATOM     18  C   UNL     1      64.275  17.745  36.628  1.00  0.00     0.004 C 
ENDBRANCH  16  17
ENDBRANCH  15  16
ENDBRANCH  14  15
ENDBRANCH  13  14
ENDBRANCH  12  13
ENDBRANCH  11  12
ENDBRANCH   1  11
TORSDOF 14
ENDMDL
