MODEL 1
REMARK VINA RESULT:    -7.707      0.000      0.000
REMARK INTER + INTRA:          -9.863
REMARK INTER:                  -9.509
REMARK INTRA:                  -0.354
REMARK UNBOUND:                -0.354
REMARK SMILES O=c1c(O)c(-c2cc(O)c(O)c(O)c2)oc2cc(O)cc(O)c12
REMARK SMILES IDX 5 1 3 2 2 3 1 4 23 5 21 6 20 7 18 8 17 9 16 10 15 11 6 12
REMARK SMILES IDX 7 13 8 14 14 15 10 16 12 17 9 18 11 20 13 22 4 24 22 26
REMARK SMILES IDX 19 28
REMARK H PARENT 9 19 11 21 13 23 4 25 22 27 19 29
REMARK Flexibility Score: inf
ROOT
ATOM      1  C   UNL     1      -6.446  -7.848  13.741  1.00  0.00     0.180 A 
ATOM      2  C   UNL     1      -7.373  -7.338  12.815  1.00  0.00     0.208 A 
ATOM      3  C   UNL     1      -8.740  -7.369  13.133  1.00  0.00     0.238 A 
ATOM      4  O   UNL     1      -9.560  -6.863  12.324  1.00  0.00    -0.285 OA
ATOM      5  C   UNL     1      -9.164  -7.921  14.366  1.00  0.00     0.111 A 
ATOM      6  C   UNL     1     -10.527  -8.040  14.775  1.00  0.00     0.134 A 
ATOM      7  C   UNL     1     -10.823  -8.482  16.070  1.00  0.00     0.093 A 
ATOM      8  C   UNL     1      -9.809  -8.873  16.948  1.00  0.00     0.123 A 
ATOM      9  C   UNL     1      -8.479  -8.817  16.536  1.00  0.00     0.094 A 
ATOM     10  C   UNL     1      -8.150  -8.345  15.264  1.00  0.00     0.146 A 
ATOM     11  O   UNL     1      -6.869  -8.298  14.916  1.00  0.00    -0.452 OA
ENDROOT
BRANCH   1  12
ATOM     12  C   UNL     1      -4.991  -7.873  13.466  1.00  0.00     0.029 A 
ATOM     13  C   UNL     1      -4.442  -8.945  12.746  1.00  0.00     0.062 A 
ATOM     14  C   UNL     1      -3.074  -8.983  12.454  1.00  0.00     0.162 A 
ATOM     15  C   UNL     1      -4.154  -6.816  13.862  1.00  0.00     0.062 A 
ATOM     16  C   UNL     1      -2.238  -7.934  12.871  1.00  0.00     0.200 A 
ATOM     17  C   UNL     1      -2.783  -6.845  13.572  1.00  0.00     0.162 A 
BRANCH  14  18
ATOM     18  O   UNL     1      -2.565 -10.074  11.749  1.00  0.00    -0.504 OA
ATOM     19  H   UNL     1      -1.656 -10.052  11.305  1.00  0.00     0.293 HD
ENDBRANCH  14  18
BRANCH  16  20
ATOM     20  O   UNL     1      -0.874  -7.982  12.578  1.00  0.00    -0.502 OA
ATOM     21  H   UNL     1      -0.419  -8.831  12.266  1.00  0.00     0.293 HD
ENDBRANCH  16  20
BRANCH  17  22
ATOM     22  O   UNL     1      -1.961  -5.793  13.976  1.00  0.00    -0.504 OA
ATOM     23  H   UNL     1      -0.955  -5.895  14.028  1.00  0.00     0.293 HD
ENDBRANCH  17  22
ENDBRANCH   1  12
BRANCH   2  24
ATOM     24  O   UNL     1      -6.931  -6.778  11.614  1.00  0.00    -0.502 OA
ATOM     25  H   UNL     1      -6.122  -7.129  11.114  1.00  0.00     0.293 HD
ENDBRANCH   2  24
BRANCH   6  26
ATOM     26  O   UNL     1     -11.617  -7.765  13.944  1.00  0.00    -0.507 OA
ATOM     27  H   UNL     1     -12.389  -8.393  13.782  1.00  0.00     0.293 HD
ENDBRANCH   6  26
BRANCH   8  28
ATOM     28  O   UNL     1     -10.113  -9.327  18.229  1.00  0.00    -0.508 OA
ATOM     29  H   UNL     1     -10.844 -10.011  18.389  1.00  0.00     0.293 HD
ENDBRANCH   8  28
TORSDOF 7
ENDMDL
MODEL 2
REMARK VINA RESULT:    -7.645      3.880      8.784
REMARK INTER + INTRA:          -9.786
REMARK INTER:                  -9.489
REMARK INTRA:                  -0.297
REMARK UNBOUND:                -0.354
REMARK SMILES O=c1c(O)c(-c2cc(O)c(O)c(O)c2)oc2cc(O)cc(O)c12
REMARK SMILES IDX 5 1 3 2 2 3 1 4 23 5 21 6 20 7 18 8 17 9 16 10 15 11 6 12
REMARK SMILES IDX 7 13 8 14 14 15 10 16 12 17 9 18 11 20 13 22 4 24 22 26
REMARK SMILES IDX 19 28
REMARK H PARENT 9 19 11 21 13 23 4 25 22 27 19 29
REMARK Flexibility Score: inf
ROOT
ATOM      1  C   UNL     1      -0.901  -7.949  13.816  1.00  0.00     0.180 A 
ATOM      2  C   UNL     1      -0.009  -7.534  12.813  1.00  0.00     0.208 A 
ATOM      3  C   UNL     1       1.286  -7.132  13.176  1.00  0.00     0.238 A 
ATOM      4  O   UNL     1       2.097  -6.813  12.268  1.00  0.00    -0.285 OA
ATOM      5  C   UNL     1       1.668  -7.136  14.539  1.00  0.00     0.111 A 
ATOM      6  C   UNL     1       2.942  -6.712  15.025  1.00  0.00     0.134 A 
ATOM      7  C   UNL     1       3.255  -6.882  16.379  1.00  0.00     0.093 A 
ATOM      8  C   UNL     1       2.319  -7.400  17.277  1.00  0.00     0.123 A 
ATOM      9  C   UNL     1       1.052  -7.762  16.822  1.00  0.00     0.094 A 
ATOM     10  C   UNL     1       0.723  -7.639  15.471  1.00  0.00     0.146 A 
ATOM     11  O   UNL     1      -0.492  -8.005  15.078  1.00  0.00    -0.452 OA
ENDROOT
BRANCH   1  12
ATOM     12  C   UNL     1      -2.290  -8.363  13.513  1.00  0.00     0.029 A 
ATOM     13  C   UNL     1      -3.245  -7.389  13.186  1.00  0.00     0.062 A 
ATOM     14  C   UNL     1      -4.560  -7.754  12.875  1.00  0.00     0.162 A 
ATOM     15  C   UNL     1      -2.660  -9.718  13.491  1.00  0.00     0.062 A 
ATOM     16  C   UNL     1      -4.931  -9.109  12.874  1.00  0.00     0.200 A 
ATOM     17  C   UNL     1      -3.975 -10.094  13.179  1.00  0.00     0.162 A 
BRANCH  14  18
ATOM     18  O   UNL     1      -5.483  -6.754  12.570  1.00  0.00    -0.504 OA
ATOM     19  H   UNL     1      -5.361  -5.796  12.874  1.00  0.00     0.293 HD
ENDBRANCH  14  18
BRANCH  16  20
ATOM     20  O   UNL     1      -6.244  -9.464  12.566  1.00  0.00    -0.502 OA
ATOM     21  H   UNL     1      -6.997  -9.387  13.239  1.00  0.00     0.293 HD
ENDBRANCH  16  20
BRANCH  17  22
ATOM     22  O   UNL     1      -4.332 -11.441  13.166  1.00  0.00    -0.504 OA
ATOM     23  H   UNL     1      -5.298 -11.735  13.248  1.00  0.00     0.293 HD
ENDBRANCH  17  22
ENDBRANCH   1  12
BRANCH   2  24
ATOM     24  O   UNL     1      -0.400  -7.558  11.471  1.00  0.00    -0.502 OA
ATOM     25  H   UNL     1      -1.257  -8.001  11.161  1.00  0.00     0.293 HD
ENDBRANCH   2  24
BRANCH   6  26
ATOM     26  O   UNL     1       3.915  -6.096  14.231  1.00  0.00    -0.507 OA
ATOM     27  H   UNL     1       4.740  -5.638  14.586  1.00  0.00     0.293 HD
ENDBRANCH   6  26
BRANCH   8  28
ATOM     28  O   UNL     1       2.634  -7.552  18.625  1.00  0.00    -0.508 OA
ATOM     29  H   UNL     1       3.593  -7.651  18.937  1.00  0.00     0.293 HD
ENDBRANCH   8  28
TORSDOF 7
ENDMDL
MODEL 3
REMARK VINA RESULT:    -7.643      3.874      8.665
REMARK INTER + INTRA:          -9.784
REMARK INTER:                  -9.446
REMARK INTRA:                  -0.338
REMARK UNBOUND:                -0.354
REMARK SMILES O=c1c(O)c(-c2cc(O)c(O)c(O)c2)oc2cc(O)cc(O)c12
REMARK SMILES IDX 5 1 3 2 2 3 1 4 23 5 21 6 20 7 18 8 17 9 16 10 15 11 6 12
REMARK SMILES IDX 7 13 8 14 14 15 10 16 12 17 9 18 11 20 13 22 4 24 22 26
REMARK SMILES IDX 19 28
REMARK H PARENT 9 19 11 21 13 23 4 25 22 27 19 29
REMARK Flexibility Score: inf
ROOT
ATOM      1  C   UNL     1      -0.872  -7.891  13.744  1.00  0.00     0.180 A 
ATOM      2  C   UNL     1       0.045  -7.500  12.752  1.00  0.00     0.208 A 
ATOM      3  C   UNL     1       1.342  -7.122  13.134  1.00  0.00     0.238 A 
ATOM      4  O   UNL     1       2.174  -6.825  12.237  1.00  0.00    -0.285 OA
ATOM      5  C   UNL     1       1.702  -7.126  14.503  1.00  0.00     0.111 A 
ATOM      6  C   UNL     1       2.976  -6.724  15.007  1.00  0.00     0.134 A 
ATOM      7  C   UNL     1       3.264  -6.892  16.367  1.00  0.00     0.093 A 
ATOM      8  C   UNL     1       2.303  -7.386  17.252  1.00  0.00     0.123 A 
ATOM      9  C   UNL     1       1.037  -7.725  16.779  1.00  0.00     0.094 A 
ATOM     10  C   UNL     1       0.731  -7.603  15.422  1.00  0.00     0.146 A 
ATOM     11  O   UNL     1      -0.484  -7.948  15.012  1.00  0.00    -0.452 OA
ENDROOT
BRANCH   1  12
ATOM     12  C   UNL     1      -2.264  -8.279  13.421  1.00  0.00     0.029 A 
ATOM     13  C   UNL     1      -2.624  -9.635  13.436  1.00  0.00     0.062 A 
ATOM     14  C   UNL     1      -3.937 -10.028  13.155  1.00  0.00     0.162 A 
ATOM     15  C   UNL     1      -3.249  -7.313  13.156  1.00  0.00     0.062 A 
ATOM     16  C   UNL     1      -4.914  -9.059  12.870  1.00  0.00     0.200 A 
ATOM     17  C   UNL     1      -4.568  -7.697  12.876  1.00  0.00     0.162 A 
BRANCH  14  18
ATOM     18  O   UNL     1      -4.251 -11.387  13.165  1.00  0.00    -0.504 OA
ATOM     19  H   UNL     1      -5.138 -11.733  13.512  1.00  0.00     0.293 HD
ENDBRANCH  14  18
BRANCH  16  20
ATOM     20  O   UNL     1      -6.221  -9.460  12.589  1.00  0.00    -0.502 OA
ATOM     21  H   UNL     1      -6.735  -9.106  11.791  1.00  0.00     0.293 HD
ENDBRANCH  16  20
BRANCH  17  22
ATOM     22  O   UNL     1      -5.535  -6.730  12.607  1.00  0.00    -0.504 OA
ATOM     23  H   UNL     1      -5.750  -6.442  11.660  1.00  0.00     0.293 HD
ENDBRANCH  17  22
ENDBRANCH   1  12
BRANCH   2  24
ATOM     24  O   UNL     1      -0.325  -7.525  11.404  1.00  0.00    -0.502 OA
ATOM     25  H   UNL     1      -0.349  -8.381  10.862  1.00  0.00     0.293 HD
ENDBRANCH   2  24
BRANCH   6  26
ATOM     26  O   UNL     1       3.973  -6.133  14.225  1.00  0.00    -0.507 OA
ATOM     27  H   UNL     1       4.767  -5.630  14.591  1.00  0.00     0.293 HD
ENDBRANCH   6  26
BRANCH   8  28
ATOM     28  O   UNL     1       2.593  -7.535  18.606  1.00  0.00    -0.508 OA
ATOM     29  H   UNL     1       3.006  -8.387  18.969  1.00  0.00     0.293 HD
ENDBRANCH   8  28
TORSDOF 7
ENDMDL
MODEL 4
REMARK VINA RESULT:    -7.461      4.654      9.315
REMARK INTER + INTRA:          -9.560
REMARK INTER:                  -9.239
REMARK INTRA:                  -0.320
REMARK UNBOUND:                -0.354
REMARK SMILES O=c1c(O)c(-c2cc(O)c(O)c(O)c2)oc2cc(O)cc(O)c12
REMARK SMILES IDX 5 1 3 2 2 3 1 4 23 5 21 6 20 7 18 8 17 9 16 10 15 11 6 12
REMARK SMILES IDX 7 13 8 14 14 15 10 16 12 17 9 18 11 20 13 22 4 24 22 26
REMARK SMILES IDX 19 28
REMARK H PARENT 9 19 11 21 13 23 4 25 22 27 19 29
REMARK Flexibility Score: inf
ROOT
ATOM      1  C   UNL     1      -0.042  -7.666  14.904  1.00  0.00     0.180 A 
ATOM      2  C   UNL     1       0.952  -6.770  14.474  1.00  0.00     0.208 A 
ATOM      3  C   UNL     1       2.183  -6.744  15.149  1.00  0.00     0.238 A 
ATOM      4  O   UNL     1       3.088  -5.978  14.726  1.00  0.00    -0.285 OA
ATOM      5  C   UNL     1       2.399  -7.603  16.253  1.00  0.00     0.111 A 
ATOM      6  C   UNL     1       3.594  -7.632  17.035  1.00  0.00     0.134 A 
ATOM      7  C   UNL     1       3.748  -8.613  18.022  1.00  0.00     0.093 A 
ATOM      8  C   UNL     1       2.725  -9.523  18.301  1.00  0.00     0.123 A 
ATOM      9  C   UNL     1       1.532  -9.463  17.583  1.00  0.00     0.094 A 
ATOM     10  C   UNL     1       1.363  -8.520  16.567  1.00  0.00     0.146 A 
ATOM     11  O   UNL     1       0.215  -8.505  15.900  1.00  0.00    -0.452 OA
ENDROOT
BRANCH   1  12
ATOM     12  C   UNL     1      -1.373  -7.735  14.259  1.00  0.00     0.029 A 
ATOM     13  C   UNL     1      -2.330  -6.748  14.542  1.00  0.00     0.062 A 
ATOM     14  C   UNL     1      -3.588  -6.777  13.931  1.00  0.00     0.162 A 
ATOM     15  C   UNL     1      -1.681  -8.737  13.323  1.00  0.00     0.062 A 
ATOM     16  C   UNL     1      -3.899  -7.793  13.011  1.00  0.00     0.200 A 
ATOM     17  C   UNL     1      -2.939  -8.772  12.704  1.00  0.00     0.162 A 
BRANCH  14  18
ATOM     18  O   UNL     1      -4.516  -5.786  14.250  1.00  0.00    -0.504 OA
ATOM     19  H   UNL     1      -5.472  -6.004  14.503  1.00  0.00     0.293 HD
ENDBRANCH  14  18
BRANCH  16  20
ATOM     20  O   UNL     1      -5.157  -7.815  12.408  1.00  0.00    -0.502 OA
ATOM     21  H   UNL     1      -5.897  -7.179  12.679  1.00  0.00     0.293 HD
ENDBRANCH  16  20
BRANCH  17  22
ATOM     22  O   UNL     1      -3.235  -9.775  11.782  1.00  0.00    -0.504 OA
ATOM     23  H   UNL     1      -4.171 -10.152  11.690  1.00  0.00     0.293 HD
ENDBRANCH  17  22
ENDBRANCH   1  12
BRANCH   2  24
ATOM     24  O   UNL     1       0.725  -5.947  13.368  1.00  0.00    -0.502 OA
ATOM     25  H   UNL     1       0.013  -6.149  12.675  1.00  0.00     0.293 HD
ENDBRANCH   2  24
BRANCH   6  26
ATOM     26  O   UNL     1       4.637  -6.711  16.901  1.00  0.00    -0.507 OA
ATOM     27  H   UNL     1       5.329  -6.730  16.168  1.00  0.00     0.293 HD
ENDBRANCH   6  26
BRANCH   8  28
ATOM     28  O   UNL     1       2.881 -10.485  19.296  1.00  0.00    -0.508 OA
ATOM     29  H   UNL     1       2.798 -10.250  20.279  1.00  0.00     0.293 HD
ENDBRANCH   8  28
TORSDOF 7
ENDMDL
MODEL 5
REMARK VINA RESULT:    -7.319      3.863      5.824
REMARK INTER + INTRA:          -9.384
REMARK INTER:                  -9.178
REMARK INTRA:                  -0.206
REMARK UNBOUND:                -0.354
REMARK SMILES O=c1c(O)c(-c2cc(O)c(O)c(O)c2)oc2cc(O)cc(O)c12
REMARK SMILES IDX 5 1 3 2 2 3 1 4 23 5 21 6 20 7 18 8 17 9 16 10 15 11 6 12
REMARK SMILES IDX 7 13 8 14 14 15 10 16 12 17 9 18 11 20 13 22 4 24 22 26
REMARK SMILES IDX 19 28
REMARK H PARENT 9 19 11 21 13 23 4 25 22 27 19 29
REMARK Flexibility Score: inf
ROOT
ATOM      1  C   UNL     1      -1.163  -9.353  12.718  1.00  0.00     0.180 A 
ATOM      2  C   UNL     1      -2.158  -8.390  12.474  1.00  0.00     0.208 A 
ATOM      3  C   UNL     1      -3.484  -8.677  12.830  1.00  0.00     0.238 A 
ATOM      4  O   UNL     1      -4.362  -7.791  12.659  1.00  0.00    -0.285 OA
ATOM      5  C   UNL     1      -3.803  -9.928  13.412  1.00  0.00     0.111 A 
ATOM      6  C   UNL     1      -5.121 -10.341  13.775  1.00  0.00     0.134 A 
ATOM      7  C   UNL     1      -5.301 -11.547  14.463  1.00  0.00     0.093 A 
ATOM      8  C   UNL     1      -4.219 -12.387  14.741  1.00  0.00     0.123 A 
ATOM      9  C   UNL     1      -2.937 -12.020  14.337  1.00  0.00     0.094 A 
ATOM     10  C   UNL     1      -2.721 -10.806  13.683  1.00  0.00     0.146 A 
ATOM     11  O   UNL     1      -1.482 -10.490  13.325  1.00  0.00    -0.452 OA
ENDROOT
BRANCH   1  12
ATOM     12  C   UNL     1       0.254  -9.133  12.347  1.00  0.00     0.029 A 
ATOM     13  C   UNL     1       0.823  -9.890  11.311  1.00  0.00     0.062 A 
ATOM     14  C   UNL     1       2.153  -9.688  10.927  1.00  0.00     0.162 A 
ATOM     15  C   UNL     1       1.028  -8.141  12.973  1.00  0.00     0.062 A 
ATOM     16  C   UNL     1       2.929  -8.709  11.570  1.00  0.00     0.200 A 
ATOM     17  C   UNL     1       2.361  -7.931  12.593  1.00  0.00     0.162 A 
BRANCH  14  18
ATOM     18  O   UNL     1       2.685 -10.471   9.903  1.00  0.00    -0.504 OA
ATOM     19  H   UNL     1       3.660 -10.743   9.883  1.00  0.00     0.293 HD
ENDBRANCH  14  18
BRANCH  16  20
ATOM     20  O   UNL     1       4.255  -8.516  11.182  1.00  0.00    -0.502 OA
ATOM     21  H   UNL     1       4.591  -7.629  10.828  1.00  0.00     0.293 HD
ENDBRANCH  16  20
BRANCH  17  22
ATOM     22  O   UNL     1       3.120  -6.948  13.226  1.00  0.00    -0.504 OA
ATOM     23  H   UNL     1       3.486  -6.150  12.720  1.00  0.00     0.293 HD
ENDBRANCH  17  22
ENDBRANCH   1  12
BRANCH   2  24
ATOM     24  O   UNL     1      -1.817  -7.153  11.920  1.00  0.00    -0.502 OA
ATOM     25  H   UNL     1      -2.048  -6.274  12.367  1.00  0.00     0.293 HD
ENDBRANCH   2  24
BRANCH   6  26
ATOM     26  O   UNL     1      -6.278  -9.622  13.462  1.00  0.00    -0.507 OA
ATOM     27  H   UNL     1      -7.195  -9.820  13.831  1.00  0.00     0.293 HD
ENDBRANCH   6  26
BRANCH   8  28
ATOM     28  O   UNL     1      -4.410 -13.593  15.412  1.00  0.00    -0.508 OA
ATOM     29  H   UNL     1      -4.531 -14.465  14.910  1.00  0.00     0.293 HD
ENDBRANCH   8  28
TORSDOF 7
ENDMDL
MODEL 6
REMARK VINA RESULT:    -7.291      2.134      2.768
REMARK INTER + INTRA:          -9.350
REMARK INTER:                  -8.993
REMARK INTRA:                  -0.357
REMARK UNBOUND:                -0.354
REMARK SMILES O=c1c(O)c(-c2cc(O)c(O)c(O)c2)oc2cc(O)cc(O)c12
REMARK SMILES IDX 5 1 3 2 2 3 1 4 23 5 21 6 20 7 18 8 17 9 16 10 15 11 6 12
REMARK SMILES IDX 7 13 8 14 14 15 10 16 12 17 9 18 11 20 13 22 4 24 22 26
REMARK SMILES IDX 19 28
REMARK H PARENT 9 19 11 21 13 23 4 25 22 27 19 29
REMARK Flexibility Score: inf
ROOT
ATOM      1  C   UNL     1      -4.058  -7.987  13.820  1.00  0.00     0.180 A 
ATOM      2  C   UNL     1      -5.068  -7.166  13.288  1.00  0.00     0.208 A 
ATOM      3  C   UNL     1      -6.411  -7.526  13.482  1.00  0.00     0.238 A 
ATOM      4  O   UNL     1      -7.310  -6.758  13.050  1.00  0.00    -0.285 OA
ATOM      5  C   UNL     1      -6.728  -8.708  14.192  1.00  0.00     0.111 A 
ATOM      6  C   UNL     1      -8.053  -9.190  14.414  1.00  0.00     0.134 A 
ATOM      7  C   UNL     1      -8.254 -10.302  15.241  1.00  0.00     0.093 A 
ATOM      8  C   UNL     1      -7.174 -10.988  15.802  1.00  0.00     0.123 A 
ATOM      9  C   UNL     1      -5.874 -10.561  15.542  1.00  0.00     0.094 A 
ATOM     10  C   UNL     1      -5.643  -9.433  14.751  1.00  0.00     0.146 A 
ATOM     11  O   UNL     1      -4.388  -9.054  14.538  1.00  0.00    -0.452 OA
ENDROOT
BRANCH   1  12
ATOM     12  C   UNL     1      -2.620  -7.687  13.635  1.00  0.00     0.029 A 
ATOM     13  C   UNL     1      -1.952  -8.176  12.503  1.00  0.00     0.062 A 
ATOM     14  C   UNL     1      -0.598  -7.890  12.293  1.00  0.00     0.162 A 
ATOM     15  C   UNL     1      -1.921  -6.872  14.543  1.00  0.00     0.062 A 
ATOM     16  C   UNL     1       0.102  -7.093  13.214  1.00  0.00     0.200 A 
ATOM     17  C   UNL     1      -0.565  -6.579  14.340  1.00  0.00     0.162 A 
BRANCH  14  18
ATOM     18  O   UNL     1       0.033  -8.408  11.162  1.00  0.00    -0.504 OA
ATOM     19  H   UNL     1       1.038  -8.523  11.111  1.00  0.00     0.293 HD
ENDBRANCH  14  18
BRANCH  16  20
ATOM     20  O   UNL     1       1.452  -6.815  12.998  1.00  0.00    -0.502 OA
ATOM     21  H   UNL     1       1.975  -7.233  12.238  1.00  0.00     0.293 HD
ENDBRANCH  16  20
BRANCH  17  22
ATOM     22  O   UNL     1       0.120  -5.776  15.250  1.00  0.00    -0.504 OA
ATOM     23  H   UNL     1      -0.046  -4.778  15.307  1.00  0.00     0.293 HD
ENDBRANCH  17  22
ENDBRANCH   1  12
BRANCH   2  24
ATOM     24  O   UNL     1      -4.733  -5.991  12.609  1.00  0.00    -0.502 OA
ATOM     25  H   UNL     1      -4.094  -5.979  11.823  1.00  0.00     0.293 HD
ENDBRANCH   2  24
BRANCH   6  26
ATOM     26  O   UNL     1      -9.194  -8.634  13.827  1.00  0.00    -0.507 OA
ATOM     27  H   UNL     1      -9.588  -7.740  14.073  1.00  0.00     0.293 HD
ENDBRANCH   6  26
BRANCH   8  28
ATOM     28  O   UNL     1      -7.382 -12.103  16.611  1.00  0.00    -0.508 OA
ATOM     29  H   UNL     1      -6.639 -12.489  17.182  1.00  0.00     0.293 HD
ENDBRANCH   8  28
TORSDOF 7
ENDMDL
MODEL 7
REMARK VINA RESULT:    -7.286      2.600      3.322
REMARK INTER + INTRA:          -9.344
REMARK INTER:                  -9.175
REMARK INTRA:                  -0.169
REMARK UNBOUND:                -0.354
REMARK SMILES O=c1c(O)c(-c2cc(O)c(O)c(O)c2)oc2cc(O)cc(O)c12
REMARK SMILES IDX 5 1 3 2 2 3 1 4 23 5 21 6 20 7 18 8 17 9 16 10 15 11 6 12
REMARK SMILES IDX 7 13 8 14 14 15 10 16 12 17 9 18 11 20 13 22 4 24 22 26
REMARK SMILES IDX 19 28
REMARK H PARENT 9 19 11 21 13 23 4 25 22 27 19 29
REMARK Flexibility Score: inf
ROOT
ATOM      1  C   UNL     1      -4.142 -10.153  13.779  1.00  0.00     0.180 A 
ATOM      2  C   UNL     1      -4.940  -9.301  12.996  1.00  0.00     0.208 A 
ATOM      3  C   UNL     1      -6.286  -9.116  13.346  1.00  0.00     0.238 A 
ATOM      4  O   UNL     1      -6.981  -8.311  12.673  1.00  0.00    -0.285 OA
ATOM      5  C   UNL     1      -6.822  -9.796  14.466  1.00  0.00     0.111 A 
ATOM      6  C   UNL     1      -8.184  -9.714  14.888  1.00  0.00     0.134 A 
ATOM      7  C   UNL     1      -8.572 -10.327  16.086  1.00  0.00     0.093 A 
ATOM      8  C   UNL     1      -7.665 -11.073  16.842  1.00  0.00     0.123 A 
ATOM      9  C   UNL     1      -6.349 -11.209  16.406  1.00  0.00     0.094 A 
ATOM     10  C   UNL     1      -5.922 -10.579  15.235  1.00  0.00     0.146 A 
ATOM     11  O   UNL     1      -4.656 -10.725  14.862  1.00  0.00    -0.452 OA
ENDROOT
BRANCH   1  12
ATOM     12  C   UNL     1      -2.720 -10.417  13.458  1.00  0.00     0.029 A 
ATOM     13  C   UNL     1      -2.327 -11.709  13.077  1.00  0.00     0.062 A 
ATOM     14  C   UNL     1      -0.994 -11.982  12.749  1.00  0.00     0.162 A 
ATOM     15  C   UNL     1      -1.765  -9.387  13.471  1.00  0.00     0.062 A 
ATOM     16  C   UNL     1      -0.038 -10.953  12.784  1.00  0.00     0.200 A 
ATOM     17  C   UNL     1      -0.428  -9.651  13.142  1.00  0.00     0.162 A 
BRANCH  14  18
ATOM     18  O   UNL     1      -0.640 -13.282  12.390  1.00  0.00    -0.504 OA
ATOM     19  H   UNL     1      -0.046 -13.859  12.971  1.00  0.00     0.293 HD
ENDBRANCH  14  18
BRANCH  16  20
ATOM     20  O   UNL     1       1.289 -11.234  12.457  1.00  0.00    -0.502 OA
ATOM     21  H   UNL     1       1.549 -12.036  11.895  1.00  0.00     0.293 HD
ENDBRANCH  16  20
BRANCH  17  22
ATOM     22  O   UNL     1       0.513  -8.622  13.165  1.00  0.00    -0.504 OA
ATOM     23  H   UNL     1       0.790  -8.175  14.031  1.00  0.00     0.293 HD
ENDBRANCH  17  22
ENDBRANCH   1  12
BRANCH   2  24
ATOM     24  O   UNL     1      -4.384  -8.622  11.907  1.00  0.00    -0.502 OA
ATOM     25  H   UNL     1      -3.763  -7.829  12.019  1.00  0.00     0.293 HD
ENDBRANCH   2  24
BRANCH   6  26
ATOM     26  O   UNL     1      -9.190  -9.073  14.159  1.00  0.00    -0.507 OA
ATOM     27  H   UNL     1      -9.113  -8.147  13.768  1.00  0.00     0.293 HD
ENDBRANCH   6  26
BRANCH   8  28
ATOM     28  O   UNL     1      -8.065 -11.693  18.024  1.00  0.00    -0.508 OA
ATOM     29  H   UNL     1      -7.518 -11.615  18.874  1.00  0.00     0.293 HD
ENDBRANCH   8  28
TORSDOF 7
ENDMDL
MODEL 8
REMARK VINA RESULT:    -7.126      4.407      6.796
REMARK INTER + INTRA:          -9.147
REMARK INTER:                  -8.805
REMARK INTRA:                  -0.341
REMARK UNBOUND:                -0.354
REMARK SMILES O=c1c(O)c(-c2cc(O)c(O)c(O)c2)oc2cc(O)cc(O)c12
REMARK SMILES IDX 5 1 3 2 2 3 1 4 23 5 21 6 20 7 18 8 17 9 16 10 15 11 6 12
REMARK SMILES IDX 7 13 8 14 14 15 10 16 12 17 9 18 11 20 13 22 4 24 22 26
REMARK SMILES IDX 19 28
REMARK H PARENT 9 19 11 21 13 23 4 25 22 27 19 29
REMARK Flexibility Score: inf
ROOT
ATOM      1  C   UNL     1      -0.422  -7.970  14.638  1.00  0.00     0.180 A 
ATOM      2  C   UNL     1      -1.199  -6.985  14.002  1.00  0.00     0.208 A 
ATOM      3  C   UNL     1      -2.441  -7.345  13.456  1.00  0.00     0.238 A 
ATOM      4  O   UNL     1      -3.155  -6.449  12.935  1.00  0.00    -0.285 OA
ATOM      5  C   UNL     1      -2.885  -8.687  13.539  1.00  0.00     0.111 A 
ATOM      6  C   UNL     1      -4.108  -9.172  12.985  1.00  0.00     0.134 A 
ATOM      7  C   UNL     1      -4.507 -10.490  13.241  1.00  0.00     0.093 A 
ATOM      8  C   UNL     1      -3.696 -11.359  13.975  1.00  0.00     0.123 A 
ATOM      9  C   UNL     1      -2.472 -10.912  14.468  1.00  0.00     0.094 A 
ATOM     10  C   UNL     1      -2.064  -9.592  14.261  1.00  0.00     0.146 A 
ATOM     11  O   UNL     1      -0.895  -9.204  14.758  1.00  0.00    -0.452 OA
ENDROOT
BRANCH   1  12
ATOM     12  C   UNL     1       0.908  -7.672  15.216  1.00  0.00     0.029 A 
ATOM     13  C   UNL     1       1.043  -7.539  16.606  1.00  0.00     0.062 A 
ATOM     14  C   UNL     1       2.293  -7.279  17.180  1.00  0.00     0.162 A 
ATOM     15  C   UNL     1       2.052  -7.576  14.405  1.00  0.00     0.062 A 
ATOM     16  C   UNL     1       3.430  -7.163  16.364  1.00  0.00     0.200 A 
ATOM     17  C   UNL     1       3.308  -7.317  14.972  1.00  0.00     0.162 A 
BRANCH  14  18
ATOM     18  O   UNL     1       2.382  -7.139  18.565  1.00  0.00    -0.504 OA
ATOM     19  H   UNL     1       1.668  -6.669  19.107  1.00  0.00     0.293 HD
ENDBRANCH  14  18
BRANCH  16  20
ATOM     20  O   UNL     1       4.672  -6.900  16.945  1.00  0.00    -0.502 OA
ATOM     21  H   UNL     1       5.529  -7.310  16.595  1.00  0.00     0.293 HD
ENDBRANCH  16  20
BRANCH  17  22
ATOM     22  O   UNL     1       4.435  -7.217  14.157  1.00  0.00    -0.504 OA
ATOM     23  H   UNL     1       5.056  -8.004  14.011  1.00  0.00     0.293 HD
ENDBRANCH  17  22
ENDBRANCH   1  12
BRANCH   2  24
ATOM     24  O   UNL     1      -0.752  -5.662  13.951  1.00  0.00    -0.502 OA
ATOM     25  H   UNL     1      -0.355  -5.254  13.112  1.00  0.00     0.293 HD
ENDBRANCH   2  24
BRANCH   6  26
ATOM     26  O   UNL     1      -4.946  -8.415  12.162  1.00  0.00    -0.507 OA
ATOM     27  H   UNL     1      -5.221  -7.462  12.343  1.00  0.00     0.293 HD
ENDBRANCH   6  26
BRANCH   8  28
ATOM     28  O   UNL     1      -4.093 -12.673  14.211  1.00  0.00    -0.508 OA
ATOM     29  H   UNL     1      -3.900 -13.135  15.093  1.00  0.00     0.293 HD
ENDBRANCH   8  28
TORSDOF 7
ENDMDL
MODEL 9
REMARK VINA RESULT:    -7.037      5.555     10.608
REMARK INTER + INTRA:          -9.036
REMARK INTER:                  -8.671
REMARK INTRA:                  -0.366
REMARK UNBOUND:                -0.354
REMARK SMILES O=c1c(O)c(-c2cc(O)c(O)c(O)c2)oc2cc(O)cc(O)c12
REMARK SMILES IDX 5 1 3 2 2 3 1 4 23 5 21 6 20 7 18 8 17 9 16 10 15 11 6 12
REMARK SMILES IDX 7 13 8 14 14 15 10 16 12 17 9 18 11 20 13 22 4 24 22 26
REMARK SMILES IDX 19 28
REMARK H PARENT 9 19 11 21 13 23 4 25 22 27 19 29
REMARK Flexibility Score: inf
ROOT
ATOM      1  C   UNL     1       0.953  -8.421  13.360  1.00  0.00     0.180 A 
ATOM      2  C   UNL     1       1.266  -7.594  14.453  1.00  0.00     0.208 A 
ATOM      3  C   UNL     1       2.488  -6.903  14.457  1.00  0.00     0.238 A 
ATOM      4  O   UNL     1       2.738  -6.123  15.412  1.00  0.00    -0.285 OA
ATOM      5  C   UNL     1       3.388  -7.058  13.375  1.00  0.00     0.111 A 
ATOM      6  C   UNL     1       4.671  -6.437  13.293  1.00  0.00     0.134 A 
ATOM      7  C   UNL     1       5.421  -6.558  12.117  1.00  0.00     0.093 A 
ATOM      8  C   UNL     1       4.965  -7.330  11.046  1.00  0.00     0.123 A 
ATOM      9  C   UNL     1       3.741  -7.989  11.141  1.00  0.00     0.094 A 
ATOM     10  C   UNL     1       2.953  -7.858  12.286  1.00  0.00     0.146 A 
ATOM     11  O   UNL     1       1.788  -8.494  12.330  1.00  0.00    -0.452 OA
ENDROOT
BRANCH   1  12
ATOM     12  C   UNL     1      -0.304  -9.201  13.296  1.00  0.00     0.029 A 
ATOM     13  C   UNL     1      -1.401  -8.685  12.589  1.00  0.00     0.062 A 
ATOM     14  C   UNL     1      -2.594  -9.410  12.495  1.00  0.00     0.162 A 
ATOM     15  C   UNL     1      -0.405 -10.474  13.881  1.00  0.00     0.062 A 
ATOM     16  C   UNL     1      -2.697 -10.674  13.099  1.00  0.00     0.200 A 
ATOM     17  C   UNL     1      -1.596 -11.208  13.790  1.00  0.00     0.162 A 
BRANCH  14  18
ATOM     18  O   UNL     1      -3.667  -8.856  11.795  1.00  0.00    -0.504 OA
ATOM     19  H   UNL     1      -3.835  -7.858  11.769  1.00  0.00     0.293 HD
ENDBRANCH  14  18
BRANCH  16  20
ATOM     20  O   UNL     1      -3.892 -11.389  13.002  1.00  0.00    -0.502 OA
ATOM     21  H   UNL     1      -3.944 -12.382  13.195  1.00  0.00     0.293 HD
ENDBRANCH  16  20
BRANCH  17  22
ATOM     22  O   UNL     1      -1.687 -12.468  14.380  1.00  0.00    -0.504 OA
ATOM     23  H   UNL     1      -1.030 -12.771  15.089  1.00  0.00     0.293 HD
ENDBRANCH  17  22
ENDBRANCH   1  12
BRANCH   2  24
ATOM     24  O   UNL     1       0.353  -7.438  15.500  1.00  0.00    -0.502 OA
ATOM     25  H   UNL     1      -0.388  -6.747  15.478  1.00  0.00     0.293 HD
ENDBRANCH   2  24
BRANCH   6  26
ATOM     26  O   UNL     1       5.259  -5.721  14.339  1.00  0.00    -0.507 OA
ATOM     27  H   UNL     1       4.775  -5.415  15.169  1.00  0.00     0.293 HD
ENDBRANCH   6  26
BRANCH   8  28
ATOM     28  O   UNL     1       5.726  -7.458   9.886  1.00  0.00    -0.508 OA
ATOM     29  H   UNL     1       6.383  -8.220   9.764  1.00  0.00     0.293 HD
ENDBRANCH   8  28
TORSDOF 7
ENDMDL
