MODEL 1
REMARK VINA RESULT:    -3.541      0.000      0.000
REMARK INTER + INTRA:          -4.752
REMARK INTER:                  -4.266
REMARK INTRA:                  -0.486
REMARK UNBOUND:                -0.486
REMARK SMILES NC(=O)C[C@@H]([NH3+])C(=O)[O-]
REMARK SMILES IDX 4 1 5 2 6 3 7 7 8 8 9 9 2 10 3 11 1 12
REMARK H PARENT 6 4 6 5 6 6 1 13 1 14
REMARK Flexibility Score: inf
ROOT
ATOM      1  C   UNL     1      56.766  17.720  12.875  1.00  0.00     0.171 C 
ENDROOT
BRANCH   1   2
ATOM      2  C   UNL     1      57.230  17.411  14.313  1.00  0.00     0.237 C 
BRANCH   2   3
ATOM      3  N   UNL     1      56.266  16.555  15.015  1.00  0.00    -0.350 N 
ATOM      4  H   UNL     1      56.104  15.679  14.467  1.00  0.00     0.345 HD
ATOM      5  H   UNL     1      56.644  16.282  15.951  1.00  0.00     0.345 HD
ATOM      6  H   UNL     1      55.354  17.051  15.144  1.00  0.00     0.345 HD
ENDBRANCH   2   3
BRANCH   2   7
ATOM      7  C   UNL     1      58.580  16.748  14.277  1.00  0.00     0.100 C 
ATOM      8  O   UNL     1      59.425  16.980  15.182  1.00  0.00    -0.544 OA
ATOM      9  O   UNL     1      58.912  15.888  13.236  1.00  0.00    -0.544 OA
ENDBRANCH   2   7
ENDBRANCH   1   2
BRANCH   1  10
ATOM     10  C   UNL     1      55.719  16.751  12.410  1.00  0.00     0.223 C 
ATOM     11  O   UNL     1      54.500  17.000  12.611  1.00  0.00    -0.275 OA
ATOM     12  N   UNL     1      56.092  15.563  11.714  1.00  0.00    -0.369 N 
ATOM     13  H   UNL     1      55.362  14.895  11.380  1.00  0.00     0.159 HD
ATOM     14  H   UNL     1      57.098  15.347  11.529  1.00  0.00     0.159 HD
ENDBRANCH   1  10
TORSDOF 4
ENDMDL
MODEL 2
REMARK VINA RESULT:    -3.488      1.777      2.283
REMARK INTER + INTRA:          -4.687
REMARK INTER:                  -4.214
REMARK INTRA:                  -0.473
REMARK UNBOUND:                -0.486
REMARK SMILES NC(=O)C[C@@H]([NH3+])C(=O)[O-]
REMARK SMILES IDX 4 1 5 2 6 3 7 7 8 8 9 9 2 10 3 11 1 12
REMARK H PARENT 6 4 6 5 6 6 1 13 1 14
REMARK Flexibility Score: inf
ROOT
ATOM      1  C   UNL     1      57.567  16.899  13.091  1.00  0.00     0.171 C 
ENDROOT
BRANCH   1   2
ATOM      2  C   UNL     1      58.322  18.238  13.207  1.00  0.00     0.237 C 
BRANCH   2   3
ATOM      3  N   UNL     1      57.414  19.382  13.056  1.00  0.00    -0.350 N 
ATOM      4  H   UNL     1      56.422  19.048  13.039  1.00  0.00     0.345 HD
ATOM      5  H   UNL     1      57.518  20.033  13.867  1.00  0.00     0.345 HD
ATOM      6  H   UNL     1      57.615  19.901  12.170  1.00  0.00     0.345 HD
ENDBRANCH   2   3
BRANCH   2   7
ATOM      7  C   UNL     1      59.025  18.309  14.536  1.00  0.00     0.100 C 
ATOM      8  O   UNL     1      59.596  19.373  14.896  1.00  0.00    -0.544 OA
ATOM      9  O   UNL     1      59.065  17.196  15.368  1.00  0.00    -0.544 OA
ENDBRANCH   2   7
ENDBRANCH   1   2
BRANCH   1  10
ATOM     10  C   UNL     1      56.175  16.998  13.644  1.00  0.00     0.223 C 
ATOM     11  O   UNL     1      55.234  17.394  12.906  1.00  0.00    -0.275 OA
ATOM     12  N   UNL     1      55.905  16.618  14.992  1.00  0.00    -0.369 N 
ATOM     13  H   UNL     1      54.934  16.675  15.372  1.00  0.00     0.159 HD
ATOM     14  H   UNL     1      56.672  16.276  15.614  1.00  0.00     0.159 HD
ENDBRANCH   1  10
TORSDOF 4
ENDMDL
MODEL 3
REMARK VINA RESULT:    -3.403      1.878      3.917
REMARK INTER + INTRA:          -4.585
REMARK INTER:                  -4.325
REMARK INTRA:                  -0.260
REMARK UNBOUND:                -0.486
REMARK SMILES NC(=O)C[C@@H]([NH3+])C(=O)[O-]
REMARK SMILES IDX 4 1 5 2 6 3 7 7 8 8 9 9 2 10 3 11 1 12
REMARK H PARENT 6 4 6 5 6 6 1 13 1 14
REMARK Flexibility Score: inf
ROOT
ATOM      1  C   UNL     1      57.684  18.283  13.629  1.00  0.00     0.171 C 
ENDROOT
BRANCH   1   2
ATOM      2  C   UNL     1      57.057  16.874  13.648  1.00  0.00     0.237 C 
BRANCH   2   3
ATOM      3  N   UNL     1      56.365  16.611  14.916  1.00  0.00    -0.350 N 
ATOM      4  H   UNL     1      55.379  16.313  14.727  1.00  0.00     0.345 HD
ATOM      5  H   UNL     1      56.841  15.836  15.431  1.00  0.00     0.345 HD
ATOM      6  H   UNL     1      56.354  17.467  15.517  1.00  0.00     0.345 HD
ENDBRANCH   2   3
BRANCH   2   7
ATOM      7  C   UNL     1      56.098  16.733  12.496  1.00  0.00     0.100 C 
ATOM      8  O   UNL     1      56.506  16.318  11.379  1.00  0.00    -0.544 OA
ATOM      9  O   UNL     1      54.760  17.074  12.652  1.00  0.00    -0.544 OA
ENDBRANCH   2   7
ENDBRANCH   1   2
BRANCH   1  10
ATOM     10  C   UNL     1      58.855  18.381  14.563  1.00  0.00     0.223 C 
ATOM     11  O   UNL     1      59.237  17.362  15.198  1.00  0.00    -0.275 OA
ATOM     12  N   UNL     1      59.559  19.613  14.712  1.00  0.00    -0.369 N 
ATOM     13  H   UNL     1      60.381  19.676  15.353  1.00  0.00     0.159 HD
ATOM     14  H   UNL     1      59.262  20.463  14.184  1.00  0.00     0.159 HD
ENDBRANCH   1  10
TORSDOF 4
ENDMDL
MODEL 4
REMARK VINA RESULT:    -3.352     14.070     15.284
REMARK INTER + INTRA:          -4.524
REMARK INTER:                  -4.252
REMARK INTRA:                  -0.272
REMARK UNBOUND:                -0.486
REMARK SMILES NC(=O)C[C@@H]([NH3+])C(=O)[O-]
REMARK SMILES IDX 4 1 5 2 6 3 7 7 8 8 9 9 2 10 3 11 1 12
REMARK H PARENT 6 4 6 5 6 6 1 13 1 14
REMARK Flexibility Score: inf
ROOT
ATOM      1  C   UNL     1      53.350  30.148   7.914  1.00  0.00     0.171 C 
ENDROOT
BRANCH   1   2
ATOM      2  C   UNL     1      52.901  29.224   6.764  1.00  0.00     0.237 C 
BRANCH   2   3
ATOM      3  N   UNL     1      52.604  27.870   7.247  1.00  0.00    -0.350 N 
ATOM      4  H   UNL     1      53.399  27.229   7.018  1.00  0.00     0.345 HD
ATOM      5  H   UNL     1      52.488  27.877   8.286  1.00  0.00     0.345 HD
ATOM      6  H   UNL     1      51.730  27.501   6.806  1.00  0.00     0.345 HD
ENDBRANCH   2   3
BRANCH   2   7
ATOM      7  C   UNL     1      51.688  29.810   6.091  1.00  0.00     0.100 C 
ATOM      8  O   UNL     1      51.389  31.021   6.265  1.00  0.00    -0.544 OA
ATOM      9  O   UNL     1      50.880  29.015   5.286  1.00  0.00    -0.544 OA
ENDBRANCH   2   7
ENDBRANCH   1   2
BRANCH   1  10
ATOM     10  C   UNL     1      54.657  29.702   8.504  1.00  0.00     0.223 C 
ATOM     11  O   UNL     1      55.399  28.915   7.859  1.00  0.00    -0.275 OA
ATOM     12  N   UNL     1      55.077  30.189   9.777  1.00  0.00    -0.369 N 
ATOM     13  H   UNL     1      55.993  29.888  10.181  1.00  0.00     0.159 HD
ATOM     14  H   UNL     1      54.478  30.852  10.319  1.00  0.00     0.159 HD
ENDBRANCH   1  10
TORSDOF 4
ENDMDL
MODEL 5
REMARK VINA RESULT:    -3.347     13.069     14.073
REMARK INTER + INTRA:          -4.518
REMARK INTER:                  -4.191
REMARK INTRA:                  -0.327
REMARK UNBOUND:                -0.486
REMARK SMILES NC(=O)C[C@@H]([NH3+])C(=O)[O-]
REMARK SMILES IDX 4 1 5 2 6 3 7 7 8 8 9 9 2 10 3 11 1 12
REMARK H PARENT 6 4 6 5 6 6 1 13 1 14
REMARK Flexibility Score: inf
ROOT
ATOM      1  C   UNL     1      64.618  27.250  18.223  1.00  0.00     0.171 C 
ENDROOT
BRANCH   1   2
ATOM      2  C   UNL     1      64.741  26.442  16.915  1.00  0.00     0.237 C 
BRANCH   2   3
ATOM      3  N   UNL     1      64.382  27.255  15.746  1.00  0.00    -0.350 N 
ATOM      4  H   UNL     1      65.033  28.071  15.668  1.00  0.00     0.345 HD
ATOM      5  H   UNL     1      64.474  26.688  14.873  1.00  0.00     0.345 HD
ATOM      6  H   UNL     1      63.400  27.607  15.826  1.00  0.00     0.345 HD
ENDBRANCH   2   3
BRANCH   2   7
ATOM      7  C   UNL     1      66.146  25.922  16.772  1.00  0.00     0.100 C 
ATOM      8  O   UNL     1      66.955  26.007  17.734  1.00  0.00    -0.544 OA
ATOM      9  O   UNL     1      66.568  25.361  15.572  1.00  0.00    -0.544 OA
ENDBRANCH   2   7
ENDBRANCH   1   2
BRANCH   1  10
ATOM     10  C   UNL     1      64.458  28.717  17.954  1.00  0.00     0.223 C 
ATOM     11  O   UNL     1      65.441  29.390  17.542  1.00  0.00    -0.275 OA
ATOM     12  N   UNL     1      63.193  29.351  18.134  1.00  0.00    -0.369 N 
ATOM     13  H   UNL     1      63.080  30.370  17.935  1.00  0.00     0.159 HD
ATOM     14  H   UNL     1      62.366  28.805  18.464  1.00  0.00     0.159 HD
ENDBRANCH   1  10
TORSDOF 4
ENDMDL
MODEL 6
REMARK VINA RESULT:    -3.221      1.882      3.727
REMARK INTER + INTRA:          -4.366
REMARK INTER:                  -3.872
REMARK INTRA:                  -0.494
REMARK UNBOUND:                -0.486
REMARK SMILES NC(=O)C[C@@H]([NH3+])C(=O)[O-]
REMARK SMILES IDX 4 1 5 2 6 3 7 7 8 8 9 9 2 10 3 11 1 12
REMARK H PARENT 6 4 6 5 6 6 1 13 1 14
REMARK Flexibility Score: inf
ROOT
ATOM      1  C   UNL     1      57.561  16.636  14.636  1.00  0.00     0.171 C 
ENDROOT
BRANCH   1   2
ATOM      2  C   UNL     1      56.718  17.713  13.924  1.00  0.00     0.237 C 
BRANCH   2   3
ATOM      3  N   UNL     1      57.547  18.846  13.493  1.00  0.00    -0.350 N 
ATOM      4  H   UNL     1      57.552  19.584  14.235  1.00  0.00     0.345 HD
ATOM      5  H   UNL     1      58.534  18.533  13.346  1.00  0.00     0.345 HD
ATOM      6  H   UNL     1      57.181  19.257  12.603  1.00  0.00     0.345 HD
ENDBRANCH   2   3
BRANCH   2   7
ATOM      7  C   UNL     1      56.019  17.104  12.738  1.00  0.00     0.100 C 
ATOM      8  O   UNL     1      56.687  16.652  11.771  1.00  0.00    -0.544 OA
ATOM      9  O   UNL     1      54.630  17.052  12.693  1.00  0.00    -0.544 OA
ENDBRANCH   2   7
ENDBRANCH   1   2
BRANCH   1  10
ATOM     10  C   UNL     1      59.013  16.738  14.272  1.00  0.00     0.223 C 
ATOM     11  O   UNL     1      59.788  17.441  14.973  1.00  0.00    -0.275 OA
ATOM     12  N   UNL     1      59.529  16.018  13.153  1.00  0.00    -0.369 N 
ATOM     13  H   UNL     1      60.542  16.080  12.908  1.00  0.00     0.159 HD
ATOM     14  H   UNL     1      58.902  15.421  12.568  1.00  0.00     0.159 HD
ENDBRANCH   1  10
TORSDOF 4
ENDMDL
MODEL 7
REMARK VINA RESULT:    -3.187     13.240     14.061
REMARK INTER + INTRA:          -4.324
REMARK INTER:                  -4.108
REMARK INTRA:                  -0.216
REMARK UNBOUND:                -0.486
REMARK SMILES NC(=O)C[C@@H]([NH3+])C(=O)[O-]
REMARK SMILES IDX 4 1 5 2 6 3 7 7 8 8 9 9 2 10 3 11 1 12
REMARK H PARENT 6 4 6 5 6 6 1 13 1 14
REMARK Flexibility Score: inf
ROOT
ATOM      1  C   UNL     1      54.503  28.924   6.412  1.00  0.00     0.171 C 
ENDROOT
BRANCH   1   2
ATOM      2  C   UNL     1      55.490  29.267   7.546  1.00  0.00     0.237 C 
BRANCH   2   3
ATOM      3  N   UNL     1      56.586  30.117   7.065  1.00  0.00    -0.350 N 
ATOM      4  H   UNL     1      56.212  30.836   6.402  1.00  0.00     0.345 HD
ATOM      5  H   UNL     1      57.028  30.621   7.866  1.00  0.00     0.345 HD
ATOM      6  H   UNL     1      57.312  29.546   6.575  1.00  0.00     0.345 HD
ENDBRANCH   2   3
BRANCH   2   7
ATOM      7  C   UNL     1      54.755  29.954   8.665  1.00  0.00     0.100 C 
ATOM      8  O   UNL     1      55.241  29.971   9.827  1.00  0.00    -0.544 OA
ATOM      9  O   UNL     1      53.527  30.562   8.429  1.00  0.00    -0.544 OA
ENDBRANCH   2   7
ENDBRANCH   1   2
BRANCH   1  10
ATOM     10  C   UNL     1      53.710  27.688   6.723  1.00  0.00     0.223 C 
ATOM     11  O   UNL     1      54.263  26.557   6.665  1.00  0.00    -0.275 OA
ATOM     12  N   UNL     1      52.342  27.787   7.114  1.00  0.00    -0.369 N 
ATOM     13  H   UNL     1      51.794  26.926   7.341  1.00  0.00     0.159 HD
ATOM     14  H   UNL     1      51.872  28.717   7.178  1.00  0.00     0.159 HD
ENDBRANCH   1  10
TORSDOF 4
ENDMDL
MODEL 8
REMARK VINA RESULT:    -3.186     14.009     14.850
REMARK INTER + INTRA:          -4.324
REMARK INTER:                  -4.076
REMARK INTRA:                  -0.249
REMARK UNBOUND:                -0.486
REMARK SMILES NC(=O)C[C@@H]([NH3+])C(=O)[O-]
REMARK SMILES IDX 4 1 5 2 6 3 7 7 8 8 9 9 2 10 3 11 1 12
REMARK H PARENT 6 4 6 5 6 6 1 13 1 14
REMARK Flexibility Score: inf
ROOT
ATOM      1  C   UNL     1      53.008  30.334   7.379  1.00  0.00     0.171 C 
ENDROOT
BRANCH   1   2
ATOM      2  C   UNL     1      53.522  28.885   7.497  1.00  0.00     0.237 C 
BRANCH   2   3
ATOM      3  N   UNL     1      52.497  27.916   7.089  1.00  0.00    -0.350 N 
ATOM      4  H   UNL     1      51.630  28.421   6.792  1.00  0.00     0.345 HD
ATOM      5  H   UNL     1      52.836  27.355   6.275  1.00  0.00     0.345 HD
ATOM      6  H   UNL     1      52.262  27.269   7.878  1.00  0.00     0.345 HD
ENDBRANCH   2   3
BRANCH   2   7
ATOM      7  C   UNL     1      54.757  28.717   6.653  1.00  0.00     0.100 C 
ATOM      8  O   UNL     1      55.874  29.116   7.076  1.00  0.00    -0.544 OA
ATOM      9  O   UNL     1      54.672  28.135   5.393  1.00  0.00    -0.544 OA
ENDBRANCH   2   7
ENDBRANCH   1   2
BRANCH   1  10
ATOM     10  C   UNL     1      53.319  31.134   8.609  1.00  0.00     0.223 C 
ATOM     11  O   UNL     1      52.543  32.060   8.968  1.00  0.00    -0.275 OA
ATOM     12  N   UNL     1      54.472  30.835   9.394  1.00  0.00    -0.369 N 
ATOM     13  H   UNL     1      54.681  31.385  10.257  1.00  0.00     0.159 HD
ATOM     14  H   UNL     1      55.119  30.063   9.116  1.00  0.00     0.159 HD
ENDBRANCH   1  10
TORSDOF 4
ENDMDL
MODEL 9
REMARK VINA RESULT:    -3.174      3.293      4.313
REMARK INTER + INTRA:          -4.309
REMARK INTER:                  -3.979
REMARK INTRA:                  -0.330
REMARK UNBOUND:                -0.486
REMARK SMILES NC(=O)C[C@@H]([NH3+])C(=O)[O-]
REMARK SMILES IDX 4 1 5 2 6 3 7 7 8 8 9 9 2 10 3 11 1 12
REMARK H PARENT 6 4 6 5 6 6 1 13 1 14
REMARK Flexibility Score: inf
ROOT
ATOM      1  C   UNL     1      59.918  19.337  14.583  1.00  0.00     0.171 C 
ENDROOT
BRANCH   1   2
ATOM      2  C   UNL     1      58.725  18.373  14.432  1.00  0.00     0.237 C 
BRANCH   2   3
ATOM      3  N   UNL     1      57.722  18.901  13.499  1.00  0.00    -0.350 N 
ATOM      4  H   UNL     1      58.193  19.464  12.752  1.00  0.00     0.345 HD
ATOM      5  H   UNL     1      57.213  18.115  13.035  1.00  0.00     0.345 HD
ATOM      6  H   UNL     1      57.032  19.509  14.000  1.00  0.00     0.345 HD
ENDBRANCH   2   3
BRANCH   2   7
ATOM      7  C   UNL     1      59.216  17.031  13.957  1.00  0.00     0.100 C 
ATOM      8  O   UNL     1      58.836  16.574  12.847  1.00  0.00    -0.544 OA
ATOM      9  O   UNL     1      60.077  16.280  14.748  1.00  0.00    -0.544 OA
ENDBRANCH   2   7
ENDBRANCH   1   2
BRANCH   1  10
ATOM     10  C   UNL     1      59.944  20.363  13.488  1.00  0.00     0.223 C 
ATOM     11  O   UNL     1      60.106  20.000  12.292  1.00  0.00    -0.275 OA
ATOM     12  N   UNL     1      59.755  21.745  13.788  1.00  0.00    -0.369 N 
ATOM     13  H   UNL     1      59.760  22.457  13.024  1.00  0.00     0.159 HD
ATOM     14  H   UNL     1      59.607  22.061  14.773  1.00  0.00     0.159 HD
ENDBRANCH   1  10
TORSDOF 4
ENDMDL
