MODEL 1
REMARK VINA RESULT:    -4.217      0.000      0.000
REMARK INTER + INTRA:          -5.008
REMARK INTER:                  -4.956
REMARK INTRA:                  -0.052
REMARK UNBOUND:                -0.052
REMARK SMILES O=C([O-])CCC(=O)[O-]
REMARK SMILES IDX 4 1 2 2 1 3 3 4 5 5 6 6 7 7 8 8
REMARK H PARENT
REMARK Flexibility Score: inf
ROOT
ATOM      1  C   UNL     1      22.794 -27.001   1.674  1.00  0.00     0.059 C 
ENDROOT
BRANCH   1   2
ATOM      2  C   UNL     1      21.873 -25.823   1.583  1.00  0.00     0.042 C 
ATOM      3  O   UNL     1      20.777 -25.827   2.203  1.00  0.00    -0.550 OA
ATOM      4  O   UNL     1      22.243 -24.705   0.846  1.00  0.00    -0.550 OA
ENDBRANCH   1   2
BRANCH   1   5
ATOM      5  C   UNL     1      22.241 -28.079   2.612  1.00  0.00     0.059 C 
BRANCH   5   6
ATOM      6  C   UNL     1      22.375 -29.449   2.020  1.00  0.00     0.042 C 
ATOM      7  O   UNL     1      23.313 -29.704   1.221  1.00  0.00    -0.550 OA
ATOM      8  O   UNL     1      21.487 -30.453   2.383  1.00  0.00    -0.550 OA
ENDBRANCH   5   6
ENDBRANCH   1   5
TORSDOF 3
ENDMDL
MODEL 2
REMARK VINA RESULT:    -4.176      1.495      1.673
REMARK INTER + INTRA:          -4.960
REMARK INTER:                  -4.838
REMARK INTRA:                  -0.122
REMARK UNBOUND:                -0.052
REMARK SMILES O=C([O-])CCC(=O)[O-]
REMARK SMILES IDX 4 1 2 2 1 3 3 4 5 5 6 6 7 7 8 8
REMARK H PARENT
REMARK Flexibility Score: inf
ROOT
ATOM      1  C   UNL     1      22.646 -27.778   2.736  1.00  0.00     0.059 C 
ENDROOT
BRANCH   1   2
ATOM      2  C   UNL     1      21.943 -26.685   1.990  1.00  0.00     0.042 C 
ATOM      3  O   UNL     1      20.825 -26.263   2.388  1.00  0.00    -0.550 OA
ATOM      4  O   UNL     1      22.541 -26.105   0.878  1.00  0.00    -0.550 OA
ENDBRANCH   1   2
BRANCH   1   5
ATOM      5  C   UNL     1      22.528 -29.122   2.011  1.00  0.00     0.059 C 
BRANCH   5   6
ATOM      6  C   UNL     1      23.797 -29.480   1.300  1.00  0.00     0.042 C 
ATOM      7  O   UNL     1      23.954 -29.168   0.090  1.00  0.00    -0.550 OA
ATOM      8  O   UNL     1      24.821 -30.121   1.984  1.00  0.00    -0.550 OA
ENDBRANCH   5   6
ENDBRANCH   1   5
TORSDOF 3
ENDMDL
MODEL 3
REMARK VINA RESULT:    -4.171      0.088      4.290
REMARK INTER + INTRA:          -4.955
REMARK INTER:                  -4.900
REMARK INTRA:                  -0.054
REMARK UNBOUND:                -0.052
REMARK SMILES O=C([O-])CCC(=O)[O-]
REMARK SMILES IDX 4 1 2 2 1 3 3 4 5 5 6 6 7 7 8 8
REMARK H PARENT
REMARK Flexibility Score: inf
ROOT
ATOM      1  C   UNL     1      22.345 -28.090   2.648  1.00  0.00     0.059 C 
ENDROOT
BRANCH   1   2
ATOM      2  C   UNL     1      22.439 -29.455   2.038  1.00  0.00     0.042 C 
ATOM      3  O   UNL     1      23.380 -29.733   1.248  1.00  0.00    -0.550 OA
ATOM      4  O   UNL     1      21.511 -30.433   2.373  1.00  0.00    -0.550 OA
ENDBRANCH   1   2
BRANCH   1   5
ATOM      5  C   UNL     1      22.856 -27.008   1.691  1.00  0.00     0.059 C 
BRANCH   5   6
ATOM      6  C   UNL     1      21.878 -25.881   1.559  1.00  0.00     0.042 C 
ATOM      7  O   UNL     1      20.805 -25.893   2.217  1.00  0.00    -0.550 OA
ATOM      8  O   UNL     1      22.171 -24.798   0.740  1.00  0.00    -0.550 OA
ENDBRANCH   5   6
ENDBRANCH   1   5
TORSDOF 3
ENDMDL
MODEL 4
REMARK VINA RESULT:    -4.164      1.487      4.120
REMARK INTER + INTRA:          -4.947
REMARK INTER:                  -4.824
REMARK INTRA:                  -0.122
REMARK UNBOUND:                -0.052
REMARK SMILES O=C([O-])CCC(=O)[O-]
REMARK SMILES IDX 4 1 2 2 1 3 3 4 5 5 6 6 7 7 8 8
REMARK H PARENT
REMARK Flexibility Score: inf
ROOT
ATOM      1  C   UNL     1      22.536 -29.126   2.001  1.00  0.00     0.059 C 
ENDROOT
BRANCH   1   2
ATOM      2  C   UNL     1      23.803 -29.517   1.305  1.00  0.00     0.042 C 
ATOM      3  O   UNL     1      23.990 -29.198   0.101  1.00  0.00    -0.550 OA
ATOM      4  O   UNL     1      24.796 -30.198   1.998  1.00  0.00    -0.550 OA
ENDBRANCH   1   2
BRANCH   1   5
ATOM      5  C   UNL     1      22.665 -27.761   2.685  1.00  0.00     0.059 C 
BRANCH   5   6
ATOM      6  C   UNL     1      21.954 -26.688   1.919  1.00  0.00     0.042 C 
ATOM      7  O   UNL     1      20.856 -26.234   2.336  1.00  0.00    -0.550 OA
ATOM      8  O   UNL     1      22.523 -26.162   0.766  1.00  0.00    -0.550 OA
ENDBRANCH   5   6
ENDBRANCH   1   5
TORSDOF 3
ENDMDL
MODEL 5
REMARK VINA RESULT:    -4.094      1.985      4.137
REMARK INTER + INTRA:          -4.864
REMARK INTER:                  -4.776
REMARK INTRA:                  -0.088
REMARK UNBOUND:                -0.052
REMARK SMILES O=C([O-])CCC(=O)[O-]
REMARK SMILES IDX 4 1 2 2 1 3 3 4 5 5 6 6 7 7 8 8
REMARK H PARENT
REMARK Flexibility Score: inf
ROOT
ATOM      1  C   UNL     1      24.588 -28.557   2.179  1.00  0.00     0.059 C 
ENDROOT
BRANCH   1   2
ATOM      2  C   UNL     1      24.986 -29.848   1.531  1.00  0.00     0.042 C 
ATOM      3  O   UNL     1      24.993 -29.952   0.276  1.00  0.00    -0.550 OA
ATOM      4  O   UNL     1      25.389 -30.924   2.312  1.00  0.00    -0.550 OA
ENDBRANCH   1   2
BRANCH   1   5
ATOM      5  C   UNL     1      23.280 -28.013   1.594  1.00  0.00     0.059 C 
BRANCH   5   6
ATOM      6  C   UNL     1      22.102 -28.374   2.446  1.00  0.00     0.042 C 
ATOM      7  O   UNL     1      21.508 -27.487   3.114  1.00  0.00    -0.550 OA
ATOM      8  O   UNL     1      21.635 -29.682   2.469  1.00  0.00    -0.550 OA
ENDBRANCH   5   6
ENDBRANCH   1   5
TORSDOF 3
ENDMDL
MODEL 6
REMARK VINA RESULT:    -4.085      2.043      3.076
REMARK INTER + INTRA:          -4.854
REMARK INTER:                  -4.756
REMARK INTRA:                  -0.098
REMARK UNBOUND:                -0.052
REMARK SMILES O=C([O-])CCC(=O)[O-]
REMARK SMILES IDX 4 1 2 2 1 3 3 4 5 5 6 6 7 7 8 8
REMARK H PARENT
REMARK Flexibility Score: inf
ROOT
ATOM      1  C   UNL     1      23.200 -28.102   1.457  1.00  0.00     0.059 C 
ENDROOT
BRANCH   1   2
ATOM      2  C   UNL     1      22.104 -28.486   2.404  1.00  0.00     0.042 C 
ATOM      3  O   UNL     1      21.568 -27.616   3.140  1.00  0.00    -0.550 OA
ATOM      4  O   UNL     1      21.648 -29.798   2.444  1.00  0.00    -0.550 OA
ENDBRANCH   1   2
BRANCH   1   5
ATOM      5  C   UNL     1      24.576 -28.514   1.989  1.00  0.00     0.059 C 
BRANCH   5   6
ATOM      6  C   UNL     1      25.009 -29.837   1.435  1.00  0.00     0.042 C 
ATOM      7  O   UNL     1      25.102 -30.002   0.190  1.00  0.00    -0.550 OA
ATOM      8  O   UNL     1      25.348 -30.874   2.294  1.00  0.00    -0.550 OA
ENDBRANCH   5   6
ENDBRANCH   1   5
TORSDOF 3
ENDMDL
MODEL 7
REMARK VINA RESULT:    -4.021      1.121      3.891
REMARK INTER + INTRA:          -4.778
REMARK INTER:                  -4.656
REMARK INTRA:                  -0.122
REMARK UNBOUND:                -0.052
REMARK SMILES O=C([O-])CCC(=O)[O-]
REMARK SMILES IDX 4 1 2 2 1 3 3 4 5 5 6 6 7 7 8 8
REMARK H PARENT
REMARK Flexibility Score: inf
ROOT
ATOM      1  C   UNL     1      22.727 -27.782   2.668  1.00  0.00     0.059 C 
ENDROOT
BRANCH   1   2
ATOM      2  C   UNL     1      22.541 -29.096   1.972  1.00  0.00     0.042 C 
ATOM      3  O   UNL     1      21.654 -29.900   2.363  1.00  0.00    -0.550 OA
ATOM      4  O   UNL     1      23.320 -29.414   0.867  1.00  0.00    -0.550 OA
ENDBRANCH   1   2
BRANCH   1   5
ATOM      5  C   UNL     1      21.914 -26.669   1.998  1.00  0.00     0.059 C 
BRANCH   5   6
ATOM      6  C   UNL     1      22.728 -25.924   0.985  1.00  0.00     0.042 C 
ATOM      7  O   UNL     1      22.168 -25.135   0.180  1.00  0.00    -0.550 OA
ATOM      8  O   UNL     1      24.109 -26.070   0.957  1.00  0.00    -0.550 OA
ENDBRANCH   5   6
ENDBRANCH   1   5
TORSDOF 3
ENDMDL
MODEL 8
REMARK VINA RESULT:    -3.880      2.050      3.303
REMARK INTER + INTRA:          -4.612
REMARK INTER:                  -4.492
REMARK INTRA:                  -0.121
REMARK UNBOUND:                -0.052
REMARK SMILES O=C([O-])CCC(=O)[O-]
REMARK SMILES IDX 4 1 2 2 1 3 3 4 5 5 6 6 7 7 8 8
REMARK H PARENT
REMARK Flexibility Score: inf
ROOT
ATOM      1  C   UNL     1      23.733 -28.145   2.040  1.00  0.00     0.059 C 
ENDROOT
BRANCH   1   2
ATOM      2  C   UNL     1      22.338 -28.543   2.417  1.00  0.00     0.042 C 
ATOM      3  O   UNL     1      21.947 -29.726   2.236  1.00  0.00    -0.550 OA
ATOM      4  O   UNL     1      21.485 -27.618   3.005  1.00  0.00    -0.550 OA
ENDBRANCH   1   2
BRANCH   1   5
ATOM      5  C   UNL     1      23.864 -27.910   0.531  1.00  0.00     0.059 C 
BRANCH   5   6
ATOM      6  C   UNL     1      24.518 -29.071  -0.153  1.00  0.00     0.042 C 
ATOM      7  O   UNL     1      25.022 -30.004   0.525  1.00  0.00    -0.550 OA
ATOM      8  O   UNL     1      24.536 -29.141  -1.540  1.00  0.00    -0.550 OA
ENDBRANCH   5   6
ENDBRANCH   1   5
TORSDOF 3
ENDMDL
MODEL 9
REMARK VINA RESULT:    -3.804      2.032      3.634
REMARK INTER + INTRA:          -4.523
REMARK INTER:                  -4.398
REMARK INTRA:                  -0.125
REMARK UNBOUND:                -0.052
REMARK SMILES O=C([O-])CCC(=O)[O-]
REMARK SMILES IDX 4 1 2 2 1 3 3 4 5 5 6 6 7 7 8 8
REMARK H PARENT
REMARK Flexibility Score: inf
ROOT
ATOM      1  C   UNL     1      24.301 -27.790   0.815  1.00  0.00     0.059 C 
ENDROOT
BRANCH   1   2
ATOM      2  C   UNL     1      24.638 -28.996  -0.008  1.00  0.00     0.042 C 
ATOM      3  O   UNL     1      25.183 -29.996   0.528  1.00  0.00    -0.550 OA
ATOM      4  O   UNL     1      24.314 -29.030  -1.359  1.00  0.00    -0.550 OA
ENDBRANCH   1   2
BRANCH   1   5
ATOM      5  C   UNL     1      23.924 -28.173   2.249  1.00  0.00     0.059 C 
BRANCH   5   6
ATOM      6  C   UNL     1      22.459 -28.457   2.380  1.00  0.00     0.042 C 
ATOM      7  O   UNL     1      21.650 -27.518   2.602  1.00  0.00    -0.550 OA
ATOM      8  O   UNL     1      21.984 -29.752   2.216  1.00  0.00    -0.550 OA
ENDBRANCH   5   6
ENDBRANCH   1   5
TORSDOF 3
ENDMDL
