MODEL 1
REMARK VINA RESULT:    -1.934      0.000      0.000
REMARK INTER + INTRA:          -1.391
REMARK INTER:                  -2.951
REMARK INTRA:                   1.561
REMARK UNBOUND:                 1.561
REMARK SMILES COc1cc(C=CCOC(=O)C=Cc2ccc(O)c(OC)c2)ccc1O
REMARK SMILES IDX 9 1 8 2 7 3 6 4 5 5 3 6 25 7 4 8 24 9 23 10 2 11 1 12 26 13
REMARK SMILES IDX 10 15 11 16 12 17 13 18 14 19 22 20 15 21 19 22 16 23 17 24
REMARK SMILES IDX 20 25 21 26 18 27
REMARK H PARENT 26 14 18 28
REMARK Flexibility Score: inf
ROOT
ATOM      1  O   UNL     1     -28.673  21.613  44.561  1.00  0.00    -0.458 OA
ENDROOT
BRANCH   1   2
ATOM      2  C   UNL     1     -28.950  22.644  45.510  1.00  0.00     0.261 C 
BRANCH   2   3
ATOM      3  C   UNL     1     -29.426  22.054  46.808  1.00  0.00     0.015 C 
ATOM      4  C   UNL     1     -28.672  22.120  47.913  1.00  0.00     0.007 C 
BRANCH   4   5
ATOM      5  C   UNL     1     -29.001  21.419  49.178  1.00  0.00    -0.022 A 
ATOM      6  C   UNL     1     -29.039  21.255  51.621  1.00  0.00     0.161 A 
ATOM      7  C   UNL     1     -29.724  20.036  51.522  1.00  0.00     0.157 A 
ATOM      8  C   UNL     1     -28.671  21.940  50.445  1.00  0.00     0.058 A 
ATOM      9  C   UNL     1     -30.037  19.507  50.265  1.00  0.00     0.051 A 
ATOM     10  C   UNL     1     -29.675  20.191  49.104  1.00  0.00     0.012 A 
BRANCH   6  11
ATOM     11  O   UNL     1     -28.744  21.752  52.901  1.00  0.00    -0.493 OA
ATOM     12  C   UNL     1     -27.505  21.558  53.575  1.00  0.00     0.278 C 
ENDBRANCH   6  11
BRANCH   7  13
ATOM     13  O   UNL     1     -30.090  19.355  52.682  1.00  0.00    -0.504 OA
ATOM     14  H   UNL     1     -29.421  19.163  53.419  1.00  0.00     0.293 HD
ENDBRANCH   7  13
ENDBRANCH   4   5
ENDBRANCH   2   3
ENDBRANCH   1   2
BRANCH   1  15
ATOM     15  C   UNL     1     -29.383  21.470  43.363  1.00  0.00     0.331 C 
ATOM     16  O   UNL     1     -29.847  22.482  42.768  1.00  0.00    -0.247 OA
BRANCH  15  17
ATOM     17  C   UNL     1     -29.581  20.124  42.804  1.00  0.00     0.094 C 
ATOM     18  C   UNL     1     -29.187  18.992  43.407  1.00  0.00     0.016 C 
BRANCH  18  19
ATOM     19  C   UNL     1     -28.328  18.936  44.612  1.00  0.00    -0.021 A 
ATOM     20  C   UNL     1     -26.934  18.967  44.466  1.00  0.00     0.058 A 
ATOM     21  C   UNL     1     -28.885  18.935  45.901  1.00  0.00     0.012 A 
ATOM     22  C   UNL     1     -26.095  18.942  45.599  1.00  0.00     0.161 A 
ATOM     23  C   UNL     1     -28.059  18.907  47.025  1.00  0.00     0.051 A 
ATOM     24  C   UNL     1     -26.667  18.906  46.879  1.00  0.00     0.157 A 
BRANCH  22  25
ATOM     25  O   UNL     1     -24.695  18.952  45.494  1.00  0.00    -0.493 OA
ATOM     26  C   UNL     1     -23.806  19.162  46.587  1.00  0.00     0.278 C 
ENDBRANCH  22  25
BRANCH  24  27
ATOM     27  O   UNL     1     -25.843  18.876  48.002  1.00  0.00    -0.504 OA
ATOM     28  H   UNL     1     -25.686  19.704  48.567  1.00  0.00     0.293 HD
ENDBRANCH  24  27
ENDBRANCH  18  19
ENDBRANCH  15  17
ENDBRANCH   1  15
TORSDOF 10
ENDMDL
MODEL 2
REMARK VINA RESULT:     0.298      1.897      4.623
REMARK INTER + INTRA:           2.016
REMARK INTER:                   0.762
REMARK INTRA:                   1.254
REMARK UNBOUND:                 1.561
REMARK SMILES COc1cc(C=CCOC(=O)C=Cc2ccc(O)c(OC)c2)ccc1O
REMARK SMILES IDX 9 1 8 2 7 3 6 4 5 5 3 6 25 7 4 8 24 9 23 10 2 11 1 12 26 13
REMARK SMILES IDX 10 15 11 16 12 17 13 18 14 19 22 20 15 21 19 22 16 23 17 24
REMARK SMILES IDX 20 25 21 26 18 27
REMARK H PARENT 26 14 18 28
REMARK Flexibility Score: inf
ROOT
ATOM      1  O   UNL     1     -28.099  20.604  46.965  1.00  0.00    -0.458 OA
ENDROOT
BRANCH   1   2
ATOM      2  C   UNL     1     -29.439  20.753  47.438  1.00  0.00     0.261 C 
BRANCH   2   3
ATOM      3  C   UNL     1     -29.464  20.851  48.937  1.00  0.00     0.015 C 
ATOM      4  C   UNL     1     -28.954  21.916  49.568  1.00  0.00     0.007 C 
BRANCH   4   5
ATOM      5  C   UNL     1     -28.794  22.005  51.040  1.00  0.00    -0.022 A 
ATOM      6  C   UNL     1     -27.790  21.303  53.160  1.00  0.00     0.161 A 
ATOM      7  C   UNL     1     -28.519  22.297  53.827  1.00  0.00     0.157 A 
ATOM      8  C   UNL     1     -27.938  21.154  51.766  1.00  0.00     0.058 A 
ATOM      9  C   UNL     1     -29.385  23.132  53.111  1.00  0.00     0.051 A 
ATOM     10  C   UNL     1     -29.525  22.984  51.731  1.00  0.00     0.012 A 
BRANCH   6  11
ATOM     11  O   UNL     1     -26.931  20.487  53.914  1.00  0.00    -0.493 OA
ATOM     12  C   UNL     1     -26.342  19.281  53.439  1.00  0.00     0.278 C 
ENDBRANCH   6  11
BRANCH   7  13
ATOM     13  O   UNL     1     -28.377  22.449  55.205  1.00  0.00    -0.504 OA
ATOM     14  H   UNL     1     -27.553  22.877  55.610  1.00  0.00     0.293 HD
ENDBRANCH   7  13
ENDBRANCH   4   5
ENDBRANCH   2   3
ENDBRANCH   1   2
BRANCH   1  15
ATOM     15  C   UNL     1     -27.761  19.788  45.880  1.00  0.00     0.331 C 
ATOM     16  O   UNL     1     -26.580  19.775  45.432  1.00  0.00    -0.247 OA
BRANCH  15  17
ATOM     17  C   UNL     1     -28.797  18.945  45.265  1.00  0.00     0.094 C 
ATOM     18  C   UNL     1     -29.607  19.350  44.275  1.00  0.00     0.016 C 
BRANCH  18  19
ATOM     19  C   UNL     1     -29.718  20.746  43.796  1.00  0.00    -0.021 A 
ATOM     20  C   UNL     1     -29.620  21.015  42.423  1.00  0.00     0.058 A 
ATOM     21  C   UNL     1     -29.998  21.798  44.684  1.00  0.00     0.012 A 
ATOM     22  C   UNL     1     -29.748  22.333  41.941  1.00  0.00     0.161 A 
ATOM     23  C   UNL     1     -30.123  23.105  44.212  1.00  0.00     0.051 A 
ATOM     24  C   UNL     1     -29.995  23.377  42.845  1.00  0.00     0.157 A 
BRANCH  22  25
ATOM     25  O   UNL     1     -29.638  22.645  40.576  1.00  0.00    -0.493 OA
ATOM     26  C   UNL     1     -29.842  23.943  40.027  1.00  0.00     0.278 C 
ENDBRANCH  22  25
BRANCH  24  27
ATOM     27  O   UNL     1     -30.118  24.683  42.375  1.00  0.00    -0.504 OA
ATOM     28  H   UNL     1     -29.975  24.910  41.398  1.00  0.00     0.293 HD
ENDBRANCH  24  27
ENDBRANCH  18  19
ENDBRANCH  15  17
ENDBRANCH   1  15
TORSDOF 10
ENDMDL
