MODEL 1
REMARK VINA RESULT:    -3.482      0.000      0.000
REMARK INTER + INTRA:          -5.601
REMARK INTER:                  -4.906
REMARK INTRA:                  -0.694
REMARK UNBOUND:                -0.694
REMARK SMILES CC(=O)OCC[C@H](C)CCC=C(C)C
REMARK SMILES IDX 8 1 7 2 9 3 10 4 11 5 12 6 13 7 14 8 6 9 5 10 4 11 2 12 3 13
REMARK SMILES IDX 1 14
REMARK H PARENT
REMARK Flexibility Score: inf
ROOT
ATOM      1  C   UNL     1      20.974  35.642  38.462  1.00  0.00     0.008 C 
ATOM      2  C   UNL     1      20.734  34.273  39.121  1.00  0.00    -0.011 C 
ENDROOT
BRANCH   2   3
ATOM      3  C   UNL     1      22.016  33.720  39.789  1.00  0.00     0.007 C 
BRANCH   3   4
ATOM      4  C   UNL     1      22.146  34.153  41.257  1.00  0.00     0.027 C 
BRANCH   4   5
ATOM      5  C   UNL     1      22.960  35.419  41.370  1.00  0.00    -0.028 C 
ATOM      6  C   UNL     1      22.937  36.250  42.436  1.00  0.00    -0.080 C 
ATOM      7  C   UNL     1      23.776  37.501  42.388  1.00  0.00     0.039 C 
ATOM      8  C   UNL     1      22.115  35.950  43.667  1.00  0.00     0.039 C 
ENDBRANCH   4   5
ENDBRANCH   3   4
ENDBRANCH   2   3
BRANCH   2   9
ATOM      9  C   UNL     1      20.125  33.260  38.121  1.00  0.00     0.045 C 
BRANCH   9  10
ATOM     10  C   UNL     1      18.895  32.504  38.651  1.00  0.00     0.233 C 
BRANCH  10  11
ATOM     11  O   UNL     1      18.256  33.257  39.680  1.00  0.00    -0.466 OA
BRANCH  11  12
ATOM     12  C   UNL     1      17.883  32.713  40.915  1.00  0.00     0.302 C 
ATOM     13  O   UNL     1      16.668  32.536  41.202  1.00  0.00    -0.253 OA
ATOM     14  C   UNL     1      18.939  32.285  41.876  1.00  0.00     0.139 C 
ENDBRANCH  11  12
ENDBRANCH  10  11
ENDBRANCH   9  10
ENDBRANCH   2   9
TORSDOF 7
ENDMDL
MODEL 2
REMARK VINA RESULT:    -3.387      2.517      5.267
REMARK INTER + INTRA:          -5.467
REMARK INTER:                  -4.672
REMARK INTRA:                  -0.795
REMARK UNBOUND:                -0.694
REMARK SMILES CC(=O)OCC[C@H](C)CCC=C(C)C
REMARK SMILES IDX 8 1 7 2 9 3 10 4 11 5 12 6 13 7 14 8 6 9 5 10 4 11 2 12 3 13
REMARK SMILES IDX 1 14
REMARK H PARENT
REMARK Flexibility Score: inf
ROOT
ATOM      1  C   UNL     1      21.355  36.109  38.889  1.00  0.00     0.008 C 
ATOM      2  C   UNL     1      21.593  34.589  38.910  1.00  0.00    -0.011 C 
ENDROOT
BRANCH   2   3
ATOM      3  C   UNL     1      20.417  33.812  38.272  1.00  0.00     0.007 C 
BRANCH   3   4
ATOM      4  C   UNL     1      19.988  32.601  39.114  1.00  0.00     0.027 C 
BRANCH   4   5
ATOM      5  C   UNL     1      18.537  32.714  39.511  1.00  0.00    -0.028 C 
ATOM      6  C   UNL     1      18.075  32.557  40.771  1.00  0.00    -0.080 C 
ATOM      7  C   UNL     1      16.590  32.660  41.010  1.00  0.00     0.039 C 
ATOM      8  C   UNL     1      19.000  32.303  41.938  1.00  0.00     0.039 C 
ENDBRANCH   4   5
ENDBRANCH   3   4
ENDBRANCH   2   3
BRANCH   2   9
ATOM      9  C   UNL     1      21.908  34.084  40.339  1.00  0.00     0.045 C 
BRANCH   9  10
ATOM     10  C   UNL     1      23.308  34.461  40.853  1.00  0.00     0.233 C 
BRANCH  10  11
ATOM     11  O   UNL     1      23.258  34.767  42.245  1.00  0.00    -0.466 OA
BRANCH  11  12
ATOM     12  C   UNL     1      22.733  35.962  42.752  1.00  0.00     0.302 C 
ATOM     13  O   UNL     1      22.026  35.965  43.796  1.00  0.00    -0.253 OA
ATOM     14  C   UNL     1      23.061  37.251  42.080  1.00  0.00     0.139 C 
ENDBRANCH  11  12
ENDBRANCH  10  11
ENDBRANCH   9  10
ENDBRANCH   2   9
TORSDOF 7
ENDMDL
MODEL 3
REMARK VINA RESULT:    -3.259      2.772      4.369
REMARK INTER + INTRA:          -5.287
REMARK INTER:                  -4.950
REMARK INTRA:                  -0.338
REMARK UNBOUND:                -0.694
REMARK SMILES CC(=O)OCC[C@H](C)CCC=C(C)C
REMARK SMILES IDX 8 1 7 2 9 3 10 4 11 5 12 6 13 7 14 8 6 9 5 10 4 11 2 12 3 13
REMARK SMILES IDX 1 14
REMARK H PARENT
REMARK Flexibility Score: inf
ROOT
ATOM      1  C   UNL     1      17.428  32.203  38.667  1.00  0.00     0.008 C 
ATOM      2  C   UNL     1      17.210  32.836  40.053  1.00  0.00    -0.011 C 
ENDROOT
BRANCH   2   3
ATOM      3  C   UNL     1      18.536  33.333  40.676  1.00  0.00     0.007 C 
BRANCH   3   4
ATOM      4  C   UNL     1      19.737  33.133  39.738  1.00  0.00     0.027 C 
BRANCH   4   5
ATOM      5  C   UNL     1      21.016  33.567  40.410  1.00  0.00    -0.028 C 
ATOM      6  C   UNL     1      21.773  34.613  40.009  1.00  0.00    -0.080 C 
ATOM      7  C   UNL     1      23.049  34.904  40.755  1.00  0.00     0.039 C 
ATOM      8  C   UNL     1      21.366  35.500  38.856  1.00  0.00     0.039 C 
ENDBRANCH   4   5
ENDBRANCH   3   4
ENDBRANCH   2   3
BRANCH   2   9
ATOM      9  C   UNL     1      16.453  31.875  41.003  1.00  0.00     0.045 C 
BRANCH   9  10
ATOM     10  C   UNL     1      14.921  31.954  40.898  1.00  0.00     0.233 C 
BRANCH  10  11
ATOM     11  O   UNL     1      14.410  32.909  41.826  1.00  0.00    -0.466 OA
BRANCH  11  12
ATOM     12  C   UNL     1      13.050  33.031  42.135  1.00  0.00     0.302 C 
ATOM     13  O   UNL     1      12.165  32.692  41.302  1.00  0.00    -0.253 OA
ATOM     14  C   UNL     1      12.645  33.514  43.485  1.00  0.00     0.139 C 
ENDBRANCH  11  12
ENDBRANCH  10  11
ENDBRANCH   9  10
ENDBRANCH   2   9
TORSDOF 7
ENDMDL
MODEL 4
REMARK VINA RESULT:    -3.252      1.287      2.278
REMARK INTER + INTRA:          -5.277
REMARK INTER:                  -4.502
REMARK INTRA:                  -0.775
REMARK UNBOUND:                -0.694
REMARK SMILES CC(=O)OCC[C@H](C)CCC=C(C)C
REMARK SMILES IDX 8 1 7 2 9 3 10 4 11 5 12 6 13 7 14 8 6 9 5 10 4 11 2 12 3 13
REMARK SMILES IDX 1 14
REMARK H PARENT
REMARK Flexibility Score: inf
ROOT
ATOM      1  C   UNL     1      21.549  34.409  39.677  1.00  0.00     0.008 C 
ATOM      2  C   UNL     1      21.684  33.955  41.141  1.00  0.00    -0.011 C 
ENDROOT
BRANCH   2   3
ATOM      3  C   UNL     1      23.164  33.822  41.571  1.00  0.00     0.007 C 
BRANCH   3   4
ATOM      4  C   UNL     1      23.484  34.637  42.833  1.00  0.00     0.027 C 
BRANCH   4   5
ATOM      5  C   UNL     1      22.555  35.820  42.954  1.00  0.00    -0.028 C 
ATOM      6  C   UNL     1      22.884  37.087  42.618  1.00  0.00    -0.080 C 
ATOM      7  C   UNL     1      21.863  38.174  42.833  1.00  0.00     0.039 C 
ATOM      8  C   UNL     1      24.228  37.435  42.022  1.00  0.00     0.039 C 
ENDBRANCH   4   5
ENDBRANCH   3   4
ENDBRANCH   2   3
BRANCH   2   9
ATOM      9  C   UNL     1      20.889  32.652  41.406  1.00  0.00     0.045 C 
BRANCH   9  10
ATOM     10  C   UNL     1      19.521  32.867  42.075  1.00  0.00     0.233 C 
BRANCH  10  11
ATOM     11  O   UNL     1      18.559  31.963  41.535  1.00  0.00    -0.466 OA
BRANCH  11  12
ATOM     12  C   UNL     1      17.526  32.359  40.677  1.00  0.00     0.302 C 
ATOM     13  O   UNL     1      16.369  32.587  41.122  1.00  0.00    -0.253 OA
ATOM     14  C   UNL     1      17.814  32.570  39.230  1.00  0.00     0.139 C 
ENDBRANCH  11  12
ENDBRANCH  10  11
ENDBRANCH   9  10
ENDBRANCH   2   9
TORSDOF 7
ENDMDL
MODEL 5
REMARK VINA RESULT:    -3.207      2.926      5.732
REMARK INTER + INTRA:          -5.213
REMARK INTER:                  -4.369
REMARK INTRA:                  -0.844
REMARK UNBOUND:                -0.694
REMARK SMILES CC(=O)OCC[C@H](C)CCC=C(C)C
REMARK SMILES IDX 8 1 7 2 9 3 10 4 11 5 12 6 13 7 14 8 6 9 5 10 4 11 2 12 3 13
REMARK SMILES IDX 1 14
REMARK H PARENT
REMARK Flexibility Score: inf
ROOT
ATOM      1  C   UNL     1      21.487  34.988  39.381  1.00  0.00     0.008 C 
ATOM      2  C   UNL     1      21.855  33.667  40.078  1.00  0.00    -0.011 C 
ENDROOT
BRANCH   2   3
ATOM      3  C   UNL     1      20.957  33.392  41.308  1.00  0.00     0.007 C 
BRANCH   3   4
ATOM      4  C   UNL     1      20.191  32.066  41.191  1.00  0.00     0.027 C 
BRANCH   4   5
ATOM      5  C   UNL     1      18.734  32.260  41.531  1.00  0.00    -0.028 C 
ATOM      6  C   UNL     1      17.762  32.495  40.622  1.00  0.00    -0.080 C 
ATOM      7  C   UNL     1      16.354  32.709  41.115  1.00  0.00     0.039 C 
ATOM      8  C   UNL     1      18.044  32.529  39.138  1.00  0.00     0.039 C 
ENDBRANCH   4   5
ENDBRANCH   3   4
ENDBRANCH   2   3
BRANCH   2   9
ATOM      9  C   UNL     1      23.360  33.617  40.442  1.00  0.00     0.045 C 
BRANCH   9  10
ATOM     10  C   UNL     1      23.692  34.152  41.845  1.00  0.00     0.233 C 
BRANCH  10  11
ATOM     11  O   UNL     1      23.933  35.556  41.795  1.00  0.00    -0.466 OA
BRANCH  11  12
ATOM     12  C   UNL     1      23.287  36.479  42.628  1.00  0.00     0.302 C 
ATOM     13  O   UNL     1      23.553  37.709  42.557  1.00  0.00    -0.253 OA
ATOM     14  C   UNL     1      22.233  36.004  43.569  1.00  0.00     0.139 C 
ENDBRANCH  11  12
ENDBRANCH  10  11
ENDBRANCH   9  10
ENDBRANCH   2   9
TORSDOF 7
ENDMDL
MODEL 6
REMARK VINA RESULT:    -3.124      1.849      2.474
REMARK INTER + INTRA:          -5.097
REMARK INTER:                  -4.132
REMARK INTRA:                  -0.965
REMARK UNBOUND:                -0.694
REMARK SMILES CC(=O)OCC[C@H](C)CCC=C(C)C
REMARK SMILES IDX 8 1 7 2 9 3 10 4 11 5 12 6 13 7 14 8 6 9 5 10 4 11 2 12 3 13
REMARK SMILES IDX 1 14
REMARK H PARENT
REMARK Flexibility Score: inf
ROOT
ATOM      1  C   UNL     1      21.039  33.265  41.339  1.00  0.00     0.008 C 
ATOM      2  C   UNL     1      21.889  33.505  40.079  1.00  0.00    -0.011 C 
ENDROOT
BRANCH   2   3
ATOM      3  C   UNL     1      23.401  33.562  40.404  1.00  0.00     0.007 C 
BRANCH   3   4
ATOM      4  C   UNL     1      23.675  34.000  41.851  1.00  0.00     0.027 C 
BRANCH   4   5
ATOM      5  C   UNL     1      24.011  35.470  41.908  1.00  0.00    -0.028 C 
ATOM      6  C   UNL     1      23.338  36.380  42.647  1.00  0.00    -0.080 C 
ATOM      7  C   UNL     1      23.766  37.823  42.572  1.00  0.00     0.039 C 
ATOM      8  C   UNL     1      22.193  35.989  43.550  1.00  0.00     0.039 C 
ENDBRANCH   4   5
ENDBRANCH   3   4
ENDBRANCH   2   3
BRANCH   2   9
ATOM      9  C   UNL     1      21.419  34.764  39.310  1.00  0.00     0.045 C 
BRANCH   9  10
ATOM     10  C   UNL     1      20.730  34.469  37.967  1.00  0.00     0.233 C 
BRANCH  10  11
ATOM     11  O   UNL     1      20.281  33.116  37.929  1.00  0.00    -0.466 OA
BRANCH  11  12
ATOM     12  C   UNL     1      18.930  32.755  37.846  1.00  0.00     0.302 C 
ATOM     13  O   UNL     1      18.382  32.558  36.729  1.00  0.00    -0.253 OA
ATOM     14  C   UNL     1      18.149  32.546  39.099  1.00  0.00     0.139 C 
ENDBRANCH  11  12
ENDBRANCH  10  11
ENDBRANCH   9  10
ENDBRANCH   2   9
TORSDOF 7
ENDMDL
MODEL 7
REMARK VINA RESULT:    -3.118      2.171      3.566
REMARK INTER + INTRA:          -5.088
REMARK INTER:                  -4.080
REMARK INTRA:                  -1.008
REMARK UNBOUND:                -0.694
REMARK SMILES CC(=O)OCC[C@H](C)CCC=C(C)C
REMARK SMILES IDX 8 1 7 2 9 3 10 4 11 5 12 6 13 7 14 8 6 9 5 10 4 11 2 12 3 13
REMARK SMILES IDX 1 14
REMARK H PARENT
REMARK Flexibility Score: inf
ROOT
ATOM      1  C   UNL     1      24.281  33.382  40.162  1.00  0.00     0.008 C 
ATOM      2  C   UNL     1      23.263  33.576  41.299  1.00  0.00    -0.011 C 
ENDROOT
BRANCH   2   3
ATOM      3  C   UNL     1      23.911  33.393  42.692  1.00  0.00     0.007 C 
BRANCH   3   4
ATOM      4  C   UNL     1      24.326  34.729  43.326  1.00  0.00     0.027 C 
BRANCH   4   5
ATOM      5  C   UNL     1      23.218  35.745  43.203  1.00  0.00    -0.028 C 
ATOM      6  C   UNL     1      23.360  36.967  42.642  1.00  0.00    -0.080 C 
ATOM      7  C   UNL     1      22.171  37.893  42.626  1.00  0.00     0.039 C 
ATOM      8  C   UNL     1      24.662  37.417  42.021  1.00  0.00     0.039 C 
ENDBRANCH   4   5
ENDBRANCH   3   4
ENDBRANCH   2   3
BRANCH   2   9
ATOM      9  C   UNL     1      22.027  32.661  41.115  1.00  0.00     0.045 C 
BRANCH   9  10
ATOM     10  C   UNL     1      20.793  33.369  40.531  1.00  0.00     0.233 C 
BRANCH  10  11
ATOM     11  O   UNL     1      20.840  33.350  39.106  1.00  0.00    -0.466 OA
BRANCH  11  12
ATOM     12  C   UNL     1      20.847  34.510  38.320  1.00  0.00     0.302 C 
ATOM     13  O   UNL     1      20.361  34.504  37.157  1.00  0.00    -0.253 OA
ATOM     14  C   UNL     1      21.384  35.778  38.889  1.00  0.00     0.139 C 
ENDBRANCH  11  12
ENDBRANCH  10  11
ENDBRANCH   9  10
ENDBRANCH   2   9
TORSDOF 7
ENDMDL
MODEL 8
REMARK VINA RESULT:    -3.054      2.718      6.270
REMARK INTER + INTRA:          -4.998
REMARK INTER:                  -4.382
REMARK INTRA:                  -0.617
REMARK UNBOUND:                -0.694
REMARK SMILES CC(=O)OCC[C@H](C)CCC=C(C)C
REMARK SMILES IDX 8 1 7 2 9 3 10 4 11 5 12 6 13 7 14 8 6 9 5 10 4 11 2 12 3 13
REMARK SMILES IDX 1 14
REMARK H PARENT
REMARK Flexibility Score: inf
ROOT
ATOM      1  C   UNL     1      20.684  34.674  38.474  1.00  0.00     0.008 C 
ATOM      2  C   UNL     1      20.519  33.575  39.538  1.00  0.00    -0.011 C 
ENDROOT
BRANCH   2   3
ATOM      3  C   UNL     1      19.033  33.326  39.887  1.00  0.00     0.007 C 
BRANCH   3   4
ATOM      4  C   UNL     1      18.494  32.027  39.268  1.00  0.00     0.027 C 
BRANCH   4   5
ATOM      5  C   UNL     1      17.336  32.316  38.345  1.00  0.00    -0.028 C 
ATOM      6  C   UNL     1      17.440  32.433  37.003  1.00  0.00    -0.080 C 
ATOM      7  C   UNL     1      16.200  32.765  36.213  1.00  0.00     0.039 C 
ATOM      8  C   UNL     1      18.749  32.224  36.279  1.00  0.00     0.039 C 
ENDBRANCH   4   5
ENDBRANCH   3   4
ENDBRANCH   2   3
BRANCH   2   9
ATOM      9  C   UNL     1      21.364  33.877  40.801  1.00  0.00     0.045 C 
BRANCH   9  10
ATOM     10  C   UNL     1      22.503  34.886  40.578  1.00  0.00     0.233 C 
BRANCH  10  11
ATOM     11  O   UNL     1      23.172  35.156  41.808  1.00  0.00    -0.466 OA
BRANCH  11  12
ATOM     12  C   UNL     1      22.758  36.145  42.709  1.00  0.00     0.302 C 
ATOM     13  O   UNL     1      22.098  35.843  43.740  1.00  0.00    -0.253 OA
ATOM     14  C   UNL     1      23.152  37.563  42.474  1.00  0.00     0.139 C 
ENDBRANCH  11  12
ENDBRANCH  10  11
ENDBRANCH   9  10
ENDBRANCH   2   9
TORSDOF 7
ENDMDL
MODEL 9
REMARK VINA RESULT:    -2.978      2.100      4.780
REMARK INTER + INTRA:          -4.890
REMARK INTER:                  -3.913
REMARK INTRA:                  -0.977
REMARK UNBOUND:                -0.694
REMARK SMILES CC(=O)OCC[C@H](C)CCC=C(C)C
REMARK SMILES IDX 8 1 7 2 9 3 10 4 11 5 12 6 13 7 14 8 6 9 5 10 4 11 2 12 3 13
REMARK SMILES IDX 1 14
REMARK H PARENT
REMARK Flexibility Score: inf
ROOT
ATOM      1  C   UNL     1      17.228  32.918  40.768  1.00  0.00     0.008 C 
ATOM      2  C   UNL     1      18.747  32.898  40.524  1.00  0.00    -0.011 C 
ENDROOT
BRANCH   2   3
ATOM      3  C   UNL     1      19.144  31.875  39.433  1.00  0.00     0.007 C 
BRANCH   3   4
ATOM      4  C   UNL     1      19.474  32.546  38.091  1.00  0.00     0.027 C 
BRANCH   4   5
ATOM      5  C   UNL     1      19.898  33.979  38.301  1.00  0.00    -0.028 C 
ATOM      6  C   UNL     1      21.182  34.390  38.397  1.00  0.00    -0.080 C 
ATOM      7  C   UNL     1      21.451  35.851  38.648  1.00  0.00     0.039 C 
ATOM      8  C   UNL     1      22.342  33.435  38.241  1.00  0.00     0.039 C 
ENDBRANCH   4   5
ENDBRANCH   3   4
ENDBRANCH   2   3
BRANCH   2   9
ATOM      9  C   UNL     1      19.531  32.667  41.840  1.00  0.00     0.045 C 
BRANCH   9  10
ATOM     10  C   UNL     1      21.052  32.852  41.715  1.00  0.00     0.233 C 
BRANCH  10  11
ATOM     11  O   UNL     1      21.385  34.238  41.727  1.00  0.00    -0.466 OA
BRANCH  11  12
ATOM     12  C   UNL     1      22.632  34.727  42.134  1.00  0.00     0.302 C 
ATOM     13  O   UNL     1      23.680  34.437  41.495  1.00  0.00    -0.253 OA
ATOM     14  C   UNL     1      22.713  35.649  43.303  1.00  0.00     0.139 C 
ENDBRANCH  11  12
ENDBRANCH  10  11
ENDBRANCH   9  10
ENDBRANCH   2   9
TORSDOF 7
ENDMDL
