MODEL 1
REMARK VINA RESULT:     3.401      0.000      0.000
REMARK INTER + INTRA:          11.168
REMARK INTER:                   5.190
REMARK INTRA:                   5.978
REMARK UNBOUND:                 5.978
REMARK SMILES CC1=CCC[C@H](C)C(=O)C[C@H](C(C)C)C(=O)C1
REMARK SMILES IDX 8 1 9 2 6 3 7 4 5 5 4 6 3 7 2 8 1 9 10 11 11 12 15 13 16 14
REMARK SMILES IDX 17 15 12 17 13 18 14 19
REMARK H PARENT
REMARK Flexibility Score: 70.00
ROOT
ATOM      1  C   UNL     1      -8.163 -22.202  23.840  1.00  0.00     0.136 C 
ATOM      2  O   UNL     1      -8.167 -21.059  24.276  1.00  0.00    -0.299 OA
ENDROOT
BRANCH   1   3
ATOM      3  C   UNL     1      -8.735 -23.303  24.716  1.00  0.00     0.053 C 
ATOM      4  C   UNL     1      -7.670 -24.158  25.425  1.00  0.00     0.016 C 
BRANCH   3   5
ATOM      5  C   UNL     1      -9.788 -22.754  25.703  1.00  0.00     0.015 C 
BRANCH   5   6
ATOM      6  C   UNL     1     -11.125 -22.334  25.049  1.00  0.00     0.028 C 
BRANCH   6   7
ATOM      7  C   UNL     1     -10.897 -21.570  23.764  1.00  0.00    -0.028 C 
ATOM      8  C   UNL     1     -10.637 -22.088  22.539  1.00  0.00    -0.070 CG0
ATOM      9  C   UNL     1     -10.413 -21.114  21.407  1.00  0.00     0.039 C 
ATOM     10  G   UNL     1     -10.581 -23.572  22.222  1.00  0.00     0.000 G0
ENDBRANCH   6   7
ENDBRANCH   5   6
ENDBRANCH   3   5
ENDBRANCH   1   3
BRANCH   1  11
ATOM     11  C   UNL     1      -7.662 -22.463  22.432  1.00  0.00     0.087 C 
BRANCH  11  12
ATOM     12  C   UNL     1      -7.980 -23.889  21.919  1.00  0.00     0.066 C 
BRANCH  12  13
ATOM     13  C   UNL     1      -9.418 -24.053  21.444  1.00  0.00     0.140 C 
ATOM     14  O   UNL     1      -9.611 -24.585  20.360  1.00  0.00    -0.299 OA
BRANCH  13  15
ATOM     15  C   UNL     1     -10.611 -23.528  22.211  1.00  0.00     0.106 CG0
ATOM     16  G   UNL     1     -10.328 -22.154  22.793  1.00  0.00     0.000 G0
ENDBRANCH  13  15
ENDBRANCH  12  13
BRANCH  12  17
ATOM     17  C   UNL     1      -6.930 -24.394  20.882  1.00  0.00    -0.006 C 
ATOM     18  C   UNL     1      -5.978 -23.302  20.365  1.00  0.00     0.008 C 
ATOM     19  C   UNL     1      -7.610 -25.095  19.695  1.00  0.00     0.008 C 
ENDBRANCH  12  17
ENDBRANCH  11  12
ENDBRANCH   1  11
TORSDOF 1
ENDMDL
