MODEL 1
REMARK VINA RESULT:     0.248      0.000      0.000
REMARK INTER + INTRA:           1.338
REMARK INTER:                   0.429
REMARK INTRA:                   0.909
REMARK UNBOUND:                 0.909
REMARK SMILES OC[C@@H]1O[C@H](O[C@H]2[C@@H](O)[C@@H](O)[C@@H](O[C@H]3[C@@H](O)[C@H](O)[C@H](O)O[C@H]3CO)O[C@H]2CO)[C@H](O)[C@@H](O)[C@@H]1O
REMARK SMILES IDX 7 1 26 2 25 3 12 4 10 5 8 6 6 7 5 8 3 9 33 10 4 11 31 12
REMARK SMILES IDX 29 13 2 14 1 15 34 17 32 19 30 21 27 23 28 24 9 26 11 28
REMARK SMILES IDX 13 30 14 31 22 32 15 33 21 34 17 35 19 36 23 37 24 38 16 40
REMARK SMILES IDX 18 42 20 44
REMARK H PARENT 1 16 34 18 32 20 30 22 28 25 9 27 11 29 24 39 16 41 18 43
REMARK H PARENT 20 45
REMARK Flexibility Score: inf
ROOT
ATOM      1  C   UNL     1      11.848  34.849  34.176  1.00  0.00     0.184 C 
ATOM      2  C   UNL     1      12.168  36.310  34.607  1.00  0.00     0.178 C 
ATOM      3  O   UNL     1      13.548  36.523  34.905  1.00  0.00    -0.341 OA
ATOM      4  C   UNL     1      14.438  36.153  33.862  1.00  0.00     0.282 C 
ATOM      5  C   UNL     1      14.259  34.665  33.509  1.00  0.00     0.202 C 
ATOM      6  C   UNL     1      12.817  34.360  33.074  1.00  0.00     0.180 C 
ENDROOT
BRANCH   1   7
ATOM      7  O   UNL     1      10.495  34.762  33.748  1.00  0.00    -0.341 OA
BRANCH   7   8
ATOM      8  C   UNL     1       9.632  34.338  34.793  1.00  0.00     0.282 C 
ATOM      9  C   UNL     1       7.534  35.134  33.926  1.00  0.00     0.178 C 
ATOM     10  C   UNL     1       7.039  33.688  33.674  1.00  0.00     0.177 C 
ATOM     11  O   UNL     1       8.525  35.223  34.948  1.00  0.00    -0.341 OA
ATOM     12  C   UNL     1       8.214  32.744  33.416  1.00  0.00     0.179 C 
ATOM     13  C   UNL     1       9.201  32.871  34.584  1.00  0.00     0.202 C 
BRANCH   9  14
ATOM     14  C   UNL     1       7.934  35.894  32.647  1.00  0.00     0.191 C 
BRANCH  14  15
ATOM     15  O   UNL     1       7.825  37.272  32.868  1.00  0.00    -0.394 OA
ATOM     16  H   UNL     1       7.299  37.633  32.107  1.00  0.00     0.210 HD
ENDBRANCH  14  15
ENDBRANCH   9  14
BRANCH  10  17
ATOM     17  O   UNL     1       6.143  33.661  32.592  1.00  0.00    -0.387 OA
ATOM     18  H   UNL     1       6.355  34.444  32.019  1.00  0.00     0.211 HD
ENDBRANCH  10  17
BRANCH  12  19
ATOM     19  O   UNL     1       7.742  31.424  33.332  1.00  0.00    -0.387 OA
ATOM     20  H   UNL     1       8.527  30.846  33.141  1.00  0.00     0.211 HD
ENDBRANCH  12  19
BRANCH  13  21
ATOM     21  O   UNL     1      10.322  32.037  34.405  1.00  0.00    -0.385 OA
ATOM     22  H   UNL     1      10.390  31.444  35.198  1.00  0.00     0.211 HD
ENDBRANCH  13  21
ENDBRANCH   7   8
ENDBRANCH   1   7
BRANCH   2  23
ATOM     23  C   UNL     1      11.577  37.400  33.686  1.00  0.00     0.191 C 
BRANCH  23  24
ATOM     24  O   UNL     1      10.266  37.697  34.083  1.00  0.00    -0.394 OA
ATOM     25  H   UNL     1      10.297  37.835  35.065  1.00  0.00     0.210 HD
ENDBRANCH  23  24
ENDBRANCH   2  23
BRANCH   6  26
ATOM     26  O   UNL     1      12.530  34.978  31.845  1.00  0.00    -0.387 OA
ATOM     27  H   UNL     1      12.902  34.397  31.132  1.00  0.00     0.211 HD
ENDBRANCH   6  26
BRANCH   5  28
ATOM     28  O   UNL     1      15.213  34.227  32.575  1.00  0.00    -0.385 OA
ATOM     29  H   UNL     1      15.137  33.246  32.490  1.00  0.00     0.211 HD
ENDBRANCH   5  28
BRANCH   4  30
ATOM     30  O   UNL     1      14.248  37.006  32.737  1.00  0.00    -0.341 OA
BRANCH  30  31
ATOM     31  C   UNL     1      15.143  38.110  32.689  1.00  0.00     0.184 C 
ATOM     32  C   UNL     1      16.142  37.989  31.502  1.00  0.00     0.178 C 
ATOM     33  C   UNL     1      15.990  38.103  33.980  1.00  0.00     0.180 C 
ATOM     34  O   UNL     1      16.857  36.764  31.569  1.00  0.00    -0.342 OA
ATOM     35  C   UNL     1      16.876  36.843  34.021  1.00  0.00     0.201 C 
ATOM     36  C   UNL     1      17.693  36.710  32.716  1.00  0.00     0.279 C 
BRANCH  32  37
ATOM     37  C   UNL     1      15.492  38.123  30.118  1.00  0.00     0.191 C 
BRANCH  37  38
ATOM     38  O   UNL     1      15.172  36.865  29.593  1.00  0.00    -0.394 OA
ATOM     39  H   UNL     1      14.677  37.036  28.750  1.00  0.00     0.210 HD
ENDBRANCH  37  38
ENDBRANCH  32  37
BRANCH  33  40
ATOM     40  O   UNL     1      15.164  38.125  35.113  1.00  0.00    -0.387 OA
ATOM     41  H   UNL     1      15.095  37.188  35.437  1.00  0.00     0.211 HD
ENDBRANCH  33  40
BRANCH  35  42
ATOM     42  O   UNL     1      17.751  36.899  35.119  1.00  0.00    -0.385 OA
ATOM     43  H   UNL     1      18.111  35.982  35.248  1.00  0.00     0.211 HD
ENDBRANCH  35  42
BRANCH  36  44
ATOM     44  O   UNL     1      18.700  37.691  32.635  1.00  0.00    -0.366 OA
ATOM     45  H   UNL     1      18.324  38.454  32.123  1.00  0.00     0.213 HD
ENDBRANCH  36  44
ENDBRANCH  30  31
ENDBRANCH   4  30
TORSDOF 18
ENDMDL
MODEL 2
REMARK VINA RESULT:     0.650      2.231      4.711
REMARK INTER + INTRA:           2.033
REMARK INTER:                  -0.101
REMARK INTRA:                   2.135
REMARK UNBOUND:                 0.909
REMARK SMILES OC[C@@H]1O[C@H](O[C@H]2[C@@H](O)[C@@H](O)[C@@H](O[C@H]3[C@@H](O)[C@H](O)[C@H](O)O[C@H]3CO)O[C@H]2CO)[C@H](O)[C@@H](O)[C@@H]1O
REMARK SMILES IDX 7 1 26 2 25 3 12 4 10 5 8 6 6 7 5 8 3 9 33 10 4 11 31 12
REMARK SMILES IDX 29 13 2 14 1 15 34 17 32 19 30 21 27 23 28 24 9 26 11 28
REMARK SMILES IDX 13 30 14 31 22 32 15 33 21 34 17 35 19 36 23 37 24 38 16 40
REMARK SMILES IDX 18 42 20 44
REMARK H PARENT 1 16 34 18 32 20 30 22 28 25 9 27 11 29 24 39 16 41 18 43
REMARK H PARENT 20 45
REMARK Flexibility Score: inf
ROOT
ATOM      1  C   UNL     1       8.359  34.345  33.134  1.00  0.00     0.184 C 
ATOM      2  C   UNL     1       9.604  33.491  33.508  1.00  0.00     0.178 C 
ATOM      3  O   UNL     1      10.827  34.012  32.987  1.00  0.00    -0.341 OA
ATOM      4  C   UNL     1      11.084  35.364  33.337  1.00  0.00     0.282 C 
ATOM      5  C   UNL     1       9.940  36.270  32.845  1.00  0.00     0.202 C 
ATOM      6  C   UNL     1       8.589  35.843  33.441  1.00  0.00     0.180 C 
ENDROOT
BRANCH   1   7
ATOM      7  O   UNL     1       7.215  33.849  33.817  1.00  0.00    -0.341 OA
BRANCH   7   8
ATOM      8  C   UNL     1       6.043  33.926  33.018  1.00  0.00     0.282 C 
ATOM      9  C   UNL     1       5.840  31.613  32.386  1.00  0.00     0.178 C 
ATOM     10  C   UNL     1       4.571  31.441  33.258  1.00  0.00     0.177 C 
ATOM     11  O   UNL     1       6.062  32.960  31.970  1.00  0.00    -0.341 OA
ATOM     12  C   UNL     1       4.583  32.411  34.440  1.00  0.00     0.179 C 
ATOM     13  C   UNL     1       4.777  33.833  33.896  1.00  0.00     0.202 C 
BRANCH   9  14
ATOM     14  C   UNL     1       7.104  30.963  32.978  1.00  0.00     0.191 C 
BRANCH  14  15
ATOM     15  O   UNL     1       8.209  31.266  32.173  1.00  0.00    -0.394 OA
ATOM     16  H   UNL     1       7.870  31.303  31.241  1.00  0.00     0.210 HD
ENDBRANCH  14  15
ENDBRANCH   9  14
BRANCH  10  17
ATOM     17  O   UNL     1       4.470  30.116  33.713  1.00  0.00    -0.387 OA
ATOM     18  H   UNL     1       5.349  29.683  33.549  1.00  0.00     0.211 HD
ENDBRANCH  10  17
BRANCH  12  19
ATOM     19  O   UNL     1       3.359  32.325  35.124  1.00  0.00    -0.387 OA
ATOM     20  H   UNL     1       3.258  33.167  35.643  1.00  0.00     0.211 HD
ENDBRANCH  12  19
BRANCH  13  21
ATOM     21  O   UNL     1       4.814  34.782  34.935  1.00  0.00    -0.385 OA
ATOM     22  H   UNL     1       4.996  35.670  34.530  1.00  0.00     0.211 HD
ENDBRANCH  13  21
ENDBRANCH   7   8
ENDBRANCH   1   7
BRANCH   2  23
ATOM     23  C   UNL     1       9.701  33.108  35.001  1.00  0.00     0.191 C 
BRANCH  23  24
ATOM     24  O   UNL     1      10.110  31.773  35.125  1.00  0.00    -0.394 OA
ATOM     25  H   UNL     1      10.650  31.572  34.317  1.00  0.00     0.210 HD
ENDBRANCH  23  24
ENDBRANCH   2  23
BRANCH   6  26
ATOM     26  O   UNL     1       8.562  36.080  34.826  1.00  0.00    -0.387 OA
ATOM     27  H   UNL     1       9.140  35.395  35.251  1.00  0.00     0.211 HD
ENDBRANCH   6  26
BRANCH   5  28
ATOM     28  O   UNL     1      10.221  37.632  33.053  1.00  0.00    -0.385 OA
ATOM     29  H   UNL     1      10.808  37.710  33.844  1.00  0.00     0.211 HD
ENDBRANCH   5  28
BRANCH   4  30
ATOM     30  O   UNL     1      11.297  35.470  34.741  1.00  0.00    -0.341 OA
BRANCH  30  31
ATOM     31  C   UNL     1      12.667  35.547  35.116  1.00  0.00     0.184 C 
ATOM     32  C   UNL     1      13.383  36.746  34.431  1.00  0.00     0.178 C 
ATOM     33  C   UNL     1      13.376  34.268  34.621  1.00  0.00     0.180 C 
ATOM     34  O   UNL     1      13.252  36.671  33.019  1.00  0.00    -0.342 OA
ATOM     35  C   UNL     1      13.362  34.221  33.082  1.00  0.00     0.201 C 
ATOM     36  C   UNL     1      13.922  35.535  32.492  1.00  0.00     0.279 C 
BRANCH  32  37
ATOM     37  C   UNL     1      12.906  38.122  34.914  1.00  0.00     0.191 C 
BRANCH  37  38
ATOM     38  O   UNL     1      11.522  38.125  35.125  1.00  0.00    -0.394 OA
ATOM     39  H   UNL     1      11.340  38.871  35.753  1.00  0.00     0.210 HD
ENDBRANCH  37  38
ENDBRANCH  32  37
BRANCH  33  40
ATOM     40  O   UNL     1      12.741  33.123  35.125  1.00  0.00    -0.387 OA
ATOM     41  H   UNL     1      12.211  33.412  35.914  1.00  0.00     0.211 HD
ENDBRANCH  33  40
BRANCH  35  42
ATOM     42  O   UNL     1      14.127  33.136  32.621  1.00  0.00    -0.385 OA
ATOM     43  H   UNL     1      14.555  32.726  33.418  1.00  0.00     0.211 HD
ENDBRANCH  35  42
BRANCH  36  44
ATOM     44  O   UNL     1      15.310  35.645  32.701  1.00  0.00    -0.366 OA
ATOM     45  H   UNL     1      15.451  35.749  33.679  1.00  0.00     0.213 HD
ENDBRANCH  36  44
ENDBRANCH  30  31
ENDBRANCH   4  30
TORSDOF 18
ENDMDL
MODEL 3
REMARK VINA RESULT:     0.989      1.441      7.942
REMARK INTER + INTRA:           2.621
REMARK INTER:                  -0.863
REMARK INTRA:                   3.483
REMARK UNBOUND:                 0.909
REMARK SMILES OC[C@@H]1O[C@H](O[C@H]2[C@@H](O)[C@@H](O)[C@@H](O[C@H]3[C@@H](O)[C@H](O)[C@H](O)O[C@H]3CO)O[C@H]2CO)[C@H](O)[C@@H](O)[C@@H]1O
REMARK SMILES IDX 7 1 26 2 25 3 12 4 10 5 8 6 6 7 5 8 3 9 33 10 4 11 31 12
REMARK SMILES IDX 29 13 2 14 1 15 34 17 32 19 30 21 27 23 28 24 9 26 11 28
REMARK SMILES IDX 13 30 14 31 22 32 15 33 21 34 17 35 19 36 23 37 24 38 16 40
REMARK SMILES IDX 18 42 20 44
REMARK H PARENT 1 16 34 18 32 20 30 22 28 25 9 27 11 29 24 39 16 41 18 43
REMARK H PARENT 20 45
REMARK Flexibility Score: inf
ROOT
ATOM      1  C   UNL     1      13.154  36.583  32.495  1.00  0.00     0.184 C 
ATOM      2  C   UNL     1      12.378  37.399  33.569  1.00  0.00     0.178 C 
ATOM      3  O   UNL     1      10.968  37.434  33.346  1.00  0.00    -0.341 OA
ATOM      4  C   UNL     1      10.362  36.155  33.224  1.00  0.00     0.282 C 
ATOM      5  C   UNL     1      11.001  35.370  32.063  1.00  0.00     0.202 C 
ATOM      6  C   UNL     1      12.514  35.193  32.270  1.00  0.00     0.180 C 
ENDROOT
BRANCH   1   7
ATOM      7  O   UNL     1      14.519  36.467  32.875  1.00  0.00    -0.341 OA
BRANCH   7   8
ATOM      8  C   UNL     1      15.259  37.638  32.565  1.00  0.00     0.282 C 
ATOM      9  C   UNL     1      17.107  37.353  34.079  1.00  0.00     0.178 C 
ATOM     10  C   UNL     1      18.084  37.089  32.907  1.00  0.00     0.177 C 
ATOM     11  O   UNL     1      15.967  38.125  33.703  1.00  0.00    -0.341 OA
ATOM     12  C   UNL     1      17.352  36.481  31.710  1.00  0.00     0.179 C 
ATOM     13  C   UNL     1      16.176  37.398  31.347  1.00  0.00     0.202 C 
BRANCH   9  14
ATOM     14  C   UNL     1      16.729  36.093  34.880  1.00  0.00     0.191 C 
BRANCH  14  15
ATOM     15  O   UNL     1      15.350  36.089  35.124  1.00  0.00    -0.394 OA
ATOM     16  H   UNL     1      15.152  35.232  35.583  1.00  0.00     0.210 HD
ENDBRANCH  14  15
ENDBRANCH   9  14
BRANCH  10  17
ATOM     17  O   UNL     1      19.126  36.243  33.323  1.00  0.00    -0.387 OA
ATOM     18  H   UNL     1      19.909  36.439  32.744  1.00  0.00     0.211 HD
ENDBRANCH  10  17
BRANCH  12  19
ATOM     19  O   UNL     1      18.236  36.386  30.623  1.00  0.00    -0.387 OA
ATOM     20  H   UNL     1      18.611  35.466  30.633  1.00  0.00     0.211 HD
ENDBRANCH  12  19
BRANCH  13  21
ATOM     21  O   UNL     1      15.444  36.891  30.257  1.00  0.00    -0.385 OA
ATOM     22  H   UNL     1      15.725  35.949  30.113  1.00  0.00     0.211 HD
ENDBRANCH  13  21
ENDBRANCH   7   8
ENDBRANCH   1   7
BRANCH   2  23
ATOM     23  C   UNL     1      12.748  37.059  35.030  1.00  0.00     0.191 C 
BRANCH  23  24
ATOM     24  O   UNL     1      13.301  35.773  35.094  1.00  0.00    -0.394 OA
ATOM     25  H   UNL     1      12.540  35.140  35.020  1.00  0.00     0.210 HD
ENDBRANCH  23  24
ENDBRANCH   2  23
BRANCH   6  26
ATOM     26  O   UNL     1      12.768  34.343  33.360  1.00  0.00    -0.387 OA
ATOM     27  H   UNL     1      13.753  34.268  33.449  1.00  0.00     0.211 HD
ENDBRANCH   6  26
BRANCH   5  28
ATOM     28  O   UNL     1      10.339  34.154  31.823  1.00  0.00    -0.385 OA
ATOM     29  H   UNL     1       9.489  34.349  31.360  1.00  0.00     0.211 HD
ENDBRANCH   5  28
BRANCH   4  30
ATOM     30  O   UNL     1      10.444  35.458  34.463  1.00  0.00    -0.341 OA
BRANCH  30  31
ATOM     31  C   UNL     1       9.194  35.303  35.124  1.00  0.00     0.184 C 
ATOM     32  C   UNL     1       8.462  34.007  34.672  1.00  0.00     0.178 C 
ATOM     33  C   UNL     1       8.285  36.485  34.724  1.00  0.00     0.180 C 
ATOM     34  O   UNL     1       8.290  33.991  33.263  1.00  0.00    -0.342 OA
ATOM     35  C   UNL     1       7.974  36.424  33.217  1.00  0.00     0.201 C 
ATOM     36  C   UNL     1       7.426  35.032  32.831  1.00  0.00     0.279 C 
BRANCH  32  37
ATOM     37  C   UNL     1       9.151  32.709  35.115  1.00  0.00     0.191 C 
BRANCH  37  38
ATOM     38  O   UNL     1      10.479  32.673  34.673  1.00  0.00    -0.394 OA
ATOM     39  H   UNL     1      11.042  32.703  35.489  1.00  0.00     0.210 HD
ENDBRANCH  37  38
ENDBRANCH  32  37
BRANCH  33  40
ATOM     40  O   UNL     1       8.906  37.708  35.020  1.00  0.00    -0.387 OA
ATOM     41  H   UNL     1       8.641  38.345  34.305  1.00  0.00     0.211 HD
ENDBRANCH  33  40
BRANCH  35  42
ATOM     42  O   UNL     1       7.036  37.412  32.873  1.00  0.00    -0.385 OA
ATOM     43  H   UNL     1       6.917  37.987  33.673  1.00  0.00     0.211 HD
ENDBRANCH  35  42
BRANCH  36  44
ATOM     44  O   UNL     1       6.126  34.831  33.337  1.00  0.00    -0.366 OA
ATOM     45  H   UNL     1       5.682  35.719  33.362  1.00  0.00     0.213 HD
ENDBRANCH  36  44
ENDBRANCH  30  31
ENDBRANCH   4  30
TORSDOF 18
ENDMDL
MODEL 4
REMARK VINA RESULT:     2.091      1.874      4.197
REMARK INTER + INTRA:           4.529
REMARK INTER:                   3.576
REMARK INTRA:                   0.952
REMARK UNBOUND:                 0.909
REMARK SMILES OC[C@@H]1O[C@H](O[C@H]2[C@@H](O)[C@@H](O)[C@@H](O[C@H]3[C@@H](O)[C@H](O)[C@H](O)O[C@H]3CO)O[C@H]2CO)[C@H](O)[C@@H](O)[C@@H]1O
REMARK SMILES IDX 7 1 26 2 25 3 12 4 10 5 8 6 6 7 5 8 3 9 33 10 4 11 31 12
REMARK SMILES IDX 29 13 2 14 1 15 34 17 32 19 30 21 27 23 28 24 9 26 11 28
REMARK SMILES IDX 13 30 14 31 22 32 15 33 21 34 17 35 19 36 23 37 24 38 16 40
REMARK SMILES IDX 18 42 20 44
REMARK H PARENT 1 16 34 18 32 20 30 22 28 25 9 27 11 29 24 39 16 41 18 43
REMARK H PARENT 20 45
REMARK Flexibility Score: inf
ROOT
ATOM      1  C   UNL     1       9.106  33.549  33.072  1.00  0.00     0.184 C 
ATOM      2  C   UNL     1      10.293  33.599  34.076  1.00  0.00     0.178 C 
ATOM      3  O   UNL     1      11.572  33.524  33.446  1.00  0.00    -0.341 OA
ATOM      4  C   UNL     1      11.789  34.502  32.440  1.00  0.00     0.282 C 
ATOM      5  C   UNL     1      10.716  34.384  31.340  1.00  0.00     0.202 C 
ATOM      6  C   UNL     1       9.302  34.556  31.915  1.00  0.00     0.180 C 
ENDROOT
BRANCH   1   7
ATOM      7  O   UNL     1       7.885  33.787  33.761  1.00  0.00    -0.341 OA
BRANCH   7   8
ATOM      8  C   UNL     1       6.822  34.094  32.870  1.00  0.00     0.282 C 
ATOM      9  C   UNL     1       5.546  32.063  33.057  1.00  0.00     0.178 C 
ATOM     10  C   UNL     1       4.403  32.798  33.801  1.00  0.00     0.177 C 
ATOM     11  O   UNL     1       6.325  32.923  32.226  1.00  0.00    -0.341 OA
ATOM     12  C   UNL     1       4.939  34.006  34.570  1.00  0.00     0.179 C 
ATOM     13  C   UNL     1       5.718  34.895  33.592  1.00  0.00     0.202 C 
BRANCH   9  14
ATOM     14  C   UNL     1       6.415  31.170  33.962  1.00  0.00     0.191 C 
BRANCH  14  15
ATOM     15  O   UNL     1       5.676  30.052  34.367  1.00  0.00    -0.394 OA
ATOM     16  H   UNL     1       6.017  29.805  35.265  1.00  0.00     0.210 HD
ENDBRANCH  14  15
ENDBRANCH   9  14
BRANCH  10  17
ATOM     17  O   UNL     1       3.744  31.915  34.673  1.00  0.00    -0.387 OA
ATOM     18  H   UNL     1       4.240  31.930  35.533  1.00  0.00     0.211 HD
ENDBRANCH  10  17
BRANCH  12  19
ATOM     19  O   UNL     1       3.862  34.726  35.114  1.00  0.00    -0.387 OA
ATOM     20  H   UNL     1       3.418  34.130  35.773  1.00  0.00     0.211 HD
ENDBRANCH  12  19
BRANCH  13  21
ATOM     21  O   UNL     1       6.256  36.024  34.238  1.00  0.00    -0.385 OA
ATOM     22  H   UNL     1       7.180  36.157  33.900  1.00  0.00     0.211 HD
ENDBRANCH  13  21
ENDBRANCH   7   8
ENDBRANCH   1   7
BRANCH   2  23
ATOM     23  C   UNL     1      10.205  34.729  35.125  1.00  0.00     0.191 C 
BRANCH  23  24
ATOM     24  O   UNL     1       9.113  35.561  34.838  1.00  0.00    -0.394 OA
ATOM     25  H   UNL     1       8.430  35.371  35.532  1.00  0.00     0.210 HD
ENDBRANCH  23  24
ENDBRANCH   2  23
BRANCH   6  26
ATOM     26  O   UNL     1       9.105  35.875  32.360  1.00  0.00    -0.387 OA
ATOM     27  H   UNL     1       8.142  36.081  32.246  1.00  0.00     0.211 HD
ENDBRANCH   6  26
BRANCH   5  28
ATOM     28  O   UNL     1      10.974  35.246  30.260  1.00  0.00    -0.385 OA
ATOM     29  H   UNL     1      10.109  35.563  29.903  1.00  0.00     0.211 HD
ENDBRANCH   5  28
BRANCH   4  30
ATOM     30  O   UNL     1      11.828  35.800  33.024  1.00  0.00    -0.341 OA
BRANCH  30  31
ATOM     31  C   UNL     1      12.675  35.898  34.163  1.00  0.00     0.184 C 
ATOM     32  C   UNL     1      12.915  37.379  34.575  1.00  0.00     0.178 C 
ATOM     33  C   UNL     1      14.055  35.315  33.790  1.00  0.00     0.180 C 
ATOM     34  O   UNL     1      13.445  38.125  33.489  1.00  0.00    -0.342 OA
ATOM     35  C   UNL     1      14.715  36.180  32.699  1.00  0.00     0.201 C 
ATOM     36  C   UNL     1      14.737  37.666  33.122  1.00  0.00     0.279 C 
BRANCH  32  37
ATOM     37  C   UNL     1      11.668  38.089  35.119  1.00  0.00     0.191 C 
BRANCH  37  38
ATOM     38  O   UNL     1      10.567  37.878  34.281  1.00  0.00    -0.394 OA
ATOM     39  H   UNL     1      10.394  38.744  33.829  1.00  0.00     0.210 HD
ENDBRANCH  37  38
ENDBRANCH  32  37
BRANCH  33  40
ATOM     40  O   UNL     1      13.926  33.999  33.323  1.00  0.00    -0.387 OA
ATOM     41  H   UNL     1      14.540  33.908  32.547  1.00  0.00     0.211 HD
ENDBRANCH  33  40
BRANCH  35  42
ATOM     42  O   UNL     1      16.027  35.739  32.456  1.00  0.00    -0.385 OA
ATOM     43  H   UNL     1      16.517  36.503  32.051  1.00  0.00     0.211 HD
ENDBRANCH  35  42
BRANCH  36  44
ATOM     44  O   UNL     1      15.652  37.890  34.170  1.00  0.00    -0.366 OA
ATOM     45  H   UNL     1      15.863  38.860  34.171  1.00  0.00     0.213 HD
ENDBRANCH  36  44
ENDBRANCH  30  31
ENDBRANCH   4  30
TORSDOF 18
ENDMDL
MODEL 5
REMARK VINA RESULT:     2.587      1.235      7.963
REMARK INTER + INTRA:           5.386
REMARK INTER:                   3.438
REMARK INTRA:                   1.949
REMARK UNBOUND:                 0.909
REMARK SMILES OC[C@@H]1O[C@H](O[C@H]2[C@@H](O)[C@@H](O)[C@@H](O[C@H]3[C@@H](O)[C@H](O)[C@H](O)O[C@H]3CO)O[C@H]2CO)[C@H](O)[C@@H](O)[C@@H]1O
REMARK SMILES IDX 7 1 26 2 25 3 12 4 10 5 8 6 6 7 5 8 3 9 33 10 4 11 31 12
REMARK SMILES IDX 29 13 2 14 1 15 34 17 32 19 30 21 27 23 28 24 9 26 11 28
REMARK SMILES IDX 13 30 14 31 22 32 15 33 21 34 17 35 19 36 23 37 24 38 16 40
REMARK SMILES IDX 18 42 20 44
REMARK H PARENT 1 16 34 18 32 20 30 22 28 25 9 27 11 29 24 39 16 41 18 43
REMARK H PARENT 20 45
REMARK Flexibility Score: inf
ROOT
ATOM      1  C   UNL     1      13.521  36.614  33.509  1.00  0.00     0.184 C 
ATOM      2  C   UNL     1      13.222  35.135  33.890  1.00  0.00     0.178 C 
ATOM      3  O   UNL     1      12.479  35.000  35.101  1.00  0.00    -0.341 OA
ATOM      4  C   UNL     1      11.260  35.729  35.125  1.00  0.00     0.282 C 
ATOM      5  C   UNL     1      11.530  37.230  34.905  1.00  0.00     0.202 C 
ATOM      6  C   UNL     1      12.242  37.481  33.566  1.00  0.00     0.180 C 
ENDROOT
BRANCH   1   7
ATOM      7  O   UNL     1      14.121  36.666  32.221  1.00  0.00    -0.341 OA
BRANCH   7   8
ATOM      8  C   UNL     1      14.986  37.784  32.082  1.00  0.00     0.282 C 
ATOM      9  C   UNL     1      16.643  37.213  33.731  1.00  0.00     0.178 C 
ATOM     10  C   UNL     1      17.706  36.949  32.635  1.00  0.00     0.177 C 
ATOM     11  O   UNL     1      15.616  38.113  33.318  1.00  0.00    -0.341 OA
ATOM     12  C   UNL     1      17.047  36.505  31.329  1.00  0.00     0.179 C 
ATOM     13  C   UNL     1      15.996  37.553  30.938  1.00  0.00     0.202 C 
BRANCH   9  14
ATOM     14  C   UNL     1      16.080  35.936  34.383  1.00  0.00     0.191 C 
BRANCH  14  15
ATOM     15  O   UNL     1      15.979  34.923  33.421  1.00  0.00    -0.394 OA
ATOM     16  H   UNL     1      15.088  35.030  32.999  1.00  0.00     0.210 HD
ENDBRANCH  14  15
ENDBRANCH   9  14
BRANCH  10  17
ATOM     17  O   UNL     1      18.625  35.981  33.073  1.00  0.00    -0.387 OA
ATOM     18  H   UNL     1      18.128  35.349  33.657  1.00  0.00     0.211 HD
ENDBRANCH  10  17
BRANCH  12  19
ATOM     19  O   UNL     1      18.023  36.412  30.323  1.00  0.00    -0.387 OA
ATOM     20  H   UNL     1      17.585  36.666  29.469  1.00  0.00     0.211 HD
ENDBRANCH  12  19
BRANCH  13  21
ATOM     21  O   UNL     1      15.335  37.201  29.746  1.00  0.00    -0.385 OA
ATOM     22  H   UNL     1      14.522  36.685  29.990  1.00  0.00     0.211 HD
ENDBRANCH  13  21
ENDBRANCH   7   8
ENDBRANCH   1   7
BRANCH   2  23
ATOM     23  C   UNL     1      12.658  34.273  32.739  1.00  0.00     0.191 C 
BRANCH  23  24
ATOM     24  O   UNL     1      11.446  34.813  32.289  1.00  0.00    -0.394 OA
ATOM     25  H   UNL     1      11.655  35.313  31.458  1.00  0.00     0.210 HD
ENDBRANCH  23  24
ENDBRANCH   2  23
BRANCH   6  26
ATOM     26  O   UNL     1      11.388  37.186  32.489  1.00  0.00    -0.387 OA
ATOM     27  H   UNL     1      11.625  36.277  32.170  1.00  0.00     0.211 HD
ENDBRANCH   6  26
BRANCH   5  28
ATOM     28  O   UNL     1      10.365  38.001  35.056  1.00  0.00    -0.385 OA
ATOM     29  H   UNL     1      10.557  38.733  35.690  1.00  0.00     0.211 HD
ENDBRANCH   5  28
BRANCH   4  30
ATOM     30  O   UNL     1      10.354  35.193  34.166  1.00  0.00    -0.341 OA
BRANCH  30  31
ATOM     31  C   UNL     1       9.179  34.626  34.732  1.00  0.00     0.184 C 
ATOM     32  C   UNL     1       9.018  33.128  34.343  1.00  0.00     0.178 C 
ATOM     33  C   UNL     1       7.955  35.366  34.150  1.00  0.00     0.180 C 
ATOM     34  O   UNL     1       9.022  32.971  32.931  1.00  0.00    -0.342 OA
ATOM     35  C   UNL     1       7.858  35.111  32.634  1.00  0.00     0.201 C 
ATOM     36  C   UNL     1       7.895  33.595  32.334  1.00  0.00     0.279 C 
BRANCH  32  37
ATOM     37  C   UNL     1      10.075  32.202  34.960  1.00  0.00     0.191 C 
BRANCH  37  38
ATOM     38  O   UNL     1      11.362  32.573  34.555  1.00  0.00    -0.394 OA
ATOM     39  H   UNL     1      11.603  31.965  33.809  1.00  0.00     0.210 HD
ENDBRANCH  37  38
ENDBRANCH  32  37
BRANCH  33  40
ATOM     40  O   UNL     1       8.056  36.746  34.381  1.00  0.00    -0.387 OA
ATOM     41  H   UNL     1       8.942  37.032  34.036  1.00  0.00     0.211 HD
ENDBRANCH  33  40
BRANCH  35  42
ATOM     42  O   UNL     1       6.672  35.663  32.122  1.00  0.00    -0.385 OA
ATOM     43  H   UNL     1       6.120  35.934  32.902  1.00  0.00     0.211 HD
ENDBRANCH  35  42
BRANCH  36  44
ATOM     44  O   UNL     1       6.708  32.959  32.746  1.00  0.00    -0.366 OA
ATOM     45  H   UNL     1       6.340  32.486  31.955  1.00  0.00     0.213 HD
ENDBRANCH  36  44
ENDBRANCH  30  31
ENDBRANCH   4  30
TORSDOF 18
ENDMDL
