MODEL 1
REMARK VINA RESULT:    -5.710      0.000      0.000
REMARK INTER + INTRA:          -6.760
REMARK INTER:                  -8.047
REMARK INTRA:                   1.287
REMARK UNBOUND:                 1.287
REMARK SMILES CC1=CCC(=C(C)C)C(=O)CC(C)=CCC1
REMARK SMILES IDX 12 1 14 2 13 3 15 4 16 5 2 6 1 7 3 8 11 10 9 11 10 12 5 13
REMARK SMILES IDX 6 14 7 15 8 16 4 17
REMARK H PARENT
REMARK Flexibility Score: 60.00
ROOT
ATOM      1  C   UNL     1     -19.641  36.263  13.917  1.00  0.00    -0.070 C 
ATOM      2  C   UNL     1     -19.623  35.611  12.731  1.00  0.00    -0.027 C 
ATOM      3  C   UNL     1     -20.851  37.110  14.227  1.00  0.00     0.039 C 
ENDROOT
BRANCH   2   4
ATOM      4  C   UNL     1     -18.571  34.634  12.263  1.00  0.00     0.032 C 
BRANCH   4   5
ATOM      5  C   UNL     1     -17.801  35.139  11.028  1.00  0.00     0.034 C 
BRANCH   5   6
ATOM      6  C   UNL     1     -18.022  36.617  10.780  1.00  0.00    -0.077 C 
ATOM      7  C   UNL     1     -19.107  37.027   9.815  1.00  0.00     0.039 C 
ATOM      8  C   UNL     1     -17.286  37.594  11.355  1.00  0.00    -0.023 CG0
ATOM      9  G   UNL     1     -16.139  37.385  12.315  1.00  0.00     0.000 G0
ENDBRANCH   5   6
ENDBRANCH   4   5
ENDBRANCH   2   4
BRANCH   1  10
ATOM     10  C   UNL     1     -18.550  36.134  14.968  1.00  0.00     0.111 C 
BRANCH  10  11
ATOM     11  C   UNL     1     -17.175  36.201  14.350  1.00  0.00     0.163 C 
ATOM     12  O   UNL     1     -16.456  35.167  14.387  1.00  0.00    -0.294 OA
BRANCH  11  13
ATOM     13  C   UNL     1     -16.637  37.463  13.751  1.00  0.00    -0.002 C 
ATOM     14  C   UNL     1     -16.536  38.617  14.476  1.00  0.00    -0.069 C 
ATOM     15  C   UNL     1     -16.026  39.898  13.851  1.00  0.00     0.039 C 
ATOM     16  C   UNL     1     -16.892  38.665  15.945  1.00  0.00     0.039 C 
BRANCH  13  17
ATOM     17  C   UNL     1     -16.137  37.387  12.320  1.00  0.00     0.066 CG0
ATOM     18  G   UNL     1     -17.287  37.603  11.364  1.00  0.00     0.000 G0
ENDBRANCH  13  17
ENDBRANCH  11  13
ENDBRANCH  10  11
ENDBRANCH   1  10
TORSDOF 0
ENDMDL
MODEL 2
REMARK VINA RESULT:    -5.239     16.488     18.477
REMARK INTER + INTRA:          -6.097
REMARK INTER:                  -6.627
REMARK INTRA:                   0.531
REMARK UNBOUND:                 1.287
REMARK SMILES CC1=CCC(=C(C)C)C(=O)CC(C)=CCC1
REMARK SMILES IDX 12 1 14 2 13 3 15 4 16 5 2 6 1 7 3 8 11 10 9 11 10 12 5 13
REMARK SMILES IDX 6 14 7 15 8 16 4 17
REMARK H PARENT
REMARK Flexibility Score: 60.00
ROOT
ATOM      1  C   UNL     1     -30.173  20.375  13.488  1.00  0.00    -0.070 C 
ATOM      2  C   UNL     1     -29.688  20.389  14.752  1.00  0.00    -0.027 C 
ATOM      3  C   UNL     1     -31.596  19.909  13.294  1.00  0.00     0.039 C 
ENDROOT
BRANCH   2   4
ATOM      4  C   UNL     1     -28.341  20.912  15.186  1.00  0.00     0.032 C 
BRANCH   4   5
ATOM      5  C   UNL     1     -28.390  22.391  15.617  1.00  0.00     0.034 C 
BRANCH   5   6
ATOM      6  C   UNL     1     -27.367  23.235  14.884  1.00  0.00    -0.077 C 
ATOM      7  C   UNL     1     -25.946  23.238  15.389  1.00  0.00     0.039 C 
ATOM      8  C   UNL     1     -27.660  24.010  13.815  1.00  0.00    -0.023 CG0
ATOM      9  G   UNL     1     -29.024  24.168  13.187  1.00  0.00     0.000 G0
ENDBRANCH   5   6
ENDBRANCH   4   5
ENDBRANCH   2   4
BRANCH   1  10
ATOM     10  C   UNL     1     -29.392  20.861  12.278  1.00  0.00     0.111 C 
BRANCH  10  11
ATOM     11  C   UNL     1     -29.900  22.196  11.791  1.00  0.00     0.163 C 
ATOM     12  O   UNL     1     -31.052  22.244  11.284  1.00  0.00    -0.294 OA
BRANCH  11  13
ATOM     13  C   UNL     1     -29.058  23.432  11.849  1.00  0.00    -0.002 C 
ATOM     14  C   UNL     1     -28.399  23.906  10.748  1.00  0.00    -0.069 C 
ATOM     15  C   UNL     1     -27.520  25.136  10.826  1.00  0.00     0.039 C 
ATOM     16  C   UNL     1     -28.544  23.250   9.394  1.00  0.00     0.039 C 
BRANCH  13  17
ATOM     17  C   UNL     1     -29.026  24.182  13.168  1.00  0.00     0.066 CG0
ATOM     18  G   UNL     1     -27.671  24.022  13.816  1.00  0.00     0.000 G0
ENDBRANCH  13  17
ENDBRANCH  11  13
ENDBRANCH  10  11
ENDBRANCH   1  10
TORSDOF 0
ENDMDL
MODEL 3
REMARK VINA RESULT:    -5.193      1.106      3.721
REMARK INTER + INTRA:          -6.032
REMARK INTER:                  -6.969
REMARK INTRA:                   0.937
REMARK UNBOUND:                 1.287
REMARK SMILES CC1=CCC(=C(C)C)C(=O)CC(C)=CCC1
REMARK SMILES IDX 12 1 14 2 13 3 15 4 16 5 2 6 1 7 3 8 11 10 9 11 10 12 5 13
REMARK SMILES IDX 6 14 7 15 8 16 4 17
REMARK H PARENT
REMARK Flexibility Score: 60.00
ROOT
ATOM      1  C   UNL     1     -19.206  36.874  14.700  1.00  0.00    -0.070 C 
ATOM      2  C   UNL     1     -18.685  38.102  14.928  1.00  0.00    -0.027 C 
ATOM      3  C   UNL     1     -20.696  36.782  14.470  1.00  0.00     0.039 C 
ENDROOT
BRANCH   2   4
ATOM      4  C   UNL     1     -17.221  38.438  15.077  1.00  0.00     0.032 C 
BRANCH   4   5
ATOM      5  C   UNL     1     -16.764  39.542  14.104  1.00  0.00     0.034 C 
BRANCH   5   6
ATOM      6  C   UNL     1     -15.909  38.995  12.978  1.00  0.00    -0.077 C 
ATOM      7  C   UNL     1     -14.459  39.406  12.916  1.00  0.00     0.039 C 
ATOM      8  C   UNL     1     -16.378  38.178  12.009  1.00  0.00    -0.023 CG0
ATOM      9  G   UNL     1     -17.800  37.687  11.880  1.00  0.00     0.000 G0
ENDBRANCH   5   6
ENDBRANCH   4   5
ENDBRANCH   2   4
BRANCH   1  10
ATOM     10  C   UNL     1     -18.372  35.608  14.598  1.00  0.00     0.111 C 
BRANCH  10  11
ATOM     11  C   UNL     1     -17.419  35.664  13.430  1.00  0.00     0.163 C 
ATOM     12  O   UNL     1     -16.223  35.315  13.621  1.00  0.00    -0.294 OA
BRANCH  11  13
ATOM     13  C   UNL     1     -17.844  36.167  12.085  1.00  0.00    -0.002 C 
ATOM     14  C   UNL     1     -18.315  35.323  11.119  1.00  0.00    -0.069 C 
ATOM     15  C   UNL     1     -18.707  35.835   9.749  1.00  0.00     0.039 C 
ATOM     16  C   UNL     1     -18.504  33.846  11.379  1.00  0.00     0.039 C 
BRANCH  13  17
ATOM     17  C   UNL     1     -17.799  37.668  11.865  1.00  0.00     0.066 CG0
ATOM     18  G   UNL     1     -16.381  38.165  12.017  1.00  0.00     0.000 G0
ENDBRANCH  13  17
ENDBRANCH  11  13
ENDBRANCH  10  11
ENDBRANCH   1  10
TORSDOF 0
ENDMDL
MODEL 4
REMARK VINA RESULT:    -5.149      1.921      3.541
REMARK INTER + INTRA:          -5.969
REMARK INTER:                  -7.599
REMARK INTRA:                   1.630
REMARK UNBOUND:                 1.287
REMARK SMILES CC1=CCC(=C(C)C)C(=O)CC(C)=CCC1
REMARK SMILES IDX 12 1 14 2 13 3 15 4 16 5 2 6 1 7 3 8 11 10 9 11 10 12 5 13
REMARK SMILES IDX 6 14 7 15 8 16 4 17
REMARK H PARENT
REMARK Flexibility Score: 60.00
ROOT
ATOM      1  C   UNL     1     -16.290  37.446  11.975  1.00  0.00    -0.070 C 
ATOM      2  C   UNL     1     -16.875  36.422  11.309  1.00  0.00    -0.027 C 
ATOM      3  C   UNL     1     -14.850  37.271  12.394  1.00  0.00     0.039 C 
ENDROOT
BRANCH   2   4
ATOM      4  C   UNL     1     -18.260  36.421  10.709  1.00  0.00     0.032 C 
BRANCH   4   5
ATOM      5  C   UNL     1     -19.335  35.937  11.701  1.00  0.00     0.034 C 
BRANCH   5   6
ATOM      6  C   UNL     1     -18.731  35.404  12.985  1.00  0.00    -0.077 C 
ATOM      7  C   UNL     1     -18.328  33.951  13.037  1.00  0.00     0.039 C 
ATOM      8  C   UNL     1     -18.557  36.149  14.099  1.00  0.00    -0.023 CG0
ATOM      9  G   UNL     1     -18.930  37.605  14.254  1.00  0.00     0.000 G0
ENDBRANCH   5   6
ENDBRANCH   4   5
ENDBRANCH   2   4
BRANCH   1  10
ATOM     10  C   UNL     1     -16.978  38.771  12.260  1.00  0.00     0.111 C 
BRANCH  10  11
ATOM     11  C   UNL     1     -16.912  39.126  13.725  1.00  0.00     0.163 C 
ATOM     12  O   UNL     1     -16.113  40.033  14.080  1.00  0.00    -0.294 OA
BRANCH  11  13
ATOM     13  C   UNL     1     -17.723  38.401  14.753  1.00  0.00    -0.002 C 
ATOM     14  C   UNL     1     -17.436  38.487  16.087  1.00  0.00    -0.069 C 
ATOM     15  C   UNL     1     -18.239  37.721  17.116  1.00  0.00     0.039 C 
ATOM     16  C   UNL     1     -16.329  39.378  16.604  1.00  0.00     0.039 C 
BRANCH  13  17
ATOM     17  C   UNL     1     -18.928  37.623  14.256  1.00  0.00     0.066 CG0
ATOM     18  G   UNL     1     -18.565  36.166  14.093  1.00  0.00     0.000 G0
ENDBRANCH  13  17
ENDBRANCH  11  13
ENDBRANCH  10  11
ENDBRANCH   1  10
TORSDOF 0
ENDMDL
MODEL 5
REMARK VINA RESULT:    -4.976     16.866     18.932
REMARK INTER + INTRA:          -5.725
REMARK INTER:                  -6.371
REMARK INTRA:                   0.646
REMARK UNBOUND:                 1.287
REMARK SMILES CC1=CCC(=C(C)C)C(=O)CC(C)=CCC1
REMARK SMILES IDX 12 1 14 2 13 3 15 4 16 5 2 6 1 7 3 8 11 10 9 11 10 12 5 13
REMARK SMILES IDX 6 14 7 15 8 16 4 17
REMARK H PARENT
REMARK Flexibility Score: 60.00
ROOT
ATOM      1  C   UNL     1     -27.964  24.205  13.068  1.00  0.00    -0.070 C 
ATOM      2  C   UNL     1     -27.492  24.193  14.337  1.00  0.00    -0.027 C 
ATOM      3  C   UNL     1     -29.004  25.244  12.723  1.00  0.00     0.039 C 
ENDROOT
BRANCH   2   4
ATOM      4  C   UNL     1     -26.383  23.319  14.870  1.00  0.00     0.032 C 
BRANCH   4   5
ATOM      5  C   UNL     1     -26.712  21.817  14.769  1.00  0.00     0.034 C 
BRANCH   5   6
ATOM      6  C   UNL     1     -28.101  21.498  15.284  1.00  0.00    -0.077 C 
ATOM      7  C   UNL     1     -28.400  21.753  16.741  1.00  0.00     0.039 C 
ATOM      8  C   UNL     1     -29.084  20.973  14.519  1.00  0.00    -0.023 CG0
ATOM      9  G   UNL     1     -28.968  20.617  13.056  1.00  0.00     0.000 G0
ENDBRANCH   5   6
ENDBRANCH   4   5
ENDBRANCH   2   4
BRANCH   1  10
ATOM     10  C   UNL     1     -27.458  23.284  11.970  1.00  0.00     0.111 C 
BRANCH  10  11
ATOM     11  C   UNL     1     -28.582  22.490  11.352  1.00  0.00     0.163 C 
ATOM     12  O   UNL     1     -28.719  22.531  10.100  1.00  0.00    -0.294 OA
BRANCH  11  13
ATOM     13  C   UNL     1     -29.551  21.710  12.184  1.00  0.00    -0.002 C 
ATOM     14  C   UNL     1     -30.899  21.932  12.116  1.00  0.00    -0.069 C 
ATOM     15  C   UNL     1     -31.868  21.165  12.989  1.00  0.00     0.039 C 
ATOM     16  C   UNL     1     -31.490  22.927  11.143  1.00  0.00     0.039 C 
BRANCH  13  17
ATOM     17  C   UNL     1     -28.979  20.606  13.055  1.00  0.00     0.066 CG0
ATOM     18  G   UNL     1     -29.081  20.997  14.510  1.00  0.00     0.000 G0
ENDBRANCH  13  17
ENDBRANCH  11  13
ENDBRANCH  10  11
ENDBRANCH   1  10
TORSDOF 0
ENDMDL
MODEL 6
REMARK VINA RESULT:    -4.913     16.280     17.899
REMARK INTER + INTRA:          -5.637
REMARK INTER:                  -6.791
REMARK INTRA:                   1.154
REMARK UNBOUND:                 1.287
REMARK SMILES CC1=CCC(=C(C)C)C(=O)CC(C)=CCC1
REMARK SMILES IDX 12 1 14 2 13 3 15 4 16 5 2 6 1 7 3 8 11 10 9 11 10 12 5 13
REMARK SMILES IDX 6 14 7 15 8 16 4 17
REMARK H PARENT
REMARK Flexibility Score: 60.00
ROOT
ATOM      1  C   UNL     1     -30.187  21.431  13.090  1.00  0.00    -0.070 C 
ATOM      2  C   UNL     1     -30.300  21.952  11.845  1.00  0.00    -0.027 C 
ATOM      3  C   UNL     1     -29.761  19.987  13.204  1.00  0.00     0.039 C 
ENDROOT
BRANCH   2   4
ATOM      4  C   UNL     1     -30.606  23.389  11.501  1.00  0.00     0.032 C 
BRANCH   4   5
ATOM      5  C   UNL     1     -29.410  24.111  10.852  1.00  0.00     0.034 C 
BRANCH   5   6
ATOM      6  C   UNL     1     -28.139  23.287  10.919  1.00  0.00    -0.077 C 
ATOM      7  C   UNL     1     -27.845  22.332   9.789  1.00  0.00     0.039 C 
ATOM      8  C   UNL     1     -27.263  23.340  11.947  1.00  0.00    -0.023 CG0
ATOM      9  G   UNL     1     -27.400  24.202  13.180  1.00  0.00     0.000 G0
ENDBRANCH   5   6
ENDBRANCH   4   5
ENDBRANCH   2   4
BRANCH   1  10
ATOM     10  C   UNL     1     -30.399  22.234  14.363  1.00  0.00     0.111 C 
BRANCH  10  11
ATOM     11  C   UNL     1     -29.555  23.485  14.376  1.00  0.00     0.163 C 
ATOM     12  O   UNL     1     -30.144  24.599  14.408  1.00  0.00    -0.294 OA
BRANCH  11  13
ATOM     13  C   UNL     1     -28.061  23.433  14.300  1.00  0.00    -0.002 C 
ATOM     14  C   UNL     1     -27.323  22.671  15.163  1.00  0.00    -0.069 C 
ATOM     15  C   UNL     1     -25.811  22.654  15.103  1.00  0.00     0.039 C 
ATOM     16  C   UNL     1     -27.980  21.780  16.193  1.00  0.00     0.039 C 
BRANCH  13  17
ATOM     17  C   UNL     1     -27.401  24.207  13.174  1.00  0.00     0.066 CG0
ATOM     18  G   UNL     1     -27.267  23.325  11.955  1.00  0.00     0.000 G0
ENDBRANCH  13  17
ENDBRANCH  11  13
ENDBRANCH  10  11
ENDBRANCH   1  10
TORSDOF 0
ENDMDL
MODEL 7
REMARK VINA RESULT:    -4.869     16.831     18.850
REMARK INTER + INTRA:          -5.575
REMARK INTER:                  -6.572
REMARK INTRA:                   0.998
REMARK UNBOUND:                 1.287
REMARK SMILES CC1=CCC(=C(C)C)C(=O)CC(C)=CCC1
REMARK SMILES IDX 12 1 14 2 13 3 15 4 16 5 2 6 1 7 3 8 11 10 9 11 10 12 5 13
REMARK SMILES IDX 6 14 7 15 8 16 4 17
REMARK H PARENT
REMARK Flexibility Score: 60.00
ROOT
ATOM      1  C   UNL     1     -27.335  23.600  13.936  1.00  0.00    -0.070 C 
ATOM      2  C   UNL     1     -27.277  24.314  12.788  1.00  0.00    -0.027 C 
ATOM      3  C   UNL     1     -26.026  23.205  14.576  1.00  0.00     0.039 C 
ENDROOT
BRANCH   2   4
ATOM      4  C   UNL     1     -28.449  24.901  12.040  1.00  0.00     0.032 C 
BRANCH   4   5
ATOM      5  C   UNL     1     -28.536  24.399  10.586  1.00  0.00     0.034 C 
BRANCH   5   6
ATOM      6  C   UNL     1     -28.414  22.891  10.493  1.00  0.00    -0.077 C 
ATOM      7  C   UNL     1     -27.380  22.312   9.559  1.00  0.00     0.039 C 
ATOM      8  C   UNL     1     -29.198  22.030  11.181  1.00  0.00    -0.023 CG0
ATOM      9  G   UNL     1     -30.306  22.414  12.132  1.00  0.00     0.000 G0
ENDBRANCH   5   6
ENDBRANCH   4   5
ENDBRANCH   2   4
BRANCH   1  10
ATOM     10  C   UNL     1     -28.632  23.239  14.641  1.00  0.00     0.111 C 
BRANCH  10  11
ATOM     11  C   UNL     1     -29.067  21.831  14.313  1.00  0.00     0.163 C 
ATOM     12  O   UNL     1     -28.409  20.876  14.807  1.00  0.00    -0.294 OA
BRANCH  11  13
ATOM     13  C   UNL     1     -30.210  21.551  13.389  1.00  0.00    -0.002 C 
ATOM     14  C   UNL     1     -31.166  20.620  13.689  1.00  0.00    -0.069 C 
ATOM     15  C   UNL     1     -32.298  20.317  12.731  1.00  0.00     0.039 C 
ATOM     16  C   UNL     1     -31.162  19.876  15.005  1.00  0.00     0.039 C 
BRANCH  13  17
ATOM     17  C   UNL     1     -30.305  22.399  12.134  1.00  0.00     0.066 CG0
ATOM     18  G   UNL     1     -29.193  22.030  11.181  1.00  0.00     0.000 G0
ENDBRANCH  13  17
ENDBRANCH  11  13
ENDBRANCH  10  11
ENDBRANCH   1  10
TORSDOF 0
ENDMDL
MODEL 8
REMARK VINA RESULT:    -4.855     16.169     18.091
REMARK INTER + INTRA:          -5.555
REMARK INTER:                  -6.474
REMARK INTRA:                   0.920
REMARK UNBOUND:                 1.287
REMARK SMILES CC1=CCC(=C(C)C)C(=O)CC(C)=CCC1
REMARK SMILES IDX 12 1 14 2 13 3 15 4 16 5 2 6 1 7 3 8 11 10 9 11 10 12 5 13
REMARK SMILES IDX 6 14 7 15 8 16 4 17
REMARK H PARENT
REMARK Flexibility Score: 60.00
ROOT
ATOM      1  C   UNL     1     -30.382  21.801  12.396  1.00  0.00    -0.070 C 
ATOM      2  C   UNL     1     -30.596  21.291  13.632  1.00  0.00    -0.027 C 
ATOM      3  C   UNL     1     -31.374  22.815  11.880  1.00  0.00     0.039 C 
ENDROOT
BRANCH   2   4
ATOM      4  C   UNL     1     -29.683  20.353  14.383  1.00  0.00     0.032 C 
BRANCH   4   5
ATOM      5  C   UNL     1     -28.214  20.818  14.369  1.00  0.00     0.034 C 
BRANCH   5   6
ATOM      6  C   UNL     1     -28.036  22.171  15.029  1.00  0.00    -0.077 C 
ATOM      7  C   UNL     1     -28.578  22.365  16.423  1.00  0.00     0.039 C 
ATOM      8  C   UNL     1     -27.441  23.226  14.429  1.00  0.00    -0.023 CG0
ATOM      9  G   UNL     1     -26.871  23.240  13.031  1.00  0.00     0.000 G0
ENDBRANCH   5   6
ENDBRANCH   4   5
ENDBRANCH   2   4
BRANCH   1  10
ATOM     10  C   UNL     1     -29.173  21.460  11.540  1.00  0.00     0.111 C 
BRANCH  10  11
ATOM     11  C   UNL     1     -28.455  22.703  11.076  1.00  0.00     0.163 C 
ATOM     12  O   UNL     1     -28.260  22.850   9.839  1.00  0.00    -0.294 OA
BRANCH  11  13
ATOM     13  C   UNL     1     -27.933  23.723  12.039  1.00  0.00    -0.002 C 
ATOM     14  C   UNL     1     -28.431  24.996  12.078  1.00  0.00    -0.069 C 
ATOM     15  C   UNL     1     -27.871  26.032  13.030  1.00  0.00     0.039 C 
ATOM     16  C   UNL     1     -29.586  25.423  11.202  1.00  0.00     0.039 C 
BRANCH  13  17
ATOM     17  C   UNL     1     -26.875  23.261  13.025  1.00  0.00     0.066 CG0
ATOM     18  G   UNL     1     -27.451  23.241  14.421  1.00  0.00     0.000 G0
ENDBRANCH  13  17
ENDBRANCH  11  13
ENDBRANCH  10  11
ENDBRANCH   1  10
TORSDOF 0
ENDMDL
MODEL 9
REMARK VINA RESULT:    -4.725     16.372     18.301
REMARK INTER + INTRA:          -5.372
REMARK INTER:                  -6.390
REMARK INTRA:                   1.019
REMARK UNBOUND:                 1.287
REMARK SMILES CC1=CCC(=C(C)C)C(=O)CC(C)=CCC1
REMARK SMILES IDX 12 1 14 2 13 3 15 4 16 5 2 6 1 7 3 8 11 10 9 11 10 12 5 13
REMARK SMILES IDX 6 14 7 15 8 16 4 17
REMARK H PARENT
REMARK Flexibility Score: 60.00
ROOT
ATOM      1  C   UNL     1     -26.849  22.681  14.496  1.00  0.00    -0.070 C 
ATOM      2  C   UNL     1     -27.674  21.827  15.147  1.00  0.00    -0.027 C 
ATOM      3  C   UNL     1     -26.007  23.611  15.336  1.00  0.00     0.039 C 
ENDROOT
BRANCH   2   4
ATOM      4  C   UNL     1     -28.520  20.748  14.517  1.00  0.00     0.032 C 
BRANCH   4   5
ATOM      5  C   UNL     1     -30.013  20.882  14.873  1.00  0.00     0.034 C 
BRANCH   5   6
ATOM      6  C   UNL     1     -30.847  21.325  13.687  1.00  0.00    -0.077 C 
ATOM      7  C   UNL     1     -31.720  20.302  13.004  1.00  0.00     0.039 C 
ATOM      8  C   UNL     1     -30.834  22.581  13.187  1.00  0.00    -0.023 CG0
ATOM      9  G   UNL     1     -30.002  23.729  13.708  1.00  0.00     0.000 G0
ENDBRANCH   5   6
ENDBRANCH   4   5
ENDBRANCH   2   4
BRANCH   1  10
ATOM     10  C   UNL     1     -26.679  22.705  12.986  1.00  0.00     0.111 C 
BRANCH  10  11
ATOM     11  C   UNL     1     -27.993  22.952  12.285  1.00  0.00     0.163 C 
ATOM     12  O   UNL     1     -28.288  22.221  11.302  1.00  0.00    -0.294 OA
BRANCH  11  13
ATOM     13  C   UNL     1     -28.912  24.061  12.693  1.00  0.00    -0.002 C 
ATOM     14  C   UNL     1     -28.829  25.306  12.134  1.00  0.00    -0.069 C 
ATOM     15  C   UNL     1     -29.738  26.431  12.580  1.00  0.00     0.039 C 
ATOM     16  C   UNL     1     -27.854  25.611  11.020  1.00  0.00     0.039 C 
BRANCH  13  17
ATOM     17  C   UNL     1     -29.992  23.723  13.704  1.00  0.00     0.066 CG0
ATOM     18  G   UNL     1     -30.842  22.587  13.185  1.00  0.00     0.000 G0
ENDBRANCH  13  17
ENDBRANCH  11  13
ENDBRANCH  10  11
ENDBRANCH   1  10
TORSDOF 0
ENDMDL
