MODEL 1
REMARK VINA RESULT:    -2.730      0.000      0.000
REMARK INTER + INTRA:          -2.730
REMARK INTER:                  -2.730
REMARK INTRA:                   0.000
REMARK UNBOUND:                 0.000
REMARK SMILES CC(=O)[O-]
REMARK SMILES IDX 1 1 2 2 3 3 4 4
REMARK H PARENT
REMARK Flexibility Score: inf
ROOT
ATOM      1  C   UNL     1      -0.056   7.016  21.032  1.00  0.00     0.063 C 
ATOM      2  C   UNL     1       0.070   6.787  22.501  1.00  0.00     0.038 C 
ATOM      3  O   UNL     1       1.205   6.615  23.017  1.00  0.00    -0.550 OA
ATOM      4  O   UNL     1      -1.058   6.817  23.309  1.00  0.00    -0.550 OA
ENDROOT
TORSDOF 0
ENDMDL
MODEL 2
REMARK VINA RESULT:    -2.726      0.094      1.621
REMARK INTER + INTRA:          -2.726
REMARK INTER:                  -2.726
REMARK INTRA:                   0.000
REMARK UNBOUND:                 0.000
REMARK SMILES CC(=O)[O-]
REMARK SMILES IDX 1 1 2 2 3 3 4 4
REMARK H PARENT
REMARK Flexibility Score: inf
ROOT
ATOM      1  C   UNL     1      -0.107   7.003  21.012  1.00  0.00     0.063 C 
ATOM      2  C   UNL     1       0.033   6.783  22.481  1.00  0.00     0.038 C 
ATOM      3  O   UNL     1      -0.990   6.730  23.212  1.00  0.00    -0.550 OA
ATOM      4  O   UNL     1       1.289   6.582  23.036  1.00  0.00    -0.550 OA
ENDROOT
TORSDOF 0
ENDMDL
MODEL 3
REMARK VINA RESULT:    -2.723      2.587      2.830
REMARK INTER + INTRA:          -2.723
REMARK INTER:                  -2.723
REMARK INTRA:                   0.000
REMARK UNBOUND:                 0.000
REMARK SMILES CC(=O)[O-]
REMARK SMILES IDX 1 1 2 2 3 3 4 4
REMARK H PARENT
REMARK Flexibility Score: inf
ROOT
ATOM      1  C   UNL     1       0.728   8.427  19.647  1.00  0.00     0.063 C 
ATOM      2  C   UNL     1       0.083   7.131  20.004  1.00  0.00     0.038 C 
ATOM      3  O   UNL     1      -0.014   6.215  19.146  1.00  0.00    -0.550 OA
ATOM      4  O   UNL     1      -0.363   6.911  21.301  1.00  0.00    -0.550 OA
ENDROOT
TORSDOF 0
ENDMDL
MODEL 4
REMARK VINA RESULT:    -2.691      1.746      1.985
REMARK INTER + INTRA:          -2.691
REMARK INTER:                  -2.691
REMARK INTRA:                   0.000
REMARK UNBOUND:                 0.000
REMARK SMILES CC(=O)[O-]
REMARK SMILES IDX 1 1 2 2 3 3 4 4
REMARK H PARENT
REMARK Flexibility Score: inf
ROOT
ATOM      1  C   UNL     1      -0.520   6.725  22.845  1.00  0.00     0.063 C 
ATOM      2  C   UNL     1       0.261   6.916  21.589  1.00  0.00     0.038 C 
ATOM      3  O   UNL     1       1.516   6.994  21.631  1.00  0.00    -0.550 OA
ATOM      4  O   UNL     1      -0.392   6.954  20.364  1.00  0.00    -0.550 OA
ENDROOT
TORSDOF 0
ENDMDL
MODEL 5
REMARK VINA RESULT:    -2.611      2.878      3.134
REMARK INTER + INTRA:          -2.611
REMARK INTER:                  -2.611
REMARK INTRA:                   0.000
REMARK UNBOUND:                 0.000
REMARK SMILES CC(=O)[O-]
REMARK SMILES IDX 1 1 2 2 3 3 4 4
REMARK H PARENT
REMARK Flexibility Score: inf
ROOT
ATOM      1  C   UNL     1      -0.115   6.894  21.600  1.00  0.00     0.063 C 
ATOM      2  C   UNL     1       0.096   7.248  20.167  1.00  0.00     0.038 C 
ATOM      3  O   UNL     1      -0.102   6.390  19.268  1.00  0.00    -0.550 OA
ATOM      4  O   UNL     1       0.459   8.542  19.817  1.00  0.00    -0.550 OA
ENDROOT
TORSDOF 0
ENDMDL
MODEL 6
REMARK VINA RESULT:    -2.547      1.243      1.497
REMARK INTER + INTRA:          -2.547
REMARK INTER:                  -2.547
REMARK INTRA:                   0.000
REMARK UNBOUND:                 0.000
REMARK SMILES CC(=O)[O-]
REMARK SMILES IDX 1 1 2 2 3 3 4 4
REMARK H PARENT
REMARK Flexibility Score: inf
ROOT
ATOM      1  C   UNL     1       0.036   6.994  20.538  1.00  0.00     0.063 C 
ATOM      2  C   UNL     1       1.010   7.033  21.667  1.00  0.00     0.038 C 
ATOM      3  O   UNL     1       2.166   7.499  21.488  1.00  0.00    -0.550 OA
ATOM      4  O   UNL     1       0.626   6.606  22.931  1.00  0.00    -0.550 OA
ENDROOT
TORSDOF 0
ENDMDL
MODEL 7
REMARK VINA RESULT:    -2.500     14.817     15.133
REMARK INTER + INTRA:          -2.500
REMARK INTER:                  -2.500
REMARK INTRA:                   0.000
REMARK UNBOUND:                 0.000
REMARK SMILES CC(=O)[O-]
REMARK SMILES IDX 1 1 2 2 3 3 4 4
REMARK H PARENT
REMARK Flexibility Score: inf
ROOT
ATOM      1  C   UNL     1      -3.277  -0.865  10.793  1.00  0.00     0.063 C 
ATOM      2  C   UNL     1      -4.319  -1.918  10.963  1.00  0.00     0.038 C 
ATOM      3  O   UNL     1      -4.218  -2.763  11.890  1.00  0.00    -0.550 OA
ATOM      4  O   UNL     1      -5.431  -1.936  10.132  1.00  0.00    -0.550 OA
ENDROOT
TORSDOF 0
ENDMDL
MODEL 8
REMARK VINA RESULT:    -2.433     14.994     15.318
REMARK INTER + INTRA:          -2.433
REMARK INTER:                  -2.433
REMARK INTRA:                   0.000
REMARK UNBOUND:                 0.000
REMARK SMILES CC(=O)[O-]
REMARK SMILES IDX 1 1 2 2 3 3 4 4
REMARK H PARENT
REMARK Flexibility Score: inf
ROOT
ATOM      1  C   UNL     1      -4.016  -4.491  11.345  1.00  0.00     0.063 C 
ATOM      2  C   UNL     1      -4.437  -3.194  11.947  1.00  0.00     0.038 C 
ATOM      3  O   UNL     1      -5.198  -3.180  12.950  1.00  0.00    -0.550 OA
ATOM      4  O   UNL     1      -3.947  -1.999  11.437  1.00  0.00    -0.550 OA
ENDROOT
TORSDOF 0
ENDMDL
MODEL 9
REMARK VINA RESULT:    -2.389     15.025     15.302
REMARK INTER + INTRA:          -2.389
REMARK INTER:                  -2.389
REMARK INTRA:                   0.000
REMARK UNBOUND:                 0.000
REMARK SMILES CC(=O)[O-]
REMARK SMILES IDX 1 1 2 2 3 3 4 4
REMARK H PARENT
REMARK Flexibility Score: inf
ROOT
ATOM      1  C   UNL     1      -4.145  -4.337  11.001  1.00  0.00     0.063 C 
ATOM      2  C   UNL     1      -4.389  -3.118  11.825  1.00  0.00     0.038 C 
ATOM      3  O   UNL     1      -3.954  -2.000  11.444  1.00  0.00    -0.550 OA
ATOM      4  O   UNL     1      -5.143  -3.205  12.988  1.00  0.00    -0.550 OA
ENDROOT
TORSDOF 0
ENDMDL
