MODEL 1
REMARK VINA RESULT:    -3.656      0.000      0.000
REMARK INTER + INTRA:          -5.505
REMARK INTER:                  -5.152
REMARK INTRA:                  -0.353
REMARK UNBOUND:                -0.353
REMARK SMILES CC1=CCC(=C(C)C)C(=O)CC(C)=CCC1
REMARK SMILES IDX 12 1 14 2 13 3 15 4 16 5 2 6 1 7 3 8 11 10 9 11 10 12 5 13
REMARK SMILES IDX 6 14 7 15 8 16 4 17
REMARK H PARENT
REMARK Flexibility Score: 60.00
ROOT
ATOM      1  C   UNL     1      11.664 -22.408  41.530  1.00  0.00    -0.070 C 
ATOM      2  C   UNL     1      10.431 -22.959  41.447  1.00  0.00    -0.027 C 
ATOM      3  C   UNL     1      12.231 -22.198  42.914  1.00  0.00     0.039 C 
ENDROOT
BRANCH   2   4
ATOM      4  C   UNL     1       9.651 -23.221  40.184  1.00  0.00     0.032 C 
BRANCH   4   5
ATOM      5  C   UNL     1       9.780 -24.655  39.615  1.00  0.00     0.034 C 
BRANCH   5   6
ATOM      6  C   UNL     1      10.459 -25.666  40.529  1.00  0.00    -0.077 C 
ATOM      7  C   UNL     1       9.631 -26.272  41.637  1.00  0.00     0.039 C 
ATOM      8  C   UNL     1      11.737 -26.113  40.393  1.00  0.00    -0.023 CG0
ATOM      9  G   UNL     1      12.856 -25.611  39.492  1.00  0.00     0.000 G0
ENDBRANCH   5   6
ENDBRANCH   4   5
ENDBRANCH   2   4
BRANCH   1  10
ATOM     10  C   UNL     1      12.497 -21.941  40.341  1.00  0.00     0.111 C 
BRANCH  10  11
ATOM     11  C   UNL     1      13.034 -23.017  39.427  1.00  0.00     0.163 C 
ATOM     12  O   UNL     1      13.000 -22.769  38.190  1.00  0.00    -0.294 OA
BRANCH  11  13
ATOM     13  C   UNL     1      13.577 -24.338  39.912  1.00  0.00    -0.002 C 
ATOM     14  C   UNL     1      14.711 -24.420  40.677  1.00  0.00    -0.069 C 
ATOM     15  C   UNL     1      15.408 -23.195  41.222  1.00  0.00     0.039 C 
ATOM     16  C   UNL     1      15.312 -25.759  41.053  1.00  0.00     0.039 C 
BRANCH  13  17
ATOM     17  C   UNL     1      12.867 -25.610  39.476  1.00  0.00     0.066 CG0
ATOM     18  G   UNL     1      11.739 -26.106  40.369  1.00  0.00     0.000 G0
ENDBRANCH  13  17
ENDBRANCH  11  13
ENDBRANCH  10  11
ENDBRANCH   1  10
TORSDOF 0
ENDMDL
MODEL 2
REMARK VINA RESULT:    -3.444      1.583      3.523
REMARK INTER + INTRA:          -5.206
REMARK INTER:                  -5.029
REMARK INTRA:                  -0.177
REMARK UNBOUND:                -0.353
REMARK SMILES CC1=CCC(=C(C)C)C(=O)CC(C)=CCC1
REMARK SMILES IDX 12 1 14 2 13 3 15 4 16 5 2 6 1 7 3 8 11 10 9 11 10 12 5 13
REMARK SMILES IDX 6 14 7 15 8 16 4 17
REMARK H PARENT
REMARK Flexibility Score: 60.00
ROOT
ATOM      1  C   UNL     1      10.065 -24.362  40.051  1.00  0.00    -0.070 C 
ATOM      2  C   UNL     1       9.917 -23.099  40.513  1.00  0.00    -0.027 C 
ATOM      3  C   UNL     1       9.026 -24.864  39.078  1.00  0.00     0.039 C 
ENDROOT
BRANCH   2   4
ATOM      4  C   UNL     1      10.799 -22.404  41.519  1.00  0.00     0.032 C 
BRANCH   4   5
ATOM      5  C   UNL     1      12.207 -22.018  41.005  1.00  0.00     0.034 C 
BRANCH   5   6
ATOM      6  C   UNL     1      13.365 -22.382  41.924  1.00  0.00    -0.077 C 
ATOM      7  C   UNL     1      13.458 -21.662  43.248  1.00  0.00     0.039 C 
ATOM      8  C   UNL     1      14.293 -23.346  41.675  1.00  0.00    -0.023 CG0
ATOM      9  G   UNL     1      14.561 -24.136  40.402  1.00  0.00     0.000 G0
ENDBRANCH   5   6
ENDBRANCH   4   5
ENDBRANCH   2   4
BRANCH   1  10
ATOM     10  C   UNL     1      11.167 -25.327  40.478  1.00  0.00     0.111 C 
BRANCH  10  11
ATOM     11  C   UNL     1      12.413 -25.350  39.624  1.00  0.00     0.163 C 
ATOM     12  O   UNL     1      12.237 -25.306  38.375  1.00  0.00    -0.294 OA
BRANCH  11  13
ATOM     13  C   UNL     1      13.812 -25.434  40.182  1.00  0.00    -0.002 C 
ATOM     14  C   UNL     1      14.374 -26.627  40.557  1.00  0.00    -0.069 C 
ATOM     15  C   UNL     1      13.701 -27.955  40.295  1.00  0.00     0.039 C 
ATOM     16  C   UNL     1      15.731 -26.681  41.228  1.00  0.00     0.039 C 
BRANCH  13  17
ATOM     17  C   UNL     1      14.583 -24.139  40.385  1.00  0.00     0.066 CG0
ATOM     18  G   UNL     1      14.298 -23.364  41.663  1.00  0.00     0.000 G0
ENDBRANCH  13  17
ENDBRANCH  11  13
ENDBRANCH  10  11
ENDBRANCH   1  10
TORSDOF 0
ENDMDL
MODEL 3
REMARK VINA RESULT:    -3.439      1.921      4.036
REMARK INTER + INTRA:          -5.199
REMARK INTER:                  -4.863
REMARK INTRA:                  -0.336
REMARK UNBOUND:                -0.353
REMARK SMILES CC1=CCC(=C(C)C)C(=O)CC(C)=CCC1
REMARK SMILES IDX 12 1 14 2 13 3 15 4 16 5 2 6 1 7 3 8 11 10 9 11 10 12 5 13
REMARK SMILES IDX 6 14 7 15 8 16 4 17
REMARK H PARENT
REMARK Flexibility Score: 60.00
ROOT
ATOM      1  C   UNL     1       9.882 -24.446  40.221  1.00  0.00    -0.070 C 
ATOM      2  C   UNL     1      10.191 -23.133  40.328  1.00  0.00    -0.027 C 
ATOM      3  C   UNL     1       9.156 -24.881  38.970  1.00  0.00     0.039 C 
ENDROOT
BRANCH   2   4
ATOM      4  C   UNL     1      10.870 -22.465  41.497  1.00  0.00     0.032 C 
BRANCH   4   5
ATOM      5  C   UNL     1      12.410 -22.608  41.534  1.00  0.00     0.034 C 
BRANCH   5   6
ATOM      6  C   UNL     1      13.079 -22.868  40.191  1.00  0.00    -0.077 C 
ATOM      7  C   UNL     1      13.241 -21.695  39.254  1.00  0.00     0.039 C 
ATOM      8  C   UNL     1      13.596 -24.060  39.788  1.00  0.00    -0.023 CG0
ATOM      9  G   UNL     1      13.474 -25.440  40.419  1.00  0.00     0.000 G0
ENDBRANCH   5   6
ENDBRANCH   4   5
ENDBRANCH   2   4
BRANCH   1  10
ATOM     10  C   UNL     1      10.164 -25.501  41.284  1.00  0.00     0.111 C 
BRANCH  10  11
ATOM     11  C   UNL     1      11.192 -26.554  40.937  1.00  0.00     0.163 C 
ATOM     12  O   UNL     1      11.069 -27.668  41.515  1.00  0.00    -0.294 OA
BRANCH  11  13
ATOM     13  C   UNL     1      12.328 -26.331  39.970  1.00  0.00    -0.002 C 
ATOM     14  C   UNL     1      12.366 -26.937  38.741  1.00  0.00    -0.069 C 
ATOM     15  C   UNL     1      11.205 -27.741  38.201  1.00  0.00     0.039 C 
ATOM     16  C   UNL     1      13.570 -26.801  37.833  1.00  0.00     0.039 C 
BRANCH  13  17
ATOM     17  C   UNL     1      13.488 -25.455  40.415  1.00  0.00     0.066 CG0
ATOM     18  G   UNL     1      13.579 -24.069  39.793  1.00  0.00     0.000 G0
ENDBRANCH  13  17
ENDBRANCH  11  13
ENDBRANCH  10  11
ENDBRANCH   1  10
TORSDOF 0
ENDMDL
MODEL 4
REMARK VINA RESULT:    -3.310      4.785      6.891
REMARK INTER + INTRA:          -5.018
REMARK INTER:                  -4.572
REMARK INTRA:                  -0.445
REMARK UNBOUND:                -0.353
REMARK SMILES CC1=CCC(=C(C)C)C(=O)CC(C)=CCC1
REMARK SMILES IDX 12 1 14 2 13 3 15 4 16 5 2 6 1 7 3 8 11 10 9 11 10 12 5 13
REMARK SMILES IDX 6 14 7 15 8 16 4 17
REMARK H PARENT
REMARK Flexibility Score: 60.00
ROOT
ATOM      1  C   UNL     1      12.969 -30.776  39.149  1.00  0.00    -0.070 C 
ATOM      2  C   UNL     1      12.999 -31.917  39.876  1.00  0.00    -0.027 C 
ATOM      3  C   UNL     1      11.801 -30.590  38.211  1.00  0.00     0.039 C 
ENDROOT
BRANCH   2   4
ATOM      4  C   UNL     1      14.081 -32.338  40.838  1.00  0.00     0.032 C 
BRANCH   4   5
ATOM      5  C   UNL     1      13.761 -32.100  42.333  1.00  0.00     0.034 C 
BRANCH   5   6
ATOM      6  C   UNL     1      12.348 -31.621  42.636  1.00  0.00    -0.077 C 
ATOM      7  C   UNL     1      11.278 -32.672  42.815  1.00  0.00     0.039 C 
ATOM      8  C   UNL     1      11.979 -30.323  42.816  1.00  0.00    -0.023 CG0
ATOM      9  G   UNL     1      12.764 -29.043  42.569  1.00  0.00     0.000 G0
ENDBRANCH   5   6
ENDBRANCH   4   5
ENDBRANCH   2   4
BRANCH   1  10
ATOM     10  C   UNL     1      14.046 -29.697  39.169  1.00  0.00     0.111 C 
BRANCH  10  11
ATOM     11  C   UNL     1      14.009 -28.727  40.327  1.00  0.00     0.163 C 
ATOM     12  O   UNL     1      15.087 -28.126  40.588  1.00  0.00    -0.294 OA
BRANCH  11  13
ATOM     13  C   UNL     1      12.782 -28.464  41.165  1.00  0.00    -0.002 C 
ATOM     14  C   UNL     1      11.738 -27.703  40.707  1.00  0.00    -0.069 C 
ATOM     15  C   UNL     1      11.666 -27.205  39.281  1.00  0.00     0.039 C 
ATOM     16  C   UNL     1      10.570 -27.348  41.603  1.00  0.00     0.039 C 
BRANCH  13  17
ATOM     17  C   UNL     1      12.749 -29.017  42.581  1.00  0.00     0.066 CG0
ATOM     18  G   UNL     1      11.984 -30.316  42.793  1.00  0.00     0.000 G0
ENDBRANCH  13  17
ENDBRANCH  11  13
ENDBRANCH  10  11
ENDBRANCH   1  10
TORSDOF 0
ENDMDL
MODEL 5
REMARK VINA RESULT:    -3.216      2.798      4.020
REMARK INTER + INTRA:          -4.886
REMARK INTER:                  -4.695
REMARK INTRA:                  -0.190
REMARK UNBOUND:                -0.353
REMARK SMILES CC1=CCC(=C(C)C)C(=O)CC(C)=CCC1
REMARK SMILES IDX 12 1 14 2 13 3 15 4 16 5 2 6 1 7 3 8 11 10 9 11 10 12 5 13
REMARK SMILES IDX 6 14 7 15 8 16 4 17
REMARK H PARENT
REMARK Flexibility Score: 60.00
ROOT
ATOM      1  C   UNL     1       9.593 -25.200  40.349  1.00  0.00    -0.070 C 
ATOM      2  C   UNL     1       8.625 -25.758  41.113  1.00  0.00    -0.027 C 
ATOM      3  C   UNL     1       9.728 -23.697  40.400  1.00  0.00     0.039 C 
ENDROOT
BRANCH   2   4
ATOM      4  C   UNL     1       8.278 -27.223  41.190  1.00  0.00     0.032 C 
BRANCH   4   5
ATOM      5  C   UNL     1       9.273 -28.094  41.993  1.00  0.00     0.034 C 
BRANCH   5   6
ATOM      6  C   UNL     1       9.738 -29.368  41.301  1.00  0.00    -0.077 C 
ATOM      7  C   UNL     1       8.730 -30.481  41.136  1.00  0.00     0.039 C 
ATOM      8  C   UNL     1      10.974 -29.566  40.767  1.00  0.00    -0.023 CG0
ATOM      9  G   UNL     1      12.235 -28.722  40.886  1.00  0.00     0.000 G0
ENDBRANCH   5   6
ENDBRANCH   4   5
ENDBRANCH   2   4
BRANCH   1  10
ATOM     10  C   UNL     1      10.517 -25.967  39.409  1.00  0.00     0.111 C 
BRANCH  10  11
ATOM     11  C   UNL     1      11.879 -26.333  39.951  1.00  0.00     0.163 C 
ATOM     12  O   UNL     1      12.506 -25.420  40.555  1.00  0.00    -0.294 OA
BRANCH  11  13
ATOM     13  C   UNL     1      12.507 -27.696  39.792  1.00  0.00    -0.002 C 
ATOM     14  C   UNL     1      13.236 -28.036  38.683  1.00  0.00    -0.069 C 
ATOM     15  C   UNL     1      13.598 -27.029  37.615  1.00  0.00     0.039 C 
ATOM     16  C   UNL     1      13.756 -29.444  38.483  1.00  0.00     0.039 C 
BRANCH  13  17
ATOM     17  C   UNL     1      12.260 -28.731  40.879  1.00  0.00     0.066 CG0
ATOM     18  G   UNL     1      10.983 -29.551  40.767  1.00  0.00     0.000 G0
ENDBRANCH  13  17
ENDBRANCH  11  13
ENDBRANCH  10  11
ENDBRANCH   1  10
TORSDOF 0
ENDMDL
MODEL 6
REMARK VINA RESULT:    -3.129      2.276      3.199
REMARK INTER + INTRA:          -4.763
REMARK INTER:                  -4.628
REMARK INTRA:                  -0.135
REMARK UNBOUND:                -0.353
REMARK SMILES CC1=CCC(=C(C)C)C(=O)CC(C)=CCC1
REMARK SMILES IDX 12 1 14 2 13 3 15 4 16 5 2 6 1 7 3 8 11 10 9 11 10 12 5 13
REMARK SMILES IDX 6 14 7 15 8 16 4 17
REMARK H PARENT
REMARK Flexibility Score: 60.00
ROOT
ATOM      1  C   UNL     1      10.320 -24.621  40.669  1.00  0.00    -0.070 C 
ATOM      2  C   UNL     1       9.133 -25.196  40.975  1.00  0.00    -0.027 C 
ATOM      3  C   UNL     1      10.294 -23.172  40.248  1.00  0.00     0.039 C 
ENDROOT
BRANCH   2   4
ATOM      4  C   UNL     1       8.910 -26.632  41.375  1.00  0.00     0.032 C 
BRANCH   4   5
ATOM      5  C   UNL     1       9.035 -27.663  40.227  1.00  0.00     0.034 C 
BRANCH   5   6
ATOM      6  C   UNL     1      10.017 -28.801  40.470  1.00  0.00    -0.077 C 
ATOM      7  C   UNL     1       9.715 -29.754  41.602  1.00  0.00     0.039 C 
ATOM      8  C   UNL     1      11.115 -29.066  39.712  1.00  0.00    -0.023 CG0
ATOM      9  G   UNL     1      11.766 -28.238  38.613  1.00  0.00     0.000 G0
ENDBRANCH   5   6
ENDBRANCH   4   5
ENDBRANCH   2   4
BRANCH   1  10
ATOM     10  C   UNL     1      11.665 -25.339  40.669  1.00  0.00     0.111 C 
BRANCH  10  11
ATOM     11  C   UNL     1      12.198 -25.779  39.325  1.00  0.00     0.163 C 
ATOM     12  O   UNL     1      12.155 -24.923  38.399  1.00  0.00    -0.294 OA
BRANCH  11  13
ATOM     13  C   UNL     1      12.747 -27.157  39.049  1.00  0.00    -0.002 C 
ATOM     14  C   UNL     1      14.087 -27.433  39.129  1.00  0.00    -0.069 C 
ATOM     15  C   UNL     1      15.090 -26.429  39.650  1.00  0.00     0.039 C 
ATOM     16  C   UNL     1      14.636 -28.788  38.731  1.00  0.00     0.039 C 
BRANCH  13  17
ATOM     17  C   UNL     1      11.777 -28.242  38.610  1.00  0.00     0.066 CG0
ATOM     18  G   UNL     1      11.124 -29.065  39.711  1.00  0.00     0.000 G0
ENDBRANCH  13  17
ENDBRANCH  11  13
ENDBRANCH  10  11
ENDBRANCH   1  10
TORSDOF 0
ENDMDL
MODEL 7
REMARK VINA RESULT:    -3.127      3.002      5.974
REMARK INTER + INTRA:          -4.760
REMARK INTER:                  -4.566
REMARK INTRA:                  -0.195
REMARK UNBOUND:                -0.353
REMARK SMILES CC1=CCC(=C(C)C)C(=O)CC(C)=CCC1
REMARK SMILES IDX 12 1 14 2 13 3 15 4 16 5 2 6 1 7 3 8 11 10 9 11 10 12 5 13
REMARK SMILES IDX 6 14 7 15 8 16 4 17
REMARK H PARENT
REMARK Flexibility Score: 60.00
ROOT
ATOM      1  C   UNL     1      13.424 -29.662  38.758  1.00  0.00    -0.070 C 
ATOM      2  C   UNL     1      14.657 -29.215  39.094  1.00  0.00    -0.027 C 
ATOM      3  C   UNL     1      12.923 -30.896  39.470  1.00  0.00     0.039 C 
ENDROOT
BRANCH   2   4
ATOM      4  C   UNL     1      15.378 -28.037  38.489  1.00  0.00     0.032 C 
BRANCH   4   5
ATOM      5  C   UNL     1      15.557 -26.821  39.429  1.00  0.00     0.034 C 
BRANCH   5   6
ATOM      6  C   UNL     1      14.598 -25.662  39.196  1.00  0.00    -0.077 C 
ATOM      7  C   UNL     1      15.145 -24.429  38.518  1.00  0.00     0.039 C 
ATOM      8  C   UNL     1      13.271 -25.668  39.497  1.00  0.00    -0.023 CG0
ATOM      9  G   UNL     1      12.456 -26.674  40.297  1.00  0.00     0.000 G0
ENDBRANCH   5   6
ENDBRANCH   4   5
ENDBRANCH   2   4
BRANCH   1  10
ATOM     10  C   UNL     1      12.532 -29.046  37.686  1.00  0.00     0.111 C 
BRANCH  10  11
ATOM     11  C   UNL     1      11.699 -27.855  38.102  1.00  0.00     0.163 C 
ATOM     12  O   UNL     1      11.244 -27.138  37.169  1.00  0.00    -0.294 OA
BRANCH  11  13
ATOM     13  C   UNL     1      11.408 -27.493  39.537  1.00  0.00    -0.002 C 
ATOM     14  C   UNL     1      10.226 -27.825  40.145  1.00  0.00    -0.069 C 
ATOM     15  C   UNL     1       9.196 -28.710  39.481  1.00  0.00     0.039 C 
ATOM     16  C   UNL     1       9.900 -27.348  41.545  1.00  0.00     0.039 C 
BRANCH  13  17
ATOM     17  C   UNL     1      12.445 -26.680  40.296  1.00  0.00     0.066 CG0
ATOM     18  G   UNL     1      13.248 -25.669  39.490  1.00  0.00     0.000 G0
ENDBRANCH  13  17
ENDBRANCH  11  13
ENDBRANCH  10  11
ENDBRANCH   1  10
TORSDOF 0
ENDMDL
MODEL 8
REMARK VINA RESULT:    -3.085      2.466      4.799
REMARK INTER + INTRA:          -4.701
REMARK INTER:                  -4.668
REMARK INTRA:                  -0.033
REMARK UNBOUND:                -0.353
REMARK SMILES CC1=CCC(=C(C)C)C(=O)CC(C)=CCC1
REMARK SMILES IDX 12 1 14 2 13 3 15 4 16 5 2 6 1 7 3 8 11 10 9 11 10 12 5 13
REMARK SMILES IDX 6 14 7 15 8 16 4 17
REMARK H PARENT
REMARK Flexibility Score: 60.00
ROOT
ATOM      1  C   UNL     1       9.940 -28.271  41.930  1.00  0.00    -0.070 C 
ATOM      2  C   UNL     1      11.076 -29.002  41.856  1.00  0.00    -0.027 C 
ATOM      3  C   UNL     1       8.634 -29.029  41.929  1.00  0.00     0.039 C 
ENDROOT
BRANCH   2   4
ATOM      4  C   UNL     1      12.484 -28.466  41.797  1.00  0.00     0.032 C 
BRANCH   4   5
ATOM      5  C   UNL     1      13.251 -28.768  40.488  1.00  0.00     0.034 C 
BRANCH   5   6
ATOM      6  C   UNL     1      12.506 -28.443  39.200  1.00  0.00    -0.077 C 
ATOM      7  C   UNL     1      12.234 -29.580  38.244  1.00  0.00     0.039 C 
ATOM      8  C   UNL     1      12.012 -27.219  38.866  1.00  0.00    -0.023 CG0
ATOM      9  G   UNL     1      12.231 -25.865  39.524  1.00  0.00     0.000 G0
ENDBRANCH   5   6
ENDBRANCH   4   5
ENDBRANCH   2   4
BRANCH   1  10
ATOM     10  C   UNL     1       9.879 -26.748  41.962  1.00  0.00     0.111 C 
BRANCH  10  11
ATOM     11  C   UNL     1       9.871 -26.043  40.625  1.00  0.00     0.163 C 
ATOM     12  O   UNL     1       8.850 -26.221  39.905  1.00  0.00    -0.294 OA
BRANCH  11  13
ATOM     13  C   UNL     1      10.999 -25.175  40.126  1.00  0.00    -0.002 C 
ATOM     14  C   UNL     1      10.927 -23.807  40.147  1.00  0.00    -0.069 C 
ATOM     15  C   UNL     1       9.789 -23.068  40.813  1.00  0.00     0.039 C 
ATOM     16  C   UNL     1      12.015 -22.952  39.531  1.00  0.00     0.039 C 
BRANCH  13  17
ATOM     17  C   UNL     1      12.219 -25.858  39.526  1.00  0.00     0.066 CG0
ATOM     18  G   UNL     1      11.994 -27.216  38.877  1.00  0.00     0.000 G0
ENDBRANCH  13  17
ENDBRANCH  11  13
ENDBRANCH  10  11
ENDBRANCH   1  10
TORSDOF 0
ENDMDL
MODEL 9
REMARK VINA RESULT:    -3.001      1.679      3.939
REMARK INTER + INTRA:          -4.582
REMARK INTER:                  -4.394
REMARK INTRA:                  -0.187
REMARK UNBOUND:                -0.353
REMARK SMILES CC1=CCC(=C(C)C)C(=O)CC(C)=CCC1
REMARK SMILES IDX 12 1 14 2 13 3 15 4 16 5 2 6 1 7 3 8 11 10 9 11 10 12 5 13
REMARK SMILES IDX 6 14 7 15 8 16 4 17
REMARK H PARENT
REMARK Flexibility Score: 60.00
ROOT
ATOM      1  C   UNL     1      15.804 -24.064  39.748  1.00  0.00    -0.070 C 
ATOM      2  C   UNL     1      15.939 -25.287  40.311  1.00  0.00    -0.027 C 
ATOM      3  C   UNL     1      16.069 -22.867  40.630  1.00  0.00     0.039 C 
ENDROOT
BRANCH   2   4
ATOM      4  C   UNL     1      15.684 -26.614  39.642  1.00  0.00     0.032 C 
BRANCH   4   5
ATOM      5  C   UNL     1      14.281 -27.217  39.888  1.00  0.00     0.034 C 
BRANCH   5   6
ATOM      6  C   UNL     1      13.264 -26.988  38.778  1.00  0.00    -0.077 C 
ATOM      7  C   UNL     1      13.243 -27.975  37.636  1.00  0.00     0.039 C 
ATOM      8  C   UNL     1      12.330 -25.998  38.760  1.00  0.00    -0.023 CG0
ATOM      9  G   UNL     1      12.177 -24.784  39.665  1.00  0.00     0.000 G0
ENDBRANCH   5   6
ENDBRANCH   4   5
ENDBRANCH   2   4
BRANCH   1  10
ATOM     10  C   UNL     1      15.356 -23.805  38.313  1.00  0.00     0.111 C 
BRANCH  10  11
ATOM     11  C   UNL     1      13.877 -23.588  38.094  1.00  0.00     0.163 C 
ATOM     12  O   UNL     1      13.500 -23.467  36.896  1.00  0.00    -0.294 OA
BRANCH  11  13
ATOM     13  C   UNL     1      12.867 -23.498  39.211  1.00  0.00    -0.002 C 
ATOM     14  C   UNL     1      12.604 -22.320  39.861  1.00  0.00    -0.069 C 
ATOM     15  C   UNL     1      13.184 -21.001  39.406  1.00  0.00     0.039 C 
ATOM     16  C   UNL     1      11.679 -22.272  41.059  1.00  0.00     0.039 C 
BRANCH  13  17
ATOM     17  C   UNL     1      12.175 -24.777  39.657  1.00  0.00     0.066 CG0
ATOM     18  G   UNL     1      12.335 -25.993  38.757  1.00  0.00     0.000 G0
ENDBRANCH  13  17
ENDBRANCH  11  13
ENDBRANCH  10  11
ENDBRANCH   1  10
TORSDOF 0
ENDMDL
