MODEL 1
REMARK VINA RESULT:    -4.613      0.000      0.000
REMARK INTER + INTRA:          -6.699
REMARK INTER:                  -7.039
REMARK INTRA:                   0.340
REMARK UNBOUND:                 0.340
REMARK SMILES CC1=CCC[C@@H](C)C(=O)C[C@@H](C(C)C)C(=O)C1
REMARK SMILES IDX 8 1 9 2 6 3 7 4 5 5 4 6 3 7 2 8 1 9 10 11 11 12 15 13 16 14
REMARK SMILES IDX 17 15 12 17 13 18 14 19
REMARK H PARENT
REMARK Flexibility Score: 70.00
ROOT
ATOM      1  C   UNL     1      36.100   8.834  26.603  1.00  0.00     0.136 C 
ATOM      2  O   UNL     1      35.829   9.433  25.575  1.00  0.00    -0.299 OA
ENDROOT
BRANCH   1   3
ATOM      3  C   UNL     1      36.833   7.506  26.507  1.00  0.00     0.053 C 
ATOM      4  C   UNL     1      37.306   7.059  27.897  1.00  0.00     0.016 C 
BRANCH   3   5
ATOM      5  C   UNL     1      38.024   7.611  25.529  1.00  0.00     0.015 C 
BRANCH   5   6
ATOM      6  C   UNL     1      39.339   7.933  26.267  1.00  0.00     0.028 C 
BRANCH   6   7
ATOM      7  C   UNL     1      39.797   9.354  26.055  1.00  0.00    -0.028 C 
ATOM      8  C   UNL     1      39.483  10.401  26.857  1.00  0.00    -0.070 CG0
ATOM      9  C   UNL     1      39.969  11.769  26.447  1.00  0.00     0.039 C 
ATOM     10  G   UNL     1      38.693  10.256  28.150  1.00  0.00     0.000 G0
ENDBRANCH   6   7
ENDBRANCH   5   6
ENDBRANCH   3   5
ENDBRANCH   1   3
BRANCH   1  11
ATOM     11  C   UNL     1      35.786   9.464  27.943  1.00  0.00     0.087 C 
BRANCH  11  12
ATOM     12  C   UNL     1      36.137  10.974  28.123  1.00  0.00     0.066 C 
BRANCH  12  13
ATOM     13  C   UNL     1      37.617  11.287  28.345  1.00  0.00     0.140 C 
ATOM     14  O   UNL     1      37.916  12.394  28.773  1.00  0.00    -0.299 OA
BRANCH  13  15
ATOM     15  C   UNL     1      38.721  10.266  28.171  1.00  0.00     0.106 CG0
ATOM     16  G   UNL     1      39.468  10.410  26.852  1.00  0.00     0.000 G0
ENDBRANCH  13  15
ENDBRANCH  12  13
BRANCH  12  17
ATOM     17  C   UNL     1      35.144  11.795  29.011  1.00  0.00    -0.006 C 
ATOM     18  C   UNL     1      35.028  13.286  28.667  1.00  0.00     0.008 C 
ATOM     19  C   UNL     1      33.748  11.148  29.045  1.00  0.00     0.008 C 
ENDBRANCH  12  17
ENDBRANCH  11  12
ENDBRANCH   1  11
TORSDOF 1
ENDMDL
MODEL 2
REMARK VINA RESULT:    -4.588      1.577      3.493
REMARK INTER + INTRA:          -6.661
REMARK INTER:                  -6.937
REMARK INTRA:                   0.276
REMARK UNBOUND:                 0.340
REMARK SMILES CC1=CCC[C@@H](C)C(=O)C[C@@H](C(C)C)C(=O)C1
REMARK SMILES IDX 8 1 9 2 6 3 7 4 5 5 4 6 3 7 2 8 1 9 10 11 11 12 15 13 16 14
REMARK SMILES IDX 17 15 12 17 13 18 14 19
REMARK H PARENT
REMARK Flexibility Score: 70.00
ROOT
ATOM      1  C   UNL     1      38.509  10.030  28.370  1.00  0.00     0.136 C 
ATOM      2  O   UNL     1      38.328   9.141  29.186  1.00  0.00    -0.299 OA
ENDROOT
BRANCH   1   3
ATOM      3  C   UNL     1      39.865  10.139  27.692  1.00  0.00     0.053 C 
ATOM      4  C   UNL     1      39.773  11.058  26.466  1.00  0.00     0.016 C 
BRANCH   3   5
ATOM      5  C   UNL     1      40.387   8.741  27.292  1.00  0.00     0.015 C 
BRANCH   5   6
ATOM      6  C   UNL     1      39.935   8.351  25.871  1.00  0.00     0.028 C 
BRANCH   6   7
ATOM      7  C   UNL     1      38.792   7.367  25.869  1.00  0.00    -0.028 C 
ATOM      8  C   UNL     1      37.481   7.697  25.774  1.00  0.00    -0.070 CG0
ATOM      9  C   UNL     1      36.468   6.583  25.865  1.00  0.00     0.039 C 
ATOM     10  G   UNL     1      36.991   9.122  25.555  1.00  0.00     0.000 G0
ENDBRANCH   6   7
ENDBRANCH   5   6
ENDBRANCH   3   5
ENDBRANCH   1   3
BRANCH   1  11
ATOM     11  C   UNL     1      37.362  10.941  27.987  1.00  0.00     0.087 C 
BRANCH  11  12
ATOM     12  C   UNL     1      35.971  10.275  27.746  1.00  0.00     0.066 C 
BRANCH  12  13
ATOM     13  C   UNL     1      35.820   9.517  26.427  1.00  0.00     0.140 C 
ATOM     14  O   UNL     1      34.689   9.278  26.024  1.00  0.00    -0.299 OA
BRANCH  13  15
ATOM     15  C   UNL     1      36.989   9.143  25.540  1.00  0.00     0.106 CG0
ATOM     16  G   UNL     1      37.486   7.723  25.770  1.00  0.00     0.000 G0
ENDBRANCH  13  15
ENDBRANCH  12  13
BRANCH  12  17
ATOM     17  C   UNL     1      34.732  11.135  28.164  1.00  0.00    -0.006 C 
ATOM     18  C   UNL     1      33.515  10.343  28.659  1.00  0.00     0.008 C 
ATOM     19  C   UNL     1      35.114  12.218  29.187  1.00  0.00     0.008 C 
ENDBRANCH  12  17
ENDBRANCH  11  12
ENDBRANCH   1  11
TORSDOF 1
ENDMDL
MODEL 3
REMARK VINA RESULT:    -4.488      1.974      4.861
REMARK INTER + INTRA:          -6.510
REMARK INTER:                  -6.473
REMARK INTRA:                  -0.036
REMARK UNBOUND:                 0.340
REMARK SMILES CC1=CCC[C@@H](C)C(=O)C[C@@H](C(C)C)C(=O)C1
REMARK SMILES IDX 8 1 9 2 6 3 7 4 5 5 4 6 3 7 2 8 1 9 10 11 11 12 15 13 16 14
REMARK SMILES IDX 17 15 12 17 13 18 14 19
REMARK H PARENT
REMARK Flexibility Score: 70.00
ROOT
ATOM      1  C   UNL     1      36.687  11.346  28.400  1.00  0.00     0.136 C 
ATOM      2  O   UNL     1      37.235  12.385  28.734  1.00  0.00    -0.299 OA
ENDROOT
BRANCH   1   3
ATOM      3  C   UNL     1      35.207  11.375  28.060  1.00  0.00     0.053 C 
ATOM      4  C   UNL     1      34.428  12.139  29.140  1.00  0.00     0.016 C 
BRANCH   3   5
ATOM      5  C   UNL     1      34.657   9.940  27.899  1.00  0.00     0.015 C 
BRANCH   5   6
ATOM      6  C   UNL     1      34.568   9.528  26.417  1.00  0.00     0.028 C 
BRANCH   6   7
ATOM      7  C   UNL     1      34.734   8.043  26.211  1.00  0.00    -0.028 C 
ATOM      8  C   UNL     1      35.798   7.454  25.613  1.00  0.00    -0.070 CG0
ATOM      9  C   UNL     1      35.759   5.957  25.426  1.00  0.00     0.039 C 
ATOM     10  G   UNL     1      37.029   8.222  25.152  1.00  0.00     0.000 G0
ENDBRANCH   6   7
ENDBRANCH   5   6
ENDBRANCH   3   5
ENDBRANCH   1   3
BRANCH   1  11
ATOM     11  C   UNL     1      37.506  10.082  28.245  1.00  0.00     0.087 C 
BRANCH  11  12
ATOM     12  C   UNL     1      38.241   9.870  26.884  1.00  0.00     0.066 C 
BRANCH  12  13
ATOM     13  C   UNL     1      38.050   8.497  26.237  1.00  0.00     0.140 C 
ATOM     14  O   UNL     1      38.680   7.552  26.691  1.00  0.00    -0.299 OA
BRANCH  13  15
ATOM     15  C   UNL     1      37.043   8.224  25.140  1.00  0.00     0.106 CG0
ATOM     16  G   UNL     1      35.820   7.460  25.626  1.00  0.00     0.000 G0
ENDBRANCH  13  15
ENDBRANCH  12  13
BRANCH  12  17
ATOM     17  C   UNL     1      39.694  10.445  26.807  1.00  0.00    -0.006 C 
ATOM     18  C   UNL     1      39.794  11.954  26.551  1.00  0.00     0.008 C 
ATOM     19  C   UNL     1      40.522  10.059  28.044  1.00  0.00     0.008 C 
ENDBRANCH  12  17
ENDBRANCH  11  12
ENDBRANCH   1  11
TORSDOF 1
ENDMDL
MODEL 4
REMARK VINA RESULT:    -4.427      1.756      4.129
REMARK INTER + INTRA:          -6.416
REMARK INTER:                  -6.310
REMARK INTRA:                  -0.106
REMARK UNBOUND:                 0.340
REMARK SMILES CC1=CCC[C@@H](C)C(=O)C[C@@H](C(C)C)C(=O)C1
REMARK SMILES IDX 8 1 9 2 6 3 7 4 5 5 4 6 3 7 2 8 1 9 10 11 11 12 15 13 16 14
REMARK SMILES IDX 17 15 12 17 13 18 14 19
REMARK H PARENT
REMARK Flexibility Score: 70.00
ROOT
ATOM      1  C   UNL     1      34.637   9.286  26.681  1.00  0.00     0.136 C 
ATOM      2  O   UNL     1      33.582   8.957  26.163  1.00  0.00    -0.299 OA
ENDROOT
BRANCH   1   3
ATOM      3  C   UNL     1      34.604  10.039  28.000  1.00  0.00     0.053 C 
ATOM      4  C   UNL     1      33.159  10.404  28.367  1.00  0.00     0.016 C 
BRANCH   3   5
ATOM      5  C   UNL     1      35.488  11.304  27.927  1.00  0.00     0.015 C 
BRANCH   5   6
ATOM      6  C   UNL     1      36.786  11.139  28.741  1.00  0.00     0.028 C 
BRANCH   6   7
ATOM      7  C   UNL     1      38.021  11.498  27.953  1.00  0.00    -0.028 C 
ATOM      8  C   UNL     1      39.023  10.640  27.643  1.00  0.00    -0.070 CG0
ATOM      9  C   UNL     1      40.220  11.194  26.911  1.00  0.00     0.039 C 
ATOM     10  G   UNL     1      38.985   9.155  27.974  1.00  0.00     0.000 G0
ENDBRANCH   6   7
ENDBRANCH   5   6
ENDBRANCH   3   5
ENDBRANCH   1   3
BRANCH   1  11
ATOM     11  C   UNL     1      35.946   8.859  26.050  1.00  0.00     0.087 C 
BRANCH  11  12
ATOM     12  C   UNL     1      36.874   7.928  26.890  1.00  0.00     0.066 C 
BRANCH  12  13
ATOM     13  C   UNL     1      38.358   8.298  26.891  1.00  0.00     0.140 C 
ATOM     14  O   UNL     1      39.037   7.967  25.929  1.00  0.00    -0.299 OA
BRANCH  13  15
ATOM     15  C   UNL     1      39.005   9.148  27.964  1.00  0.00     0.106 CG0
ATOM     16  G   UNL     1      39.026  10.631  27.623  1.00  0.00     0.000 G0
ENDBRANCH  13  15
ENDBRANCH  12  13
BRANCH  12  17
ATOM     17  C   UNL     1      36.572   6.397  26.777  1.00  0.00    -0.006 C 
ATOM     18  C   UNL     1      36.378   5.865  25.351  1.00  0.00     0.008 C 
ATOM     19  C   UNL     1      37.625   5.556  27.519  1.00  0.00     0.008 C 
ENDBRANCH  12  17
ENDBRANCH  11  12
ENDBRANCH   1  11
TORSDOF 1
ENDMDL
MODEL 5
REMARK VINA RESULT:    -4.395      7.504     10.185
REMARK INTER + INTRA:          -6.367
REMARK INTER:                  -6.552
REMARK INTRA:                   0.185
REMARK UNBOUND:                 0.340
REMARK SMILES CC1=CCC[C@@H](C)C(=O)C[C@@H](C(C)C)C(=O)C1
REMARK SMILES IDX 8 1 9 2 6 3 7 4 5 5 4 6 3 7 2 8 1 9 10 11 11 12 15 13 16 14
REMARK SMILES IDX 17 15 12 17 13 18 14 19
REMARK H PARENT
REMARK Flexibility Score: 70.00
ROOT
ATOM      1  C   UNL     1      27.620  11.068  26.030  1.00  0.00     0.136 C 
ATOM      2  O   UNL     1      27.810  11.560  24.930  1.00  0.00    -0.299 OA
ENDROOT
BRANCH   1   3
ATOM      3  C   UNL     1      26.192  10.811  26.482  1.00  0.00     0.053 C 
ATOM      4  C   UNL     1      25.776  11.843  27.539  1.00  0.00     0.016 C 
BRANCH   3   5
ATOM      5  C   UNL     1      26.045   9.374  27.032  1.00  0.00     0.015 C 
BRANCH   5   6
ATOM      6  C   UNL     1      26.238   8.319  25.925  1.00  0.00     0.028 C 
BRANCH   6   7
ATOM      7  C   UNL     1      26.585   6.956  26.469  1.00  0.00    -0.028 C 
ATOM      8  C   UNL     1      27.805   6.372  26.384  1.00  0.00    -0.070 CG0
ATOM      9  C   UNL     1      27.951   4.969  26.919  1.00  0.00     0.039 C 
ATOM     10  G   UNL     1      29.028   7.069  25.803  1.00  0.00     0.000 G0
ENDBRANCH   6   7
ENDBRANCH   5   6
ENDBRANCH   3   5
ENDBRANCH   1   3
BRANCH   1  11
ATOM     11  C   UNL     1      28.802  10.642  26.875  1.00  0.00     0.087 C 
BRANCH  11  12
ATOM     12  C   UNL     1      29.786   9.601  26.256  1.00  0.00     0.066 C 
BRANCH  12  13
ATOM     13  C   UNL     1      29.589   8.154  26.708  1.00  0.00     0.140 C 
ATOM     14  O   UNL     1      29.805   7.881  27.882  1.00  0.00    -0.299 OA
BRANCH  13  15
ATOM     15  C   UNL     1      29.037   7.067  25.811  1.00  0.00     0.106 CG0
ATOM     16  G   UNL     1      27.801   6.387  26.384  1.00  0.00     0.000 G0
ENDBRANCH  13  15
ENDBRANCH  12  13
BRANCH  12  17
ATOM     17  C   UNL     1      31.275  10.066  26.145  1.00  0.00    -0.006 C 
ATOM     18  C   UNL     1      32.006  10.265  27.479  1.00  0.00     0.008 C 
ATOM     19  C   UNL     1      32.090   9.140  25.226  1.00  0.00     0.008 C 
ENDBRANCH  12  17
ENDBRANCH  11  12
ENDBRANCH   1  11
TORSDOF 1
ENDMDL
MODEL 6
REMARK VINA RESULT:    -4.302      1.890      3.722
REMARK INTER + INTRA:          -6.225
REMARK INTER:                  -6.294
REMARK INTRA:                   0.069
REMARK UNBOUND:                 0.340
REMARK SMILES CC1=CCC[C@@H](C)C(=O)C[C@@H](C(C)C)C(=O)C1
REMARK SMILES IDX 8 1 9 2 6 3 7 4 5 5 4 6 3 7 2 8 1 9 10 11 11 12 15 13 16 14
REMARK SMILES IDX 17 15 12 17 13 18 14 19
REMARK H PARENT
REMARK Flexibility Score: 70.00
ROOT
ATOM      1  C   UNL     1      39.377  10.376  27.691  1.00  0.00     0.136 C 
ATOM      2  O   UNL     1      39.896  11.170  26.923  1.00  0.00    -0.299 OA
ENDROOT
BRANCH   1   3
ATOM      3  C   UNL     1      40.232   9.275  28.295  1.00  0.00     0.053 C 
ATOM      4  C   UNL     1      41.257   8.775  27.268  1.00  0.00     0.016 C 
BRANCH   3   5
ATOM      5  C   UNL     1      39.347   8.112  28.797  1.00  0.00     0.015 C 
BRANCH   5   6
ATOM      6  C   UNL     1      39.454   6.878  27.880  1.00  0.00     0.028 C 
BRANCH   6   7
ATOM      7  C   UNL     1      38.117   6.428  27.347  1.00  0.00    -0.028 C 
ATOM      8  C   UNL     1      37.451   7.011  26.321  1.00  0.00    -0.070 CG0
ATOM      9  C   UNL     1      36.086   6.470  25.973  1.00  0.00     0.039 C 
ATOM     10  G   UNL     1      38.022   8.156  25.497  1.00  0.00     0.000 G0
ENDBRANCH   6   7
ENDBRANCH   5   6
ENDBRANCH   3   5
ENDBRANCH   1   3
BRANCH   1  11
ATOM     11  C   UNL     1      37.929  10.559  28.095  1.00  0.00     0.087 C 
BRANCH  11  12
ATOM     12  C   UNL     1      36.844   9.919  27.174  1.00  0.00     0.066 C 
BRANCH  12  13
ATOM     13  C   UNL     1      37.321   9.497  25.784  1.00  0.00     0.140 C 
ATOM     14  O   UNL     1      37.226  10.306  24.870  1.00  0.00    -0.299 OA
BRANCH  13  15
ATOM     15  C   UNL     1      38.006   8.177  25.501  1.00  0.00     0.106 CG0
ATOM     16  G   UNL     1      37.435   7.020  26.309  1.00  0.00     0.000 G0
ENDBRANCH  13  15
ENDBRANCH  12  13
BRANCH  12  17
ATOM     17  C   UNL     1      35.438  10.603  27.215  1.00  0.00    -0.006 C 
ATOM     18  C   UNL     1      34.238   9.647  27.216  1.00  0.00     0.008 C 
ATOM     19  C   UNL     1      35.326  11.598  28.382  1.00  0.00     0.008 C 
ENDBRANCH  12  17
ENDBRANCH  11  12
ENDBRANCH   1  11
TORSDOF 1
ENDMDL
MODEL 7
REMARK VINA RESULT:    -4.243      2.037      4.770
REMARK INTER + INTRA:          -6.135
REMARK INTER:                  -6.369
REMARK INTRA:                   0.234
REMARK UNBOUND:                 0.340
REMARK SMILES CC1=CCC[C@@H](C)C(=O)C[C@@H](C(C)C)C(=O)C1
REMARK SMILES IDX 8 1 9 2 6 3 7 4 5 5 4 6 3 7 2 8 1 9 10 11 11 12 15 13 16 14
REMARK SMILES IDX 17 15 12 17 13 18 14 19
REMARK H PARENT
REMARK Flexibility Score: 70.00
ROOT
ATOM      1  C   UNL     1      37.570  10.946  28.391  1.00  0.00     0.136 C 
ATOM      2  O   UNL     1      38.281  11.937  28.366  1.00  0.00    -0.299 OA
ENDROOT
BRANCH   1   3
ATOM      3  C   UNL     1      36.105  11.084  28.013  1.00  0.00     0.053 C 
ATOM      4  C   UNL     1      35.478  12.280  28.742  1.00  0.00     0.016 C 
BRANCH   3   5
ATOM      5  C   UNL     1      35.335   9.783  28.331  1.00  0.00     0.015 C 
BRANCH   5   6
ATOM      6  C   UNL     1      35.064   8.956  27.059  1.00  0.00     0.028 C 
BRANCH   6   7
ATOM      7  C   UNL     1      35.619   9.599  25.814  1.00  0.00    -0.028 C 
ATOM      8  C   UNL     1      36.845   9.353  25.291  1.00  0.00    -0.070 CG0
ATOM      9  C   UNL     1      37.263  10.147  24.078  1.00  0.00     0.039 C 
ATOM     10  G   UNL     1      37.797   8.305  25.850  1.00  0.00     0.000 G0
ENDBRANCH   6   7
ENDBRANCH   5   6
ENDBRANCH   3   5
ENDBRANCH   1   3
BRANCH   1  11
ATOM     11  C   UNL     1      38.177   9.595  28.707  1.00  0.00     0.087 C 
BRANCH  11  12
ATOM     12  C   UNL     1      39.397   9.141  27.846  1.00  0.00     0.066 C 
BRANCH  12  13
ATOM     13  C   UNL     1      39.108   8.907  26.362  1.00  0.00     0.140 C 
ATOM     14  O   UNL     1      40.001   9.136  25.557  1.00  0.00    -0.299 OA
BRANCH  13  15
ATOM     15  C   UNL     1      37.818   8.305  25.847  1.00  0.00     0.106 CG0
ATOM     16  G   UNL     1      36.850   9.343  25.296  1.00  0.00     0.000 G0
ENDBRANCH  13  15
ENDBRANCH  12  13
BRANCH  12  17
ATOM     17  C   UNL     1      40.336   8.084  28.514  1.00  0.00    -0.006 C 
ATOM     18  C   UNL     1      40.392   6.716  27.820  1.00  0.00     0.008 C 
ATOM     19  C   UNL     1      41.758   8.636  28.714  1.00  0.00     0.008 C 
ENDBRANCH  12  17
ENDBRANCH  11  12
ENDBRANCH   1  11
TORSDOF 1
ENDMDL
MODEL 8
REMARK VINA RESULT:    -4.103      2.092      5.018
REMARK INTER + INTRA:          -5.921
REMARK INTER:                  -5.831
REMARK INTRA:                  -0.090
REMARK UNBOUND:                 0.340
REMARK SMILES CC1=CCC[C@@H](C)C(=O)C[C@@H](C(C)C)C(=O)C1
REMARK SMILES IDX 8 1 9 2 6 3 7 4 5 5 4 6 3 7 2 8 1 9 10 11 11 12 15 13 16 14
REMARK SMILES IDX 17 15 12 17 13 18 14 19
REMARK H PARENT
REMARK Flexibility Score: 70.00
ROOT
ATOM      1  C   UNL     1      38.494   9.566  25.441  1.00  0.00     0.136 C 
ATOM      2  O   UNL     1      38.005  10.168  24.498  1.00  0.00    -0.299 OA
ENDROOT
BRANCH   1   3
ATOM      3  C   UNL     1      38.853  10.340  26.698  1.00  0.00     0.053 C 
ATOM      4  C   UNL     1      40.021  11.295  26.419  1.00  0.00     0.016 C 
BRANCH   3   5
ATOM      5  C   UNL     1      39.200   9.373  27.852  1.00  0.00     0.015 C 
BRANCH   5   6
ATOM      6  C   UNL     1      37.981   9.104  28.756  1.00  0.00     0.028 C 
BRANCH   6   7
ATOM      7  C   UNL     1      36.800   9.981  28.422  1.00  0.00    -0.028 C 
ATOM      8  C   UNL     1      35.739   9.605  27.668  1.00  0.00    -0.070 CG0
ATOM      9  C   UNL     1      34.683  10.642  27.374  1.00  0.00     0.039 C 
ATOM     10  G   UNL     1      35.554   8.192  27.131  1.00  0.00     0.000 G0
ENDBRANCH   6   7
ENDBRANCH   5   6
ENDBRANCH   3   5
ENDBRANCH   1   3
BRANCH   1  11
ATOM     11  C   UNL     1      38.644   8.061  25.373  1.00  0.00     0.087 C 
BRANCH  11  12
ATOM     12  C   UNL     1      37.337   7.210  25.405  1.00  0.00     0.066 C 
BRANCH  12  13
ATOM     13  C   UNL     1      36.055   7.977  25.731  1.00  0.00     0.140 C 
ATOM     14  O   UNL     1      35.368   8.376  24.801  1.00  0.00    -0.299 OA
BRANCH  13  15
ATOM     15  C   UNL     1      35.536   8.174  27.139  1.00  0.00     0.106 CG0
ATOM     16  G   UNL     1      35.741   9.589  27.662  1.00  0.00     0.000 G0
ENDBRANCH  13  15
ENDBRANCH  12  13
BRANCH  12  17
ATOM     17  C   UNL     1      37.464   5.808  26.088  1.00  0.00    -0.006 C 
ATOM     18  C   UNL     1      37.525   4.610  25.131  1.00  0.00     0.008 C 
ATOM     19  C   UNL     1      38.644   5.762  27.073  1.00  0.00     0.008 C 
ENDBRANCH  12  17
ENDBRANCH  11  12
ENDBRANCH   1  11
TORSDOF 1
ENDMDL
MODEL 9
REMARK VINA RESULT:    -4.040      2.328      5.465
REMARK INTER + INTRA:          -5.825
REMARK INTER:                  -5.453
REMARK INTRA:                  -0.372
REMARK UNBOUND:                 0.340
REMARK SMILES CC1=CCC[C@@H](C)C(=O)C[C@@H](C(C)C)C(=O)C1
REMARK SMILES IDX 8 1 9 2 6 3 7 4 5 5 4 6 3 7 2 8 1 9 10 11 11 12 15 13 16 14
REMARK SMILES IDX 17 15 12 17 13 18 14 19
REMARK H PARENT
REMARK Flexibility Score: 70.00
ROOT
ATOM      1  C   UNL     1      38.486   8.713  28.573  1.00  0.00     0.136 C 
ATOM      2  O   UNL     1      38.952   8.853  29.692  1.00  0.00    -0.299 OA
ENDROOT
BRANCH   1   3
ATOM      3  C   UNL     1      38.152   9.950  27.757  1.00  0.00     0.053 C 
ATOM      4  C   UNL     1      39.388  10.852  27.630  1.00  0.00     0.016 C 
BRANCH   3   5
ATOM      5  C   UNL     1      36.974  10.720  28.393  1.00  0.00     0.015 C 
BRANCH   5   6
ATOM      6  C   UNL     1      35.614  10.144  27.953  1.00  0.00     0.028 C 
BRANCH   6   7
ATOM      7  C   UNL     1      35.455  10.097  26.454  1.00  0.00    -0.028 C 
ATOM      8  C   UNL     1      35.476   8.969  25.704  1.00  0.00    -0.070 CG0
ATOM      9  C   UNL     1      35.376   9.120  24.206  1.00  0.00     0.039 C 
ATOM     10  G   UNL     1      35.567   7.571  26.299  1.00  0.00     0.000 G0
ENDBRANCH   6   7
ENDBRANCH   5   6
ENDBRANCH   3   5
ENDBRANCH   1   3
BRANCH   1  11
ATOM     11  C   UNL     1      38.340   7.322  27.990  1.00  0.00     0.087 C 
BRANCH  11  12
ATOM     12  C   UNL     1      38.237   7.205  26.438  1.00  0.00     0.066 C 
BRANCH  12  13
ATOM     13  C   UNL     1      36.855   6.845  25.891  1.00  0.00     0.140 C 
ATOM     14  O   UNL     1      36.759   5.871  25.157  1.00  0.00    -0.299 OA
BRANCH  13  15
ATOM     15  C   UNL     1      35.584   7.561  26.298  1.00  0.00     0.106 CG0
ATOM     16  G   UNL     1      35.463   8.955  25.698  1.00  0.00     0.000 G0
ENDBRANCH  13  15
ENDBRANCH  12  13
BRANCH  12  17
ATOM     17  C   UNL     1      39.436   6.485  25.736  1.00  0.00    -0.006 C 
ATOM     18  C   UNL     1      40.689   7.346  25.521  1.00  0.00     0.008 C 
ATOM     19  C   UNL     1      39.808   5.176  26.453  1.00  0.00     0.008 C 
ENDBRANCH  12  17
ENDBRANCH  11  12
ENDBRANCH   1  11
TORSDOF 1
ENDMDL
