MODEL 1
REMARK VINA RESULT:    -5.462      0.000      0.000
REMARK INTER + INTRA:          -5.462
REMARK INTER:                  -5.462
REMARK INTRA:                   0.000
REMARK UNBOUND:                 0.000
REMARK SMILES C=C1CCC[C@]2(C)CC(=O)C(=C(C)C)C[C@@H]12
REMARK SMILES IDX 13 1 12 2 11 3 15 4 16 5 2 6 1 7 3 8 4 9 5 10 6 11 8 12 9 13
REMARK SMILES IDX 10 14 7 15 14 16
REMARK H PARENT
REMARK Flexibility Score: inf
ROOT
ATOM      1  C   UNL     1      87.736  38.300  29.014  1.00  0.00     0.039 C 
ATOM      2  C   UNL     1      88.318  38.324  27.618  1.00  0.00    -0.070 C 
ATOM      3  C   UNL     1      87.649  37.776  26.561  1.00  0.00    -0.006 C 
ATOM      4  C   UNL     1      86.298  37.100  26.750  1.00  0.00     0.047 C 
ATOM      5  C   UNL     1      86.053  35.957  25.732  1.00  0.00     0.025 C 
ATOM      6  C   UNL     1      84.694  35.265  25.847  1.00  0.00    -0.073 C 
ATOM      7  C   UNL     1      83.748  35.603  26.745  1.00  0.00     0.008 C 
ATOM      8  C   UNL     1      84.453  34.108  24.907  1.00  0.00     0.031 C 
ATOM      9  C   UNL     1      84.716  34.533  23.459  1.00  0.00     0.005 C 
ATOM     10  C   UNL     1      86.098  35.193  23.305  1.00  0.00     0.008 C 
ATOM     11  C   UNL     1      86.305  36.408  24.260  1.00  0.00    -0.018 C 
ATOM     12  C   UNL     1      87.775  36.876  24.131  1.00  0.00     0.088 C 
ATOM     13  C   UNL     1      88.131  37.914  25.156  1.00  0.00     0.159 C 
ATOM     14  O   UNL     1      88.828  38.901  24.798  1.00  0.00    -0.295 OA
ATOM     15  C   UNL     1      85.358  37.566  23.840  1.00  0.00     0.012 C 
ATOM     16  C   UNL     1      89.686  38.946  27.460  1.00  0.00     0.039 C 
ENDROOT
TORSDOF 0
ENDMDL
MODEL 2
REMARK VINA RESULT:    -5.442      2.011      4.175
REMARK INTER + INTRA:          -5.442
REMARK INTER:                  -5.442
REMARK INTRA:                   0.000
REMARK UNBOUND:                 0.000
REMARK SMILES C=C1CCC[C@]2(C)CC(=O)C(=C(C)C)C[C@@H]12
REMARK SMILES IDX 13 1 12 2 11 3 15 4 16 5 2 6 1 7 3 8 4 9 5 10 6 11 8 12 9 13
REMARK SMILES IDX 10 14 7 15 14 16
REMARK H PARENT
REMARK Flexibility Score: inf
ROOT
ATOM      1  C   UNL     1      88.120  37.674  24.374  1.00  0.00     0.039 C 
ATOM      2  C   UNL     1      88.378  38.270  25.739  1.00  0.00    -0.070 C 
ATOM      3  C   UNL     1      87.685  37.850  26.839  1.00  0.00    -0.006 C 
ATOM      4  C   UNL     1      86.610  36.778  26.730  1.00  0.00     0.047 C 
ATOM      5  C   UNL     1      85.486  36.947  27.783  1.00  0.00     0.025 C 
ATOM      6  C   UNL     1      84.397  35.874  27.748  1.00  0.00    -0.073 C 
ATOM      7  C   UNL     1      84.385  34.837  26.889  1.00  0.00     0.008 C 
ATOM      8  C   UNL     1      83.258  36.049  28.725  1.00  0.00     0.031 C 
ATOM      9  C   UNL     1      83.796  36.219  30.148  1.00  0.00     0.005 C 
ATOM     10  C   UNL     1      84.865  37.324  30.222  1.00  0.00     0.008 C 
ATOM     11  C   UNL     1      86.047  37.098  29.231  1.00  0.00    -0.018 C 
ATOM     12  C   UNL     1      86.960  38.347  29.280  1.00  0.00     0.088 C 
ATOM     13  C   UNL     1      88.020  38.316  28.215  1.00  0.00     0.159 C 
ATOM     14  O   UNL     1      89.188  38.677  28.518  1.00  0.00    -0.295 OA
ATOM     15  C   UNL     1      86.861  35.849  29.669  1.00  0.00     0.012 C 
ATOM     16  C   UNL     1      89.406  39.375  25.818  1.00  0.00     0.039 C 
ENDROOT
TORSDOF 0
ENDMDL
MODEL 3
REMARK VINA RESULT:    -5.365      2.704      5.083
REMARK INTER + INTRA:          -5.365
REMARK INTER:                  -5.365
REMARK INTRA:                   0.000
REMARK UNBOUND:                 0.000
REMARK SMILES C=C1CCC[C@]2(C)CC(=O)C(=C(C)C)C[C@@H]12
REMARK SMILES IDX 13 1 12 2 11 3 15 4 16 5 2 6 1 7 3 8 4 9 5 10 6 11 8 12 9 13
REMARK SMILES IDX 10 14 7 15 14 16
REMARK H PARENT
REMARK Flexibility Score: inf
ROOT
ATOM      1  C   UNL     1      82.657  39.756  24.505  1.00  0.00     0.039 C 
ATOM      2  C   UNL     1      82.593  38.557  23.586  1.00  0.00    -0.070 C 
ATOM      3  C   UNL     1      83.612  37.648  23.536  1.00  0.00    -0.006 C 
ATOM      4  C   UNL     1      84.861  37.817  24.389  1.00  0.00     0.047 C 
ATOM      5  C   UNL     1      86.126  37.218  23.723  1.00  0.00     0.025 C 
ATOM      6  C   UNL     1      87.407  37.323  24.552  1.00  0.00    -0.073 C 
ATOM      7  C   UNL     1      87.470  37.876  25.779  1.00  0.00     0.008 C 
ATOM      8  C   UNL     1      88.667  36.801  23.902  1.00  0.00     0.031 C 
ATOM      9  C   UNL     1      88.460  35.363  23.415  1.00  0.00     0.005 C 
ATOM     10  C   UNL     1      87.200  35.237  22.541  1.00  0.00     0.008 C 
ATOM     11  C   UNL     1      85.909  35.747  23.251  1.00  0.00    -0.018 C 
ATOM     12  C   UNL     1      84.753  35.724  22.221  1.00  0.00     0.088 C 
ATOM     13  C   UNL     1      83.512  36.385  22.749  1.00  0.00     0.159 C 
ATOM     14  O   UNL     1      82.398  35.841  22.523  1.00  0.00    -0.295 OA
ATOM     15  C   UNL     1      85.561  34.804  24.436  1.00  0.00     0.012 C 
ATOM     16  C   UNL     1      81.373  38.437  22.702  1.00  0.00     0.039 C 
ENDROOT
TORSDOF 0
ENDMDL
MODEL 4
REMARK VINA RESULT:    -5.350      4.114      6.525
REMARK INTER + INTRA:          -5.350
REMARK INTER:                  -5.350
REMARK INTRA:                   0.000
REMARK UNBOUND:                 0.000
REMARK SMILES C=C1CCC[C@]2(C)CC(=O)C(=C(C)C)C[C@@H]12
REMARK SMILES IDX 13 1 12 2 11 3 15 4 16 5 2 6 1 7 3 8 4 9 5 10 6 11 8 12 9 13
REMARK SMILES IDX 10 14 7 15 14 16
REMARK H PARENT
REMARK Flexibility Score: inf
ROOT
ATOM      1  C   UNL     1      88.062  32.691  28.887  1.00  0.00     0.039 C 
ATOM      2  C   UNL     1      86.894  33.020  29.790  1.00  0.00    -0.070 C 
ATOM      3  C   UNL     1      86.367  34.280  29.837  1.00  0.00    -0.006 C 
ATOM      4  C   UNL     1      86.948  35.408  28.997  1.00  0.00     0.047 C 
ATOM      5  C   UNL     1      86.786  36.797  29.665  1.00  0.00     0.025 C 
ATOM      6  C   UNL     1      87.317  37.976  28.848  1.00  0.00    -0.073 C 
ATOM      7  C   UNL     1      87.879  37.859  27.630  1.00  0.00     0.008 C 
ATOM      8  C   UNL     1      87.226  39.335  29.502  1.00  0.00     0.031 C 
ATOM      9  C   UNL     1      85.793  39.608  29.969  1.00  0.00     0.005 C 
ATOM     10  C   UNL     1      85.248  38.456  30.831  1.00  0.00     0.008 C 
ATOM     11  C   UNL     1      85.318  37.072  30.117  1.00  0.00    -0.018 C 
ATOM     12  C   UNL     1      84.903  35.983  31.136  1.00  0.00     0.088 C 
ATOM     13  C   UNL     1      85.129  34.596  30.607  1.00  0.00     0.159 C 
ATOM     14  O   UNL     1      84.248  33.720  30.816  1.00  0.00    -0.295 OA
ATOM     15  C   UNL     1      84.332  37.055  28.917  1.00  0.00     0.012 C 
ATOM     16  C   UNL     1      86.369  31.903  30.661  1.00  0.00     0.039 C 
ENDROOT
TORSDOF 0
ENDMDL
MODEL 5
REMARK VINA RESULT:    -5.009      1.790      3.112
REMARK INTER + INTRA:          -5.009
REMARK INTER:                  -5.009
REMARK INTRA:                   0.000
REMARK UNBOUND:                 0.000
REMARK SMILES C=C1CCC[C@]2(C)CC(=O)C(=C(C)C)C[C@@H]12
REMARK SMILES IDX 13 1 12 2 11 3 15 4 16 5 2 6 1 7 3 8 4 9 5 10 6 11 8 12 9 13
REMARK SMILES IDX 10 14 7 15 14 16
REMARK H PARENT
REMARK Flexibility Score: inf
ROOT
ATOM      1  C   UNL     1      89.357  38.701  27.485  1.00  0.00     0.039 C 
ATOM      2  C   UNL     1      87.986  38.341  28.011  1.00  0.00    -0.070 C 
ATOM      3  C   UNL     1      87.142  37.537  27.297  1.00  0.00    -0.006 C 
ATOM      4  C   UNL     1      87.541  36.989  25.935  1.00  0.00     0.047 C 
ATOM      5  C   UNL     1      86.327  36.774  24.996  1.00  0.00     0.025 C 
ATOM      6  C   UNL     1      86.663  36.187  23.624  1.00  0.00    -0.073 C 
ATOM      7  C   UNL     1      87.906  35.856  23.229  1.00  0.00     0.008 C 
ATOM      8  C   UNL     1      85.505  36.023  22.668  1.00  0.00     0.031 C 
ATOM      9  C   UNL     1      84.374  35.230  23.328  1.00  0.00     0.005 C 
ATOM     10  C   UNL     1      83.985  35.826  24.693  1.00  0.00     0.008 C 
ATOM     11  C   UNL     1      85.191  35.946  25.674  1.00  0.00    -0.018 C 
ATOM     12  C   UNL     1      84.711  36.706  26.934  1.00  0.00     0.088 C 
ATOM     13  C   UNL     1      85.847  37.050  27.855  1.00  0.00     0.159 C 
ATOM     14  O   UNL     1      85.682  36.904  29.096  1.00  0.00    -0.295 OA
ATOM     15  C   UNL     1      85.674  34.527  26.081  1.00  0.00     0.012 C 
ATOM     16  C   UNL     1      87.582  38.943  29.337  1.00  0.00     0.039 C 
ENDROOT
TORSDOF 0
ENDMDL
MODEL 6
REMARK VINA RESULT:    -5.000      4.885      5.767
REMARK INTER + INTRA:          -5.000
REMARK INTER:                  -5.000
REMARK INTRA:                   0.000
REMARK UNBOUND:                 0.000
REMARK SMILES C=C1CCC[C@]2(C)CC(=O)C(=C(C)C)C[C@@H]12
REMARK SMILES IDX 13 1 12 2 11 3 15 4 16 5 2 6 1 7 3 8 4 9 5 10 6 11 8 12 9 13
REMARK SMILES IDX 10 14 7 15 14 16
REMARK H PARENT
REMARK Flexibility Score: inf
ROOT
ATOM      1  C   UNL     1      82.083  40.249  26.462  1.00  0.00     0.039 C 
ATOM      2  C   UNL     1      82.249  41.002  25.161  1.00  0.00    -0.070 C 
ATOM      3  C   UNL     1      82.456  40.343  23.982  1.00  0.00    -0.006 C 
ATOM      4  C   UNL     1      82.550  38.824  23.935  1.00  0.00     0.047 C 
ATOM      5  C   UNL     1      83.472  38.316  22.798  1.00  0.00     0.025 C 
ATOM      6  C   UNL     1      83.574  36.795  22.676  1.00  0.00    -0.073 C 
ATOM      7  C   UNL     1      82.918  35.928  23.471  1.00  0.00     0.008 C 
ATOM      8  C   UNL     1      84.514  36.273  21.615  1.00  0.00     0.031 C 
ATOM      9  C   UNL     1      84.185  36.898  20.256  1.00  0.00     0.005 C 
ATOM     10  C   UNL     1      84.119  38.434  20.340  1.00  0.00     0.008 C 
ATOM     11  C   UNL     1      83.113  38.944  21.416  1.00  0.00    -0.018 C 
ATOM     12  C   UNL     1      83.260  40.482  21.519  1.00  0.00     0.088 C 
ATOM     13  C   UNL     1      82.478  41.050  22.669  1.00  0.00     0.159 C 
ATOM     14  O   UNL     1      81.836  42.120  22.491  1.00  0.00    -0.295 OA
ATOM     15  C   UNL     1      81.664  38.594  20.981  1.00  0.00     0.012 C 
ATOM     16  C   UNL     1      82.213  42.511  25.235  1.00  0.00     0.039 C 
ENDROOT
TORSDOF 0
ENDMDL
MODEL 7
REMARK VINA RESULT:    -4.938      6.029      7.827
REMARK INTER + INTRA:          -4.938
REMARK INTER:                  -4.938
REMARK INTRA:                   0.000
REMARK UNBOUND:                 0.000
REMARK SMILES C=C1CCC[C@]2(C)CC(=O)C(=C(C)C)C[C@@H]12
REMARK SMILES IDX 13 1 12 2 11 3 15 4 16 5 2 6 1 7 3 8 4 9 5 10 6 11 8 12 9 13
REMARK SMILES IDX 10 14 7 15 14 16
REMARK H PARENT
REMARK Flexibility Score: inf
ROOT
ATOM      1  C   UNL     1      88.265  31.860  27.211  1.00  0.00     0.039 C 
ATOM      2  C   UNL     1      89.101  31.839  28.471  1.00  0.00    -0.070 C 
ATOM      3  C   UNL     1      88.604  32.297  29.659  1.00  0.00    -0.006 C 
ATOM      4  C   UNL     1      87.196  32.866  29.757  1.00  0.00     0.047 C 
ATOM      5  C   UNL     1      87.063  33.952  30.854  1.00  0.00     0.025 C 
ATOM      6  C   UNL     1      85.659  34.532  31.026  1.00  0.00    -0.073 C 
ATOM      7  C   UNL     1      84.589  34.147  30.306  1.00  0.00     0.008 C 
ATOM      8  C   UNL     1      85.515  35.635  32.048  1.00  0.00     0.031 C 
ATOM      9  C   UNL     1      86.079  35.188  33.400  1.00  0.00     0.005 C 
ATOM     10  C   UNL     1      87.510  34.639  33.263  1.00  0.00     0.008 C 
ATOM     11  C   UNL     1      87.622  33.476  32.231  1.00  0.00    -0.018 C 
ATOM     12  C   UNL     1      89.121  33.127  32.062  1.00  0.00     0.088 C 
ATOM     13  C   UNL     1      89.353  32.154  30.941  1.00  0.00     0.159 C 
ATOM     14  O   UNL     1      90.177  31.218  31.117  1.00  0.00    -0.295 OA
ATOM     15  C   UNL     1      86.861  32.231  32.765  1.00  0.00     0.012 C 
ATOM     16  C   UNL     1      90.517  31.327  28.343  1.00  0.00     0.039 C 
ENDROOT
TORSDOF 0
ENDMDL
MODEL 8
REMARK VINA RESULT:    -4.927      2.087      4.754
REMARK INTER + INTRA:          -4.927
REMARK INTER:                  -4.927
REMARK INTRA:                   0.000
REMARK UNBOUND:                 0.000
REMARK SMILES C=C1CCC[C@]2(C)CC(=O)C(=C(C)C)C[C@@H]12
REMARK SMILES IDX 13 1 12 2 11 3 15 4 16 5 2 6 1 7 3 8 4 9 5 10 6 11 8 12 9 13
REMARK SMILES IDX 10 14 7 15 14 16
REMARK H PARENT
REMARK Flexibility Score: inf
ROOT
ATOM      1  C   UNL     1      88.625  37.158  23.997  1.00  0.00     0.039 C 
ATOM      2  C   UNL     1      87.322  36.399  24.098  1.00  0.00    -0.070 C 
ATOM      3  C   UNL     1      86.548  36.464  25.223  1.00  0.00    -0.006 C 
ATOM      4  C   UNL     1      86.979  37.289  26.428  1.00  0.00     0.047 C 
ATOM      5  C   UNL     1      86.465  36.705  27.768  1.00  0.00     0.025 C 
ATOM      6  C   UNL     1      86.834  37.513  29.012  1.00  0.00    -0.073 C 
ATOM      7  C   UNL     1      87.541  38.659  28.986  1.00  0.00     0.008 C 
ATOM      8  C   UNL     1      86.397  36.935  30.338  1.00  0.00     0.031 C 
ATOM      9  C   UNL     1      84.895  36.634  30.319  1.00  0.00     0.005 C 
ATOM     10  C   UNL     1      84.502  35.783  29.099  1.00  0.00     0.008 C 
ATOM     11  C   UNL     1      84.931  36.423  27.744  1.00  0.00    -0.018 C 
ATOM     12  C   UNL     1      84.633  35.405  26.616  1.00  0.00     0.088 C 
ATOM     13  C   UNL     1      85.194  35.844  25.294  1.00  0.00     0.159 C 
ATOM     14  O   UNL     1      84.490  35.690  24.260  1.00  0.00    -0.295 OA
ATOM     15  C   UNL     1      84.109  37.718  27.497  1.00  0.00     0.012 C 
ATOM     16  C   UNL     1      86.939  35.538  22.917  1.00  0.00     0.039 C 
ENDROOT
TORSDOF 0
ENDMDL
MODEL 9
REMARK VINA RESULT:    -4.918      2.795      4.529
REMARK INTER + INTRA:          -4.918
REMARK INTER:                  -4.918
REMARK INTRA:                   0.000
REMARK UNBOUND:                 0.000
REMARK SMILES C=C1CCC[C@]2(C)CC(=O)C(=C(C)C)C[C@@H]12
REMARK SMILES IDX 13 1 12 2 11 3 15 4 16 5 2 6 1 7 3 8 4 9 5 10 6 11 8 12 9 13
REMARK SMILES IDX 10 14 7 15 14 16
REMARK H PARENT
REMARK Flexibility Score: inf
ROOT
ATOM      1  C   UNL     1      88.319  36.964  23.993  1.00  0.00     0.039 C 
ATOM      2  C   UNL     1      87.194  37.368  24.918  1.00  0.00    -0.070 C 
ATOM      3  C   UNL     1      85.901  37.426  24.479  1.00  0.00    -0.006 C 
ATOM      4  C   UNL     1      85.545  37.104  23.034  1.00  0.00     0.047 C 
ATOM      5  C   UNL     1      84.305  37.888  22.534  1.00  0.00     0.025 C 
ATOM      6  C   UNL     1      83.875  37.576  21.100  1.00  0.00    -0.073 C 
ATOM      7  C   UNL     1      84.494  36.684  20.303  1.00  0.00     0.008 C 
ATOM      8  C   UNL     1      82.707  38.371  20.566  1.00  0.00     0.031 C 
ATOM      9  C   UNL     1      81.512  38.267  21.519  1.00  0.00     0.005 C 
ATOM     10  C   UNL     1      81.906  38.619  22.964  1.00  0.00     0.008 C 
ATOM     11  C   UNL     1      83.089  37.757  23.502  1.00  0.00    -0.018 C 
ATOM     12  C   UNL     1      83.497  38.314  24.887  1.00  0.00     0.088 C 
ATOM     13  C   UNL     1      84.758  37.680  25.403  1.00  0.00     0.159 C 
ATOM     14  O   UNL     1      84.817  37.360  26.620  1.00  0.00    -0.295 OA
ATOM     15  C   UNL     1      82.629  36.282  23.656  1.00  0.00     0.012 C 
ATOM     16  C   UNL     1      87.573  37.742  26.332  1.00  0.00     0.039 C 
ENDROOT
TORSDOF 0
ENDMDL
