MODEL 1
REMARK VINA RESULT:    -6.018      0.000      0.000
REMARK INTER + INTRA:          -8.668
REMARK INTER:                  -8.129
REMARK INTRA:                  -0.539
REMARK UNBOUND:                -0.539
REMARK SMILES COc1ccc(-c2cc(=O)c3c(OC)c(OC)c(OC)c(OC)c3o2)cc1
REMARK SMILES IDX 7 1 8 2 9 3 10 4 11 5 24 6 25 7 21 8 18 9 15 10 12 11 6 12
REMARK SMILES IDX 3 13 4 14 27 15 5 16 26 17 2 18 1 19 22 20 23 21 13 22 14 23
REMARK SMILES IDX 19 24 20 25 16 26 17 27
REMARK H PARENT
REMARK Flexibility Score: inf
ROOT
ATOM      1  C   UNL     1     110.734 103.819 136.569  1.00  0.00     0.138 A 
ATOM      2  C   UNL     1     111.195 102.547 136.915  1.00  0.00     0.100 A 
ATOM      3  C   UNL     1     110.316 101.639 137.500  1.00  0.00     0.197 A 
ATOM      4  O   UNL     1     110.751 100.493 137.799  1.00  0.00    -0.289 OA
ATOM      5  C   UNL     1     108.973 102.015 137.745  1.00  0.00     0.115 A 
ATOM      6  C   UNL     1     108.578 103.323 137.367  1.00  0.00     0.188 A 
ATOM      7  O   UNL     1     109.465 104.140 136.800  1.00  0.00    -0.452 OA
ATOM      8  C   UNL     1     107.256 103.768 137.600  1.00  0.00     0.209 A 
ATOM      9  C   UNL     1     106.334 102.901 138.239  1.00  0.00     0.211 A 
ATOM     10  C   UNL     1     106.712 101.581 138.564  1.00  0.00     0.208 A 
ATOM     11  C   UNL     1     108.036 101.133 138.333  1.00  0.00     0.179 A 
ENDROOT
BRANCH   1  12
ATOM     12  C   UNL     1     111.630 104.820 135.944  1.00  0.00     0.018 A 
ATOM     13  C   UNL     1     113.318 106.761 134.781  1.00  0.00     0.118 A 
ATOM     14  C   UNL     1     113.749 105.427 134.906  1.00  0.00     0.047 A 
ATOM     15  C   UNL     1     112.046 107.113 135.246  1.00  0.00     0.047 A 
ATOM     16  C   UNL     1     112.913 104.467 135.483  1.00  0.00     0.016 A 
ATOM     17  C   UNL     1     111.211 106.155 135.825  1.00  0.00     0.016 A 
BRANCH  13  18
ATOM     18  O   UNL     1     114.118 107.761 134.208  1.00  0.00    -0.497 OA
ATOM     19  C   UNL     1     115.497 107.956 134.506  1.00  0.00     0.278 C 
ENDBRANCH  13  18
ENDBRANCH   1  12
BRANCH   8  20
ATOM     20  O   UNL     1     106.813 105.051 137.226  1.00  0.00    -0.490 OA
ATOM     21  C   UNL     1     106.255 105.443 135.976  1.00  0.00     0.278 C 
ENDBRANCH   8  20
BRANCH  11  22
ATOM     22  O   UNL     1     108.463  99.827 138.655  1.00  0.00    -0.492 OA
ATOM     23  C   UNL     1     108.764  99.305 139.945  1.00  0.00     0.278 C 
ENDBRANCH  11  22
BRANCH   9  24
ATOM     24  O   UNL     1     105.034 103.301 138.603  1.00  0.00    -0.490 OA
ATOM     25  C   UNL     1     104.649 104.091 139.724  1.00  0.00     0.279 C 
ENDBRANCH   9  24
BRANCH  10  26
ATOM     26  O   UNL     1     105.784 100.709 139.153  1.00  0.00    -0.490 OA
ATOM     27  C   UNL     1     105.557 100.610 140.556  1.00  0.00     0.278 C 
ENDBRANCH  10  26
TORSDOF 6
ENDMDL
MODEL 2
REMARK VINA RESULT:    -5.851      1.260      1.743
REMARK INTER + INTRA:          -8.443
REMARK INTER:                  -7.785
REMARK INTRA:                  -0.657
REMARK UNBOUND:                -0.539
REMARK SMILES COc1ccc(-c2cc(=O)c3c(OC)c(OC)c(OC)c(OC)c3o2)cc1
REMARK SMILES IDX 7 1 8 2 9 3 10 4 11 5 24 6 25 7 21 8 18 9 15 10 12 11 6 12
REMARK SMILES IDX 3 13 4 14 27 15 5 16 26 17 2 18 1 19 22 20 23 21 13 22 14 23
REMARK SMILES IDX 19 24 20 25 16 26 17 27
REMARK H PARENT
REMARK Flexibility Score: inf
ROOT
ATOM      1  C   UNL     1     110.762 104.440 136.558  1.00  0.00     0.138 A 
ATOM      2  C   UNL     1     110.957 103.172 137.112  1.00  0.00     0.100 A 
ATOM      3  C   UNL     1     109.880 102.507 137.689  1.00  0.00     0.197 A 
ATOM      4  O   UNL     1     110.077 101.361 138.178  1.00  0.00    -0.289 OA
ATOM      5  C   UNL     1     108.604 103.121 137.716  1.00  0.00     0.115 A 
ATOM      6  C   UNL     1     108.482 104.407 137.134  1.00  0.00     0.188 A 
ATOM      7  O   UNL     1     109.550 104.985 136.587  1.00  0.00    -0.452 OA
ATOM      8  C   UNL     1     107.239 105.084 137.144  1.00  0.00     0.209 A 
ATOM      9  C   UNL     1     106.121 104.472 137.764  1.00  0.00     0.211 A 
ATOM     10  C   UNL     1     106.229 103.168 138.292  1.00  0.00     0.208 A 
ATOM     11  C   UNL     1     107.472 102.489 138.286  1.00  0.00     0.179 A 
ENDROOT
BRANCH   1  12
ATOM     12  C   UNL     1     111.877 105.189 135.932  1.00  0.00     0.018 A 
ATOM     13  C   UNL     1     114.017 106.574 134.721  1.00  0.00     0.118 A 
ATOM     14  C   UNL     1     112.749 107.174 134.821  1.00  0.00     0.047 A 
ATOM     15  C   UNL     1     114.202 105.280 135.223  1.00  0.00     0.047 A 
ATOM     16  C   UNL     1     111.689 106.487 135.420  1.00  0.00     0.016 A 
ATOM     17  C   UNL     1     113.142 104.592 135.818  1.00  0.00     0.016 A 
BRANCH  13  18
ATOM     18  O   UNL     1     115.113 107.222 134.131  1.00  0.00    -0.497 OA
ATOM     19  C   UNL     1     115.931 108.182 134.793  1.00  0.00     0.278 C 
ENDBRANCH  13  18
ENDBRANCH   1  12
BRANCH   8  20
ATOM     20  O   UNL     1     107.066 106.355 136.562  1.00  0.00    -0.490 OA
ATOM     21  C   UNL     1     107.301 107.622 137.168  1.00  0.00     0.278 C 
ENDBRANCH   8  20
BRANCH  11  22
ATOM     22  O   UNL     1     107.632 101.191 138.816  1.00  0.00    -0.492 OA
ATOM     23  C   UNL     1     107.112  99.971 138.298  1.00  0.00     0.278 C 
ENDBRANCH  11  22
BRANCH   9  24
ATOM     24  O   UNL     1     104.878 105.119 137.910  1.00  0.00    -0.490 OA
ATOM     25  C   UNL     1     103.816 105.182 136.964  1.00  0.00     0.279 C 
ENDBRANCH   9  24
BRANCH  10  26
ATOM     26  O   UNL     1     105.109 102.546 138.862  1.00  0.00    -0.490 OA
ATOM     27  C   UNL     1     104.804 102.564 140.255  1.00  0.00     0.278 C 
ENDBRANCH  10  26
TORSDOF 6
ENDMDL
MODEL 3
REMARK VINA RESULT:    -5.761      1.336      1.852
REMARK INTER + INTRA:          -8.320
REMARK INTER:                  -7.662
REMARK INTRA:                  -0.658
REMARK UNBOUND:                -0.539
REMARK SMILES COc1ccc(-c2cc(=O)c3c(OC)c(OC)c(OC)c(OC)c3o2)cc1
REMARK SMILES IDX 7 1 8 2 9 3 10 4 11 5 24 6 25 7 21 8 18 9 15 10 12 11 6 12
REMARK SMILES IDX 3 13 4 14 27 15 5 16 26 17 2 18 1 19 22 20 23 21 13 22 14 23
REMARK SMILES IDX 19 24 20 25 16 26 17 27
REMARK H PARENT
REMARK Flexibility Score: inf
ROOT
ATOM      1  C   UNL     1     110.348 102.580 137.313  1.00  0.00     0.138 A 
ATOM      2  C   UNL     1     110.765 101.265 137.529  1.00  0.00     0.100 A 
ATOM      3  C   UNL     1     109.882 100.354 138.101  1.00  0.00     0.197 A 
ATOM      4  O   UNL     1     110.277  99.170 138.282  1.00  0.00    -0.289 OA
ATOM      5  C   UNL     1     108.577 100.769 138.463  1.00  0.00     0.115 A 
ATOM      6  C   UNL     1     108.224 102.118 138.212  1.00  0.00     0.188 A 
ATOM      7  O   UNL     1     109.113 102.937 137.652  1.00  0.00    -0.452 OA
ATOM      8  C   UNL     1     106.943 102.602 138.567  1.00  0.00     0.209 A 
ATOM      9  C   UNL     1     106.022 101.729 139.198  1.00  0.00     0.211 A 
ATOM     10  C   UNL     1     106.353 100.372 139.395  1.00  0.00     0.208 A 
ATOM     11  C   UNL     1     107.636  99.885 139.043  1.00  0.00     0.179 A 
ENDROOT
BRANCH   1  12
ATOM     12  C   UNL     1     111.251 103.587 136.708  1.00  0.00     0.018 A 
ATOM     13  C   UNL     1     112.978 105.475 135.516  1.00  0.00     0.118 A 
ATOM     14  C   UNL     1     111.868 105.902 136.269  1.00  0.00     0.047 A 
ATOM     15  C   UNL     1     113.209 104.104 135.361  1.00  0.00     0.047 A 
ATOM     16  C   UNL     1     111.012 104.966 136.857  1.00  0.00     0.016 A 
ATOM     17  C   UNL     1     112.353 103.168 135.946  1.00  0.00     0.016 A 
BRANCH  13  18
ATOM     18  O   UNL     1     113.866 106.374 134.907  1.00  0.00    -0.497 OA
ATOM     19  C   UNL     1     113.468 107.545 134.202  1.00  0.00     0.278 C 
ENDBRANCH  13  18
ENDBRANCH   1  12
BRANCH   8  20
ATOM     20  O   UNL     1     106.542 103.930 138.321  1.00  0.00    -0.490 OA
ATOM     21  C   UNL     1     105.935 104.446 137.142  1.00  0.00     0.278 C 
ENDBRANCH   8  20
BRANCH  11  22
ATOM     22  O   UNL     1     108.017  98.540 139.236  1.00  0.00    -0.492 OA
ATOM     23  C   UNL     1     108.266  97.876 140.470  1.00  0.00     0.278 C 
ENDBRANCH  11  22
BRANCH   9  24
ATOM     24  O   UNL     1     104.768 102.156 139.677  1.00  0.00    -0.490 OA
ATOM     25  C   UNL     1     104.488 102.826 140.902  1.00  0.00     0.279 C 
ENDBRANCH   9  24
BRANCH  10  26
ATOM     26  O   UNL     1     105.422  99.499 139.976  1.00  0.00    -0.490 OA
ATOM     27  C   UNL     1     104.580  98.617 139.237  1.00  0.00     0.278 C 
ENDBRANCH  10  26
TORSDOF 6
ENDMDL
MODEL 4
REMARK VINA RESULT:    -5.643      1.129      3.575
REMARK INTER + INTRA:          -8.161
REMARK INTER:                  -7.778
REMARK INTRA:                  -0.383
REMARK UNBOUND:                -0.539
REMARK SMILES COc1ccc(-c2cc(=O)c3c(OC)c(OC)c(OC)c(OC)c3o2)cc1
REMARK SMILES IDX 7 1 8 2 9 3 10 4 11 5 24 6 25 7 21 8 18 9 15 10 12 11 6 12
REMARK SMILES IDX 3 13 4 14 27 15 5 16 26 17 2 18 1 19 22 20 23 21 13 22 14 23
REMARK SMILES IDX 19 24 20 25 16 26 17 27
REMARK H PARENT
REMARK Flexibility Score: inf
ROOT
ATOM      1  C   UNL     1     110.127 103.855 136.889  1.00  0.00     0.138 A 
ATOM      2  C   UNL     1     108.953 104.600 137.023  1.00  0.00     0.100 A 
ATOM      3  C   UNL     1     107.819 103.994 137.555  1.00  0.00     0.197 A 
ATOM      4  O   UNL     1     106.771 104.686 137.674  1.00  0.00    -0.289 OA
ATOM      5  C   UNL     1     107.863 102.633 137.946  1.00  0.00     0.115 A 
ATOM      6  C   UNL     1     109.089 101.943 137.780  1.00  0.00     0.188 A 
ATOM      7  O   UNL     1     110.142 102.583 137.275  1.00  0.00    -0.452 OA
ATOM      8  C   UNL     1     109.196 100.576 138.134  1.00  0.00     0.209 A 
ATOM      9  C   UNL     1     108.057  99.898 138.633  1.00  0.00     0.211 A 
ATOM     10  C   UNL     1     106.853 100.600 138.851  1.00  0.00     0.208 A 
ATOM     11  C   UNL     1     106.742 101.967 138.496  1.00  0.00     0.179 A 
ENDROOT
BRANCH   1  12
ATOM     12  C   UNL     1     111.361 104.455 136.329  1.00  0.00     0.018 A 
ATOM     13  C   UNL     1     113.697 105.640 135.277  1.00  0.00     0.118 A 
ATOM     14  C   UNL     1     113.745 104.349 135.836  1.00  0.00     0.047 A 
ATOM     15  C   UNL     1     112.480 106.329 135.255  1.00  0.00     0.047 A 
ATOM     16  C   UNL     1     112.588 103.764 136.358  1.00  0.00     0.016 A 
ATOM     17  C   UNL     1     111.324 105.746 135.779  1.00  0.00     0.016 A 
BRANCH  13  18
ATOM     18  O   UNL     1     114.829 106.270 134.739  1.00  0.00    -0.497 OA
ATOM     19  C   UNL     1     114.909 107.660 134.438  1.00  0.00     0.278 C 
ENDBRANCH  13  18
ENDBRANCH   1  12
BRANCH   8  20
ATOM     20  O   UNL     1     110.398  99.854 138.003  1.00  0.00    -0.490 OA
ATOM     21  C   UNL     1     111.259  99.411 139.047  1.00  0.00     0.278 C 
ENDBRANCH   8  20
BRANCH  11  22
ATOM     22  O   UNL     1     105.554 102.707 138.681  1.00  0.00    -0.492 OA
ATOM     23  C   UNL     1     105.028 103.212 139.904  1.00  0.00     0.278 C 
ENDBRANCH  11  22
BRANCH   9  24
ATOM     24  O   UNL     1     108.049  98.516 138.908  1.00  0.00    -0.490 OA
ATOM     25  C   UNL     1     108.362  97.875 140.141  1.00  0.00     0.279 C 
ENDBRANCH   9  24
BRANCH  10  26
ATOM     26  O   UNL     1     105.740  99.938 139.390  1.00  0.00    -0.490 OA
ATOM     27  C   UNL     1     105.464  99.840 140.785  1.00  0.00     0.278 C 
ENDBRANCH  10  26
TORSDOF 6
ENDMDL
MODEL 5
REMARK VINA RESULT:    -5.535      1.327      3.575
REMARK INTER + INTRA:          -8.016
REMARK INTER:                  -7.329
REMARK INTRA:                  -0.687
REMARK UNBOUND:                -0.539
REMARK SMILES COc1ccc(-c2cc(=O)c3c(OC)c(OC)c(OC)c(OC)c3o2)cc1
REMARK SMILES IDX 7 1 8 2 9 3 10 4 11 5 24 6 25 7 21 8 18 9 15 10 12 11 6 12
REMARK SMILES IDX 3 13 4 14 27 15 5 16 26 17 2 18 1 19 22 20 23 21 13 22 14 23
REMARK SMILES IDX 19 24 20 25 16 26 17 27
REMARK H PARENT
REMARK Flexibility Score: inf
ROOT
ATOM      1  C   UNL     1     110.063 105.320 136.531  1.00  0.00     0.138 A 
ATOM      2  C   UNL     1     108.959 106.141 136.294  1.00  0.00     0.100 A 
ATOM      3  C   UNL     1     107.716 105.776 136.803  1.00  0.00     0.197 A 
ATOM      4  O   UNL     1     106.733 106.536 136.583  1.00  0.00    -0.289 OA
ATOM      5  C   UNL     1     107.582 104.578 137.546  1.00  0.00     0.115 A 
ATOM      6  C   UNL     1     108.747 103.796 137.746  1.00  0.00     0.188 A 
ATOM      7  O   UNL     1     109.909 104.207 137.242  1.00  0.00    -0.452 OA
ATOM      8  C   UNL     1     108.678 102.579 138.464  1.00  0.00     0.209 A 
ATOM      9  C   UNL     1     107.427 102.135 138.961  1.00  0.00     0.211 A 
ATOM     10  C   UNL     1     106.279 102.942 138.811  1.00  0.00     0.208 A 
ATOM     11  C   UNL     1     106.344 104.160 138.091  1.00  0.00     0.179 A 
ENDROOT
BRANCH   1  12
ATOM     12  C   UNL     1     111.407 105.664 136.011  1.00  0.00     0.018 A 
ATOM     13  C   UNL     1     113.959 106.367 135.031  1.00  0.00     0.118 A 
ATOM     14  C   UNL     1     113.766 105.142 135.694  1.00  0.00     0.047 A 
ATOM     15  C   UNL     1     112.873 107.235 134.870  1.00  0.00     0.047 A 
ATOM     16  C   UNL     1     112.501 104.795 136.180  1.00  0.00     0.016 A 
ATOM     17  C   UNL     1     111.610 106.890 135.358  1.00  0.00     0.016 A 
BRANCH  13  18
ATOM     18  O   UNL     1     115.207 106.761 134.523  1.00  0.00    -0.497 OA
ATOM     19  C   UNL     1     115.689 108.101 134.525  1.00  0.00     0.278 C 
ENDBRANCH  13  18
ENDBRANCH   1  12
BRANCH   8  20
ATOM     20  O   UNL     1     109.812 101.778 138.703  1.00  0.00    -0.490 OA
ATOM     21  C   UNL     1     110.335 100.749 137.870  1.00  0.00     0.278 C 
ENDBRANCH   8  20
BRANCH  11  22
ATOM     22  O   UNL     1     105.219 104.992 137.901  1.00  0.00    -0.492 OA
ATOM     23  C   UNL     1     104.058 104.718 137.125  1.00  0.00     0.278 C 
ENDBRANCH  11  22
BRANCH   9  24
ATOM     24  O   UNL     1     107.253 100.889 139.592  1.00  0.00    -0.490 OA
ATOM     25  C   UNL     1     106.915  99.646 138.983  1.00  0.00     0.279 C 
ENDBRANCH   9  24
BRANCH  10  26
ATOM     26  O   UNL     1     105.052 102.524 139.345  1.00  0.00    -0.490 OA
ATOM     27  C   UNL     1     104.574 102.890 140.637  1.00  0.00     0.278 C 
ENDBRANCH  10  26
TORSDOF 6
ENDMDL
MODEL 6
REMARK VINA RESULT:    -5.442      1.795      4.274
REMARK INTER + INTRA:          -7.890
REMARK INTER:                  -7.341
REMARK INTRA:                  -0.550
REMARK UNBOUND:                -0.539
REMARK SMILES COc1ccc(-c2cc(=O)c3c(OC)c(OC)c(OC)c(OC)c3o2)cc1
REMARK SMILES IDX 7 1 8 2 9 3 10 4 11 5 24 6 25 7 21 8 18 9 15 10 12 11 6 12
REMARK SMILES IDX 3 13 4 14 27 15 5 16 26 17 2 18 1 19 22 20 23 21 13 22 14 23
REMARK SMILES IDX 19 24 20 25 16 26 17 27
REMARK H PARENT
REMARK Flexibility Score: inf
ROOT
ATOM      1  C   UNL     1     109.844 102.606 137.689  1.00  0.00     0.138 A 
ATOM      2  C   UNL     1     108.499 102.891 137.445  1.00  0.00     0.100 A 
ATOM      3  C   UNL     1     107.516 102.140 138.084  1.00  0.00     0.197 A 
ATOM      4  O   UNL     1     106.307 102.417 137.853  1.00  0.00    -0.289 OA
ATOM      5  C   UNL     1     107.887 101.096 138.966  1.00  0.00     0.115 A 
ATOM      6  C   UNL     1     109.272 100.868 139.166  1.00  0.00     0.188 A 
ATOM      7  O   UNL     1     110.162 101.629 138.532  1.00  0.00    -0.452 OA
ATOM      8  C   UNL     1     109.710  99.829 140.020  1.00  0.00     0.209 A 
ATOM      9  C   UNL     1     108.751  99.002 140.657  1.00  0.00     0.211 A 
ATOM     10  C   UNL     1     107.374  99.267 140.503  1.00  0.00     0.208 A 
ATOM     11  C   UNL     1     106.932 100.305 139.646  1.00  0.00     0.179 A 
ENDROOT
BRANCH   1  12
ATOM     12  C   UNL     1     110.927 103.376 137.034  1.00  0.00     0.018 A 
ATOM     13  C   UNL     1     112.996 104.869 135.827  1.00  0.00     0.118 A 
ATOM     14  C   UNL     1     112.817 103.511 135.502  1.00  0.00     0.047 A 
ATOM     15  C   UNL     1     112.141 105.466 136.759  1.00  0.00     0.047 A 
ATOM     16  C   UNL     1     111.792 102.773 136.102  1.00  0.00     0.016 A 
ATOM     17  C   UNL     1     111.119 104.728 137.361  1.00  0.00     0.016 A 
BRANCH  13  18
ATOM     18  O   UNL     1     114.008 105.654 135.252  1.00  0.00    -0.497 OA
ATOM     19  C   UNL     1     113.777 106.859 134.528  1.00  0.00     0.278 C 
ENDBRANCH  13  18
ENDBRANCH   1  12
BRANCH   8  20
ATOM     20  O   UNL     1     111.074  99.575 140.263  1.00  0.00    -0.490 OA
ATOM     21  C   UNL     1     111.902  98.612 139.620  1.00  0.00     0.278 C 
ENDBRANCH   8  20
BRANCH  11  22
ATOM     22  O   UNL     1     105.564 100.597 139.449  1.00  0.00    -0.492 OA
ATOM     23  C   UNL     1     104.681 101.264 140.344  1.00  0.00     0.278 C 
ENDBRANCH  11  22
BRANCH   9  24
ATOM     24  O   UNL     1     109.102  97.883 141.437  1.00  0.00    -0.490 OA
ATOM     25  C   UNL     1     109.571  97.875 142.782  1.00  0.00     0.279 C 
ENDBRANCH   9  24
BRANCH  10  26
ATOM     26  O   UNL     1     106.427  98.477 141.172  1.00  0.00    -0.490 OA
ATOM     27  C   UNL     1     105.939  98.751 142.483  1.00  0.00     0.278 C 
ENDBRANCH  10  26
TORSDOF 6
ENDMDL
MODEL 7
REMARK VINA RESULT:    -5.423      7.006     10.132
REMARK INTER + INTRA:          -7.864
REMARK INTER:                  -7.247
REMARK INTRA:                  -0.618
REMARK UNBOUND:                -0.539
REMARK SMILES COc1ccc(-c2cc(=O)c3c(OC)c(OC)c(OC)c(OC)c3o2)cc1
REMARK SMILES IDX 7 1 8 2 9 3 10 4 11 5 24 6 25 7 21 8 18 9 15 10 12 11 6 12
REMARK SMILES IDX 3 13 4 14 27 15 5 16 26 17 2 18 1 19 22 20 23 21 13 22 14 23
REMARK SMILES IDX 19 24 20 25 16 26 17 27
REMARK H PARENT
REMARK Flexibility Score: inf
ROOT
ATOM      1  C   UNL     1     106.474 109.322 137.776  1.00  0.00     0.138 A 
ATOM      2  C   UNL     1     106.987 109.493 139.064  1.00  0.00     0.100 A 
ATOM      3  C   UNL     1     106.918 110.746 139.664  1.00  0.00     0.197 A 
ATOM      4  O   UNL     1     107.382 110.878 140.830  1.00  0.00    -0.289 OA
ATOM      5  C   UNL     1     106.338 111.833 138.964  1.00  0.00     0.115 A 
ATOM      6  C   UNL     1     105.838 111.583 137.662  1.00  0.00     0.188 A 
ATOM      7  O   UNL     1     105.925 110.357 137.149  1.00  0.00    -0.452 OA
ATOM      8  C   UNL     1     105.263 112.629 136.902  1.00  0.00     0.209 A 
ATOM      9  C   UNL     1     105.214 113.936 137.446  1.00  0.00     0.211 A 
ATOM     10  C   UNL     1     105.660 114.172 138.764  1.00  0.00     0.208 A 
ATOM     11  C   UNL     1     106.238 113.128 139.527  1.00  0.00     0.179 A 
ENDROOT
BRANCH   1  12
ATOM     12  C   UNL     1     106.523 108.007 137.094  1.00  0.00     0.018 A 
ATOM     13  C   UNL     1     106.569 105.507 135.785  1.00  0.00     0.118 A 
ATOM     14  C   UNL     1     107.699 106.344 135.758  1.00  0.00     0.047 A 
ATOM     15  C   UNL     1     105.421 105.932 136.463  1.00  0.00     0.047 A 
ATOM     16  C   UNL     1     107.675 107.583 136.406  1.00  0.00     0.016 A 
ATOM     17  C   UNL     1     105.395 107.171 137.108  1.00  0.00     0.016 A 
BRANCH  13  18
ATOM     18  O   UNL     1     106.543 104.255 135.152  1.00  0.00    -0.497 OA
ATOM     19  C   UNL     1     107.503 103.225 135.369  1.00  0.00     0.278 C 
ENDBRANCH  13  18
ENDBRANCH   1  12
BRANCH   8  20
ATOM     20  O   UNL     1     104.738 112.424 135.612  1.00  0.00    -0.490 OA
ATOM     21  C   UNL     1     105.431 112.514 134.371  1.00  0.00     0.278 C 
ENDBRANCH   8  20
BRANCH  11  22
ATOM     22  O   UNL     1     106.712 113.320 140.843  1.00  0.00    -0.492 OA
ATOM     23  C   UNL     1     105.948 113.632 142.003  1.00  0.00     0.278 C 
ENDBRANCH  11  22
BRANCH   9  24
ATOM     24  O   UNL     1     104.756 115.052 136.718  1.00  0.00    -0.490 OA
ATOM     25  C   UNL     1     103.407 115.459 136.512  1.00  0.00     0.279 C 
ENDBRANCH   9  24
BRANCH  10  26
ATOM     26  O   UNL     1     105.566 115.457 139.318  1.00  0.00    -0.490 OA
ATOM     27  C   UNL     1     106.637 116.397 139.349  1.00  0.00     0.278 C 
ENDBRANCH  10  26
TORSDOF 6
ENDMDL
MODEL 8
REMARK VINA RESULT:    -5.412      9.397     12.218
REMARK INTER + INTRA:          -7.849
REMARK INTER:                  -7.328
REMARK INTRA:                  -0.521
REMARK UNBOUND:                -0.539
REMARK SMILES COc1ccc(-c2cc(=O)c3c(OC)c(OC)c(OC)c(OC)c3o2)cc1
REMARK SMILES IDX 7 1 8 2 9 3 10 4 11 5 24 6 25 7 21 8 18 9 15 10 12 11 6 12
REMARK SMILES IDX 3 13 4 14 27 15 5 16 26 17 2 18 1 19 22 20 23 21 13 22 14 23
REMARK SMILES IDX 19 24 20 25 16 26 17 27
REMARK H PARENT
REMARK Flexibility Score: inf
ROOT
ATOM      1  C   UNL     1     104.124 114.403 137.008  1.00  0.00     0.138 A 
ATOM      2  C   UNL     1     105.382 114.901 137.353  1.00  0.00     0.100 A 
ATOM      3  C   UNL     1     106.045 114.372 138.456  1.00  0.00     0.197 A 
ATOM      4  O   UNL     1     107.184 114.832 138.747  1.00  0.00    -0.289 OA
ATOM      5  C   UNL     1     105.437 113.346 139.220  1.00  0.00     0.115 A 
ATOM      6  C   UNL     1     104.160 112.892 138.809  1.00  0.00     0.188 A 
ATOM      7  O   UNL     1     103.583 113.431 137.736  1.00  0.00    -0.452 OA
ATOM      8  C   UNL     1     103.489 111.881 139.538  1.00  0.00     0.209 A 
ATOM      9  C   UNL     1     104.098 111.344 140.700  1.00  0.00     0.211 A 
ATOM     10  C   UNL     1     105.394 111.756 141.076  1.00  0.00     0.208 A 
ATOM     11  C   UNL     1     106.067 112.769 140.349  1.00  0.00     0.179 A 
ENDROOT
BRANCH   1  12
ATOM     12  C   UNL     1     103.378 114.932 135.842  1.00  0.00     0.018 A 
ATOM     13  C   UNL     1     101.957 115.983 133.640  1.00  0.00     0.118 A 
ATOM     14  C   UNL     1     102.882 114.938 133.456  1.00  0.00     0.047 A 
ATOM     15  C   UNL     1     101.756 116.497 134.926  1.00  0.00     0.047 A 
ATOM     16  C   UNL     1     103.586 114.419 134.547  1.00  0.00     0.016 A 
ATOM     17  C   UNL     1     102.462 115.981 136.016  1.00  0.00     0.016 A 
BRANCH  13  18
ATOM     18  O   UNL     1     101.225 116.536 132.579  1.00  0.00    -0.497 OA
ATOM     19  C   UNL     1      99.875 116.202 132.273  1.00  0.00     0.278 C 
ENDBRANCH  13  18
ENDBRANCH   1  12
BRANCH   8  20
ATOM     20  O   UNL     1     102.227 111.386 139.158  1.00  0.00    -0.490 OA
ATOM     21  C   UNL     1     101.943 110.436 138.136  1.00  0.00     0.278 C 
ENDBRANCH   8  20
BRANCH  11  22
ATOM     22  O   UNL     1     107.357 113.225 140.696  1.00  0.00    -0.492 OA
ATOM     23  C   UNL     1     108.597 112.557 140.492  1.00  0.00     0.278 C 
ENDBRANCH  11  22
BRANCH   9  24
ATOM     24  O   UNL     1     103.455 110.414 141.540  1.00  0.00    -0.490 OA
ATOM     25  C   UNL     1     103.226 109.031 141.290  1.00  0.00     0.279 C 
ENDBRANCH   9  24
BRANCH  10  26
ATOM     26  O   UNL     1     106.014 111.189 142.199  1.00  0.00    -0.490 OA
ATOM     27  C   UNL     1     106.748 109.967 142.177  1.00  0.00     0.278 C 
ENDBRANCH  10  26
TORSDOF 6
ENDMDL
MODEL 9
REMARK VINA RESULT:    -5.152      9.326     12.382
REMARK INTER + INTRA:          -7.499
REMARK INTER:                  -7.010
REMARK INTRA:                  -0.488
REMARK UNBOUND:                -0.539
REMARK SMILES COc1ccc(-c2cc(=O)c3c(OC)c(OC)c(OC)c(OC)c3o2)cc1
REMARK SMILES IDX 7 1 8 2 9 3 10 4 11 5 24 6 25 7 21 8 18 9 15 10 12 11 6 12
REMARK SMILES IDX 3 13 4 14 27 15 5 16 26 17 2 18 1 19 22 20 23 21 13 22 14 23
REMARK SMILES IDX 19 24 20 25 16 26 17 27
REMARK H PARENT
REMARK Flexibility Score: inf
ROOT
ATOM      1  C   UNL     1     102.836 113.506 137.593  1.00  0.00     0.138 A 
ATOM      2  C   UNL     1     102.065 112.475 138.134  1.00  0.00     0.100 A 
ATOM      3  C   UNL     1     102.568 111.734 139.199  1.00  0.00     0.197 A 
ATOM      4  O   UNL     1     101.854 110.811 139.677  1.00  0.00    -0.289 OA
ATOM      5  C   UNL     1     103.854 112.027 139.718  1.00  0.00     0.115 A 
ATOM      6  C   UNL     1     104.576 113.089 139.118  1.00  0.00     0.188 A 
ATOM      7  O   UNL     1     104.033 113.766 138.108  1.00  0.00    -0.452 OA
ATOM      8  C   UNL     1     105.873 113.421 139.576  1.00  0.00     0.209 A 
ATOM      9  C   UNL     1     106.453 112.666 140.626  1.00  0.00     0.211 A 
ATOM     10  C   UNL     1     105.711 111.647 141.260  1.00  0.00     0.208 A 
ATOM     11  C   UNL     1     104.414 111.311 140.802  1.00  0.00     0.179 A 
ENDROOT
BRANCH   1  12
ATOM     12  C   UNL     1     102.344 114.324 136.458  1.00  0.00     0.018 A 
ATOM     13  C   UNL     1     101.397 115.915 134.329  1.00  0.00     0.118 A 
ATOM     14  C   UNL     1     102.497 115.059 134.141  1.00  0.00     0.047 A 
ATOM     15  C   UNL     1     100.784 115.972 135.586  1.00  0.00     0.047 A 
ATOM     16  C   UNL     1     102.967 114.271 135.197  1.00  0.00     0.016 A 
ATOM     17  C   UNL     1     101.254 115.189 136.642  1.00  0.00     0.016 A 
BRANCH  13  18
ATOM     18  O   UNL     1     100.887 116.724 133.302  1.00  0.00    -0.497 OA
ATOM     19  C   UNL     1      99.944 116.287 132.328  1.00  0.00     0.278 C 
ENDBRANCH  13  18
ENDBRANCH   1  12
BRANCH   8  20
ATOM     20  O   UNL     1     106.622 114.479 139.023  1.00  0.00    -0.490 OA
ATOM     21  C   UNL     1     106.605 115.847 139.414  1.00  0.00     0.278 C 
ENDBRANCH   8  20
BRANCH  11  22
ATOM     22  O   UNL     1     103.640 110.289 141.394  1.00  0.00    -0.492 OA
ATOM     23  C   UNL     1     103.767 108.884 141.206  1.00  0.00     0.278 C 
ENDBRANCH  11  22
BRANCH   9  24
ATOM     24  O   UNL     1     107.776 112.863 141.069  1.00  0.00    -0.490 OA
ATOM     25  C   UNL     1     108.971 112.348 140.490  1.00  0.00     0.279 C 
ENDBRANCH   9  24
BRANCH  10  26
ATOM     26  O   UNL     1     106.269 110.933 142.330  1.00  0.00    -0.490 OA
ATOM     27  C   UNL     1     107.041 109.744 142.184  1.00  0.00     0.278 C 
ENDBRANCH  10  26
TORSDOF 6
ENDMDL
