MODEL 1
REMARK VINA RESULT:    -6.297      0.000      0.000
REMARK INTER + INTRA:          -6.613
REMARK INTER:                  -6.850
REMARK INTRA:                   0.237
REMARK UNBOUND:                 0.237
REMARK SMILES CC1(C)CC[C@]2(C(=O)[O-])CC[C@@]3(C)C(=CC[C@@H]4[C@@]5(C)CC[C@H](O)C(C)(C)[C@H]5CC[C@]43C)[C@H]2C1
REMARK SMILES IDX 6 1 5 2 10 3 32 4 4 5 11 6 14 7 33 8 2 9 12 10 15 11 1 12
REMARK SMILES IDX 3 13 13 14 30 15 16 16 17 17 29 18 31 19 18 20 28 21 27 22
REMARK SMILES IDX 20 23 19 24 24 25 21 26 22 27 25 28 26 29 7 30 8 31 9 32
REMARK SMILES IDX 23 33
REMARK H PARENT 23 34
REMARK Flexibility Score: inf
ROOT
ATOM      1  C   UNL     1       9.151 -13.892  16.212  1.00  0.00     0.017 C 
ATOM      2  C   UNL     1       9.220 -13.752  17.759  1.00  0.00     0.014 C 
ATOM      3  C   UNL     1      10.499 -14.522  15.689  1.00  0.00     0.014 C 
ATOM      4  C   UNL     1       8.938 -12.459  15.620  1.00  0.00     0.028 C 
ATOM      5  C   UNL     1       7.960 -13.094  18.350  1.00  0.00     0.007 C 
ATOM      6  C   UNL     1      11.247 -13.668  14.638  1.00  0.00     0.013 C 
ATOM      7  C   UNL     1       9.077 -12.475  14.094  1.00  0.00    -0.064 C 
ATOM      8  C   UNL     1       7.674 -11.759  16.189  1.00  0.00     0.015 C 
ATOM      9  C   UNL     1       7.656 -11.698  17.744  1.00  0.00    -0.035 C 
ATOM     10  C   UNL     1      10.321 -13.141  13.483  1.00  0.00    -0.006 C 
ATOM     11  C   UNL     1       8.204 -11.850  13.266  1.00  0.00    -0.027 C 
ATOM     12  C   UNL     1       8.666 -10.648  18.265  1.00  0.00     0.011 C 
ATOM     13  C   UNL     1       6.248 -11.260  18.201  1.00  0.00     0.011 C 
ATOM     14  C   UNL     1       9.793 -14.428  12.749  1.00  0.00     0.017 C 
ATOM     15  C   UNL     1      11.088 -12.109  12.466  1.00  0.00    -0.020 C 
ATOM     16  C   UNL     1       8.639 -11.471  11.870  1.00  0.00     0.032 C 
ATOM     17  C   UNL     1      10.104 -10.981  11.959  1.00  0.00     0.006 C 
ATOM     18  C   UNL     1      12.248 -11.309  13.154  1.00  0.00     0.008 C 
ATOM     19  C   UNL     1      11.715 -12.949  11.307  1.00  0.00     0.012 C 
ATOM     20  C   UNL     1      10.639 -10.020  10.807  1.00  0.00    -0.025 C 
ATOM     21  C   UNL     1      12.617  -9.931  12.517  1.00  0.00     0.005 C 
ATOM     22  C   UNL     1      12.201  -9.720  11.023  1.00  0.00     0.003 C 
ATOM     23  C   UNL     1       9.788  -8.702  10.888  1.00  0.00     0.010 C 
ATOM     24  C   UNL     1      10.392 -10.675   9.414  1.00  0.00     0.012 C 
ATOM     25  C   UNL     1      12.751  -8.360  10.390  1.00  0.00    -0.006 C 
ATOM     26  C   UNL     1      10.362  -7.507  10.137  1.00  0.00     0.033 C 
ATOM     27  C   UNL     1      11.766  -7.184  10.641  1.00  0.00     0.120 C 
ATOM     28  C   UNL     1      13.016  -8.543   8.866  1.00  0.00     0.014 C 
ATOM     29  C   UNL     1      14.126  -7.954  10.991  1.00  0.00     0.014 C 
ENDROOT
BRANCH   1  30
ATOM     30  C   UNL     1       8.006 -14.842  15.859  1.00  0.00     0.048 C 
ATOM     31  O   UNL     1       8.168 -16.087  15.968  1.00  0.00    -0.550 OA
ATOM     32  O   UNL     1       6.796 -14.372  15.361  1.00  0.00    -0.550 OA
ENDBRANCH   1  30
BRANCH  27  33
ATOM     33  O   UNL     1      12.227  -6.013  10.011  1.00  0.00    -0.393 OA
ATOM     34  H   UNL     1      11.618  -5.277  10.284  1.00  0.00     0.210 HD
ENDBRANCH  27  33
TORSDOF 2
ENDMDL
MODEL 2
REMARK VINA RESULT:    -6.193      3.783      7.408
REMARK INTER + INTRA:          -6.500
REMARK INTER:                  -6.749
REMARK INTRA:                   0.250
REMARK UNBOUND:                 0.237
REMARK SMILES CC1(C)CC[C@]2(C(=O)[O-])CC[C@@]3(C)C(=CC[C@@H]4[C@@]5(C)CC[C@H](O)C(C)(C)[C@H]5CC[C@]43C)[C@H]2C1
REMARK SMILES IDX 6 1 5 2 10 3 32 4 4 5 11 6 14 7 33 8 2 9 12 10 15 11 1 12
REMARK SMILES IDX 3 13 13 14 30 15 16 16 17 17 29 18 31 19 18 20 28 21 27 22
REMARK SMILES IDX 20 23 19 24 24 25 21 26 22 27 25 28 26 29 7 30 8 31 9 32
REMARK SMILES IDX 23 33
REMARK H PARENT 23 34
REMARK Flexibility Score: inf
ROOT
ATOM      1  C   UNL     1      12.025  -9.695  11.812  1.00  0.00     0.017 C 
ATOM      2  C   UNL     1      11.851  -9.485  13.343  1.00  0.00     0.014 C 
ATOM      3  C   UNL     1      11.208  -8.588  11.042  1.00  0.00     0.014 C 
ATOM      4  C   UNL     1      11.488 -11.125  11.470  1.00  0.00     0.028 C 
ATOM      5  C   UNL     1      12.576 -10.560  14.173  1.00  0.00     0.007 C 
ATOM      6  C   UNL     1      10.158  -9.134  10.046  1.00  0.00     0.013 C 
ATOM      7  C   UNL     1      11.419 -11.331   9.953  1.00  0.00    -0.064 C 
ATOM      8  C   UNL     1      12.195 -12.240  12.285  1.00  0.00     0.015 C 
ATOM      9  C   UNL     1      12.136 -12.006  13.822  1.00  0.00    -0.035 C 
ATOM     10  C   UNL     1      10.713 -10.262   9.103  1.00  0.00    -0.006 C 
ATOM     11  C   UNL     1      11.870 -12.453   9.339  1.00  0.00    -0.027 C 
ATOM     12  C   UNL     1      10.715 -12.289  14.368  1.00  0.00     0.011 C 
ATOM     13  C   UNL     1      13.105 -12.994  14.507  1.00  0.00     0.011 C 
ATOM     14  C   UNL     1      11.848  -9.579   8.255  1.00  0.00     0.017 C 
ATOM     15  C   UNL     1       9.553 -10.942   8.165  1.00  0.00    -0.020 C 
ATOM     16  C   UNL     1      11.341 -12.820   7.973  1.00  0.00     0.032 C 
ATOM     17  C   UNL     1       9.831 -12.484   7.955  1.00  0.00     0.006 C 
ATOM     18  C   UNL     1       8.128 -10.908   8.819  1.00  0.00     0.008 C 
ATOM     19  C   UNL     1       9.480 -10.139   6.827  1.00  0.00     0.012 C 
ATOM     20  C   UNL     1       8.911 -13.247   6.902  1.00  0.00    -0.025 C 
ATOM     21  C   UNL     1       7.121 -12.008   8.354  1.00  0.00     0.005 C 
ATOM     22  C   UNL     1       7.411 -12.678   6.970  1.00  0.00     0.003 C 
ATOM     23  C   UNL     1       8.960 -14.770   7.280  1.00  0.00     0.010 C 
ATOM     24  C   UNL     1       9.498 -13.081   5.468  1.00  0.00     0.012 C 
ATOM     25  C   UNL     1       6.259 -13.672   6.483  1.00  0.00    -0.006 C 
ATOM     26  C   UNL     1       7.875 -15.635   6.652  1.00  0.00     0.033 C 
ATOM     27  C   UNL     1       6.491 -15.110   7.024  1.00  0.00     0.120 C 
ATOM     28  C   UNL     1       6.168 -13.673   4.929  1.00  0.00     0.014 C 
ATOM     29  C   UNL     1       4.854 -13.213   6.968  1.00  0.00     0.014 C 
ENDROOT
BRANCH   1  30
ATOM     30  C   UNL     1      13.505  -9.532  11.463  1.00  0.00     0.048 C 
ATOM     31  O   UNL     1      13.982  -8.381  11.275  1.00  0.00    -0.550 OA
ATOM     32  O   UNL     1      14.338 -10.632  11.289  1.00  0.00    -0.550 OA
ENDBRANCH   1  30
BRANCH  27  33
ATOM     33  O   UNL     1       5.512 -15.988   6.524  1.00  0.00    -0.393 OA
ATOM     34  H   UNL     1       5.917 -16.895   6.503  1.00  0.00     0.210 HD
ENDBRANCH  27  33
TORSDOF 2
ENDMDL
MODEL 3
REMARK VINA RESULT:    -6.187      6.004     10.869
REMARK INTER + INTRA:          -6.493
REMARK INTER:                  -6.737
REMARK INTRA:                   0.243
REMARK UNBOUND:                 0.237
REMARK SMILES CC1(C)CC[C@]2(C(=O)[O-])CC[C@@]3(C)C(=CC[C@@H]4[C@@]5(C)CC[C@H](O)C(C)(C)[C@H]5CC[C@]43C)[C@H]2C1
REMARK SMILES IDX 6 1 5 2 10 3 32 4 4 5 11 6 14 7 33 8 2 9 12 10 15 11 1 12
REMARK SMILES IDX 3 13 13 14 30 15 16 16 17 17 29 18 31 19 18 20 28 21 27 22
REMARK SMILES IDX 20 23 19 24 24 25 21 26 22 27 25 28 26 29 7 30 8 31 9 32
REMARK SMILES IDX 23 33
REMARK H PARENT 23 34
REMARK Flexibility Score: inf
ROOT
ATOM      1  C   UNL     1       7.104 -13.698  17.146  1.00  0.00     0.017 C 
ATOM      2  C   UNL     1       8.553 -14.174  17.447  1.00  0.00     0.014 C 
ATOM      3  C   UNL     1       7.097 -12.129  16.991  1.00  0.00     0.014 C 
ATOM      4  C   UNL     1       6.204 -14.145  18.345  1.00  0.00     0.028 C 
ATOM      5  C   UNL     1       8.642 -15.696  17.666  1.00  0.00     0.007 C 
ATOM      6  C   UNL     1       6.136 -11.389  17.951  1.00  0.00     0.013 C 
ATOM      7  C   UNL     1       4.806 -13.528  18.236  1.00  0.00    -0.064 C 
ATOM      8  C   UNL     1       6.263 -15.675  18.600  1.00  0.00     0.015 C 
ATOM      9  C   UNL     1       7.712 -16.207  18.798  1.00  0.00    -0.035 C 
ATOM     10  C   UNL     1       4.694 -12.013  18.002  1.00  0.00    -0.006 C 
ATOM     11  C   UNL     1       3.667 -14.239  18.427  1.00  0.00    -0.027 C 
ATOM     12  C   UNL     1       8.265 -15.796  20.184  1.00  0.00     0.011 C 
ATOM     13  C   UNL     1       7.680 -17.750  18.747  1.00  0.00     0.011 C 
ATOM     14  C   UNL     1       4.117 -11.851  16.548  1.00  0.00     0.017 C 
ATOM     15  C   UNL     1       3.736 -11.321  19.138  1.00  0.00    -0.020 C 
ATOM     16  C   UNL     1       2.392 -13.521  18.802  1.00  0.00     0.032 C 
ATOM     17  C   UNL     1       2.771 -12.391  19.788  1.00  0.00     0.006 C 
ATOM     18  C   UNL     1       4.536 -10.751  20.361  1.00  0.00     0.008 C 
ATOM     19  C   UNL     1       2.978 -10.129  18.471  1.00  0.00     0.012 C 
ATOM     20  C   UNL     1       1.636 -11.842  20.763  1.00  0.00    -0.025 C 
ATOM     21  C   UNL     1       3.760 -10.645  21.713  1.00  0.00     0.005 C 
ATOM     22  C   UNL     1       2.198 -10.606  21.619  1.00  0.00     0.003 C 
ATOM     23  C   UNL     1       1.223 -13.039  21.692  1.00  0.00     0.010 C 
ATOM     24  C   UNL     1       0.387 -11.415  19.934  1.00  0.00     0.012 C 
ATOM     25  C   UNL     1       1.478 -10.334  23.019  1.00  0.00    -0.006 C 
ATOM     26  C   UNL     1       0.431 -12.656  22.937  1.00  0.00     0.033 C 
ATOM     27  C   UNL     1       1.218 -11.660  23.785  1.00  0.00     0.120 C 
ATOM     28  C   UNL     1       0.149  -9.553  22.799  1.00  0.00     0.014 C 
ATOM     29  C   UNL     1       2.333  -9.421  23.943  1.00  0.00     0.014 C 
ENDROOT
BRANCH   1  30
ATOM     30  C   UNL     1       6.653 -14.315  15.821  1.00  0.00     0.048 C 
ATOM     31  O   UNL     1       7.126 -13.883  14.735  1.00  0.00    -0.550 OA
ATOM     32  O   UNL     1       5.685 -15.312  15.773  1.00  0.00    -0.550 OA
ENDBRANCH   1  30
BRANCH  27  33
ATOM     33  O   UNL     1       0.515 -11.411  24.978  1.00  0.00    -0.393 OA
ATOM     34  H   UNL     1       1.054 -11.793  25.719  1.00  0.00     0.210 HD
ENDBRANCH  27  33
TORSDOF 2
ENDMDL
MODEL 4
REMARK VINA RESULT:    -5.990      4.485      6.330
REMARK INTER + INTRA:          -6.279
REMARK INTER:                  -6.547
REMARK INTRA:                   0.268
REMARK UNBOUND:                 0.237
REMARK SMILES CC1(C)CC[C@]2(C(=O)[O-])CC[C@@]3(C)C(=CC[C@@H]4[C@@]5(C)CC[C@H](O)C(C)(C)[C@H]5CC[C@]43C)[C@H]2C1
REMARK SMILES IDX 6 1 5 2 10 3 32 4 4 5 11 6 14 7 33 8 2 9 12 10 15 11 1 12
REMARK SMILES IDX 3 13 13 14 30 15 16 16 17 17 29 18 31 19 18 20 28 21 27 22
REMARK SMILES IDX 20 23 19 24 24 25 21 26 22 27 25 28 26 29 7 30 8 31 9 32
REMARK SMILES IDX 23 33
REMARK H PARENT 23 34
REMARK Flexibility Score: inf
ROOT
ATOM      1  C   UNL     1      16.008 -17.293  14.789  1.00  0.00     0.017 C 
ATOM      2  C   UNL     1      17.495 -17.530  15.174  1.00  0.00     0.014 C 
ATOM      3  C   UNL     1      15.813 -17.609  13.256  1.00  0.00     0.014 C 
ATOM      4  C   UNL     1      15.675 -15.796  15.097  1.00  0.00     0.028 C 
ATOM      5  C   UNL     1      17.785 -17.193  16.648  1.00  0.00     0.007 C 
ATOM      6  C   UNL     1      15.236 -16.441  12.423  1.00  0.00     0.013 C 
ATOM      7  C   UNL     1      14.297 -15.420  14.544  1.00  0.00    -0.064 C 
ATOM      8  C   UNL     1      15.952 -15.413  16.576  1.00  0.00     0.015 C 
ATOM      9  C   UNL     1      17.405 -15.738  17.030  1.00  0.00    -0.035 C 
ATOM     10  C   UNL     1      13.980 -15.761  13.079  1.00  0.00    -0.006 C 
ATOM     11  C   UNL     1      13.380 -14.720  15.258  1.00  0.00    -0.027 C 
ATOM     12  C   UNL     1      18.411 -14.734  16.417  1.00  0.00     0.011 C 
ATOM     13  C   UNL     1      17.481 -15.598  18.566  1.00  0.00     0.011 C 
ATOM     14  C   UNL     1      12.879 -16.882  13.134  1.00  0.00     0.017 C 
ATOM     15  C   UNL     1      13.477 -14.427  12.270  1.00  0.00    -0.020 C 
ATOM     16  C   UNL     1      12.292 -13.960  14.536  1.00  0.00     0.032 C 
ATOM     17  C   UNL     1      12.926 -13.335  13.271  1.00  0.00     0.006 C 
ATOM     18  C   UNL     1      14.636 -13.686  11.514  1.00  0.00     0.008 C 
ATOM     19  C   UNL     1      12.427 -14.875  11.203  1.00  0.00     0.012 C 
ATOM     20  C   UNL     1      12.210 -12.064  12.630  1.00  0.00    -0.025 C 
ATOM     21  C   UNL     1      14.431 -12.160  11.250  1.00  0.00     0.005 C 
ATOM     22  C   UNL     1      12.955 -11.641  11.273  1.00  0.00     0.003 C 
ATOM     23  C   UNL     1      12.284 -10.918  13.702  1.00  0.00     0.010 C 
ATOM     24  C   UNL     1      10.709 -12.382  12.359  1.00  0.00     0.012 C 
ATOM     25  C   UNL     1      12.806 -10.111  10.836  1.00  0.00    -0.006 C 
ATOM     26  C   UNL     1      12.001  -9.515  13.179  1.00  0.00     0.033 C 
ATOM     27  C   UNL     1      12.969  -9.160  12.053  1.00  0.00     0.120 C 
ATOM     28  C   UNL     1      11.435  -9.882  10.133  1.00  0.00     0.014 C 
ATOM     29  C   UNL     1      13.872  -9.703   9.779  1.00  0.00     0.014 C 
ENDROOT
BRANCH   1  30
ATOM     30  C   UNL     1      15.135 -18.258  15.594  1.00  0.00     0.048 C 
ATOM     31  O   UNL     1      15.257 -19.501  15.427  1.00  0.00    -0.550 OA
ATOM     32  O   UNL     1      14.162 -17.799  16.475  1.00  0.00    -0.550 OA
ENDBRANCH   1  30
BRANCH  27  33
ATOM     33  O   UNL     1      12.759  -7.824  11.666  1.00  0.00    -0.393 OA
ATOM     34  H   UNL     1      13.101  -7.250  12.401  1.00  0.00     0.210 HD
ENDBRANCH  27  33
TORSDOF 2
ENDMDL
MODEL 5
REMARK VINA RESULT:    -5.900      3.129      5.435
REMARK INTER + INTRA:          -6.181
REMARK INTER:                  -6.437
REMARK INTRA:                   0.256
REMARK UNBOUND:                 0.237
REMARK SMILES CC1(C)CC[C@]2(C(=O)[O-])CC[C@@]3(C)C(=CC[C@@H]4[C@@]5(C)CC[C@H](O)C(C)(C)[C@H]5CC[C@]43C)[C@H]2C1
REMARK SMILES IDX 6 1 5 2 10 3 32 4 4 5 11 6 14 7 33 8 2 9 12 10 15 11 1 12
REMARK SMILES IDX 3 13 13 14 30 15 16 16 17 17 29 18 31 19 18 20 28 21 27 22
REMARK SMILES IDX 20 23 19 24 24 25 21 26 22 27 25 28 26 29 7 30 8 31 9 32
REMARK SMILES IDX 23 33
REMARK H PARENT 23 34
REMARK Flexibility Score: inf
ROOT
ATOM      1  C   UNL     1      12.116 -14.737  13.448  1.00  0.00     0.017 C 
ATOM      2  C   UNL     1      11.247 -16.015  13.284  1.00  0.00     0.014 C 
ATOM      3  C   UNL     1      11.381 -13.732  14.415  1.00  0.00     0.014 C 
ATOM      4  C   UNL     1      12.302 -14.109  12.027  1.00  0.00     0.028 C 
ATOM      5  C   UNL     1      11.869 -17.032  12.309  1.00  0.00     0.007 C 
ATOM      6  C   UNL     1      11.112 -12.333  13.812  1.00  0.00     0.013 C 
ATOM      7  C   UNL     1      12.960 -12.729  12.124  1.00  0.00    -0.064 C 
ATOM      8  C   UNL     1      12.930 -15.102  11.012  1.00  0.00     0.015 C 
ATOM      9  C   UNL     1      12.145 -16.441  10.901  1.00  0.00    -0.035 C 
ATOM     10  C   UNL     1      12.364 -11.704  13.102  1.00  0.00    -0.006 C 
ATOM     11  C   UNL     1      13.983 -12.341  11.322  1.00  0.00    -0.027 C 
ATOM     12  C   UNL     1      10.820 -16.241  10.126  1.00  0.00     0.011 C 
ATOM     13  C   UNL     1      13.004 -17.449  10.106  1.00  0.00     0.011 C 
ATOM     14  C   UNL     1      13.441 -11.524  14.234  1.00  0.00     0.017 C 
ATOM     15  C   UNL     1      12.025 -10.298  12.330  1.00  0.00    -0.020 C 
ATOM     16  C   UNL     1      14.248 -10.869  11.108  1.00  0.00     0.032 C 
ATOM     17  C   UNL     1      12.875 -10.163  11.004  1.00  0.00     0.006 C 
ATOM     18  C   UNL     1      10.541 -10.207  11.830  1.00  0.00     0.008 C 
ATOM     19  C   UNL     1      12.258  -9.126  13.336  1.00  0.00     0.012 C 
ATOM     20  C   UNL     1      12.814  -8.763  10.246  1.00  0.00    -0.025 C 
ATOM     21  C   UNL     1      10.273  -9.268  10.611  1.00  0.00     0.005 C 
ATOM     22  C   UNL     1      11.335  -8.149  10.346  1.00  0.00     0.003 C 
ATOM     23  C   UNL     1      13.216  -9.041   8.754  1.00  0.00     0.010 C 
ATOM     24  C   UNL     1      13.860  -7.783  10.859  1.00  0.00     0.012 C 
ATOM     25  C   UNL     1      10.917  -7.128   9.190  1.00  0.00    -0.006 C 
ATOM     26  C   UNL     1      12.871  -7.933   7.767  1.00  0.00     0.033 C 
ATOM     27  C   UNL     1      11.374  -7.639   7.796  1.00  0.00     0.120 C 
ATOM     28  C   UNL     1      11.503  -5.715   9.481  1.00  0.00     0.014 C 
ATOM     29  C   UNL     1       9.377  -6.920   9.129  1.00  0.00     0.014 C 
ENDROOT
BRANCH   1  30
ATOM     30  C   UNL     1      13.449 -15.132  14.086  1.00  0.00     0.048 C 
ATOM     31  O   UNL     1      13.540 -15.226  15.340  1.00  0.00    -0.550 OA
ATOM     32  O   UNL     1      14.591 -15.338  13.320  1.00  0.00    -0.550 OA
ENDBRANCH   1  30
BRANCH  27  33
ATOM     33  O   UNL     1      11.067  -6.694   6.800  1.00  0.00    -0.393 OA
ATOM     34  H   UNL     1      10.096  -6.777   6.608  1.00  0.00     0.210 HD
ENDBRANCH  27  33
TORSDOF 2
ENDMDL
MODEL 6
REMARK VINA RESULT:    -5.856      7.079     11.164
REMARK INTER + INTRA:          -6.133
REMARK INTER:                  -6.377
REMARK INTRA:                   0.244
REMARK UNBOUND:                 0.237
REMARK SMILES CC1(C)CC[C@]2(C(=O)[O-])CC[C@@]3(C)C(=CC[C@@H]4[C@@]5(C)CC[C@H](O)C(C)(C)[C@H]5CC[C@]43C)[C@H]2C1
REMARK SMILES IDX 6 1 5 2 10 3 32 4 4 5 11 6 14 7 33 8 2 9 12 10 15 11 1 12
REMARK SMILES IDX 3 13 13 14 30 15 16 16 17 17 29 18 31 19 18 20 28 21 27 22
REMARK SMILES IDX 20 23 19 24 24 25 21 26 22 27 25 28 26 29 7 30 8 31 9 32
REMARK SMILES IDX 23 33
REMARK H PARENT 23 34
REMARK Flexibility Score: inf
ROOT
ATOM      1  C   UNL     1      14.627 -14.599  12.754  1.00  0.00     0.017 C 
ATOM      2  C   UNL     1      14.446 -14.348  11.231  1.00  0.00     0.014 C 
ATOM      3  C   UNL     1      16.123 -14.301  13.153  1.00  0.00     0.014 C 
ATOM      4  C   UNL     1      14.264 -16.096  13.030  1.00  0.00     0.028 C 
ATOM      5  C   UNL     1      13.020 -14.668  10.745  1.00  0.00     0.007 C 
ATOM      6  C   UNL     1      16.861 -15.483  13.825  1.00  0.00     0.013 C 
ATOM      7  C   UNL     1      14.625 -16.488  14.466  1.00  0.00    -0.064 C 
ATOM      8  C   UNL     1      12.831 -16.461  12.556  1.00  0.00     0.015 C 
ATOM      9  C   UNL     1      12.577 -16.121  11.059  1.00  0.00    -0.035 C 
ATOM     10  C   UNL     1      16.038 -16.164  14.977  1.00  0.00    -0.006 C 
ATOM     11  C   UNL     1      13.789 -17.187  15.274  1.00  0.00    -0.027 C 
ATOM     12  C   UNL     1      13.309 -17.124  10.134  1.00  0.00     0.011 C 
ATOM     13  C   UNL     1      11.063 -16.245  10.778  1.00  0.00     0.011 C 
ATOM     14  C   UNL     1      15.847 -15.050  16.071  1.00  0.00     0.017 C 
ATOM     15  C   UNL     1      16.760 -17.510  15.572  1.00  0.00    -0.020 C 
ATOM     16  C   UNL     1      14.352 -17.961  16.442  1.00  0.00     0.032 C 
ATOM     17  C   UNL     1      15.685 -18.595  15.977  1.00  0.00     0.006 C 
ATOM     18  C   UNL     1      17.656 -18.251  14.518  1.00  0.00     0.008 C 
ATOM     19  C   UNL     1      17.682 -17.080  16.758  1.00  0.00     0.012 C 
ATOM     20  C   UNL     1      16.212 -19.878  16.760  1.00  0.00    -0.025 C 
ATOM     21  C   UNL     1      17.876 -19.781  14.744  1.00  0.00     0.005 C 
ATOM     22  C   UNL     1      17.652 -20.311  16.199  1.00  0.00     0.003 C 
ATOM     23  C   UNL     1      15.149 -21.012  16.535  1.00  0.00     0.010 C 
ATOM     24  C   UNL     1      16.284 -19.574  18.287  1.00  0.00     0.012 C 
ATOM     25  C   UNL     1      18.051 -21.846  16.392  1.00  0.00    -0.006 C 
ATOM     26  C   UNL     1      15.616 -22.422  16.873  1.00  0.00     0.033 C 
ATOM     27  C   UNL     1      16.857 -22.783  16.061  1.00  0.00     0.120 C 
ATOM     28  C   UNL     1      18.563 -22.092  17.842  1.00  0.00     0.014 C 
ATOM     29  C   UNL     1      19.236 -22.257  15.472  1.00  0.00     0.014 C 
ENDROOT
BRANCH   1  30
ATOM     30  C   UNL     1      13.723 -13.633  13.519  1.00  0.00     0.048 C 
ATOM     31  O   UNL     1      14.078 -12.434  13.677  1.00  0.00    -0.550 OA
ATOM     32  O   UNL     1      12.532 -14.054  14.102  1.00  0.00    -0.550 OA
ENDBRANCH   1  30
BRANCH  27  33
ATOM     33  O   UNL     1      17.200 -24.125  16.309  1.00  0.00    -0.393 OA
ATOM     34  H   UNL     1      16.422 -24.679  16.038  1.00  0.00     0.210 HD
ENDBRANCH  27  33
TORSDOF 2
ENDMDL
MODEL 7
REMARK VINA RESULT:    -5.767      3.840      8.620
REMARK INTER + INTRA:          -6.036
REMARK INTER:                  -6.496
REMARK INTRA:                   0.460
REMARK UNBOUND:                 0.237
REMARK SMILES CC1(C)CC[C@]2(C(=O)[O-])CC[C@@]3(C)C(=CC[C@@H]4[C@@]5(C)CC[C@H](O)C(C)(C)[C@H]5CC[C@]43C)[C@H]2C1
REMARK SMILES IDX 6 1 5 2 10 3 32 4 4 5 11 6 14 7 33 8 2 9 12 10 15 11 1 12
REMARK SMILES IDX 3 13 13 14 30 15 16 16 17 17 29 18 31 19 18 20 28 21 27 22
REMARK SMILES IDX 20 23 19 24 24 25 21 26 22 27 25 28 26 29 7 30 8 31 9 32
REMARK SMILES IDX 23 33
REMARK H PARENT 23 34
REMARK Flexibility Score: inf
ROOT
ATOM      1  C   UNL     1      12.926  -7.730   9.442  1.00  0.00     0.017 C 
ATOM      2  C   UNL     1      13.801  -7.038   8.359  1.00  0.00     0.014 C 
ATOM      3  C   UNL     1      13.775  -7.905  10.759  1.00  0.00     0.014 C 
ATOM      4  C   UNL     1      12.487  -9.120   8.873  1.00  0.00     0.028 C 
ATOM      5  C   UNL     1      13.063  -6.876   7.018  1.00  0.00     0.007 C 
ATOM      6  C   UNL     1      13.892  -9.362  11.266  1.00  0.00     0.013 C 
ATOM      7  C   UNL     1      11.806  -9.961   9.957  1.00  0.00    -0.064 C 
ATOM      8  C   UNL     1      11.736  -9.002   7.519  1.00  0.00     0.015 C 
ATOM      9  C   UNL     1      12.539  -8.217   6.441  1.00  0.00    -0.035 C 
ATOM     10  C   UNL     1      12.518 -10.123  11.310  1.00  0.00    -0.006 C 
ATOM     11  C   UNL     1      10.652 -10.642   9.747  1.00  0.00    -0.027 C 
ATOM     12  C   UNL     1      13.710  -9.070   5.897  1.00  0.00     0.011 C 
ATOM     13  C   UNL     1      11.597  -7.908   5.257  1.00  0.00     0.011 C 
ATOM     14  C   UNL     1      11.636  -9.338  12.348  1.00  0.00     0.017 C 
ATOM     15  C   UNL     1      12.676 -11.709  11.694  1.00  0.00    -0.020 C 
ATOM     16  C   UNL     1      10.304 -11.814  10.634  1.00  0.00     0.032 C 
ATOM     17  C   UNL     1      11.615 -12.586  10.916  1.00  0.00     0.006 C 
ATOM     18  C   UNL     1      14.053 -12.319  11.256  1.00  0.00     0.008 C 
ATOM     19  C   UNL     1      12.570 -11.843  13.247  1.00  0.00     0.012 C 
ATOM     20  C   UNL     1      11.501 -14.119  11.332  1.00  0.00    -0.025 C 
ATOM     21  C   UNL     1      14.084 -13.861  11.004  1.00  0.00     0.005 C 
ATOM     22  C   UNL     1      12.954 -14.701  11.687  1.00  0.00     0.003 C 
ATOM     23  C   UNL     1      10.869 -14.873  10.108  1.00  0.00     0.010 C 
ATOM     24  C   UNL     1      10.537 -14.269  12.547  1.00  0.00     0.012 C 
ATOM     25  C   UNL     1      13.140 -16.280  11.522  1.00  0.00    -0.006 C 
ATOM     26  C   UNL     1      11.008 -16.390  10.131  1.00  0.00     0.033 C 
ATOM     27  C   UNL     1      12.478 -16.790  10.212  1.00  0.00     0.120 C 
ATOM     28  C   UNL     1      12.561 -17.023  12.761  1.00  0.00     0.014 C 
ATOM     29  C   UNL     1      14.641 -16.685  11.475  1.00  0.00     0.014 C 
ENDROOT
BRANCH   1  30
ATOM     30  C   UNL     1      11.732  -6.828   9.754  1.00  0.00     0.048 C 
ATOM     31  O   UNL     1      11.877  -5.576   9.766  1.00  0.00    -0.550 OA
ATOM     32  O   UNL     1      10.487  -7.354  10.084  1.00  0.00    -0.550 OA
ENDBRANCH   1  30
BRANCH  27  33
ATOM     33  O   UNL     1      12.584 -18.190  10.120  1.00  0.00    -0.393 OA
ATOM     34  H   UNL     1      12.719 -18.533  11.042  1.00  0.00     0.210 HD
ENDBRANCH  27  33
TORSDOF 2
ENDMDL
MODEL 8
REMARK VINA RESULT:    -5.756      8.222     10.957
REMARK INTER + INTRA:          -6.025
REMARK INTER:                  -6.287
REMARK INTRA:                   0.262
REMARK UNBOUND:                 0.237
REMARK SMILES CC1(C)CC[C@]2(C(=O)[O-])CC[C@@]3(C)C(=CC[C@@H]4[C@@]5(C)CC[C@H](O)C(C)(C)[C@H]5CC[C@]43C)[C@H]2C1
REMARK SMILES IDX 6 1 5 2 10 3 32 4 4 5 11 6 14 7 33 8 2 9 12 10 15 11 1 12
REMARK SMILES IDX 3 13 13 14 30 15 16 16 17 17 29 18 31 19 18 20 28 21 27 22
REMARK SMILES IDX 20 23 19 24 24 25 21 26 22 27 25 28 26 29 7 30 8 31 9 32
REMARK SMILES IDX 23 33
REMARK H PARENT 23 34
REMARK Flexibility Score: inf
ROOT
ATOM      1  C   UNL     1       9.302 -14.126  23.676  1.00  0.00     0.017 C 
ATOM      2  C   UNL     1       8.433 -12.876  23.359  1.00  0.00     0.014 C 
ATOM      3  C   UNL     1      10.241 -13.806  24.901  1.00  0.00     0.014 C 
ATOM      4  C   UNL     1      10.144 -14.450  22.397  1.00  0.00     0.028 C 
ATOM      5  C   UNL     1       7.520 -13.085  22.137  1.00  0.00     0.007 C 
ATOM      6  C   UNL     1      11.751 -13.991  24.625  1.00  0.00     0.013 C 
ATOM      7  C   UNL     1      11.188 -15.531  22.693  1.00  0.00    -0.064 C 
ATOM      8  C   UNL     1       9.260 -14.670  21.139  1.00  0.00     0.015 C 
ATOM      9  C   UNL     1       8.297 -13.482  20.853  1.00  0.00    -0.035 C 
ATOM     10  C   UNL     1      12.099 -15.350  23.917  1.00  0.00    -0.006 C 
ATOM     11  C   UNL     1      11.406 -16.590  21.874  1.00  0.00    -0.027 C 
ATOM     12  C   UNL     1       9.072 -12.267  20.290  1.00  0.00     0.011 C 
ATOM     13  C   UNL     1       7.278 -13.924  19.780  1.00  0.00     0.011 C 
ATOM     14  C   UNL     1      11.671 -16.472  24.932  1.00  0.00     0.017 C 
ATOM     15  C   UNL     1      13.676 -15.463  23.486  1.00  0.00    -0.020 C 
ATOM     16  C   UNL     1      12.728 -17.318  21.930  1.00  0.00     0.032 C 
ATOM     17  C   UNL     1      13.834 -16.254  22.126  1.00  0.00     0.006 C 
ATOM     18  C   UNL     1      14.339 -14.073  23.186  1.00  0.00     0.008 C 
ATOM     19  C   UNL     1      14.457 -16.113  24.673  1.00  0.00     0.012 C 
ATOM     20  C   UNL     1      15.315 -16.628  21.675  1.00  0.00    -0.025 C 
ATOM     21  C   UNL     1      15.565 -14.081  22.218  1.00  0.00     0.005 C 
ATOM     22  C   UNL     1      16.323 -15.441  22.063  1.00  0.00     0.003 C 
ATOM     23  C   UNL     1      15.270 -16.852  20.122  1.00  0.00     0.010 C 
ATOM     24  C   UNL     1      15.752 -17.964  22.349  1.00  0.00     0.012 C 
ATOM     25  C   UNL     1      17.657 -15.336  21.190  1.00  0.00    -0.006 C 
ATOM     26  C   UNL     1      16.624 -16.852  19.422  1.00  0.00     0.033 C 
ATOM     27  C   UNL     1      17.358 -15.540  19.679  1.00  0.00     0.120 C 
ATOM     28  C   UNL     1      18.711 -16.369  21.689  1.00  0.00     0.014 C 
ATOM     29  C   UNL     1      18.347 -13.951  21.347  1.00  0.00     0.014 C 
ENDROOT
BRANCH   1  30
ATOM     30  C   UNL     1       8.375 -15.278  24.067  1.00  0.00     0.048 C 
ATOM     31  O   UNL     1       7.694 -15.204  25.125  1.00  0.00    -0.550 OA
ATOM     32  O   UNL     1       8.301 -16.443  23.311  1.00  0.00    -0.550 OA
ENDBRANCH   1  30
BRANCH  27  33
ATOM     33  O   UNL     1      18.551 -15.522  18.934  1.00  0.00    -0.393 OA
ATOM     34  H   UNL     1      18.373 -14.992  18.113  1.00  0.00     0.210 HD
ENDBRANCH  27  33
TORSDOF 2
ENDMDL
MODEL 9
REMARK VINA RESULT:    -5.735      4.041      7.919
REMARK INTER + INTRA:          -6.001
REMARK INTER:                  -6.540
REMARK INTRA:                   0.539
REMARK UNBOUND:                 0.237
REMARK SMILES CC1(C)CC[C@]2(C(=O)[O-])CC[C@@]3(C)C(=CC[C@@H]4[C@@]5(C)CC[C@H](O)C(C)(C)[C@H]5CC[C@]43C)[C@H]2C1
REMARK SMILES IDX 6 1 5 2 10 3 32 4 4 5 11 6 14 7 33 8 2 9 12 10 15 11 1 12
REMARK SMILES IDX 3 13 13 14 30 15 16 16 17 17 29 18 31 19 18 20 28 21 27 22
REMARK SMILES IDX 20 23 19 24 24 25 21 26 22 27 25 28 26 29 7 30 8 31 9 32
REMARK SMILES IDX 23 33
REMARK H PARENT 23 34
REMARK Flexibility Score: inf
ROOT
ATOM      1  C   UNL     1      11.346  -8.283   9.259  1.00  0.00     0.017 C 
ATOM      2  C   UNL     1      10.108  -7.897   8.402  1.00  0.00     0.014 C 
ATOM      3  C   UNL     1      12.524  -8.713   8.304  1.00  0.00     0.014 C 
ATOM      4  C   UNL     1      10.922  -9.468  10.190  1.00  0.00     0.028 C 
ATOM      5  C   UNL     1       8.889  -7.513   9.261  1.00  0.00     0.007 C 
ATOM      6  C   UNL     1      13.079 -10.134   8.559  1.00  0.00     0.013 C 
ATOM      7  C   UNL     1      12.139 -10.055  10.912  1.00  0.00    -0.064 C 
ATOM      8  C   UNL     1       9.695  -9.122  11.077  1.00  0.00     0.015 C 
ATOM      9  C   UNL     1       8.469  -8.626  10.258  1.00  0.00    -0.035 C 
ATOM     10  C   UNL     1      13.372 -10.430  10.075  1.00  0.00    -0.006 C 
ATOM     11  C   UNL     1      12.144 -10.343  12.237  1.00  0.00    -0.027 C 
ATOM     12  C   UNL     1       7.795  -9.800   9.509  1.00  0.00     0.011 C 
ATOM     13  C   UNL     1       7.430  -8.039  11.238  1.00  0.00     0.011 C 
ATOM     14  C   UNL     1      14.493  -9.410  10.492  1.00  0.00     0.017 C 
ATOM     15  C   UNL     1      13.807 -11.987  10.351  1.00  0.00    -0.020 C 
ATOM     16  C   UNL     1      13.131 -11.349  12.779  1.00  0.00     0.032 C 
ATOM     17  C   UNL     1      13.247 -12.490  11.741  1.00  0.00     0.006 C 
ATOM     18  C   UNL     1      13.193 -12.995   9.317  1.00  0.00     0.008 C 
ATOM     19  C   UNL     1      15.362 -12.082  10.239  1.00  0.00     0.012 C 
ATOM     20  C   UNL     1      13.752 -13.912  12.251  1.00  0.00    -0.025 C 
ATOM     21  C   UNL     1      13.018 -14.470   9.802  1.00  0.00     0.005 C 
ATOM     22  C   UNL     1      13.907 -14.917  11.009  1.00  0.00     0.003 C 
ATOM     23  C   UNL     1      12.679 -14.432  13.273  1.00  0.00     0.010 C 
ATOM     24  C   UNL     1      15.107 -13.754  13.004  1.00  0.00     0.012 C 
ATOM     25  C   UNL     1      13.796 -16.475  11.346  1.00  0.00    -0.006 C 
ATOM     26  C   UNL     1      12.757 -15.917  13.604  1.00  0.00     0.033 C 
ATOM     27  C   UNL     1      12.631 -16.755  12.335  1.00  0.00     0.120 C 
ATOM     28  C   UNL     1      15.145 -17.002  11.917  1.00  0.00     0.014 C 
ATOM     29  C   UNL     1      13.539 -17.328  10.070  1.00  0.00     0.014 C 
ENDROOT
BRANCH   1  30
ATOM     30  C   UNL     1      11.793  -7.054  10.052  1.00  0.00     0.048 C 
ATOM     31  O   UNL     1      12.256  -7.194  11.216  1.00  0.00    -0.550 OA
ATOM     32  O   UNL     1      11.651  -5.767   9.545  1.00  0.00    -0.550 OA
ENDBRANCH   1  30
BRANCH  27  33
ATOM     33  O   UNL     1      12.594 -18.118  12.681  1.00  0.00    -0.393 OA
ATOM     34  H   UNL     1      13.107 -18.609  11.986  1.00  0.00     0.210 HD
ENDBRANCH  27  33
TORSDOF 2
ENDMDL
