MODEL 1
REMARK VINA RESULT:    -4.707      0.000      0.000
REMARK INTER + INTRA:          -5.310
REMARK INTER:                  -5.257
REMARK INTRA:                  -0.052
REMARK UNBOUND:                -0.052
REMARK SMILES COc1cc2ccc(=O)oc2c(O)c1O
REMARK SMILES IDX 3 1 14 2 12 3 11 4 5 5 4 6 6 7 7 8 8 9 9 10 10 11 2 12 1 13
REMARK SMILES IDX 15 14 13 16
REMARK H PARENT 15 15 13 17
REMARK Flexibility Score: inf
ROOT
ATOM      1  C   UNL     1      26.129 -38.787   1.727  1.00  0.00     0.165 A 
ATOM      2  C   UNL     1      26.248 -37.655   0.903  1.00  0.00     0.204 A 
ATOM      3  C   UNL     1      26.505 -37.809  -0.482  1.00  0.00     0.205 A 
ATOM      4  C   UNL     1      26.639 -39.096  -1.022  1.00  0.00     0.184 A 
ATOM      5  C   UNL     1      26.519 -40.229  -0.192  1.00  0.00     0.025 A 
ATOM      6  C   UNL     1      26.266 -40.074   1.174  1.00  0.00     0.062 A 
ATOM      7  C   UNL     1      26.658 -41.497  -0.767  1.00  0.00     0.020 A 
ATOM      8  C   UNL     1      26.911 -41.607  -2.133  1.00  0.00     0.094 A 
ATOM      9  C   UNL     1      27.018 -40.441  -2.896  1.00  0.00     0.336 A 
ATOM     10  O   UNL     1      27.245 -40.516  -4.131  1.00  0.00    -0.246 OA
ATOM     11  O   UNL     1      26.880 -39.247  -2.324  1.00  0.00    -0.419 OA
ENDROOT
BRANCH   1  12
ATOM     12  O   UNL     1      25.875 -38.589   3.094  1.00  0.00    -0.493 OA
ATOM     13  C   UNL     1      25.879 -39.622   4.075  1.00  0.00     0.278 C 
ENDBRANCH   1  12
BRANCH   2  14
ATOM     14  O   UNL     1      26.105 -36.399   1.499  1.00  0.00    -0.502 OA
ATOM     15  H   UNL     1      25.318 -36.127   2.069  1.00  0.00     0.293 HD
ENDBRANCH   2  14
BRANCH   3  16
ATOM     16  O   UNL     1      26.633 -36.721  -1.349  1.00  0.00    -0.502 OA
ATOM     17  H   UNL     1      27.290 -36.679  -2.114  1.00  0.00     0.293 HD
ENDBRANCH   3  16
TORSDOF 3
ENDMDL
MODEL 2
REMARK VINA RESULT:    -4.143     20.571     21.945
REMARK INTER + INTRA:          -4.680
REMARK INTER:                  -4.626
REMARK INTRA:                  -0.053
REMARK UNBOUND:                -0.052
REMARK SMILES COc1cc2ccc(=O)oc2c(O)c1O
REMARK SMILES IDX 3 1 14 2 12 3 11 4 5 5 4 6 6 7 7 8 8 9 9 10 10 11 2 12 1 13
REMARK SMILES IDX 15 14 13 16
REMARK H PARENT 15 15 13 17
REMARK Flexibility Score: inf
ROOT
ATOM      1  C   UNL     1      42.247 -30.473  10.322  1.00  0.00     0.165 A 
ATOM      2  C   UNL     1      43.507 -30.331   9.716  1.00  0.00     0.204 A 
ATOM      3  C   UNL     1      44.556 -31.228  10.040  1.00  0.00     0.205 A 
ATOM      4  C   UNL     1      44.328 -32.254  10.967  1.00  0.00     0.184 A 
ATOM      5  C   UNL     1      43.063 -32.393  11.573  1.00  0.00     0.025 A 
ATOM      6  C   UNL     1      42.029 -31.507  11.252  1.00  0.00     0.062 A 
ATOM      7  C   UNL     1      42.872 -33.429  12.494  1.00  0.00     0.020 A 
ATOM      8  C   UNL     1      43.929 -34.289  12.786  1.00  0.00     0.094 A 
ATOM      9  C   UNL     1      45.157 -34.093  12.147  1.00  0.00     0.336 A 
ATOM     10  O   UNL     1      46.125 -34.857  12.396  1.00  0.00    -0.246 OA
ATOM     11  O   UNL     1      45.310 -33.099  11.275  1.00  0.00    -0.419 OA
ENDROOT
BRANCH   1  12
ATOM     12  O   UNL     1      41.236 -29.563   9.973  1.00  0.00    -0.493 OA
ATOM     13  C   UNL     1      39.842 -29.803  10.138  1.00  0.00     0.278 C 
ENDBRANCH   1  12
BRANCH   2  14
ATOM     14  O   UNL     1      43.673 -29.289   8.800  1.00  0.00    -0.502 OA
ATOM     15  H   UNL     1      44.559 -29.022   8.397  1.00  0.00     0.293 HD
ENDBRANCH   2  14
BRANCH   3  16
ATOM     16  O   UNL     1      45.828 -31.134   9.469  1.00  0.00    -0.502 OA
ATOM     17  H   UNL     1      46.675 -30.973   9.994  1.00  0.00     0.293 HD
ENDBRANCH   3  16
TORSDOF 3
ENDMDL
MODEL 3
REMARK VINA RESULT:    -4.138      1.681      5.447
REMARK INTER + INTRA:          -4.673
REMARK INTER:                  -4.701
REMARK INTRA:                   0.028
REMARK UNBOUND:                -0.052
REMARK SMILES COc1cc2ccc(=O)oc2c(O)c1O
REMARK SMILES IDX 3 1 14 2 12 3 11 4 5 5 4 6 6 7 7 8 8 9 9 10 10 11 2 12 1 13
REMARK SMILES IDX 15 14 13 16
REMARK H PARENT 15 15 13 17
REMARK Flexibility Score: inf
ROOT
ATOM      1  C   UNL     1      26.801 -40.342  -2.165  1.00  0.00     0.165 A 
ATOM      2  C   UNL     1      26.927 -41.457  -1.318  1.00  0.00     0.204 A 
ATOM      3  C   UNL     1      26.756 -41.307   0.081  1.00  0.00     0.205 A 
ATOM      4  C   UNL     1      26.460 -40.043   0.611  1.00  0.00     0.184 A 
ATOM      5  C   UNL     1      26.334 -38.929  -0.242  1.00  0.00     0.025 A 
ATOM      6  C   UNL     1      26.503 -39.078  -1.622  1.00  0.00     0.062 A 
ATOM      7  C   UNL     1      26.037 -37.684   0.323  1.00  0.00     0.020 A 
ATOM      8  C   UNL     1      25.877 -37.578   1.703  1.00  0.00     0.094 A 
ATOM      9  C   UNL     1      26.016 -38.725   2.489  1.00  0.00     0.336 A 
ATOM     10  O   UNL     1      25.875 -38.654   3.738  1.00  0.00    -0.246 OA
ATOM     11  O   UNL     1      26.297 -39.897   1.925  1.00  0.00    -0.419 OA
ENDROOT
BRANCH   1  12
ATOM     12  O   UNL     1      26.979 -40.535  -3.545  1.00  0.00    -0.493 OA
ATOM     13  C   UNL     1      25.970 -41.009  -4.432  1.00  0.00     0.278 C 
ENDBRANCH   1  12
BRANCH   2  14
ATOM     14  O   UNL     1      27.223 -42.689  -1.905  1.00  0.00    -0.502 OA
ATOM     15  H   UNL     1      27.953 -43.309  -1.588  1.00  0.00     0.293 HD
ENDBRANCH   2  14
BRANCH   3  16
ATOM     16  O   UNL     1      26.871 -42.378   0.971  1.00  0.00    -0.502 OA
ATOM     17  H   UNL     1      26.883 -43.348   0.693  1.00  0.00     0.293 HD
ENDBRANCH   3  16
TORSDOF 3
ENDMDL
MODEL 4
REMARK VINA RESULT:    -3.986     19.996     21.673
REMARK INTER + INTRA:          -4.504
REMARK INTER:                  -4.434
REMARK INTRA:                  -0.070
REMARK UNBOUND:                -0.052
REMARK SMILES COc1cc2ccc(=O)oc2c(O)c1O
REMARK SMILES IDX 3 1 14 2 12 3 11 4 5 5 4 6 6 7 7 8 8 9 9 10 10 11 2 12 1 13
REMARK SMILES IDX 15 14 13 16
REMARK H PARENT 15 15 13 17
REMARK Flexibility Score: inf
ROOT
ATOM      1  C   UNL     1      44.111 -32.105  11.506  1.00  0.00     0.165 A 
ATOM      2  C   UNL     1      43.218 -32.600  10.540  1.00  0.00     0.204 A 
ATOM      3  C   UNL     1      41.926 -32.032  10.409  1.00  0.00     0.205 A 
ATOM      4  C   UNL     1      41.547 -30.974  11.248  1.00  0.00     0.184 A 
ATOM      5  C   UNL     1      42.446 -30.480  12.216  1.00  0.00     0.025 A 
ATOM      6  C   UNL     1      43.719 -31.043  12.343  1.00  0.00     0.062 A 
ATOM      7  C   UNL     1      42.032 -29.424  13.035  1.00  0.00     0.020 A 
ATOM      8  C   UNL     1      40.754 -28.892  12.875  1.00  0.00     0.094 A 
ATOM      9  C   UNL     1      39.915 -29.432  11.895  1.00  0.00     0.336 A 
ATOM     10  O   UNL     1      38.757 -28.968  11.733  1.00  0.00    -0.246 OA
ATOM     11  O   UNL     1      40.335 -30.436  11.129  1.00  0.00    -0.419 OA
ENDROOT
BRANCH   1  12
ATOM     12  O   UNL     1      45.381 -32.697  11.603  1.00  0.00    -0.493 OA
ATOM     13  C   UNL     1      45.790 -33.563  12.657  1.00  0.00     0.278 C 
ENDBRANCH   1  12
BRANCH   2  14
ATOM     14  O   UNL     1      43.654 -33.655   9.734  1.00  0.00    -0.502 OA
ATOM     15  H   UNL     1      43.783 -33.592   8.736  1.00  0.00     0.293 HD
ENDBRANCH   2  14
BRANCH   3  16
ATOM     16  O   UNL     1      40.998 -32.484   9.468  1.00  0.00    -0.502 OA
ATOM     17  H   UNL     1      41.091 -33.344   8.947  1.00  0.00     0.293 HD
ENDBRANCH   3  16
TORSDOF 3
ENDMDL
MODEL 5
REMARK VINA RESULT:    -3.833     19.745     21.301
REMARK INTER + INTRA:          -4.334
REMARK INTER:                  -4.269
REMARK INTRA:                  -0.065
REMARK UNBOUND:                -0.052
REMARK SMILES COc1cc2ccc(=O)oc2c(O)c1O
REMARK SMILES IDX 3 1 14 2 12 3 11 4 5 5 4 6 6 7 7 8 8 9 9 10 10 11 2 12 1 13
REMARK SMILES IDX 15 14 13 16
REMARK H PARENT 15 15 13 17
REMARK Flexibility Score: inf
ROOT
ATOM      1  C   UNL     1      44.340 -31.028   9.956  1.00  0.00     0.165 A 
ATOM      2  C   UNL     1      44.267 -32.232  10.678  1.00  0.00     0.204 A 
ATOM      3  C   UNL     1      43.026 -32.670  11.205  1.00  0.00     0.205 A 
ATOM      4  C   UNL     1      41.875 -31.895  11.001  1.00  0.00     0.184 A 
ATOM      5  C   UNL     1      41.953 -30.688  10.277  1.00  0.00     0.025 A 
ATOM      6  C   UNL     1      43.179 -30.258   9.758  1.00  0.00     0.062 A 
ATOM      7  C   UNL     1      40.784 -29.941  10.093  1.00  0.00     0.020 A 
ATOM      8  C   UNL     1      39.584 -30.405  10.627  1.00  0.00     0.094 A 
ATOM      9  C   UNL     1      39.580 -31.611  11.335  1.00  0.00     0.336 A 
ATOM     10  O   UNL     1      38.507 -32.050  11.825  1.00  0.00    -0.246 OA
ATOM     11  O   UNL     1      40.707 -32.301  11.493  1.00  0.00    -0.419 OA
ENDROOT
BRANCH   1  12
ATOM     12  O   UNL     1      45.589 -30.631   9.452  1.00  0.00    -0.493 OA
ATOM     13  C   UNL     1      45.856 -30.354   8.081  1.00  0.00     0.278 C 
ENDBRANCH   1  12
BRANCH   2  14
ATOM     14  O   UNL     1      45.447 -32.961  10.848  1.00  0.00    -0.502 OA
ATOM     15  H   UNL     1      46.279 -32.600  11.292  1.00  0.00     0.293 HD
ENDBRANCH   2  14
BRANCH   3  16
ATOM     16  O   UNL     1      42.894 -33.856  11.930  1.00  0.00    -0.502 OA
ATOM     17  H   UNL     1      43.660 -34.478  12.146  1.00  0.00     0.293 HD
ENDBRANCH   3  16
TORSDOF 3
ENDMDL
MODEL 6
REMARK VINA RESULT:    -3.714     19.772     21.215
REMARK INTER + INTRA:          -4.201
REMARK INTER:                  -4.131
REMARK INTRA:                  -0.069
REMARK UNBOUND:                -0.052
REMARK SMILES COc1cc2ccc(=O)oc2c(O)c1O
REMARK SMILES IDX 3 1 14 2 12 3 11 4 5 5 4 6 6 7 7 8 8 9 9 10 10 11 2 12 1 13
REMARK SMILES IDX 15 14 13 16
REMARK H PARENT 15 15 13 17
REMARK Flexibility Score: inf
ROOT
ATOM      1  C   UNL     1      44.155 -32.506  11.013  1.00  0.00     0.165 A 
ATOM      2  C   UNL     1      44.404 -31.427  10.147  1.00  0.00     0.204 A 
ATOM      3  C   UNL     1      43.343 -30.574   9.753  1.00  0.00     0.205 A 
ATOM      4  C   UNL     1      42.047 -30.814  10.232  1.00  0.00     0.184 A 
ATOM      5  C   UNL     1      41.802 -31.897  11.100  1.00  0.00     0.025 A 
ATOM      6  C   UNL     1      42.850 -32.737  11.488  1.00  0.00     0.062 A 
ATOM      7  C   UNL     1      40.496 -32.105  11.558  1.00  0.00     0.020 A 
ATOM      8  C   UNL     1      39.481 -31.244  11.147  1.00  0.00     0.094 A 
ATOM      9  C   UNL     1      39.796 -30.190  10.284  1.00  0.00     0.336 A 
ATOM     10  O   UNL     1      38.894 -29.400   9.900  1.00  0.00    -0.246 OA
ATOM     11  O   UNL     1      41.046 -30.015   9.865  1.00  0.00    -0.419 OA
ENDROOT
BRANCH   1  12
ATOM     12  O   UNL     1      45.235 -33.326  11.378  1.00  0.00    -0.493 OA
ATOM     13  C   UNL     1      45.793 -33.392  12.686  1.00  0.00     0.278 C 
ENDBRANCH   1  12
BRANCH   2  14
ATOM     14  O   UNL     1      45.715 -31.239   9.703  1.00  0.00    -0.502 OA
ATOM     15  H   UNL     1      46.403 -30.677  10.182  1.00  0.00     0.293 HD
ENDBRANCH   2  14
BRANCH   3  16
ATOM     16  O   UNL     1      43.531 -29.488   8.894  1.00  0.00    -0.502 OA
ATOM     17  H   UNL     1      42.814 -28.814   8.666  1.00  0.00     0.293 HD
ENDBRANCH   3  16
TORSDOF 3
ENDMDL
MODEL 7
REMARK VINA RESULT:    -3.646     19.394     20.772
REMARK INTER + INTRA:          -4.124
REMARK INTER:                  -4.055
REMARK INTRA:                  -0.069
REMARK UNBOUND:                -0.052
REMARK SMILES COc1cc2ccc(=O)oc2c(O)c1O
REMARK SMILES IDX 3 1 14 2 12 3 11 4 5 5 4 6 6 7 7 8 8 9 9 10 10 11 2 12 1 13
REMARK SMILES IDX 15 14 13 16
REMARK H PARENT 15 15 13 17
REMARK Flexibility Score: inf
ROOT
ATOM      1  C   UNL     1      39.974 -30.392  10.384  1.00  0.00     0.165 A 
ATOM      2  C   UNL     1      40.483 -31.590  10.916  1.00  0.00     0.204 A 
ATOM      3  C   UNL     1      41.867 -31.879  10.815  1.00  0.00     0.205 A 
ATOM      4  C   UNL     1      42.722 -30.964  10.185  1.00  0.00     0.184 A 
ATOM      5  C   UNL     1      42.208 -29.764   9.654  1.00  0.00     0.025 A 
ATOM      6  C   UNL     1      40.842 -29.481   9.753  1.00  0.00     0.062 A 
ATOM      7  C   UNL     1      43.091 -28.875   9.032  1.00  0.00     0.020 A 
ATOM      8  C   UNL     1      44.445 -29.196   8.953  1.00  0.00     0.094 A 
ATOM      9  C   UNL     1      44.885 -30.404   9.502  1.00  0.00     0.336 A 
ATOM     10  O   UNL     1      46.104 -30.715   9.443  1.00  0.00    -0.246 OA
ATOM     11  O   UNL     1      44.023 -31.231  10.088  1.00  0.00    -0.419 OA
ENDROOT
BRANCH   1  12
ATOM     12  O   UNL     1      38.597 -30.145  10.505  1.00  0.00    -0.493 OA
ATOM     13  C   UNL     1      37.654 -30.296   9.448  1.00  0.00     0.278 C 
ENDBRANCH   1  12
BRANCH   2  14
ATOM     14  O   UNL     1      39.582 -32.462  11.532  1.00  0.00    -0.502 OA
ATOM     15  H   UNL     1      38.765 -32.165  12.045  1.00  0.00     0.293 HD
ENDBRANCH   2  14
BRANCH   3  16
ATOM     16  O   UNL     1      42.428 -33.053  11.324  1.00  0.00    -0.502 OA
ATOM     17  H   UNL     1      43.393 -33.146  11.604  1.00  0.00     0.293 HD
ENDBRANCH   3  16
TORSDOF 3
ENDMDL
MODEL 8
REMARK VINA RESULT:    -3.594     19.916     21.531
REMARK INTER + INTRA:          -4.066
REMARK INTER:                  -3.998
REMARK INTRA:                  -0.069
REMARK UNBOUND:                -0.052
REMARK SMILES COc1cc2ccc(=O)oc2c(O)c1O
REMARK SMILES IDX 3 1 14 2 12 3 11 4 5 5 4 6 6 7 7 8 8 9 9 10 10 11 2 12 1 13
REMARK SMILES IDX 15 14 13 16
REMARK H PARENT 15 15 13 17
REMARK Flexibility Score: inf
ROOT
ATOM      1  C   UNL     1      40.133 -30.570  10.608  1.00  0.00     0.165 A 
ATOM      2  C   UNL     1      40.833 -31.694  10.135  1.00  0.00     0.204 A 
ATOM      3  C   UNL     1      42.197 -31.874  10.474  1.00  0.00     0.205 A 
ATOM      4  C   UNL     1      42.841 -30.925  11.281  1.00  0.00     0.184 A 
ATOM      5  C   UNL     1      42.135 -29.800  11.753  1.00  0.00     0.025 A 
ATOM      6  C   UNL     1      40.789 -29.624  11.417  1.00  0.00     0.062 A 
ATOM      7  C   UNL     1      42.811 -28.875  12.556  1.00  0.00     0.020 A 
ATOM      8  C   UNL     1      44.153 -29.088  12.866  1.00  0.00     0.094 A 
ATOM      9  C   UNL     1      44.790 -30.226  12.364  1.00  0.00     0.336 A 
ATOM     10  O   UNL     1      46.002 -30.439  12.631  1.00  0.00    -0.246 OA
ATOM     11  O   UNL     1      44.123 -31.090  11.603  1.00  0.00    -0.419 OA
ENDROOT
BRANCH   1  12
ATOM     12  O   UNL     1      38.782 -30.430  10.248  1.00  0.00    -0.493 OA
ATOM     13  C   UNL     1      38.270 -29.387   9.424  1.00  0.00     0.278 C 
ENDBRANCH   1  12
BRANCH   2  14
ATOM     14  O   UNL     1      40.137 -32.603   9.335  1.00  0.00    -0.502 OA
ATOM     15  H   UNL     1      39.860 -33.527   9.632  1.00  0.00     0.293 HD
ENDBRANCH   2  14
BRANCH   3  16
ATOM     16  O   UNL     1      42.942 -32.970  10.033  1.00  0.00    -0.502 OA
ATOM     17  H   UNL     1      43.942 -33.058  10.143  1.00  0.00     0.293 HD
ENDBRANCH   3  16
TORSDOF 3
ENDMDL
