MODEL 1
REMARK VINA RESULT:    -2.990      0.000      0.000
REMARK INTER + INTRA:          -3.392
REMARK INTER:                  -3.340
REMARK INTRA:                  -0.052
REMARK UNBOUND:                -0.052
REMARK SMILES COc1cc2ccc(=O)oc2c(O)c1O
REMARK SMILES IDX 3 1 14 2 12 3 11 4 5 5 4 6 6 7 7 8 8 9 9 10 10 11 2 12 1 13
REMARK SMILES IDX 15 14 13 16
REMARK H PARENT 15 15 13 17
REMARK Flexibility Score: inf
ROOT
ATOM      1  C   UNL     1      -0.121  28.716  32.721  1.00  0.00     0.165 A 
ATOM      2  C   UNL     1      -0.122  27.314  32.828  1.00  0.00     0.204 A 
ATOM      3  C   UNL     1      -0.123  26.512  31.659  1.00  0.00     0.205 A 
ATOM      4  C   UNL     1      -0.123  27.126  30.400  1.00  0.00     0.184 A 
ATOM      5  C   UNL     1      -0.121  28.532  30.296  1.00  0.00     0.025 A 
ATOM      6  C   UNL     1      -0.120  29.321  31.451  1.00  0.00     0.062 A 
ATOM      7  C   UNL     1      -0.121  29.109  29.021  1.00  0.00     0.020 A 
ATOM      8  C   UNL     1      -0.122  28.285  27.896  1.00  0.00     0.094 A 
ATOM      9  C   UNL     1      -0.124  26.899  28.074  1.00  0.00     0.336 A 
ATOM     10  O   UNL     1      -0.125  26.137  27.072  1.00  0.00    -0.246 OA
ATOM     11  O   UNL     1      -0.124  26.377  29.297  1.00  0.00    -0.419 OA
ENDROOT
BRANCH   1  12
ATOM     12  O   UNL     1      -0.119  29.473  33.904  1.00  0.00    -0.493 OA
ATOM     13  C   UNL     1      -0.105  30.895  33.953  1.00  0.00     0.278 C 
ENDBRANCH   1  12
BRANCH   2  14
ATOM     14  O   UNL     1      -0.122  26.762  34.112  1.00  0.00    -0.502 OA
ATOM     15  H   UNL     1      -0.355  27.274  34.951  1.00  0.00     0.293 HD
ENDBRANCH   2  14
BRANCH   3  16
ATOM     16  O   UNL     1      -0.125  25.115  31.707  1.00  0.00    -0.502 OA
ATOM     17  H   UNL     1       0.592  24.532  31.300  1.00  0.00     0.293 HD
ENDBRANCH   3  16
TORSDOF 3
ENDMDL
MODEL 2
REMARK VINA RESULT:    -2.395      1.652      3.069
REMARK INTER + INTRA:          -2.727
REMARK INTER:                  -2.675
REMARK INTRA:                  -0.052
REMARK UNBOUND:                -0.052
REMARK SMILES COc1cc2ccc(=O)oc2c(O)c1O
REMARK SMILES IDX 3 1 14 2 12 3 11 4 5 5 4 6 6 7 7 8 8 9 9 10 10 11 2 12 1 13
REMARK SMILES IDX 15 14 13 16
REMARK H PARENT 15 15 13 17
REMARK Flexibility Score: inf
ROOT
ATOM      1  C   UNL     1      -0.112  26.957  33.636  1.00  0.00     0.165 A 
ATOM      2  C   UNL     1      -0.117  28.363  33.608  1.00  0.00     0.204 A 
ATOM      3  C   UNL     1      -0.119  29.049  32.368  1.00  0.00     0.205 A 
ATOM      4  C   UNL     1      -0.116  28.316  31.173  1.00  0.00     0.184 A 
ATOM      5  C   UNL     1      -0.111  26.907  31.205  1.00  0.00     0.025 A 
ATOM      6  C   UNL     1      -0.110  26.233  32.430  1.00  0.00     0.062 A 
ATOM      7  C   UNL     1      -0.109  26.211  29.991  1.00  0.00     0.020 A 
ATOM      8  C   UNL     1      -0.111  26.922  28.793  1.00  0.00     0.094 A 
ATOM      9  C   UNL     1      -0.116  28.319  28.837  1.00  0.00     0.336 A 
ATOM     10  O   UNL     1      -0.118  28.981  27.765  1.00  0.00    -0.246 OA
ATOM     11  O   UNL     1      -0.119  28.956  30.004  1.00  0.00    -0.419 OA
ENDROOT
BRANCH   1  12
ATOM     12  O   UNL     1      -0.110  26.318  34.886  1.00  0.00    -0.493 OA
ATOM     13  C   UNL     1      -0.125  24.906  35.072  1.00  0.00     0.278 C 
ENDBRANCH   1  12
BRANCH   2  14
ATOM     14  O   UNL     1      -0.119  29.036  34.833  1.00  0.00    -0.502 OA
ATOM     15  H   UNL     1       0.239  29.970  34.969  1.00  0.00     0.293 HD
ENDBRANCH   2  14
BRANCH   3  16
ATOM     16  O   UNL     1      -0.124  30.443  32.281  1.00  0.00    -0.502 OA
ATOM     17  H   UNL     1      -0.952  31.015  32.362  1.00  0.00     0.293 HD
ENDBRANCH   3  16
TORSDOF 3
ENDMDL
MODEL 3
REMARK VINA RESULT:    -2.251      0.988      4.776
REMARK INTER + INTRA:          -2.566
REMARK INTER:                  -2.513
REMARK INTRA:                  -0.053
REMARK UNBOUND:                -0.052
REMARK SMILES COc1cc2ccc(=O)oc2c(O)c1O
REMARK SMILES IDX 3 1 14 2 12 3 11 4 5 5 4 6 6 7 7 8 8 9 9 10 10 11 2 12 1 13
REMARK SMILES IDX 15 14 13 16
REMARK H PARENT 15 15 13 17
REMARK Flexibility Score: inf
ROOT
ATOM      1  C   UNL     1      -0.089  27.427  30.096  1.00  0.00     0.165 A 
ATOM      2  C   UNL     1      -0.102  26.404  31.059  1.00  0.00     0.204 A 
ATOM      3  C   UNL     1      -0.112  26.727  32.439  1.00  0.00     0.205 A 
ATOM      4  C   UNL     1      -0.108  28.072  32.833  1.00  0.00     0.184 A 
ATOM      5  C   UNL     1      -0.095  29.096  31.865  1.00  0.00     0.025 A 
ATOM      6  C   UNL     1      -0.085  28.773  30.504  1.00  0.00     0.062 A 
ATOM      7  C   UNL     1      -0.092  30.427  32.298  1.00  0.00     0.020 A 
ATOM      8  C   UNL     1      -0.101  30.703  33.664  1.00  0.00     0.094 A 
ATOM      9  C   UNL     1      -0.114  29.637  34.568  1.00  0.00     0.336 A 
ATOM     10  O   UNL     1      -0.123  29.865  35.807  1.00  0.00    -0.246 OA
ATOM     11  O   UNL     1      -0.118  28.382  34.130  1.00  0.00    -0.419 OA
ENDROOT
BRANCH   1  12
ATOM     12  O   UNL     1      -0.080  27.063  28.739  1.00  0.00    -0.493 OA
ATOM     13  C   UNL     1       0.257  27.939  27.669  1.00  0.00     0.278 C 
ENDBRANCH   1  12
BRANCH   2  14
ATOM     14  O   UNL     1      -0.105  25.083  30.602  1.00  0.00    -0.502 OA
ATOM     15  H   UNL     1       0.727  24.530  30.457  1.00  0.00     0.293 HD
ENDBRANCH   2  14
BRANCH   3  16
ATOM     16  O   UNL     1      -0.125  25.751  33.439  1.00  0.00    -0.502 OA
ATOM     17  H   UNL     1       0.664  25.532  34.030  1.00  0.00     0.293 HD
ENDBRANCH   3  16
TORSDOF 3
ENDMDL
