MODEL 1
REMARK VINA RESULT:    -4.759      0.000      0.000
REMARK INTER + INTRA:          -5.113
REMARK INTER:                  -5.872
REMARK INTRA:                   0.759
REMARK UNBOUND:                 0.759
REMARK SMILES CC1=CC=CC(C)(C)CC1=O
REMARK SMILES IDX 1 1 2 2 3 3 10 4 11 5 9 6 4 8 5 9 6 10 7 11 8 12
REMARK H PARENT
REMARK Flexibility Score: 80.00
ROOT
ATOM      1  C   UNL     1       0.404  28.125  34.994  1.00  0.00     0.048 C 
ATOM      2  C   UNL     1       0.699  29.005  33.803  1.00  0.00    -0.008 C 
ATOM      3  C   UNL     1       1.632  29.969  33.951  1.00  0.00     0.007 C 
ENDROOT
BRANCH   2   4
ATOM      4  C   UNL     1      -0.011  28.688  32.537  1.00  0.00     0.159 C 
ATOM      5  O   UNL     1      -0.644  27.599  32.451  1.00  0.00    -0.295 OA
BRANCH   4   6
ATOM      6  C   UNL     1      -0.031  29.600  31.350  1.00  0.00     0.091 CG0
ATOM      7  G   UNL     1       1.376  29.893  30.783  1.00  0.00     0.000 G0
ENDBRANCH   4   6
ENDBRANCH   2   4
BRANCH   3   8
ATOM      8  C   UNL     1       2.146  30.955  32.970  1.00  0.00    -0.003 C 
ATOM      9  C   UNL     1       2.063  30.939  31.634  1.00  0.00    -0.020 C 
BRANCH   9  10
ATOM     10  C   UNL     1       1.377  29.890  30.791  1.00  0.00    -0.010 CG0
ATOM     11  C   UNL     1       1.212  30.451  29.359  1.00  0.00     0.016 C 
ATOM     12  C   UNL     1       2.255  28.621  30.707  1.00  0.00     0.016 C 
ATOM     13  G   UNL     1      -0.032  29.604  31.358  1.00  0.00     0.000 G0
ENDBRANCH   9  10
ENDBRANCH   3   8
TORSDOF 0
ENDMDL
MODEL 2
REMARK VINA RESULT:    -3.808      1.923      2.365
REMARK INTER + INTRA:          -3.940
REMARK INTER:                  -4.685
REMARK INTRA:                   0.745
REMARK UNBOUND:                 0.759
REMARK SMILES CC1=CC=CC(C)(C)CC1=O
REMARK SMILES IDX 1 1 2 2 3 3 10 4 11 5 9 6 4 8 5 9 6 10 7 11 8 12
REMARK H PARENT
REMARK Flexibility Score: 80.00
ROOT
ATOM      1  C   UNL     1       4.423  27.729  33.281  1.00  0.00     0.048 C 
ATOM      2  C   UNL     1       3.206  28.468  32.777  1.00  0.00    -0.008 C 
ATOM      3  C   UNL     1       2.705  29.453  33.553  1.00  0.00     0.007 C 
ENDROOT
BRANCH   2   4
ATOM      4  C   UNL     1       2.703  28.101  31.429  1.00  0.00     0.159 C 
ATOM      5  O   UNL     1       3.409  27.351  30.700  1.00  0.00    -0.295 OA
BRANCH   4   6
ATOM      6  C   UNL     1       1.386  28.561  30.884  1.00  0.00     0.091 CG0
ATOM      7  G   UNL     1       1.261  30.100  30.813  1.00  0.00     0.000 G0
ENDBRANCH   4   6
ENDBRANCH   2   4
BRANCH   3   8
ATOM      8  C   UNL     1       1.554  30.357  33.318  1.00  0.00    -0.003 C 
ATOM      9  C   UNL     1       0.935  30.654  32.169  1.00  0.00    -0.020 C 
BRANCH   9  10
ATOM     10  C   UNL     1       1.259  30.095  30.804  1.00  0.00    -0.010 CG0
ATOM     11  C   UNL     1       0.079  30.413  29.856  1.00  0.00     0.016 C 
ATOM     12  C   UNL     1       2.524  30.781  30.238  1.00  0.00     0.016 C 
ATOM     13  G   UNL     1       1.404  28.559  30.891  1.00  0.00     0.000 G0
ENDBRANCH   9  10
ENDBRANCH   3   8
TORSDOF 0
ENDMDL
MODEL 3
REMARK VINA RESULT:    -3.797      1.748      2.637
REMARK INTER + INTRA:          -3.926
REMARK INTER:                  -4.666
REMARK INTRA:                   0.740
REMARK UNBOUND:                 0.759
REMARK SMILES CC1=CC=CC(C)(C)CC1=O
REMARK SMILES IDX 1 1 2 2 3 3 10 4 11 5 9 6 4 8 5 9 6 10 7 11 8 12
REMARK H PARENT
REMARK Flexibility Score: 80.00
ROOT
ATOM      1  C   UNL     1       0.055  28.887  34.624  1.00  0.00     0.048 C 
ATOM      2  C   UNL     1       0.607  28.693  33.232  1.00  0.00    -0.008 C 
ATOM      3  C   UNL     1      -0.273  28.438  32.239  1.00  0.00     0.007 C 
ENDROOT
BRANCH   2   4
ATOM      4  C   UNL     1       2.070  28.873  33.054  1.00  0.00     0.159 C 
ATOM      5  O   UNL     1       2.745  29.350  34.008  1.00  0.00    -0.295 OA
BRANCH   4   6
ATOM      6  C   UNL     1       2.802  28.504  31.800  1.00  0.00     0.091 CG0
ATOM      7  G   UNL     1       2.281  29.248  30.550  1.00  0.00     0.000 G0
ENDBRANCH   4   6
ENDBRANCH   2   4
BRANCH   3   8
ATOM      8  C   UNL     1      -0.038  28.231  30.790  1.00  0.00    -0.003 C 
ATOM      9  C   UNL     1       1.025  28.569  30.050  1.00  0.00    -0.020 C 
BRANCH   9  10
ATOM     10  C   UNL     1       2.286  29.237  30.544  1.00  0.00    -0.010 CG0
ATOM     11  C   UNL     1       3.371  29.095  29.451  1.00  0.00     0.016 C 
ATOM     12  C   UNL     1       2.032  30.746  30.770  1.00  0.00     0.016 C 
ATOM     13  G   UNL     1       2.792  28.521  31.817  1.00  0.00     0.000 G0
ENDBRANCH   9  10
ENDBRANCH   3   8
TORSDOF 0
ENDMDL
MODEL 4
REMARK VINA RESULT:    -3.652      1.174      1.556
REMARK INTER + INTRA:          -3.747
REMARK INTER:                  -4.484
REMARK INTRA:                   0.737
REMARK UNBOUND:                 0.759
REMARK SMILES CC1=CC=CC(C)(C)CC1=O
REMARK SMILES IDX 1 1 2 2 3 3 10 4 11 5 9 6 4 8 5 9 6 10 7 11 8 12
REMARK H PARENT
REMARK Flexibility Score: 80.00
ROOT
ATOM      1  C   UNL     1       0.981  29.661  34.190  1.00  0.00     0.048 C 
ATOM      2  C   UNL     1       1.108  29.789  32.691  1.00  0.00    -0.008 C 
ATOM      3  C   UNL     1       1.982  30.700  32.212  1.00  0.00     0.007 C 
ENDROOT
BRANCH   2   4
ATOM      4  C   UNL     1       0.313  28.848  31.862  1.00  0.00     0.159 C 
ATOM      5  O   UNL     1      -0.253  27.870  32.426  1.00  0.00    -0.295 OA
BRANCH   4   6
ATOM      6  C   UNL     1       0.129  29.001  30.384  1.00  0.00     0.091 CG0
ATOM      7  G   UNL     1       1.459  28.957  29.598  1.00  0.00     0.000 G0
ENDBRANCH   4   6
ENDBRANCH   2   4
BRANCH   3   8
ATOM      8  C   UNL     1       2.340  31.032  30.812  1.00  0.00    -0.003 C 
ATOM      9  C   UNL     1       2.143  30.316  29.698  1.00  0.00    -0.020 C 
BRANCH   9  10
ATOM     10  C   UNL     1       1.461  28.971  29.605  1.00  0.00    -0.010 CG0
ATOM     11  C   UNL     1       1.116  28.704  28.121  1.00  0.00     0.016 C 
ATOM     12  C   UNL     1       2.423  27.857  30.078  1.00  0.00     0.016 C 
ATOM     13  G   UNL     1       0.141  28.999  30.407  1.00  0.00     0.000 G0
ENDBRANCH   9  10
ENDBRANCH   3   8
TORSDOF 0
ENDMDL
MODEL 5
REMARK VINA RESULT:    -3.618      1.988      3.078
REMARK INTER + INTRA:          -3.705
REMARK INTER:                  -4.451
REMARK INTRA:                   0.746
REMARK UNBOUND:                 0.759
REMARK SMILES CC1=CC=CC(C)(C)CC1=O
REMARK SMILES IDX 1 1 2 2 3 3 10 4 11 5 9 6 4 8 5 9 6 10 7 11 8 12
REMARK H PARENT
REMARK Flexibility Score: 80.00
ROOT
ATOM      1  C   UNL     1       1.855  31.090  33.437  1.00  0.00     0.048 C 
ATOM      2  C   UNL     1       1.346  30.171  32.352  1.00  0.00    -0.008 C 
ATOM      3  C   UNL     1       0.285  29.387  32.641  1.00  0.00     0.007 C 
ENDROOT
BRANCH   2   4
ATOM      4  C   UNL     1       2.009  30.259  31.026  1.00  0.00     0.159 C 
ATOM      5  O   UNL     1       2.798  31.218  30.803  1.00  0.00    -0.295 OA
BRANCH   4   6
ATOM      6  C   UNL     1       1.805  29.257  29.931  1.00  0.00     0.091 CG0
ATOM      7  G   UNL     1       0.334  29.149  29.471  1.00  0.00     0.000 G0
ENDBRANCH   4   6
ENDBRANCH   2   4
BRANCH   3   8
ATOM      8  C   UNL     1      -0.443  28.418  31.788  1.00  0.00    -0.003 C 
ATOM      9  C   UNL     1      -0.449  28.306  30.453  1.00  0.00    -0.020 C 
BRANCH   9  10
ATOM     10  C   UNL     1       0.334  29.153  29.479  1.00  0.00    -0.010 CG0
ATOM     11  C   UNL     1       0.322  28.446  28.103  1.00  0.00     0.016 C 
ATOM     12  C   UNL     1      -0.346  30.532  29.311  1.00  0.00     0.016 C 
ATOM     13  G   UNL     1       1.802  29.266  29.947  1.00  0.00     0.000 G0
ENDBRANCH   9  10
ENDBRANCH   3   8
TORSDOF 0
ENDMDL
MODEL 6
REMARK VINA RESULT:    -3.408      2.177      2.949
REMARK INTER + INTRA:          -3.445
REMARK INTER:                  -4.467
REMARK INTRA:                   1.022
REMARK UNBOUND:                 0.759
REMARK SMILES CC1=CC=CC(C)(C)CC1=O
REMARK SMILES IDX 1 1 2 2 3 3 10 4 11 5 9 6 4 8 5 9 6 10 7 11 8 12
REMARK H PARENT
REMARK Flexibility Score: 80.00
ROOT
ATOM      1  C   UNL     1       1.945  30.891  33.534  1.00  0.00     0.048 C 
ATOM      2  C   UNL     1       2.278  30.226  32.219  1.00  0.00    -0.008 C 
ATOM      3  C   UNL     1       2.373  31.012  31.126  1.00  0.00     0.007 C 
ENDROOT
BRANCH   2   4
ATOM      4  C   UNL     1       2.548  28.766  32.250  1.00  0.00     0.159 C 
ATOM      5  O   UNL     1       2.184  28.101  33.260  1.00  0.00    -0.295 OA
BRANCH   4   6
ATOM      6  C   UNL     1       3.221  28.026  31.136  1.00  0.00     0.091 CG0
ATOM      7  G   UNL     1       2.453  28.111  29.798  1.00  0.00     0.000 G0
ENDBRANCH   4   6
ENDBRANCH   2   4
BRANCH   3   8
ATOM      8  C   UNL     1       2.705  30.658  29.725  1.00  0.00    -0.003 C 
ATOM      9  C   UNL     1       2.762  29.450  29.151  1.00  0.00    -0.020 C 
BRANCH   9  10
ATOM     10  C   UNL     1       2.463  28.126  29.813  1.00  0.00    -0.010 CG0
ATOM     11  C   UNL     1       0.944  28.060  30.099  1.00  0.00     0.016 C 
ATOM     12  C   UNL     1       2.819  26.964  28.858  1.00  0.00     0.016 C 
ATOM     13  G   UNL     1       3.209  28.038  31.163  1.00  0.00     0.000 G0
ENDBRANCH   9  10
ENDBRANCH   3   8
TORSDOF 0
ENDMDL
MODEL 7
REMARK VINA RESULT:    -3.229      2.103      3.954
REMARK INTER + INTRA:          -3.225
REMARK INTER:                  -3.981
REMARK INTRA:                   0.757
REMARK UNBOUND:                 0.759
REMARK SMILES CC1=CC=CC(C)(C)CC1=O
REMARK SMILES IDX 1 1 2 2 3 3 10 4 11 5 9 6 4 8 5 9 6 10 7 11 8 12
REMARK H PARENT
REMARK Flexibility Score: 80.00
ROOT
ATOM      1  C   UNL     1       1.059  30.674  28.229  1.00  0.00     0.048 C 
ATOM      2  C   UNL     1       1.019  30.319  29.697  1.00  0.00    -0.008 C 
ATOM      3  C   UNL     1       0.021  29.513  30.119  1.00  0.00     0.007 C 
ENDROOT
BRANCH   2   4
ATOM      4  C   UNL     1       2.127  30.827  30.545  1.00  0.00     0.159 C 
ATOM      5  O   UNL     1       3.124  31.362  29.987  1.00  0.00    -0.295 OA
BRANCH   4   6
ATOM      6  C   UNL     1       2.123  30.754  32.041  1.00  0.00     0.091 CG0
ATOM      7  G   UNL     1       1.980  29.313  32.579  1.00  0.00     0.000 G0
ENDBRANCH   4   6
ENDBRANCH   2   4
BRANCH   3   8
ATOM      8  C   UNL     1      -0.262  28.979  31.473  1.00  0.00    -0.003 C 
ATOM      9  C   UNL     1       0.557  28.874  32.527  1.00  0.00    -0.020 C 
BRANCH   9  10
ATOM     10  C   UNL     1       1.998  29.320  32.592  1.00  0.00    -0.010 CG0
ATOM     11  C   UNL     1       2.435  29.338  34.075  1.00  0.00     0.016 C 
ATOM     12  C   UNL     1       2.898  28.309  31.843  1.00  0.00     0.016 C 
ATOM     13  G   UNL     1       2.126  30.756  32.037  1.00  0.00     0.000 G0
ENDBRANCH   9  10
ENDBRANCH   3   8
TORSDOF 0
ENDMDL
MODEL 8
REMARK VINA RESULT:    -3.178      1.526      2.137
REMARK INTER + INTRA:          -3.163
REMARK INTER:                  -3.911
REMARK INTRA:                   0.749
REMARK UNBOUND:                 0.759
REMARK SMILES CC1=CC=CC(C)(C)CC1=O
REMARK SMILES IDX 1 1 2 2 3 3 10 4 11 5 9 6 4 8 5 9 6 10 7 11 8 12
REMARK H PARENT
REMARK Flexibility Score: 80.00
ROOT
ATOM      1  C   UNL     1      -1.468  27.169  31.608  1.00  0.00     0.048 C 
ATOM      2  C   UNL     1      -0.515  28.332  31.477  1.00  0.00    -0.008 C 
ATOM      3  C   UNL     1       0.063  28.800  32.604  1.00  0.00     0.007 C 
ENDROOT
BRANCH   2   4
ATOM      4  C   UNL     1      -0.231  28.821  30.103  1.00  0.00     0.159 C 
ATOM      5  O   UNL     1      -0.654  28.153  29.120  1.00  0.00    -0.295 OA
BRANCH   4   6
ATOM      6  C   UNL     1       0.524  30.082  29.815  1.00  0.00     0.091 CG0
ATOM      7  G   UNL     1       1.950  30.087  30.408  1.00  0.00     0.000 G0
ENDBRANCH   4   6
ENDBRANCH   2   4
BRANCH   3   8
ATOM      8  C   UNL     1       1.045  29.895  32.787  1.00  0.00    -0.003 C 
ATOM      9  C   UNL     1       1.862  30.455  31.886  1.00  0.00    -0.020 C 
BRANCH   9  10
ATOM     10  C   UNL     1       1.954  30.107  30.420  1.00  0.00    -0.010 CG0
ATOM     11  C   UNL     1       2.749  31.225  29.705  1.00  0.00     0.016 C 
ATOM     12  C   UNL     1       2.729  28.781  30.239  1.00  0.00     0.016 C 
ATOM     13  G   UNL     1       0.538  30.058  29.805  1.00  0.00     0.000 G0
ENDBRANCH   9  10
ENDBRANCH   3   8
TORSDOF 0
ENDMDL
MODEL 9
REMARK VINA RESULT:    -2.885      1.780      2.542
REMARK INTER + INTRA:          -2.800
REMARK INTER:                  -3.542
REMARK INTRA:                   0.742
REMARK UNBOUND:                 0.759
REMARK SMILES CC1=CC=CC(C)(C)CC1=O
REMARK SMILES IDX 1 1 2 2 3 3 10 4 11 5 9 6 4 8 5 9 6 10 7 11 8 12
REMARK H PARENT
REMARK Flexibility Score: 80.00
ROOT
ATOM      1  C   UNL     1       1.689  28.917  34.437  1.00  0.00     0.048 C 
ATOM      2  C   UNL     1       2.251  28.822  33.038  1.00  0.00    -0.008 C 
ATOM      3  C   UNL     1       3.191  27.882  32.803  1.00  0.00     0.007 C 
ENDROOT
BRANCH   2   4
ATOM      4  C   UNL     1       1.667  29.724  32.013  1.00  0.00     0.159 C 
ATOM      5  O   UNL     1       0.619  30.369  32.296  1.00  0.00    -0.295 OA
BRANCH   4   6
ATOM      6  C   UNL     1       2.263  29.926  30.654  1.00  0.00     0.091 CG0
ATOM      7  G   UNL     1       2.373  28.619  29.837  1.00  0.00     0.000 G0
ENDBRANCH   4   6
ENDBRANCH   2   4
BRANCH   3   8
ATOM      8  C   UNL     1       3.898  27.537  31.546  1.00  0.00    -0.003 C 
ATOM      9  C   UNL     1       3.564  27.826  30.283  1.00  0.00    -0.020 C 
BRANCH   9  10
ATOM     10  C   UNL     1       2.364  28.624  29.833  1.00  0.00    -0.010 CG0
ATOM     11  C   UNL     1       2.577  29.031  28.356  1.00  0.00     0.016 C 
ATOM     12  C   UNL     1       1.090  27.751  29.907  1.00  0.00     0.016 C 
ATOM     13  G   UNL     1       2.250  29.915  30.674  1.00  0.00     0.000 G0
ENDBRANCH   9  10
ENDBRANCH   3   8
TORSDOF 0
ENDMDL
