MODEL 1
REMARK VINA RESULT:    -3.166      0.000      0.000
REMARK INTER + INTRA:         -10.256
REMARK INTER:                  -6.869
REMARK INTRA:                  -3.388
REMARK UNBOUND:                -3.388
REMARK SMILES CCCCCCCCCCCCCCCCCCCCCC(=O)[O-]
REMARK SMILES IDX 12 1 11 2 10 3 9 4 8 5 7 6 6 7 5 8 4 9 3 10 2 11 1 12 13 13
REMARK SMILES IDX 14 14 15 15 16 16 17 17 18 18 19 19 20 20 21 21 22 22 23 23
REMARK SMILES IDX 24 24
REMARK H PARENT
REMARK Flexibility Score: inf
ROOT
ATOM      1  C   UNL     1       2.187  68.762   8.422  1.00  0.00     0.000 C 
ENDROOT
BRANCH   1   2
ATOM      2  C   UNL     1       0.907  68.138   9.007  1.00  0.00     0.000 C 
BRANCH   2   3
ATOM      3  C   UNL     1      -0.070  67.664   7.920  1.00  0.00     0.000 C 
BRANCH   3   4
ATOM      4  C   UNL     1      -0.569  66.230   8.158  1.00  0.00    -0.000 C 
BRANCH   4   5
ATOM      5  C   UNL     1       0.519  65.375   8.819  1.00  0.00    -0.000 C 
BRANCH   5   6
ATOM      6  C   UNL     1       1.348  64.627   7.764  1.00  0.00    -0.000 C 
BRANCH   6   7
ATOM      7  C   UNL     1       2.854  64.639   8.074  1.00  0.00    -0.000 C 
BRANCH   7   8
ATOM      8  C   UNL     1       3.674  65.380   7.007  1.00  0.00    -0.000 C 
BRANCH   8   9
ATOM      9  C   UNL     1       2.758  66.150   6.047  1.00  0.00    -0.000 C 
BRANCH   9  10
ATOM     10  C   UNL     1       3.568  66.790   4.909  1.00  0.00    -0.000 C 
BRANCH  10  11
ATOM     11  C   UNL     1       5.083  66.590   5.079  1.00  0.00    -0.003 C 
ATOM     12  C   UNL     1       5.824  67.898   5.354  1.00  0.00     0.004 C 
ENDBRANCH  10  11
ENDBRANCH   9  10
ENDBRANCH   8   9
ENDBRANCH   7   8
ENDBRANCH   6   7
ENDBRANCH   5   6
ENDBRANCH   4   5
ENDBRANCH   3   4
ENDBRANCH   2   3
ENDBRANCH   1   2
BRANCH   1  13
ATOM     13  C   UNL     1       3.426  68.484   9.286  1.00  0.00     0.000 C 
BRANCH  13  14
ATOM     14  C   UNL     1       3.126  67.536  10.460  1.00  0.00     0.000 C 
BRANCH  14  15
ATOM     15  C   UNL     1       3.852  67.948  11.752  1.00  0.00     0.000 C 
BRANCH  15  16
ATOM     16  C   UNL     1       2.897  68.098  12.945  1.00  0.00     0.000 C 
BRANCH  16  17
ATOM     17  C   UNL     1       1.584  68.771  12.517  1.00  0.00     0.000 C 
BRANCH  17  18
ATOM     18  C   UNL     1       1.684  70.305  12.494  1.00  0.00     0.000 C 
BRANCH  18  19
ATOM     19  C   UNL     1       2.547  70.858  13.641  1.00  0.00     0.000 C 
BRANCH  19  20
ATOM     20  C   UNL     1       3.730  71.710  13.145  1.00  0.00     0.006 C 
BRANCH  20  21
ATOM     21  C   UNL     1       3.768  71.900  11.617  1.00  0.00     0.053 C 
BRANCH  21  22
ATOM     22  C   UNL     1       3.443  73.302  11.202  1.00  0.00     0.041 C 
ATOM     23  O   UNL     1       2.449  73.533  10.464  1.00  0.00    -0.550 OA
ATOM     24  O   UNL     1       4.267  74.352  11.591  1.00  0.00    -0.550 OA
ENDBRANCH  21  22
ENDBRANCH  20  21
ENDBRANCH  19  20
ENDBRANCH  18  19
ENDBRANCH  17  18
ENDBRANCH  16  17
ENDBRANCH  15  16
ENDBRANCH  14  15
ENDBRANCH  13  14
ENDBRANCH   1  13
TORSDOF 20
ENDMDL
MODEL 2
REMARK VINA RESULT:    -3.133      1.919      3.876
REMARK INTER + INTRA:         -10.183
REMARK INTER:                  -6.398
REMARK INTRA:                  -3.785
REMARK UNBOUND:                -3.388
REMARK SMILES CCCCCCCCCCCCCCCCCCCCCC(=O)[O-]
REMARK SMILES IDX 12 1 11 2 10 3 9 4 8 5 7 6 6 7 5 8 4 9 3 10 2 11 1 12 13 13
REMARK SMILES IDX 14 14 15 15 16 16 17 17 18 18 19 19 20 20 21 21 22 22 23 23
REMARK SMILES IDX 24 24
REMARK H PARENT
REMARK Flexibility Score: inf
ROOT
ATOM      1  C   UNL     1       3.607  65.803  14.478  1.00  0.00     0.000 C 
ENDROOT
BRANCH   1   2
ATOM      2  C   UNL     1       2.086  66.037  14.483  1.00  0.00     0.000 C 
BRANCH   2   3
ATOM      3  C   UNL     1       1.435  65.728  13.126  1.00  0.00     0.000 C 
BRANCH   3   4
ATOM      4  C   UNL     1       2.454  65.269  12.072  1.00  0.00    -0.000 C 
BRANCH   4   5
ATOM      5  C   UNL     1       2.410  66.175  10.836  1.00  0.00    -0.000 C 
BRANCH   5   6
ATOM      6  C   UNL     1       0.981  66.279  10.281  1.00  0.00    -0.000 C 
BRANCH   6   7
ATOM      7  C   UNL     1       0.941  66.804   8.837  1.00  0.00    -0.000 C 
BRANCH   7   8
ATOM      8  C   UNL     1       2.322  66.792   8.163  1.00  0.00    -0.000 C 
BRANCH   8   9
ATOM      9  C   UNL     1       2.436  65.633   7.165  1.00  0.00    -0.000 C 
BRANCH   9  10
ATOM     10  C   UNL     1       3.531  64.644   7.594  1.00  0.00    -0.000 C 
BRANCH  10  11
ATOM     11  C   UNL     1       2.973  63.463   8.404  1.00  0.00    -0.003 C 
ATOM     12  C   UNL     1       1.563  63.062   7.970  1.00  0.00     0.004 C 
ENDBRANCH  10  11
ENDBRANCH   9  10
ENDBRANCH   8   9
ENDBRANCH   7   8
ENDBRANCH   6   7
ENDBRANCH   5   6
ENDBRANCH   4   5
ENDBRANCH   3   4
ENDBRANCH   2   3
ENDBRANCH   1   2
BRANCH   1  13
ATOM     13  C   UNL     1       4.401  67.088  14.762  1.00  0.00     0.000 C 
BRANCH  13  14
ATOM     14  C   UNL     1       4.335  68.092  13.597  1.00  0.00     0.000 C 
BRANCH  14  15
ATOM     15  C   UNL     1       4.096  69.534  14.074  1.00  0.00     0.000 C 
BRANCH  15  16
ATOM     16  C   UNL     1       2.744  69.706  14.783  1.00  0.00     0.000 C 
BRANCH  16  17
ATOM     17  C   UNL     1       1.723  70.388  13.860  1.00  0.00     0.000 C 
BRANCH  17  18
ATOM     18  C   UNL     1       0.809  69.382  13.141  1.00  0.00     0.000 C 
BRANCH  18  19
ATOM     19  C   UNL     1       0.782  69.594  11.618  1.00  0.00     0.000 C 
BRANCH  19  20
ATOM     20  C   UNL     1       2.175  69.882  11.027  1.00  0.00     0.006 C 
BRANCH  20  21
ATOM     21  C   UNL     1       2.299  71.267  10.364  1.00  0.00     0.053 C 
BRANCH  21  22
ATOM     22  C   UNL     1       3.240  72.175  11.095  1.00  0.00     0.041 C 
ATOM     23  O   UNL     1       4.415  71.802  11.349  1.00  0.00    -0.550 OA
ATOM     24  O   UNL     1       2.803  73.417  11.542  1.00  0.00    -0.550 OA
ENDBRANCH  21  22
ENDBRANCH  20  21
ENDBRANCH  19  20
ENDBRANCH  18  19
ENDBRANCH  17  18
ENDBRANCH  16  17
ENDBRANCH  15  16
ENDBRANCH  14  15
ENDBRANCH  13  14
ENDBRANCH   1  13
TORSDOF 20
ENDMDL
MODEL 3
REMARK VINA RESULT:    -3.130      7.670     11.206
REMARK INTER + INTRA:         -10.177
REMARK INTER:                  -6.125
REMARK INTRA:                  -4.052
REMARK UNBOUND:                -3.388
REMARK SMILES CCCCCCCCCCCCCCCCCCCCCC(=O)[O-]
REMARK SMILES IDX 12 1 11 2 10 3 9 4 8 5 7 6 6 7 5 8 4 9 3 10 2 11 1 12 13 13
REMARK SMILES IDX 14 14 15 15 16 16 17 17 18 18 19 19 20 20 21 21 22 22 23 23
REMARK SMILES IDX 24 24
REMARK H PARENT
REMARK Flexibility Score: inf
ROOT
ATOM      1  C   UNL     1       2.629  71.098  17.940  1.00  0.00     0.000 C 
ENDROOT
BRANCH   1   2
ATOM      2  C   UNL     1       1.617  71.266  19.088  1.00  0.00     0.000 C 
BRANCH   2   3
ATOM      3  C   UNL     1       0.383  70.365  18.925  1.00  0.00     0.000 C 
BRANCH   3   4
ATOM      4  C   UNL     1       0.332  69.238  19.968  1.00  0.00    -0.000 C 
BRANCH   4   5
ATOM      5  C   UNL     1       0.236  67.866  19.288  1.00  0.00    -0.000 C 
BRANCH   5   6
ATOM      6  C   UNL     1       1.586  67.134  19.333  1.00  0.00    -0.000 C 
BRANCH   6   7
ATOM      7  C   UNL     1       2.048  66.830  20.767  1.00  0.00    -0.000 C 
BRANCH   7   8
ATOM      8  C   UNL     1       3.526  67.180  21.002  1.00  0.00    -0.000 C 
BRANCH   8   9
ATOM      9  C   UNL     1       3.978  68.309  20.067  1.00  0.00    -0.000 C 
BRANCH   9  10
ATOM     10  C   UNL     1       4.445  69.533  20.869  1.00  0.00    -0.000 C 
BRANCH  10  11
ATOM     11  C   UNL     1       4.572  69.239  22.372  1.00  0.00    -0.003 C 
ATOM     12  C   UNL     1       6.022  69.258  22.858  1.00  0.00     0.004 C 
ENDBRANCH  10  11
ENDBRANCH   9  10
ENDBRANCH   8   9
ENDBRANCH   7   8
ENDBRANCH   6   7
ENDBRANCH   5   6
ENDBRANCH   4   5
ENDBRANCH   3   4
ENDBRANCH   2   3
ENDBRANCH   1   2
BRANCH   1  13
ATOM     13  C   UNL     1       2.141  70.116  16.863  1.00  0.00     0.000 C 
BRANCH  13  14
ATOM     14  C   UNL     1       3.176  69.022  16.549  1.00  0.00     0.000 C 
BRANCH  14  15
ATOM     15  C   UNL     1       2.647  67.979  15.551  1.00  0.00     0.000 C 
BRANCH  15  16
ATOM     16  C   UNL     1       1.138  67.735  15.694  1.00  0.00     0.000 C 
BRANCH  16  17
ATOM     17  C   UNL     1       0.827  66.232  15.757  1.00  0.00     0.000 C 
BRANCH  17  18
ATOM     18  C   UNL     1       2.081  65.376  16.000  1.00  0.00     0.000 C 
BRANCH  18  19
ATOM     19  C   UNL     1       1.864  64.306  17.082  1.00  0.00     0.000 C 
BRANCH  19  20
ATOM     20  C   UNL     1       3.116  64.060  17.943  1.00  0.00     0.006 C 
BRANCH  20  21
ATOM     21  C   UNL     1       4.365  64.824  17.464  1.00  0.00     0.053 C 
BRANCH  21  22
ATOM     22  C   UNL     1       5.441  63.912  16.960  1.00  0.00     0.041 C 
ATOM     23  O   UNL     1       5.221  62.680  16.830  1.00  0.00    -0.550 OA
ATOM     24  O   UNL     1       6.706  64.416  16.679  1.00  0.00    -0.550 OA
ENDBRANCH  21  22
ENDBRANCH  20  21
ENDBRANCH  19  20
ENDBRANCH  18  19
ENDBRANCH  17  18
ENDBRANCH  16  17
ENDBRANCH  15  16
ENDBRANCH  14  15
ENDBRANCH  13  14
ENDBRANCH   1  13
TORSDOF 20
ENDMDL
MODEL 4
REMARK VINA RESULT:    -3.113      5.260      9.346
REMARK INTER + INTRA:         -10.140
REMARK INTER:                  -6.489
REMARK INTRA:                  -3.652
REMARK UNBOUND:                -3.388
REMARK SMILES CCCCCCCCCCCCCCCCCCCCCC(=O)[O-]
REMARK SMILES IDX 12 1 11 2 10 3 9 4 8 5 7 6 6 7 5 8 4 9 3 10 2 11 1 12 13 13
REMARK SMILES IDX 14 14 15 15 16 16 17 17 18 18 19 19 20 20 21 21 22 22 23 23
REMARK SMILES IDX 24 24
REMARK H PARENT
REMARK Flexibility Score: inf
ROOT
ATOM      1  C   UNL     1       4.323  68.311  11.717  1.00  0.00     0.000 C 
ENDROOT
BRANCH   1   2
ATOM      2  C   UNL     1       4.821  67.746  13.059  1.00  0.00     0.000 C 
BRANCH   2   3
ATOM      3  C   UNL     1       4.314  68.552  14.265  1.00  0.00     0.000 C 
BRANCH   3   4
ATOM      4  C   UNL     1       3.798  69.945  13.871  1.00  0.00    -0.000 C 
BRANCH   4   5
ATOM      5  C   UNL     1       2.314  70.099  14.226  1.00  0.00    -0.000 C 
BRANCH   5   6
ATOM      6  C   UNL     1       1.822  68.909  15.064  1.00  0.00    -0.000 C 
BRANCH   6   7
ATOM      7  C   UNL     1       1.210  69.342  16.406  1.00  0.00    -0.000 C 
BRANCH   7   8
ATOM      8  C   UNL     1       1.982  68.793  17.616  1.00  0.00    -0.000 C 
BRANCH   8   9
ATOM      9  C   UNL     1       2.961  69.838  18.163  1.00  0.00    -0.000 C 
BRANCH   9  10
ATOM     10  C   UNL     1       2.338  70.616  19.333  1.00  0.00    -0.000 C 
BRANCH  10  11
ATOM     11  C   UNL     1       1.914  72.038  18.936  1.00  0.00    -0.003 C 
ATOM     12  C   UNL     1       3.013  72.796  18.189  1.00  0.00     0.004 C 
ENDBRANCH  10  11
ENDBRANCH   9  10
ENDBRANCH   8   9
ENDBRANCH   7   8
ENDBRANCH   6   7
ENDBRANCH   5   6
ENDBRANCH   4   5
ENDBRANCH   3   4
ENDBRANCH   2   3
ENDBRANCH   1   2
BRANCH   1  13
ATOM     13  C   UNL     1       3.330  67.372  11.014  1.00  0.00     0.000 C 
BRANCH  13  14
ATOM     14  C   UNL     1       1.896  67.523  11.552  1.00  0.00     0.000 C 
BRANCH  14  15
ATOM     15  C   UNL     1       1.409  66.266  12.293  1.00  0.00     0.000 C 
BRANCH  15  16
ATOM     16  C   UNL     1       2.367  65.077  12.134  1.00  0.00     0.000 C 
BRANCH  16  17
ATOM     17  C   UNL     1       2.831  64.559  13.504  1.00  0.00     0.000 C 
BRANCH  17  18
ATOM     18  C   UNL     1       2.220  65.346  14.675  1.00  0.00     0.000 C 
BRANCH  18  19
ATOM     19  C   UNL     1       3.177  65.457  15.873  1.00  0.00     0.000 C 
BRANCH  19  20
ATOM     20  C   UNL     1       4.494  64.688  15.664  1.00  0.00     0.006 C 
BRANCH  20  21
ATOM     21  C   UNL     1       4.701  63.520  16.647  1.00  0.00     0.053 C 
BRANCH  21  22
ATOM     22  C   UNL     1       3.831  62.342  16.334  1.00  0.00     0.041 C 
ATOM     23  O   UNL     1       4.176  61.514  15.451  1.00  0.00    -0.550 OA
ATOM     24  O   UNL     1       2.613  62.183  16.984  1.00  0.00    -0.550 OA
ENDBRANCH  21  22
ENDBRANCH  20  21
ENDBRANCH  19  20
ENDBRANCH  18  19
ENDBRANCH  17  18
ENDBRANCH  16  17
ENDBRANCH  15  16
ENDBRANCH  14  15
ENDBRANCH  13  14
ENDBRANCH   1  13
TORSDOF 20
ENDMDL
MODEL 5
REMARK VINA RESULT:    -3.105      5.235      7.784
REMARK INTER + INTRA:         -10.123
REMARK INTER:                  -6.108
REMARK INTRA:                  -4.016
REMARK UNBOUND:                -3.388
REMARK SMILES CCCCCCCCCCCCCCCCCCCCCC(=O)[O-]
REMARK SMILES IDX 12 1 11 2 10 3 9 4 8 5 7 6 6 7 5 8 4 9 3 10 2 11 1 12 13 13
REMARK SMILES IDX 14 14 15 15 16 16 17 17 18 18 19 19 20 20 21 21 22 22 23 23
REMARK SMILES IDX 24 24
REMARK H PARENT
REMARK Flexibility Score: inf
ROOT
ATOM      1  C   UNL     1       0.585  69.470  12.440  1.00  0.00     0.000 C 
ENDROOT
BRANCH   1   2
ATOM      2  C   UNL     1      -0.546  68.790  13.231  1.00  0.00     0.000 C 
BRANCH   2   3
ATOM      3  C   UNL     1      -0.022  67.767  14.251  1.00  0.00     0.000 C 
BRANCH   3   4
ATOM      4  C   UNL     1       0.096  66.353  13.662  1.00  0.00    -0.000 C 
BRANCH   4   5
ATOM      5  C   UNL     1       1.567  65.944  13.511  1.00  0.00    -0.000 C 
BRANCH   5   6
ATOM      6  C   UNL     1       1.961  64.906  14.574  1.00  0.00    -0.000 C 
BRANCH   6   7
ATOM      7  C   UNL     1       0.754  64.380  15.366  1.00  0.00    -0.000 C 
BRANCH   7   8
ATOM      8  C   UNL     1       0.947  64.493  16.886  1.00  0.00    -0.000 C 
BRANCH   8   9
ATOM      9  C   UNL     1       1.210  65.946  17.301  1.00  0.00    -0.000 C 
BRANCH   9  10
ATOM     10  C   UNL     1       2.523  66.064  18.089  1.00  0.00    -0.000 C 
BRANCH  10  11
ATOM     11  C   UNL     1       2.359  66.860  19.393  1.00  0.00    -0.003 C 
ATOM     12  C   UNL     1       3.648  67.561  19.824  1.00  0.00     0.004 C 
ENDBRANCH  10  11
ENDBRANCH   9  10
ENDBRANCH   8   9
ENDBRANCH   7   8
ENDBRANCH   6   7
ENDBRANCH   5   6
ENDBRANCH   4   5
ENDBRANCH   3   4
ENDBRANCH   2   3
ENDBRANCH   1   2
BRANCH   1  13
ATOM     13  C   UNL     1       1.161  70.695  13.169  1.00  0.00     0.000 C 
BRANCH  13  14
ATOM     14  C   UNL     1       2.699  70.712  13.168  1.00  0.00     0.000 C 
BRANCH  14  15
ATOM     15  C   UNL     1       3.306  69.299  13.167  1.00  0.00     0.000 C 
BRANCH  15  16
ATOM     16  C   UNL     1       4.180  69.029  14.400  1.00  0.00     0.000 C 
BRANCH  16  17
ATOM     17  C   UNL     1       3.343  68.453  15.552  1.00  0.00     0.000 C 
BRANCH  17  18
ATOM     18  C   UNL     1       3.037  69.494  16.641  1.00  0.00     0.000 C 
BRANCH  18  19
ATOM     19  C   UNL     1       1.531  69.768  16.790  1.00  0.00     0.000 C 
BRANCH  19  20
ATOM     20  C   UNL     1       1.131  70.161  18.223  1.00  0.00     0.006 C 
BRANCH  20  21
ATOM     21  C   UNL     1       2.239  70.891  19.005  1.00  0.00     0.053 C 
BRANCH  21  22
ATOM     22  C   UNL     1       2.136  72.382  18.896  1.00  0.00     0.041 C 
ATOM     23  O   UNL     1       1.195  72.997  19.463  1.00  0.00    -0.550 OA
ATOM     24  O   UNL     1       3.052  73.089  18.125  1.00  0.00    -0.550 OA
ENDBRANCH  21  22
ENDBRANCH  20  21
ENDBRANCH  19  20
ENDBRANCH  18  19
ENDBRANCH  17  18
ENDBRANCH  16  17
ENDBRANCH  15  16
ENDBRANCH  14  15
ENDBRANCH  13  14
ENDBRANCH   1  13
TORSDOF 20
ENDMDL
MODEL 6
REMARK VINA RESULT:    -3.085      5.428      8.102
REMARK INTER + INTRA:         -10.079
REMARK INTER:                  -6.228
REMARK INTRA:                  -3.851
REMARK UNBOUND:                -3.388
REMARK SMILES CCCCCCCCCCCCCCCCCCCCCC(=O)[O-]
REMARK SMILES IDX 12 1 11 2 10 3 9 4 8 5 7 6 6 7 5 8 4 9 3 10 2 11 1 12 13 13
REMARK SMILES IDX 14 14 15 15 16 16 17 17 18 18 19 19 20 20 21 21 22 22 23 23
REMARK SMILES IDX 24 24
REMARK H PARENT
REMARK Flexibility Score: inf
ROOT
ATOM      1  C   UNL     1       5.126  67.293  13.747  1.00  0.00     0.000 C 
ENDROOT
BRANCH   1   2
ATOM      2  C   UNL     1       5.774  66.938  15.096  1.00  0.00     0.000 C 
BRANCH   2   3
ATOM      3  C   UNL     1       4.763  66.378  16.109  1.00  0.00     0.000 C 
BRANCH   3   4
ATOM      4  C   UNL     1       5.413  65.435  17.134  1.00  0.00    -0.000 C 
BRANCH   4   5
ATOM      5  C   UNL     1       4.399  65.001  18.199  1.00  0.00    -0.000 C 
BRANCH   5   6
ATOM      6  C   UNL     1       3.051  65.711  17.997  1.00  0.00    -0.000 C 
BRANCH   6   7
ATOM      7  C   UNL     1       1.850  64.806  18.314  1.00  0.00    -0.000 C 
BRANCH   7   8
ATOM      8  C   UNL     1       1.061  64.405  17.058  1.00  0.00    -0.000 C 
BRANCH   8   9
ATOM      9  C   UNL     1       1.480  63.015  16.566  1.00  0.00    -0.000 C 
BRANCH   9  10
ATOM     10  C   UNL     1       1.991  63.074  15.119  1.00  0.00    -0.000 C 
BRANCH  10  11
ATOM     11  C   UNL     1       3.525  63.052  15.035  1.00  0.00    -0.003 C 
ATOM     12  C   UNL     1       4.128  61.756  15.578  1.00  0.00     0.004 C 
ENDBRANCH  10  11
ENDBRANCH   9  10
ENDBRANCH   8   9
ENDBRANCH   7   8
ENDBRANCH   6   7
ENDBRANCH   5   6
ENDBRANCH   4   5
ENDBRANCH   3   4
ENDBRANCH   2   3
ENDBRANCH   1   2
BRANCH   1  13
ATOM     13  C   UNL     1       4.065  66.268  13.315  1.00  0.00     0.000 C 
BRANCH  13  14
ATOM     14  C   UNL     1       2.727  66.928  12.937  1.00  0.00     0.000 C 
BRANCH  14  15
ATOM     15  C   UNL     1       1.593  66.559  13.909  1.00  0.00     0.000 C 
BRANCH  15  16
ATOM     16  C   UNL     1       1.496  67.526  15.098  1.00  0.00     0.000 C 
BRANCH  16  17
ATOM     17  C   UNL     1       1.153  68.947  14.625  1.00  0.00     0.000 C 
BRANCH  17  18
ATOM     18  C   UNL     1       2.008  70.024  15.312  1.00  0.00     0.000 C 
BRANCH  18  19
ATOM     19  C   UNL     1       2.971  69.435  16.356  1.00  0.00     0.000 C 
BRANCH  19  20
ATOM     20  C   UNL     1       2.436  69.544  17.795  1.00  0.00     0.006 C 
BRANCH  20  21
ATOM     21  C   UNL     1       1.764  70.893  18.114  1.00  0.00     0.053 C 
BRANCH  21  22
ATOM     22  C   UNL     1       2.722  71.896  18.679  1.00  0.00     0.041 C 
ATOM     23  O   UNL     1       2.526  73.128  18.511  1.00  0.00    -0.550 OA
ATOM     24  O   UNL     1       3.862  71.468  19.350  1.00  0.00    -0.550 OA
ENDBRANCH  21  22
ENDBRANCH  20  21
ENDBRANCH  19  20
ENDBRANCH  18  19
ENDBRANCH  17  18
ENDBRANCH  16  17
ENDBRANCH  15  16
ENDBRANCH  14  15
ENDBRANCH  13  14
ENDBRANCH   1  13
TORSDOF 20
ENDMDL
MODEL 7
REMARK VINA RESULT:    -3.080      3.088      5.510
REMARK INTER + INTRA:         -10.068
REMARK INTER:                  -7.600
REMARK INTRA:                  -2.468
REMARK UNBOUND:                -3.388
REMARK SMILES CCCCCCCCCCCCCCCCCCCCCC(=O)[O-]
REMARK SMILES IDX 12 1 11 2 10 3 9 4 8 5 7 6 6 7 5 8 4 9 3 10 2 11 1 12 13 13
REMARK SMILES IDX 14 14 15 15 16 16 17 17 18 18 19 19 20 20 21 21 22 22 23 23
REMARK SMILES IDX 24 24
REMARK H PARENT
REMARK Flexibility Score: inf
ROOT
ATOM      1  C   UNL     1       6.166  70.762   6.559  1.00  0.00     0.000 C 
ENDROOT
BRANCH   1   2
ATOM      2  C   UNL     1       5.629  69.343   6.817  1.00  0.00     0.000 C 
BRANCH   2   3
ATOM      3  C   UNL     1       4.919  68.747   5.591  1.00  0.00     0.000 C 
BRANCH   3   4
ATOM      4  C   UNL     1       5.783  67.713   4.852  1.00  0.00    -0.000 C 
BRANCH   4   5
ATOM      5  C   UNL     1       5.161  66.314   4.945  1.00  0.00    -0.000 C 
BRANCH   5   6
ATOM      6  C   UNL     1       3.781  66.369   5.619  1.00  0.00    -0.000 C 
BRANCH   6   7
ATOM      7  C   UNL     1       3.694  65.475   6.867  1.00  0.00    -0.000 C 
BRANCH   7   8
ATOM      8  C   UNL     1       2.954  66.151   8.031  1.00  0.00    -0.000 C 
BRANCH   8   9
ATOM      9  C   UNL     1       2.248  65.112   8.911  1.00  0.00    -0.000 C 
BRANCH   9  10
ATOM     10  C   UNL     1       3.060  63.810   8.985  1.00  0.00    -0.000 C 
BRANCH  10  11
ATOM     11  C   UNL     1       2.250  62.584   8.535  1.00  0.00    -0.003 C 
ATOM     12  C   UNL     1       1.048  62.956   7.667  1.00  0.00     0.004 C 
ENDBRANCH  10  11
ENDBRANCH   9  10
ENDBRANCH   8   9
ENDBRANCH   7   8
ENDBRANCH   6   7
ENDBRANCH   5   6
ENDBRANCH   4   5
ENDBRANCH   3   4
ENDBRANCH   2   3
ENDBRANCH   1   2
BRANCH   1  13
ATOM     13  C   UNL     1       7.640  70.763   6.124  1.00  0.00     0.000 C 
BRANCH  13  14
ATOM     14  C   UNL     1       8.471  69.694   6.854  1.00  0.00     0.000 C 
BRANCH  14  15
ATOM     15  C   UNL     1       9.585  70.302   7.722  1.00  0.00     0.000 C 
BRANCH  15  16
ATOM     16  C   UNL     1       9.784  69.546   9.044  1.00  0.00     0.000 C 
BRANCH  16  17
ATOM     17  C   UNL     1       9.260  70.369  10.231  1.00  0.00     0.000 C 
BRANCH  17  18
ATOM     18  C   UNL     1       8.683  71.728   9.803  1.00  0.00     0.000 C 
BRANCH  18  19
ATOM     19  C   UNL     1       7.215  71.906  10.226  1.00  0.00     0.000 C 
BRANCH  19  20
ATOM     20  C   UNL     1       6.436  70.579  10.260  1.00  0.00     0.006 C 
BRANCH  20  21
ATOM     21  C   UNL     1       5.783  70.271  11.621  1.00  0.00     0.053 C 
BRANCH  21  22
ATOM     22  C   UNL     1       4.339  70.668  11.671  1.00  0.00     0.041 C 
ATOM     23  O   UNL     1       3.442  69.791  11.787  1.00  0.00    -0.550 OA
ATOM     24  O   UNL     1       3.979  72.004  11.540  1.00  0.00    -0.550 OA
ENDBRANCH  21  22
ENDBRANCH  20  21
ENDBRANCH  19  20
ENDBRANCH  18  19
ENDBRANCH  17  18
ENDBRANCH  16  17
ENDBRANCH  15  16
ENDBRANCH  14  15
ENDBRANCH  13  14
ENDBRANCH   1  13
TORSDOF 20
ENDMDL
MODEL 8
REMARK VINA RESULT:    -3.066      7.387      9.532
REMARK INTER + INTRA:         -10.039
REMARK INTER:                  -7.078
REMARK INTRA:                  -2.961
REMARK UNBOUND:                -3.388
REMARK SMILES CCCCCCCCCCCCCCCCCCCCCC(=O)[O-]
REMARK SMILES IDX 12 1 11 2 10 3 9 4 8 5 7 6 6 7 5 8 4 9 3 10 2 11 1 12 13 13
REMARK SMILES IDX 14 14 15 15 16 16 17 17 18 18 19 19 20 20 21 21 22 22 23 23
REMARK SMILES IDX 24 24
REMARK H PARENT
REMARK Flexibility Score: inf
ROOT
ATOM      1  C   UNL     1       3.179  66.047  17.452  1.00  0.00     0.000 C 
ENDROOT
BRANCH   1   2
ATOM      2  C   UNL     1       2.289  65.894  16.207  1.00  0.00     0.000 C 
BRANCH   2   3
ATOM      3  C   UNL     1       2.964  65.079  15.093  1.00  0.00     0.000 C 
BRANCH   3   4
ATOM      4  C   UNL     1       2.178  63.810  14.730  1.00  0.00    -0.000 C 
BRANCH   4   5
ATOM      5  C   UNL     1       2.256  62.775  15.860  1.00  0.00    -0.000 C 
BRANCH   5   6
ATOM      6  C   UNL     1       3.642  62.114  15.905  1.00  0.00    -0.000 C 
BRANCH   6   7
ATOM      7  C   UNL     1       4.426  62.468  17.179  1.00  0.00    -0.000 C 
BRANCH   7   8
ATOM      8  C   UNL     1       5.931  62.642  16.920  1.00  0.00    -0.000 C 
BRANCH   8   9
ATOM      9  C   UNL     1       6.312  64.127  16.874  1.00  0.00    -0.000 C 
BRANCH   9  10
ATOM     10  C   UNL     1       7.811  64.318  17.155  1.00  0.00    -0.000 C 
BRANCH  10  11
ATOM     11  C   UNL     1       8.090  65.523  18.067  1.00  0.00    -0.003 C 
ATOM     12  C   UNL     1       9.582  65.728  18.335  1.00  0.00     0.004 C 
ENDBRANCH  10  11
ENDBRANCH   9  10
ENDBRANCH   8   9
ENDBRANCH   7   8
ENDBRANCH   6   7
ENDBRANCH   5   6
ENDBRANCH   4   5
ENDBRANCH   3   4
ENDBRANCH   2   3
ENDBRANCH   1   2
BRANCH   1  13
ATOM     13  C   UNL     1       2.625  65.290  18.669  1.00  0.00     0.000 C 
BRANCH  13  14
ATOM     14  C   UNL     1       3.588  65.316  19.869  1.00  0.00     0.000 C 
BRANCH  14  15
ATOM     15  C   UNL     1       4.802  66.230  19.631  1.00  0.00     0.000 C 
BRANCH  15  16
ATOM     16  C   UNL     1       5.688  66.373  20.878  1.00  0.00     0.000 C 
BRANCH  16  17
ATOM     17  C   UNL     1       5.226  67.553  21.747  1.00  0.00     0.000 C 
BRANCH  17  18
ATOM     18  C   UNL     1       4.631  68.704  20.919  1.00  0.00     0.000 C 
BRANCH  18  19
ATOM     19  C   UNL     1       3.225  69.106  21.394  1.00  0.00     0.000 C 
BRANCH  19  20
ATOM     20  C   UNL     1       2.271  69.438  20.232  1.00  0.00     0.006 C 
BRANCH  20  21
ATOM     21  C   UNL     1       2.912  70.288  19.119  1.00  0.00     0.053 C 
BRANCH  21  22
ATOM     22  C   UNL     1       2.307  71.655  19.016  1.00  0.00     0.041 C 
ATOM     23  O   UNL     1       1.084  71.828  19.260  1.00  0.00    -0.550 OA
ATOM     24  O   UNL     1       3.083  72.731  18.602  1.00  0.00    -0.550 OA
ENDBRANCH  21  22
ENDBRANCH  20  21
ENDBRANCH  19  20
ENDBRANCH  18  19
ENDBRANCH  17  18
ENDBRANCH  16  17
ENDBRANCH  15  16
ENDBRANCH  14  15
ENDBRANCH  13  14
ENDBRANCH   1  13
TORSDOF 20
ENDMDL
MODEL 9
REMARK VINA RESULT:    -3.062      4.273      8.851
REMARK INTER + INTRA:         -10.030
REMARK INTER:                  -6.985
REMARK INTRA:                  -3.045
REMARK UNBOUND:                -3.388
REMARK SMILES CCCCCCCCCCCCCCCCCCCCCC(=O)[O-]
REMARK SMILES IDX 12 1 11 2 10 3 9 4 8 5 7 6 6 7 5 8 4 9 3 10 2 11 1 12 13 13
REMARK SMILES IDX 14 14 15 15 16 16 17 17 18 18 19 19 20 20 21 21 22 22 23 23
REMARK SMILES IDX 24 24
REMARK H PARENT
REMARK Flexibility Score: inf
ROOT
ATOM      1  C   UNL     1       0.374  66.211  13.748  1.00  0.00     0.000 C 
ENDROOT
BRANCH   1   2
ATOM      2  C   UNL     1       0.577  64.969  14.633  1.00  0.00     0.000 C 
BRANCH   2   3
ATOM      3  C   UNL     1       1.952  64.949  15.318  1.00  0.00     0.000 C 
BRANCH   3   4
ATOM      4  C   UNL     1       3.114  65.011  14.314  1.00  0.00    -0.000 C 
BRANCH   4   5
ATOM      5  C   UNL     1       4.055  66.179  14.638  1.00  0.00    -0.000 C 
BRANCH   5   6
ATOM      6  C   UNL     1       3.722  66.789  16.008  1.00  0.00    -0.000 C 
BRANCH   6   7
ATOM      7  C   UNL     1       3.686  68.326  15.980  1.00  0.00    -0.000 C 
BRANCH   7   8
ATOM      8  C   UNL     1       2.964  68.925  17.197  1.00  0.00    -0.000 C 
BRANCH   8   9
ATOM      9  C   UNL     1       2.480  70.350  16.903  1.00  0.00    -0.000 C 
BRANCH   9  10
ATOM     10  C   UNL     1       2.032  71.056  18.192  1.00  0.00    -0.000 C 
BRANCH  10  11
ATOM     11  C   UNL     1       3.091  72.033  18.727  1.00  0.00    -0.003 C 
ATOM     12  C   UNL     1       3.165  73.326  17.915  1.00  0.00     0.004 C 
ENDBRANCH  10  11
ENDBRANCH   9  10
ENDBRANCH   8   9
ENDBRANCH   7   8
ENDBRANCH   6   7
ENDBRANCH   5   6
ENDBRANCH   4   5
ENDBRANCH   3   4
ENDBRANCH   2   3
ENDBRANCH   1   2
BRANCH   1  13
ATOM     13  C   UNL     1       0.279  67.508  14.566  1.00  0.00     0.000 C 
BRANCH  13  14
ATOM     14  C   UNL     1       0.313  68.767  13.682  1.00  0.00     0.000 C 
BRANCH  14  15
ATOM     15  C   UNL     1       1.736  69.126  13.221  1.00  0.00     0.000 C 
BRANCH  15  16
ATOM     16  C   UNL     1       1.965  68.836  11.730  1.00  0.00     0.000 C 
BRANCH  16  17
ATOM     17  C   UNL     1       3.273  68.059  11.516  1.00  0.00     0.000 C 
BRANCH  17  18
ATOM     18  C   UNL     1       3.035  66.603  11.082  1.00  0.00     0.000 C 
BRANCH  18  19
ATOM     19  C   UNL     1       1.663  66.403  10.417  1.00  0.00     0.000 C 
BRANCH  19  20
ATOM     20  C   UNL     1       1.765  66.095   8.912  1.00  0.00     0.006 C 
BRANCH  20  21
ATOM     21  C   UNL     1       0.818  64.977   8.436  1.00  0.00     0.053 C 
BRANCH  21  22
ATOM     22  C   UNL     1       1.552  63.752   7.985  1.00  0.00     0.041 C 
ATOM     23  O   UNL     1       2.804  63.682   8.101  1.00  0.00    -0.550 OA
ATOM     24  O   UNL     1       0.859  62.704   7.389  1.00  0.00    -0.550 OA
ENDBRANCH  21  22
ENDBRANCH  20  21
ENDBRANCH  19  20
ENDBRANCH  18  19
ENDBRANCH  17  18
ENDBRANCH  16  17
ENDBRANCH  15  16
ENDBRANCH  14  15
ENDBRANCH  13  14
ENDBRANCH   1  13
TORSDOF 20
ENDMDL
