MODEL 1
REMARK VINA RESULT:    -4.814      0.000      0.000
REMARK INTER + INTRA:         -10.921
REMARK INTER:                  -8.754
REMARK INTRA:                  -2.167
REMARK UNBOUND:                -2.167
REMARK SMILES CCCCCCCCCCCCCC[C@@H](C)C(=O)[O-]
REMARK SMILES IDX 9 1 10 2 11 3 12 4 13 5 14 6 15 7 16 8 17 9 18 10 19 11 8 12
REMARK SMILES IDX 7 13 6 14 5 15 4 16 3 17 2 18 1 19
REMARK H PARENT
REMARK Flexibility Score: inf
ROOT
ATOM      1  C   UNL     1      10.580  29.716  59.883  1.00  0.00     0.000 C 
ENDROOT
BRANCH   1   2
ATOM      2  C   UNL     1      11.449  28.449  59.965  1.00  0.00     0.000 C 
BRANCH   2   3
ATOM      3  C   UNL     1      12.363  28.441  61.210  1.00  0.00     0.000 C 
BRANCH   3   4
ATOM      4  C   UNL     1      12.227  29.701  62.084  1.00  0.00     0.000 C 
BRANCH   4   5
ATOM      5  C   UNL     1      13.542  30.469  62.321  1.00  0.00     0.001 C 
BRANCH   5   6
ATOM      6  C   UNL     1      14.822  29.743  61.856  1.00  0.00     0.009 C 
BRANCH   6   7
ATOM      7  C   UNL     1      15.760  29.271  62.991  1.00  0.00     0.032 C 
ATOM      8  C   UNL     1      15.273  27.974  63.655  1.00  0.00     0.014 C 
BRANCH   7   9
ATOM      9  C   UNL     1      17.151  29.078  62.451  1.00  0.00     0.044 C 
ATOM     10  O   UNL     1      17.663  27.927  62.396  1.00  0.00    -0.550 OA
ATOM     11  O   UNL     1      17.874  30.170  61.989  1.00  0.00    -0.550 OA
ENDBRANCH   7   9
ENDBRANCH   6   7
ENDBRANCH   5   6
ENDBRANCH   4   5
ENDBRANCH   3   4
ENDBRANCH   2   3
ENDBRANCH   1   2
BRANCH   1  12
ATOM     12  C   UNL     1      10.803  30.501  58.581  1.00  0.00     0.000 C 
BRANCH  12  13
ATOM     13  C   UNL     1      12.257  30.429  58.086  1.00  0.00    -0.000 C 
BRANCH  13  14
ATOM     14  C   UNL     1      13.176  31.455  58.775  1.00  0.00    -0.000 C 
BRANCH  14  15
ATOM     15  C   UNL     1      14.682  31.216  58.567  1.00  0.00    -0.000 C 
BRANCH  15  16
ATOM     16  C   UNL     1      14.980  29.981  57.702  1.00  0.00    -0.000 C 
BRANCH  16  17
ATOM     17  C   UNL     1      15.591  30.387  56.356  1.00  0.00    -0.000 C 
BRANCH  17  18
ATOM     18  C   UNL     1      14.571  30.238  55.222  1.00  0.00    -0.003 C 
ATOM     19  C   UNL     1      13.942  31.583  54.867  1.00  0.00     0.004 C 
ENDBRANCH  17  18
ENDBRANCH  16  17
ENDBRANCH  15  16
ENDBRANCH  14  15
ENDBRANCH  13  14
ENDBRANCH  12  13
ENDBRANCH   1  12
TORSDOF 14
ENDMDL
MODEL 2
REMARK VINA RESULT:    -4.755      1.584      2.402
REMARK INTER + INTRA:         -10.813
REMARK INTER:                  -9.036
REMARK INTRA:                  -1.778
REMARK UNBOUND:                -2.167
REMARK SMILES CCCCCCCCCCCCCC[C@@H](C)C(=O)[O-]
REMARK SMILES IDX 9 1 10 2 11 3 12 4 13 5 14 6 15 7 16 8 17 9 18 10 19 11 8 12
REMARK SMILES IDX 7 13 6 14 5 15 4 16 3 17 2 18 1 19
REMARK H PARENT
REMARK Flexibility Score: inf
ROOT
ATOM      1  C   UNL     1      11.085  30.471  58.511  1.00  0.00     0.000 C 
ENDROOT
BRANCH   1   2
ATOM      2  C   UNL     1      11.111  29.262  59.462  1.00  0.00     0.000 C 
BRANCH   2   3
ATOM      3  C   UNL     1      10.376  29.540  60.791  1.00  0.00     0.000 C 
BRANCH   3   4
ATOM      4  C   UNL     1      11.323  29.733  61.991  1.00  0.00     0.000 C 
BRANCH   4   5
ATOM      5  C   UNL     1      12.612  28.890  61.940  1.00  0.00     0.001 C 
BRANCH   5   6
ATOM      6  C   UNL     1      13.896  29.625  62.378  1.00  0.00     0.009 C 
BRANCH   6   7
ATOM      7  C   UNL     1      15.197  28.796  62.275  1.00  0.00     0.032 C 
ATOM      8  C   UNL     1      16.294  29.519  61.479  1.00  0.00     0.014 C 
BRANCH   7   9
ATOM      9  C   UNL     1      15.699  28.467  63.654  1.00  0.00     0.044 C 
ATOM     10  O   UNL     1      16.159  29.372  64.401  1.00  0.00    -0.550 OA
ATOM     11  O   UNL     1      15.639  27.160  64.122  1.00  0.00    -0.550 OA
ENDBRANCH   7   9
ENDBRANCH   6   7
ENDBRANCH   5   6
ENDBRANCH   4   5
ENDBRANCH   3   4
ENDBRANCH   2   3
ENDBRANCH   1   2
BRANCH   1  12
ATOM     12  C   UNL     1      12.487  30.876  58.032  1.00  0.00     0.000 C 
BRANCH  12  13
ATOM     13  C   UNL     1      13.608  30.223  58.859  1.00  0.00    -0.000 C 
BRANCH  13  14
ATOM     14  C   UNL     1      14.802  29.771  57.998  1.00  0.00    -0.000 C 
BRANCH  14  15
ATOM     15  C   UNL     1      14.708  30.154  56.510  1.00  0.00    -0.000 C 
BRANCH  15  16
ATOM     16  C   UNL     1      15.582  31.364  56.145  1.00  0.00    -0.000 C 
BRANCH  16  17
ATOM     17  C   UNL     1      16.547  31.710  57.285  1.00  0.00    -0.000 C 
BRANCH  17  18
ATOM     18  C   UNL     1      16.227  33.086  57.878  1.00  0.00    -0.003 C 
ATOM     19  C   UNL     1      15.340  33.899  56.939  1.00  0.00     0.004 C 
ENDBRANCH  17  18
ENDBRANCH  16  17
ENDBRANCH  15  16
ENDBRANCH  14  15
ENDBRANCH  13  14
ENDBRANCH  12  13
ENDBRANCH   1  12
TORSDOF 14
ENDMDL
MODEL 3
REMARK VINA RESULT:    -4.730      3.351      5.278
REMARK INTER + INTRA:         -10.768
REMARK INTER:                  -9.010
REMARK INTRA:                  -1.759
REMARK UNBOUND:                -2.167
REMARK SMILES CCCCCCCCCCCCCC[C@@H](C)C(=O)[O-]
REMARK SMILES IDX 9 1 10 2 11 3 12 4 13 5 14 6 15 7 16 8 17 9 18 10 19 11 8 12
REMARK SMILES IDX 7 13 6 14 5 15 4 16 3 17 2 18 1 19
REMARK H PARENT
REMARK Flexibility Score: inf
ROOT
ATOM      1  C   UNL     1      16.210  29.707  62.720  1.00  0.00     0.000 C 
ENDROOT
BRANCH   1   2
ATOM      2  C   UNL     1      14.983  28.945  63.248  1.00  0.00     0.000 C 
BRANCH   2   3
ATOM      3  C   UNL     1      13.700  29.271  62.454  1.00  0.00     0.000 C 
BRANCH   3   4
ATOM      4  C   UNL     1      12.918  28.022  62.005  1.00  0.00     0.000 C 
BRANCH   4   5
ATOM      5  C   UNL     1      12.125  28.191  60.695  1.00  0.00     0.001 C 
BRANCH   5   6
ATOM      6  C   UNL     1      11.233  29.449  60.623  1.00  0.00     0.009 C 
BRANCH   6   7
ATOM      7  C   UNL     1       9.723  29.175  60.425  1.00  0.00     0.032 C 
ATOM      8  C   UNL     1       8.904  29.448  61.695  1.00  0.00     0.014 C 
BRANCH   7   9
ATOM      9  C   UNL     1       9.202  30.014  59.290  1.00  0.00     0.044 C 
ATOM     10  O   UNL     1       9.650  29.861  58.122  1.00  0.00    -0.550 OA
ATOM     11  O   UNL     1       8.205  30.953  59.521  1.00  0.00    -0.550 OA
ENDBRANCH   7   9
ENDBRANCH   6   7
ENDBRANCH   5   6
ENDBRANCH   4   5
ENDBRANCH   3   4
ENDBRANCH   2   3
ENDBRANCH   1   2
BRANCH   1  12
ATOM     12  C   UNL     1      16.572  29.317  61.279  1.00  0.00     0.000 C 
BRANCH  12  13
ATOM     13  C   UNL     1      16.332  30.459  60.277  1.00  0.00    -0.000 C 
BRANCH  13  14
ATOM     14  C   UNL     1      15.252  30.121  59.232  1.00  0.00    -0.000 C 
BRANCH  14  15
ATOM     15  C   UNL     1      14.073  31.109  59.178  1.00  0.00    -0.000 C 
BRANCH  15  16
ATOM     16  C   UNL     1      13.224  30.960  57.906  1.00  0.00    -0.000 C 
BRANCH  16  17
ATOM     17  C   UNL     1      13.932  31.580  56.696  1.00  0.00    -0.000 C 
BRANCH  17  18
ATOM     18  C   UNL     1      14.182  30.530  55.608  1.00  0.00    -0.003 C 
ATOM     19  C   UNL     1      15.672  30.234  55.459  1.00  0.00     0.004 C 
ENDBRANCH  17  18
ENDBRANCH  16  17
ENDBRANCH  15  16
ENDBRANCH  14  15
ENDBRANCH  13  14
ENDBRANCH  12  13
ENDBRANCH   1  12
TORSDOF 14
ENDMDL
MODEL 4
REMARK VINA RESULT:    -4.572      2.800      5.854
REMARK INTER + INTRA:         -10.481
REMARK INTER:                  -8.633
REMARK INTRA:                  -1.847
REMARK UNBOUND:                -2.167
REMARK SMILES CCCCCCCCCCCCCC[C@@H](C)C(=O)[O-]
REMARK SMILES IDX 9 1 10 2 11 3 12 4 13 5 14 6 15 7 16 8 17 9 18 10 19 11 8 12
REMARK SMILES IDX 7 13 6 14 5 15 4 16 3 17 2 18 1 19
REMARK H PARENT
REMARK Flexibility Score: inf
ROOT
ATOM      1  C   UNL     1      12.558  29.757  62.078  1.00  0.00     0.000 C 
ENDROOT
BRANCH   1   2
ATOM      2  C   UNL     1      13.963  30.373  61.961  1.00  0.00     0.000 C 
BRANCH   2   3
ATOM      3  C   UNL     1      15.071  29.301  61.881  1.00  0.00     0.000 C 
BRANCH   3   4
ATOM      4  C   UNL     1      16.263  29.710  60.996  1.00  0.00     0.000 C 
BRANCH   4   5
ATOM      5  C   UNL     1      15.885  30.487  59.720  1.00  0.00     0.001 C 
BRANCH   5   6
ATOM      6  C   UNL     1      15.091  29.683  58.670  1.00  0.00     0.009 C 
BRANCH   6   7
ATOM      7  C   UNL     1      14.059  30.499  57.858  1.00  0.00     0.032 C 
ATOM      8  C   UNL     1      13.902  31.935  58.380  1.00  0.00     0.014 C 
BRANCH   7   9
ATOM      9  C   UNL     1      14.460  30.522  56.408  1.00  0.00     0.044 C 
ATOM     10  O   UNL     1      13.610  30.777  55.512  1.00  0.00    -0.550 OA
ATOM     11  O   UNL     1      15.780  30.281  56.049  1.00  0.00    -0.550 OA
ENDBRANCH   7   9
ENDBRANCH   6   7
ENDBRANCH   5   6
ENDBRANCH   4   5
ENDBRANCH   3   4
ENDBRANCH   2   3
ENDBRANCH   1   2
BRANCH   1  12
ATOM     12  C   UNL     1      12.464  28.372  61.421  1.00  0.00     0.000 C 
BRANCH  12  13
ATOM     13  C   UNL     1      11.895  28.429  59.993  1.00  0.00    -0.000 C 
BRANCH  13  14
ATOM     14  C   UNL     1      11.160  29.748  59.694  1.00  0.00    -0.000 C 
BRANCH  14  15
ATOM     15  C   UNL     1       9.953  29.616  58.747  1.00  0.00    -0.000 C 
BRANCH  15  16
ATOM     16  C   UNL     1       8.623  29.427  59.492  1.00  0.00    -0.000 C 
BRANCH  16  17
ATOM     17  C   UNL     1       8.863  29.016  60.950  1.00  0.00    -0.000 C 
BRANCH  17  18
ATOM     18  C   UNL     1       8.002  29.849  61.905  1.00  0.00    -0.003 C 
ATOM     19  C   UNL     1       6.887  30.571  61.155  1.00  0.00     0.004 C 
ENDBRANCH  17  18
ENDBRANCH  16  17
ENDBRANCH  15  16
ENDBRANCH  14  15
ENDBRANCH  13  14
ENDBRANCH  12  13
ENDBRANCH   1  12
TORSDOF 14
ENDMDL
MODEL 5
REMARK VINA RESULT:    -4.547      2.899      6.138
REMARK INTER + INTRA:         -10.435
REMARK INTER:                  -8.677
REMARK INTRA:                  -1.758
REMARK UNBOUND:                -2.167
REMARK SMILES CCCCCCCCCCCCCC[C@@H](C)C(=O)[O-]
REMARK SMILES IDX 9 1 10 2 11 3 12 4 13 5 14 6 15 7 16 8 17 9 18 10 19 11 8 12
REMARK SMILES IDX 7 13 6 14 5 15 4 16 3 17 2 18 1 19
REMARK H PARENT
REMARK Flexibility Score: inf
ROOT
ATOM      1  C   UNL     1      15.760  30.400  59.447  1.00  0.00     0.000 C 
ENDROOT
BRANCH   1   2
ATOM      2  C   UNL     1      14.515  29.817  58.756  1.00  0.00     0.000 C 
BRANCH   2   3
ATOM      3  C   UNL     1      13.656  30.903  58.073  1.00  0.00     0.000 C 
BRANCH   3   4
ATOM      4  C   UNL     1      14.081  32.340  58.430  1.00  0.00     0.000 C 
BRANCH   4   5
ATOM      5  C   UNL     1      14.705  33.138  57.270  1.00  0.00     0.001 C 
BRANCH   5   6
ATOM      6  C   UNL     1      16.140  33.649  57.518  1.00  0.00     0.009 C 
BRANCH   6   7
ATOM      7  C   UNL     1      17.240  32.953  56.683  1.00  0.00     0.032 C 
ATOM      8  C   UNL     1      18.212  32.141  57.551  1.00  0.00     0.014 C 
BRANCH   7   9
ATOM      9  C   UNL     1      16.605  32.059  55.653  1.00  0.00     0.044 C 
ATOM     10  O   UNL     1      16.220  32.528  54.548  1.00  0.00    -0.550 OA
ATOM     11  O   UNL     1      16.457  30.702  55.908  1.00  0.00    -0.550 OA
ENDBRANCH   7   9
ENDBRANCH   6   7
ENDBRANCH   5   6
ENDBRANCH   4   5
ENDBRANCH   3   4
ENDBRANCH   2   3
ENDBRANCH   1   2
BRANCH   1  12
ATOM     12  C   UNL     1      16.067  29.714  60.787  1.00  0.00     0.000 C 
BRANCH  12  13
ATOM     13  C   UNL     1      14.927  29.870  61.808  1.00  0.00    -0.000 C 
BRANCH  13  14
ATOM     14  C   UNL     1      14.544  28.541  62.485  1.00  0.00    -0.000 C 
BRANCH  14  15
ATOM     15  C   UNL     1      13.113  28.056  62.192  1.00  0.00    -0.000 C 
BRANCH  15  16
ATOM     16  C   UNL     1      12.222  29.148  61.582  1.00  0.00    -0.000 C 
BRANCH  16  17
ATOM     17  C   UNL     1      11.466  28.621  60.357  1.00  0.00    -0.000 C 
BRANCH  17  18
ATOM     18  C   UNL     1      10.329  29.569  59.962  1.00  0.00    -0.003 C 
ATOM     19  C   UNL     1       8.969  28.990  60.345  1.00  0.00     0.004 C 
ENDBRANCH  17  18
ENDBRANCH  16  17
ENDBRANCH  15  16
ENDBRANCH  14  15
ENDBRANCH  13  14
ENDBRANCH  12  13
ENDBRANCH   1  12
TORSDOF 14
ENDMDL
MODEL 6
REMARK VINA RESULT:    -4.511      2.385      5.545
REMARK INTER + INTRA:         -10.370
REMARK INTER:                  -8.165
REMARK INTRA:                  -2.206
REMARK UNBOUND:                -2.167
REMARK SMILES CCCCCCCCCCCCCC[C@@H](C)C(=O)[O-]
REMARK SMILES IDX 9 1 10 2 11 3 12 4 13 5 14 6 15 7 16 8 17 9 18 10 19 11 8 12
REMARK SMILES IDX 7 13 6 14 5 15 4 16 3 17 2 18 1 19
REMARK H PARENT
REMARK Flexibility Score: inf
ROOT
ATOM      1  C   UNL     1      12.675  28.246  61.320  1.00  0.00     0.000 C 
ENDROOT
BRANCH   1   2
ATOM      2  C   UNL     1      12.003  28.326  59.938  1.00  0.00     0.000 C 
BRANCH   2   3
ATOM      3  C   UNL     1      10.792  29.284  59.926  1.00  0.00     0.000 C 
BRANCH   3   4
ATOM      4  C   UNL     1      10.969  30.491  58.987  1.00  0.00     0.000 C 
BRANCH   4   5
ATOM      5  C   UNL     1      12.296  30.513  58.204  1.00  0.00     0.001 C 
BRANCH   5   6
ATOM      6  C   UNL     1      13.293  31.611  58.629  1.00  0.00     0.009 C 
BRANCH   6   7
ATOM      7  C   UNL     1      14.783  31.286  58.368  1.00  0.00     0.032 C 
ATOM      8  C   UNL     1      14.986  29.869  57.812  1.00  0.00     0.014 C 
BRANCH   7   9
ATOM      9  C   UNL     1      15.363  32.297  57.417  1.00  0.00     0.044 C 
ATOM     10  O   UNL     1      15.280  32.125  56.171  1.00  0.00    -0.550 OA
ATOM     11  O   UNL     1      15.979  33.440  57.910  1.00  0.00    -0.550 OA
ENDBRANCH   7   9
ENDBRANCH   6   7
ENDBRANCH   5   6
ENDBRANCH   4   5
ENDBRANCH   3   4
ENDBRANCH   2   3
ENDBRANCH   1   2
BRANCH   1  12
ATOM     12  C   UNL     1      12.494  29.533  62.139  1.00  0.00     0.000 C 
BRANCH  12  13
ATOM     13  C   UNL     1      13.694  30.488  62.017  1.00  0.00    -0.000 C 
BRANCH  13  14
ATOM     14  C   UNL     1      14.979  29.778  61.553  1.00  0.00    -0.000 C 
BRANCH  14  15
ATOM     15  C   UNL     1      16.288  30.439  62.023  1.00  0.00    -0.000 C 
BRANCH  15  16
ATOM     16  C   UNL     1      17.409  29.424  62.292  1.00  0.00    -0.000 C 
BRANCH  16  17
ATOM     17  C   UNL     1      16.833  28.049  62.649  1.00  0.00    -0.000 C 
BRANCH  17  18
ATOM     18  C   UNL     1      16.252  28.047  64.067  1.00  0.00    -0.003 C 
ATOM     19  C   UNL     1      14.934  27.279  64.122  1.00  0.00     0.004 C 
ENDBRANCH  17  18
ENDBRANCH  16  17
ENDBRANCH  15  16
ENDBRANCH  14  15
ENDBRANCH  13  14
ENDBRANCH  12  13
ENDBRANCH   1  12
TORSDOF 14
ENDMDL
MODEL 7
REMARK VINA RESULT:    -4.511      3.535      4.711
REMARK INTER + INTRA:         -10.369
REMARK INTER:                  -9.196
REMARK INTRA:                  -1.173
REMARK UNBOUND:                -2.167
REMARK SMILES CCCCCCCCCCCCCC[C@@H](C)C(=O)[O-]
REMARK SMILES IDX 9 1 10 2 11 3 12 4 13 5 14 6 15 7 16 8 17 9 18 10 19 11 8 12
REMARK SMILES IDX 7 13 6 14 5 15 4 16 3 17 2 18 1 19
REMARK H PARENT
REMARK Flexibility Score: inf
ROOT
ATOM      1  C   UNL     1      15.752  31.247  58.377  1.00  0.00     0.000 C 
ENDROOT
BRANCH   1   2
ATOM      2  C   UNL     1      14.563  30.273  58.317  1.00  0.00     0.000 C 
BRANCH   2   3
ATOM      3  C   UNL     1      13.456  30.631  59.332  1.00  0.00     0.000 C 
BRANCH   3   4
ATOM      4  C   UNL     1      12.686  29.407  59.863  1.00  0.00     0.000 C 
BRANCH   4   5
ATOM      5  C   UNL     1      12.682  29.260  61.397  1.00  0.00     0.001 C 
BRANCH   5   6
ATOM      6  C   UNL     1      13.908  29.855  62.119  1.00  0.00     0.009 C 
BRANCH   6   7
ATOM      7  C   UNL     1      15.154  28.941  62.164  1.00  0.00     0.032 C 
ATOM      8  C   UNL     1      16.407  29.625  61.597  1.00  0.00     0.014 C 
BRANCH   7   9
ATOM      9  C   UNL     1      15.409  28.501  63.580  1.00  0.00     0.044 C 
ATOM     10  O   UNL     1      16.132  29.194  64.346  1.00  0.00    -0.550 OA
ATOM     11  O   UNL     1      14.828  27.333  64.060  1.00  0.00    -0.550 OA
ENDBRANCH   7   9
ENDBRANCH   6   7
ENDBRANCH   5   6
ENDBRANCH   4   5
ENDBRANCH   3   4
ENDBRANCH   2   3
ENDBRANCH   1   2
BRANCH   1  12
ATOM     12  C   UNL     1      15.334  32.705  58.134  1.00  0.00     0.000 C 
BRANCH  12  13
ATOM     13  C   UNL     1      16.463  33.551  57.520  1.00  0.00    -0.000 C 
BRANCH  13  14
ATOM     14  C   UNL     1      16.192  33.938  56.055  1.00  0.00    -0.000 C 
BRANCH  14  15
ATOM     15  C   UNL     1      15.011  34.903  55.848  1.00  0.00    -0.000 C 
BRANCH  15  16
ATOM     16  C   UNL     1      15.438  36.257  55.259  1.00  0.00    -0.000 C 
BRANCH  16  17
ATOM     17  C   UNL     1      16.862  36.621  55.694  1.00  0.00    -0.000 C 
BRANCH  17  18
ATOM     18  C   UNL     1      16.848  37.469  56.971  1.00  0.00    -0.003 C 
ATOM     19  C   UNL     1      17.991  38.480  56.974  1.00  0.00     0.004 C 
ENDBRANCH  17  18
ENDBRANCH  16  17
ENDBRANCH  15  16
ENDBRANCH  14  15
ENDBRANCH  13  14
ENDBRANCH  12  13
ENDBRANCH   1  12
TORSDOF 14
ENDMDL
MODEL 8
REMARK VINA RESULT:    -4.451      1.357      2.407
REMARK INTER + INTRA:         -10.261
REMARK INTER:                  -8.305
REMARK INTRA:                  -1.957
REMARK UNBOUND:                -2.167
REMARK SMILES CCCCCCCCCCCCCC[C@@H](C)C(=O)[O-]
REMARK SMILES IDX 9 1 10 2 11 3 12 4 13 5 14 6 15 7 16 8 17 9 18 10 19 11 8 12
REMARK SMILES IDX 7 13 6 14 5 15 4 16 3 17 2 18 1 19
REMARK H PARENT
REMARK Flexibility Score: inf
ROOT
ATOM      1  C   UNL     1      14.141  29.733  58.664  1.00  0.00     0.000 C 
ENDROOT
BRANCH   1   2
ATOM      2  C   UNL     1      12.793  30.175  59.259  1.00  0.00     0.000 C 
BRANCH   2   3
ATOM      3  C   UNL     1      12.275  29.197  60.336  1.00  0.00     0.000 C 
BRANCH   3   4
ATOM      4  C   UNL     1      12.389  29.744  61.771  1.00  0.00     0.000 C 
BRANCH   4   5
ATOM      5  C   UNL     1      13.832  29.949  62.273  1.00  0.00     0.001 C 
BRANCH   5   6
ATOM      6  C   UNL     1      14.663  28.659  62.435  1.00  0.00     0.009 C 
BRANCH   6   7
ATOM      7  C   UNL     1      16.192  28.838  62.287  1.00  0.00     0.032 C 
ATOM      8  C   UNL     1      16.659  30.249  62.673  1.00  0.00     0.014 C 
BRANCH   7   9
ATOM      9  C   UNL     1      16.905  27.815  63.129  1.00  0.00     0.044 C 
ATOM     10  O   UNL     1      16.425  27.449  64.236  1.00  0.00    -0.550 OA
ATOM     11  O   UNL     1      18.091  27.250  62.678  1.00  0.00    -0.550 OA
ENDBRANCH   7   9
ENDBRANCH   6   7
ENDBRANCH   5   6
ENDBRANCH   4   5
ENDBRANCH   3   4
ENDBRANCH   2   3
ENDBRANCH   1   2
BRANCH   1  12
ATOM     12  C   UNL     1      15.251  30.772  58.882  1.00  0.00     0.000 C 
BRANCH  12  13
ATOM     13  C   UNL     1      14.835  32.187  58.447  1.00  0.00    -0.000 C 
BRANCH  13  14
ATOM     14  C   UNL     1      15.970  32.958  57.750  1.00  0.00    -0.000 C 
BRANCH  14  15
ATOM     15  C   UNL     1      16.976  32.078  56.985  1.00  0.00    -0.000 C 
BRANCH  15  16
ATOM     16  C   UNL     1      16.581  31.852  55.518  1.00  0.00    -0.000 C 
BRANCH  16  17
ATOM     17  C   UNL     1      16.074  30.422  55.298  1.00  0.00    -0.000 C 
BRANCH  17  18
ATOM     18  C   UNL     1      14.545  30.390  55.194  1.00  0.00    -0.003 C 
ATOM     19  C   UNL     1      14.030  31.510  54.293  1.00  0.00     0.004 C 
ENDBRANCH  17  18
ENDBRANCH  16  17
ENDBRANCH  15  16
ENDBRANCH  14  15
ENDBRANCH  13  14
ENDBRANCH  12  13
ENDBRANCH   1  12
TORSDOF 14
ENDMDL
MODEL 9
REMARK VINA RESULT:    -4.438      1.673      3.309
REMARK INTER + INTRA:         -10.237
REMARK INTER:                  -8.199
REMARK INTRA:                  -2.038
REMARK UNBOUND:                -2.167
REMARK SMILES CCCCCCCCCCCCCC[C@@H](C)C(=O)[O-]
REMARK SMILES IDX 9 1 10 2 11 3 12 4 13 5 14 6 15 7 16 8 17 9 18 10 19 11 8 12
REMARK SMILES IDX 7 13 6 14 5 15 4 16 3 17 2 18 1 19
REMARK H PARENT
REMARK Flexibility Score: inf
ROOT
ATOM      1  C   UNL     1      13.470  30.955  57.091  1.00  0.00     0.000 C 
ENDROOT
BRANCH   1   2
ATOM      2  C   UNL     1      13.370  31.435  58.549  1.00  0.00     0.000 C 
BRANCH   2   3
ATOM      3  C   UNL     1      14.005  30.438  59.543  1.00  0.00     0.000 C 
BRANCH   3   4
ATOM      4  C   UNL     1      12.984  29.499  60.213  1.00  0.00     0.000 C 
BRANCH   4   5
ATOM      5  C   UNL     1      13.324  29.102  61.662  1.00  0.00     0.001 C 
BRANCH   5   6
ATOM      6  C   UNL     1      14.307  30.043  62.390  1.00  0.00     0.009 C 
BRANCH   6   7
ATOM      7  C   UNL     1      15.476  29.339  63.117  1.00  0.00     0.032 C 
ATOM      8  C   UNL     1      15.099  27.938  63.618  1.00  0.00     0.014 C 
BRANCH   7   9
ATOM      9  C   UNL     1      16.664  29.251  62.197  1.00  0.00     0.044 C 
ATOM     10  O   UNL     1      16.946  30.203  61.421  1.00  0.00    -0.550 OA
ATOM     11  O   UNL     1      17.472  28.120  62.213  1.00  0.00    -0.550 OA
ENDBRANCH   7   9
ENDBRANCH   6   7
ENDBRANCH   5   6
ENDBRANCH   4   5
ENDBRANCH   3   4
ENDBRANCH   2   3
ENDBRANCH   1   2
BRANCH   1  12
ATOM     12  C   UNL     1      14.670  30.025  56.856  1.00  0.00     0.000 C 
BRANCH  12  13
ATOM     13  C   UNL     1      15.442  30.366  55.570  1.00  0.00    -0.000 C 
BRANCH  13  14
ATOM     14  C   UNL     1      14.704  31.384  54.680  1.00  0.00    -0.000 C 
BRANCH  14  15
ATOM     15  C   UNL     1      15.474  32.690  54.418  1.00  0.00    -0.000 C 
BRANCH  15  16
ATOM     16  C   UNL     1      15.301  33.724  55.542  1.00  0.00    -0.000 C 
BRANCH  16  17
ATOM     17  C   UNL     1      16.583  33.853  56.372  1.00  0.00    -0.000 C 
BRANCH  17  18
ATOM     18  C   UNL     1      16.365  33.352  57.804  1.00  0.00    -0.003 C 
ATOM     19  C   UNL     1      17.318  32.209  58.140  1.00  0.00     0.004 C 
ENDBRANCH  17  18
ENDBRANCH  16  17
ENDBRANCH  15  16
ENDBRANCH  14  15
ENDBRANCH  13  14
ENDBRANCH  12  13
ENDBRANCH   1  12
TORSDOF 14
ENDMDL
