MODEL 1
REMARK VINA RESULT:    -3.177      0.000      0.000
REMARK INTER + INTRA:          -3.572
REMARK INTER:                  -3.548
REMARK INTRA:                  -0.024
REMARK UNBOUND:                -0.024
REMARK SMILES CCCC(=O)[O-]
REMARK SMILES IDX 3 1 4 2 5 3 6 4 2 5 1 6
REMARK H PARENT
REMARK Flexibility Score: inf
ROOT
ATOM      1  C   UNL     1      16.356  12.834  -6.705  1.00  0.00     0.052 C 
ENDROOT
BRANCH   1   2
ATOM      2  C   UNL     1      16.755  13.903  -5.736  1.00  0.00     0.041 C 
ATOM      3  O   UNL     1      17.678  13.692  -4.905  1.00  0.00    -0.550 OA
ATOM      4  O   UNL     1      16.142  15.148  -5.783  1.00  0.00    -0.550 OA
ENDBRANCH   1   2
BRANCH   1   5
ATOM      5  C   UNL     1      15.021  13.183  -7.367  1.00  0.00     0.003 C 
ATOM      6  C   UNL     1      15.052  12.883  -8.862  1.00  0.00     0.004 C 
ENDBRANCH   1   5
TORSDOF 2
ENDMDL
MODEL 2
REMARK VINA RESULT:    -3.171      0.126      1.325
REMARK INTER + INTRA:          -3.566
REMARK INTER:                  -3.536
REMARK INTRA:                  -0.030
REMARK UNBOUND:                -0.024
REMARK SMILES CCCC(=O)[O-]
REMARK SMILES IDX 3 1 4 2 5 3 6 4 2 5 1 6
REMARK H PARENT
REMARK Flexibility Score: inf
ROOT
ATOM      1  C   UNL     1      16.318  12.886  -6.587  1.00  0.00     0.052 C 
ENDROOT
BRANCH   1   2
ATOM      2  C   UNL     1      16.735  14.024  -5.709  1.00  0.00     0.041 C 
ATOM      3  O   UNL     1      16.158  15.139  -5.802  1.00  0.00    -0.550 OA
ATOM      4  O   UNL     1      17.727  13.839  -4.756  1.00  0.00    -0.550 OA
ENDBRANCH   1   2
BRANCH   1   5
ATOM      5  C   UNL     1      15.001  13.211  -7.296  1.00  0.00     0.003 C 
ATOM      6  C   UNL     1      15.093  12.918  -8.791  1.00  0.00     0.004 C 
ENDBRANCH   1   5
TORSDOF 2
ENDMDL
MODEL 3
REMARK VINA RESULT:    -3.058      9.148      9.645
REMARK INTER + INTRA:          -3.440
REMARK INTER:                  -3.385
REMARK INTRA:                  -0.055
REMARK UNBOUND:                -0.024
REMARK SMILES CCCC(=O)[O-]
REMARK SMILES IDX 3 1 4 2 5 3 6 4 2 5 1 6
REMARK H PARENT
REMARK Flexibility Score: inf
ROOT
ATOM      1  C   UNL     1      16.386   4.514  -7.159  1.00  0.00     0.052 C 
ENDROOT
BRANCH   1   2
ATOM      2  C   UNL     1      15.997   3.457  -6.174  1.00  0.00     0.041 C 
ATOM      3  O   UNL     1      16.401   3.522  -4.983  1.00  0.00    -0.550 OA
ATOM      4  O   UNL     1      15.149   2.427  -6.558  1.00  0.00    -0.550 OA
ENDBRANCH   1   2
BRANCH   1   5
ATOM      5  C   UNL     1      15.772   5.861  -6.770  1.00  0.00     0.003 C 
ATOM      6  C   UNL     1      14.250   5.776  -6.709  1.00  0.00     0.004 C 
ENDBRANCH   1   5
TORSDOF 2
ENDMDL
MODEL 4
REMARK VINA RESULT:    -3.002      1.178      1.692
REMARK INTER + INTRA:          -3.377
REMARK INTER:                  -3.366
REMARK INTRA:                  -0.012
REMARK UNBOUND:                -0.024
REMARK SMILES CCCC(=O)[O-]
REMARK SMILES IDX 3 1 4 2 5 3 6 4 2 5 1 6
REMARK H PARENT
REMARK Flexibility Score: inf
ROOT
ATOM      1  C   UNL     1      16.010  13.483  -6.506  1.00  0.00     0.052 C 
ENDROOT
BRANCH   1   2
ATOM      2  C   UNL     1      17.110  13.024  -5.602  1.00  0.00     0.041 C 
ATOM      3  O   UNL     1      17.659  13.835  -4.810  1.00  0.00    -0.550 OA
ATOM      4  O   UNL     1      17.496  11.690  -5.599  1.00  0.00    -0.550 OA
ENDBRANCH   1   2
BRANCH   1   5
ATOM      5  C   UNL     1      16.202  12.915  -7.915  1.00  0.00     0.003 C 
ATOM      6  C   UNL     1      14.883  12.883  -8.680  1.00  0.00     0.004 C 
ENDBRANCH   1   5
TORSDOF 2
ENDMDL
MODEL 5
REMARK VINA RESULT:    -2.952      8.589      9.136
REMARK INTER + INTRA:          -3.321
REMARK INTER:                  -3.311
REMARK INTRA:                  -0.009
REMARK UNBOUND:                -0.024
REMARK SMILES CCCC(=O)[O-]
REMARK SMILES IDX 3 1 4 2 5 3 6 4 2 5 1 6
REMARK H PARENT
REMARK Flexibility Score: inf
ROOT
ATOM      1  C   UNL     1      15.641   4.302  -6.347  1.00  0.00     0.052 C 
ENDROOT
BRANCH   1   2
ATOM      2  C   UNL     1      17.101   4.189  -6.044  1.00  0.00     0.041 C 
ATOM      3  O   UNL     1      17.930   4.934  -6.631  1.00  0.00    -0.550 OA
ATOM      4  O   UNL     1      17.544   3.296  -5.077  1.00  0.00    -0.550 OA
ENDBRANCH   1   2
BRANCH   1   5
ATOM      5  C   UNL     1      15.281   5.741  -6.726  1.00  0.00     0.003 C 
ATOM      6  C   UNL     1      13.769   5.945  -6.744  1.00  0.00     0.004 C 
ENDBRANCH   1   5
TORSDOF 2
ENDMDL
MODEL 6
REMARK VINA RESULT:    -2.894      2.317      3.317
REMARK INTER + INTRA:          -3.256
REMARK INTER:                  -3.234
REMARK INTRA:                  -0.022
REMARK UNBOUND:                -0.024
REMARK SMILES CCCC(=O)[O-]
REMARK SMILES IDX 3 1 4 2 5 3 6 4 2 5 1 6
REMARK H PARENT
REMARK Flexibility Score: inf
ROOT
ATOM      1  C   UNL     1      15.920  13.105  -6.405  1.00  0.00     0.052 C 
ENDROOT
BRANCH   1   2
ATOM      2  C   UNL     1      15.854  12.943  -7.890  1.00  0.00     0.041 C 
ATOM      3  O   UNL     1      16.910  12.945  -8.576  1.00  0.00    -0.550 OA
ATOM      4  O   UNL     1      14.630  12.742  -8.514  1.00  0.00    -0.550 OA
ENDBRANCH   1   2
BRANCH   1   5
ATOM      5  C   UNL     1      16.379  14.518  -6.039  1.00  0.00     0.003 C 
ATOM      6  C   UNL     1      17.404  14.490  -4.909  1.00  0.00     0.004 C 
ENDBRANCH   1   5
TORSDOF 2
ENDMDL
MODEL 7
REMARK VINA RESULT:    -2.747      9.222      9.664
REMARK INTER + INTRA:          -3.092
REMARK INTER:                  -3.054
REMARK INTRA:                  -0.038
REMARK UNBOUND:                -0.024
REMARK SMILES CCCC(=O)[O-]
REMARK SMILES IDX 3 1 4 2 5 3 6 4 2 5 1 6
REMARK H PARENT
REMARK Flexibility Score: inf
ROOT
ATOM      1  C   UNL     1      15.909   3.947  -5.790  1.00  0.00     0.052 C 
ENDROOT
BRANCH   1   2
ATOM      2  C   UNL     1      15.566   5.142  -6.622  1.00  0.00     0.041 C 
ATOM      3  O   UNL     1      16.405   5.610  -7.437  1.00  0.00    -0.550 OA
ATOM      4  O   UNL     1      14.302   5.710  -6.535  1.00  0.00    -0.550 OA
ENDBRANCH   1   2
BRANCH   1   5
ATOM      5  C   UNL     1      15.745   2.662  -6.605  1.00  0.00     0.003 C 
ATOM      6  C   UNL     1      17.098   2.119  -7.057  1.00  0.00     0.004 C 
ENDBRANCH   1   5
TORSDOF 2
ENDMDL
MODEL 8
REMARK VINA RESULT:    -2.742      1.703      2.376
REMARK INTER + INTRA:          -3.087
REMARK INTER:                  -3.047
REMARK INTRA:                  -0.040
REMARK UNBOUND:                -0.024
REMARK SMILES CCCC(=O)[O-]
REMARK SMILES IDX 3 1 4 2 5 3 6 4 2 5 1 6
REMARK H PARENT
REMARK Flexibility Score: inf
ROOT
ATOM      1  C   UNL     1      15.971  13.592  -6.346  1.00  0.00     0.052 C 
ENDROOT
BRANCH   1   2
ATOM      2  C   UNL     1      16.693  14.884  -6.130  1.00  0.00     0.041 C 
ATOM      3  O   UNL     1      16.253  15.726  -5.303  1.00  0.00    -0.550 OA
ATOM      4  O   UNL     1      17.879  15.139  -6.805  1.00  0.00    -0.550 OA
ENDBRANCH   1   2
BRANCH   1   5
ATOM      5  C   UNL     1      16.922  12.535  -6.912  1.00  0.00     0.003 C 
ATOM      6  C   UNL     1      17.621  11.767  -5.794  1.00  0.00     0.004 C 
ENDBRANCH   1   5
TORSDOF 2
ENDMDL
MODEL 9
REMARK VINA RESULT:    -2.647      1.916      3.534
REMARK INTER + INTRA:          -2.980
REMARK INTER:                  -2.946
REMARK INTRA:                  -0.033
REMARK UNBOUND:                -0.024
REMARK SMILES CCCC(=O)[O-]
REMARK SMILES IDX 3 1 4 2 5 3 6 4 2 5 1 6
REMARK H PARENT
REMARK Flexibility Score: inf
ROOT
ATOM      1  C   UNL     1      16.361  14.711  -5.859  1.00  0.00     0.052 C 
ENDROOT
BRANCH   1   2
ATOM      2  C   UNL     1      16.121  13.302  -6.301  1.00  0.00     0.041 C 
ATOM      3  O   UNL     1      15.193  13.042  -7.112  1.00  0.00    -0.550 OA
ATOM      4  O   UNL     1      16.953  12.283  -5.858  1.00  0.00    -0.550 OA
ENDBRANCH   1   2
BRANCH   1   5
ATOM      5  C   UNL     1      17.854  15.045  -5.918  1.00  0.00     0.003 C 
ATOM      6  C   UNL     1      18.442  15.190  -4.517  1.00  0.00     0.004 C 
ENDBRANCH   1   5
TORSDOF 2
ENDMDL
