MODEL 1
REMARK VINA RESULT:     4.078      0.000      0.000
REMARK INTER + INTRA:           4.541
REMARK INTER:                   4.555
REMARK INTRA:                  -0.014
REMARK UNBOUND:                -0.014
REMARK SMILES COc1cc2ccc(=O)oc2c(O)c1O
REMARK SMILES IDX 3 1 14 2 12 3 11 4 5 5 4 6 6 7 7 8 8 9 9 10 10 11 2 12 1 13
REMARK SMILES IDX 15 14 13 16
REMARK H PARENT 15 15 13 17
REMARK Flexibility Score: inf
ROOT
ATOM      1  C   UNL     1      17.770  98.781   8.558  1.00  0.00     0.165 A 
ATOM      2  C   UNL     1      16.492  98.708   9.137  1.00  0.00     0.204 A 
ATOM      3  C   UNL     1      15.882  97.447   9.357  1.00  0.00     0.205 A 
ATOM      4  C   UNL     1      16.562  96.278   8.991  1.00  0.00     0.184 A 
ATOM      5  C   UNL     1      17.845  96.355   8.410  1.00  0.00     0.025 A 
ATOM      6  C   UNL     1      18.443  97.600   8.196  1.00  0.00     0.062 A 
ATOM      7  C   UNL     1      18.493  95.165   8.058  1.00  0.00     0.020 A 
ATOM      8  C   UNL     1      17.859  93.946   8.289  1.00  0.00     0.094 A 
ATOM      9  C   UNL     1      16.587  93.944   8.870  1.00  0.00     0.336 A 
ATOM     10  O   UNL     1      15.997  92.854   9.088  1.00  0.00    -0.246 OA
ATOM     11  O   UNL     1      15.994  95.090   9.195  1.00  0.00    -0.419 OA
ENDROOT
BRANCH   1  12
ATOM     12  O   UNL     1      18.337 100.050   8.359  1.00  0.00    -0.493 OA
ATOM     13  C   UNL     1      19.117 100.747   9.326  1.00  0.00     0.278 C 
ENDBRANCH   1  12
BRANCH   2  14
ATOM     14  O   UNL     1      15.864  99.908   9.481  1.00  0.00    -0.502 OA
ATOM     15  H   UNL     1      16.236 100.824   9.277  1.00  0.00     0.293 HD
ENDBRANCH   2  14
BRANCH   3  16
ATOM     16  O   UNL     1      14.615  97.315   9.929  1.00  0.00    -0.502 OA
ATOM     17  H   UNL     1      14.184  96.431  10.159  1.00  0.00     0.293 HD
ENDBRANCH   3  16
TORSDOF 3
ENDMDL
MODEL 2
REMARK VINA RESULT:     4.684      1.230      4.711
REMARK INTER + INTRA:           5.217
REMARK INTER:                   5.271
REMARK INTRA:                  -0.054
REMARK UNBOUND:                -0.014
REMARK SMILES COc1cc2ccc(=O)oc2c(O)c1O
REMARK SMILES IDX 3 1 14 2 12 3 11 4 5 5 4 6 6 7 7 8 8 9 9 10 10 11 2 12 1 13
REMARK SMILES IDX 15 14 13 16
REMARK H PARENT 15 15 13 17
REMARK Flexibility Score: inf
ROOT
ATOM      1  C   UNL     1      17.818  94.629   8.197  1.00  0.00     0.165 A 
ATOM      2  C   UNL     1      16.536  94.783   8.753  1.00  0.00     0.204 A 
ATOM      3  C   UNL     1      16.065  96.074   9.103  1.00  0.00     0.205 A 
ATOM      4  C   UNL     1      16.884  97.190   8.892  1.00  0.00     0.184 A 
ATOM      5  C   UNL     1      18.170  97.031   8.334  1.00  0.00     0.025 A 
ATOM      6  C   UNL     1      18.631  95.757   7.989  1.00  0.00     0.062 A 
ATOM      7  C   UNL     1      18.959  98.170   8.138  1.00  0.00     0.020 A 
ATOM      8  C   UNL     1      18.460  99.420   8.497  1.00  0.00     0.094 A 
ATOM      9  C   UNL     1      17.176  99.504   9.045  1.00  0.00     0.336 A 
ATOM     10  O   UNL     1      16.705 100.623   9.374  1.00  0.00    -0.246 OA
ATOM     11  O   UNL     1      16.447  98.405   9.220  1.00  0.00    -0.419 OA
ENDROOT
BRANCH   1  12
ATOM     12  O   UNL     1      18.245  93.333   7.864  1.00  0.00    -0.493 OA
ATOM     13  C   UNL     1      19.608  92.927   7.782  1.00  0.00     0.278 C 
ENDBRANCH   1  12
BRANCH   2  14
ATOM     14  O   UNL     1      15.766  93.632   8.939  1.00  0.00    -0.502 OA
ATOM     15  H   UNL     1      16.044  92.846   9.508  1.00  0.00     0.293 HD
ENDBRANCH   2  14
BRANCH   3  16
ATOM     16  O   UNL     1      14.801  96.286   9.659  1.00  0.00    -0.502 OA
ATOM     17  H   UNL     1      14.634  96.478  10.636  1.00  0.00     0.293 HD
ENDBRANCH   3  16
TORSDOF 3
ENDMDL
MODEL 3
REMARK VINA RESULT:     4.786      1.945      4.785
REMARK INTER + INTRA:           5.331
REMARK INTER:                   5.292
REMARK INTRA:                   0.040
REMARK UNBOUND:                -0.014
REMARK SMILES COc1cc2ccc(=O)oc2c(O)c1O
REMARK SMILES IDX 3 1 14 2 12 3 11 4 5 5 4 6 6 7 7 8 8 9 9 10 10 11 2 12 1 13
REMARK SMILES IDX 15 14 13 16
REMARK H PARENT 15 15 13 17
REMARK Flexibility Score: inf
ROOT
ATOM      1  C   UNL     1      18.168  94.536   7.960  1.00  0.00     0.165 A 
ATOM      2  C   UNL     1      18.805  95.761   7.696  1.00  0.00     0.204 A 
ATOM      3  C   UNL     1      18.200  96.977   8.103  1.00  0.00     0.205 A 
ATOM      4  C   UNL     1      16.968  96.948   8.768  1.00  0.00     0.184 A 
ATOM      5  C   UNL     1      16.332  95.717   9.031  1.00  0.00     0.025 A 
ATOM      6  C   UNL     1      16.931  94.520   8.629  1.00  0.00     0.062 A 
ATOM      7  C   UNL     1      15.102  95.728   9.698  1.00  0.00     0.020 A 
ATOM      8  C   UNL     1      14.541  96.945  10.080  1.00  0.00     0.094 A 
ATOM      9  C   UNL     1      15.227  98.128   9.787  1.00  0.00     0.336 A 
ATOM     10  O   UNL     1      14.738  99.237  10.125  1.00  0.00    -0.246 OA
ATOM     11  O   UNL     1      16.396  98.088   9.153  1.00  0.00    -0.419 OA
ENDROOT
BRANCH   1  12
ATOM     12  O   UNL     1      18.802  93.355   7.540  1.00  0.00    -0.493 OA
ATOM     13  C   UNL     1      19.852  92.704   8.250  1.00  0.00     0.278 C 
ENDBRANCH   1  12
BRANCH   2  14
ATOM     14  O   UNL     1      20.033  95.726   7.029  1.00  0.00    -0.502 OA
ATOM     15  H   UNL     1      20.142  95.827   6.031  1.00  0.00     0.293 HD
ENDBRANCH   2  14
BRANCH   3  16
ATOM     16  O   UNL     1      18.788  98.223   7.867  1.00  0.00    -0.502 OA
ATOM     17  H   UNL     1      19.641  98.541   8.303  1.00  0.00     0.293 HD
ENDBRANCH   3  16
TORSDOF 3
ENDMDL
MODEL 4
REMARK VINA RESULT:     5.143      1.756      3.034
REMARK INTER + INTRA:           5.730
REMARK INTER:                   5.782
REMARK INTRA:                  -0.052
REMARK UNBOUND:                -0.014
REMARK SMILES COc1cc2ccc(=O)oc2c(O)c1O
REMARK SMILES IDX 3 1 14 2 12 3 11 4 5 5 4 6 6 7 7 8 8 9 9 10 10 11 2 12 1 13
REMARK SMILES IDX 15 14 13 16
REMARK H PARENT 15 15 13 17
REMARK Flexibility Score: inf
ROOT
ATOM      1  C   UNL     1      16.659  98.037   9.027  1.00  0.00     0.165 A 
ATOM      2  C   UNL     1      17.882  98.307   8.390  1.00  0.00     0.204 A 
ATOM      3  C   UNL     1      18.702  97.239   7.946  1.00  0.00     0.205 A 
ATOM      4  C   UNL     1      18.285  95.918   8.148  1.00  0.00     0.184 A 
ATOM      5  C   UNL     1      17.057  95.650   8.788  1.00  0.00     0.025 A 
ATOM      6  C   UNL     1      16.251  96.705   9.224  1.00  0.00     0.062 A 
ATOM      7  C   UNL     1      16.675  94.316   8.971  1.00  0.00     0.020 A 
ATOM      8  C   UNL     1      17.510  93.296   8.522  1.00  0.00     0.094 A 
ATOM      9  C   UNL     1      18.714  93.634   7.895  1.00  0.00     0.336 A 
ATOM     10  O   UNL     1      19.482  92.728   7.481  1.00  0.00    -0.246 OA
ATOM     11  O   UNL     1      19.053  94.910   7.733  1.00  0.00    -0.419 OA
ENDROOT
BRANCH   1  12
ATOM     12  O   UNL     1      15.876  99.124   9.450  1.00  0.00    -0.493 OA
ATOM     13  C   UNL     1      14.627  99.007  10.125  1.00  0.00     0.278 C 
ENDBRANCH   1  12
BRANCH   2  14
ATOM     14  O   UNL     1      18.243  99.646   8.217  1.00  0.00    -0.502 OA
ATOM     15  H   UNL     1      17.588 100.413   8.184  1.00  0.00     0.293 HD
ENDBRANCH   2  14
BRANCH   3  16
ATOM     16  O   UNL     1      19.927  97.449   7.307  1.00  0.00    -0.502 OA
ATOM     17  H   UNL     1      20.826  97.354   7.756  1.00  0.00     0.293 HD
ENDBRANCH   3  16
TORSDOF 3
ENDMDL
MODEL 5
REMARK VINA RESULT:     5.278      1.171      4.661
REMARK INTER + INTRA:           5.881
REMARK INTER:                   5.938
REMARK INTRA:                  -0.058
REMARK UNBOUND:                -0.014
REMARK SMILES COc1cc2ccc(=O)oc2c(O)c1O
REMARK SMILES IDX 3 1 14 2 12 3 11 4 5 5 4 6 6 7 7 8 8 9 9 10 10 11 2 12 1 13
REMARK SMILES IDX 15 14 13 16
REMARK H PARENT 15 15 13 17
REMARK Flexibility Score: inf
ROOT
ATOM      1  C   UNL     1      16.065  95.188   8.945  1.00  0.00     0.165 A 
ATOM      2  C   UNL     1      15.178  96.171   9.417  1.00  0.00     0.204 A 
ATOM      3  C   UNL     1      15.577  97.531   9.447  1.00  0.00     0.205 A 
ATOM      4  C   UNL     1      16.857  97.887   9.004  1.00  0.00     0.184 A 
ATOM      5  C   UNL     1      17.744  96.898   8.531  1.00  0.00     0.025 A 
ATOM      6  C   UNL     1      17.348  95.558   8.502  1.00  0.00     0.062 A 
ATOM      7  C   UNL     1      19.015  97.292   8.096  1.00  0.00     0.020 A 
ATOM      8  C   UNL     1      19.368  98.639   8.143  1.00  0.00     0.094 A 
ATOM      9  C   UNL     1      18.438  99.566   8.624  1.00  0.00     0.336 A 
ATOM     10  O   UNL     1      18.736 100.787   8.674  1.00  0.00    -0.246 OA
ATOM     11  O   UNL     1      17.236  99.164   9.030  1.00  0.00    -0.419 OA
ENDROOT
BRANCH   1  12
ATOM     12  O   UNL     1      15.630  93.853   8.932  1.00  0.00    -0.493 OA
ATOM     13  C   UNL     1      16.444  92.734   9.271  1.00  0.00     0.278 C 
ENDBRANCH   1  12
BRANCH   2  14
ATOM     14  O   UNL     1      13.915  95.754   9.845  1.00  0.00    -0.502 OA
ATOM     15  H   UNL     1      13.267  95.225   9.280  1.00  0.00     0.293 HD
ENDBRANCH   2  14
BRANCH   3  16
ATOM     16  O   UNL     1      14.737  98.549   9.906  1.00  0.00    -0.502 OA
ATOM     17  H   UNL     1      14.776  98.943  10.835  1.00  0.00     0.293 HD
ENDBRANCH   3  16
TORSDOF 3
ENDMDL
MODEL 6
REMARK VINA RESULT:     5.542      1.553      2.910
REMARK INTER + INTRA:           6.176
REMARK INTER:                   6.246
REMARK INTRA:                  -0.070
REMARK UNBOUND:                -0.014
REMARK SMILES COc1cc2ccc(=O)oc2c(O)c1O
REMARK SMILES IDX 3 1 14 2 12 3 11 4 5 5 4 6 6 7 7 8 8 9 9 10 10 11 2 12 1 13
REMARK SMILES IDX 15 14 13 16
REMARK H PARENT 15 15 13 17
REMARK Flexibility Score: inf
ROOT
ATOM      1  C   UNL     1      17.801  98.441   8.571  1.00  0.00     0.165 A 
ATOM      2  C   UNL     1      18.388  97.263   8.078  1.00  0.00     0.204 A 
ATOM      3  C   UNL     1      17.720  96.021   8.227  1.00  0.00     0.205 A 
ATOM      4  C   UNL     1      16.475  95.978   8.868  1.00  0.00     0.184 A 
ATOM      5  C   UNL     1      15.889  97.162   9.361  1.00  0.00     0.025 A 
ATOM      6  C   UNL     1      16.550  98.385   9.212  1.00  0.00     0.062 A 
ATOM      7  C   UNL     1      14.644  97.079   9.996  1.00  0.00     0.020 A 
ATOM      8  C   UNL     1      14.022  95.839  10.123  1.00  0.00     0.094 A 
ATOM      9  C   UNL     1      14.660  94.706   9.610  1.00  0.00     0.336 A 
ATOM     10  O   UNL     1      14.115  93.577   9.714  1.00  0.00    -0.246 OA
ATOM     11  O   UNL     1      15.843  94.814   9.011  1.00  0.00    -0.419 OA
ENDROOT
BRANCH   1  12
ATOM     12  O   UNL     1      18.496  99.650   8.401  1.00  0.00    -0.493 OA
ATOM     13  C   UNL     1      19.150 100.360   9.448  1.00  0.00     0.278 C 
ENDBRANCH   1  12
BRANCH   2  14
ATOM     14  O   UNL     1      19.630  97.370   7.448  1.00  0.00    -0.502 OA
ATOM     15  H   UNL     1      19.894  98.125   6.832  1.00  0.00     0.293 HD
ENDBRANCH   2  14
BRANCH   3  16
ATOM     16  O   UNL     1      18.256  94.819   7.757  1.00  0.00    -0.502 OA
ATOM     17  H   UNL     1      19.225  94.553   7.852  1.00  0.00     0.293 HD
ENDBRANCH   3  16
TORSDOF 3
ENDMDL
MODEL 7
REMARK VINA RESULT:     5.706      1.935      4.856
REMARK INTER + INTRA:           6.359
REMARK INTER:                   6.414
REMARK INTRA:                  -0.055
REMARK UNBOUND:                -0.014
REMARK SMILES COc1cc2ccc(=O)oc2c(O)c1O
REMARK SMILES IDX 3 1 14 2 12 3 11 4 5 5 4 6 6 7 7 8 8 9 9 10 10 11 2 12 1 13
REMARK SMILES IDX 15 14 13 16
REMARK H PARENT 15 15 13 17
REMARK Flexibility Score: inf
ROOT
ATOM      1  C   UNL     1      15.155  95.652   9.564  1.00  0.00     0.165 A 
ATOM      2  C   UNL     1      15.906  94.606   9.002  1.00  0.00     0.204 A 
ATOM      3  C   UNL     1      17.192  94.865   8.463  1.00  0.00     0.205 A 
ATOM      4  C   UNL     1      17.705  96.168   8.495  1.00  0.00     0.184 A 
ATOM      5  C   UNL     1      16.947  97.215   9.060  1.00  0.00     0.025 A 
ATOM      6  C   UNL     1      15.681  96.956   9.591  1.00  0.00     0.062 A 
ATOM      7  C   UNL     1      17.494  98.504   9.074  1.00  0.00     0.020 A 
ATOM      8  C   UNL     1      18.760  98.717   8.533  1.00  0.00     0.094 A 
ATOM      9  C   UNL     1      19.455  97.633   7.990  1.00  0.00     0.336 A 
ATOM     10  O   UNL     1      20.600  97.803   7.497  1.00  0.00    -0.246 OA
ATOM     11  O   UNL     1      18.912  96.418   7.990  1.00  0.00    -0.419 OA
ENDROOT
BRANCH   1  12
ATOM     12  O   UNL     1      13.887  95.351  10.088  1.00  0.00    -0.493 OA
ATOM     13  C   UNL     1      12.791  96.260  10.125  1.00  0.00     0.278 C 
ENDBRANCH   1  12
BRANCH   2  14
ATOM     14  O   UNL     1      15.341  93.327   9.000  1.00  0.00    -0.502 OA
ATOM     15  H   UNL     1      14.906  92.898   8.196  1.00  0.00     0.293 HD
ENDBRANCH   2  14
BRANCH   3  16
ATOM     16  O   UNL     1      17.983  93.864   7.893  1.00  0.00    -0.502 OA
ATOM     17  H   UNL     1      18.184  92.978   8.333  1.00  0.00     0.293 HD
ENDBRANCH   3  16
TORSDOF 3
ENDMDL
MODEL 8
REMARK VINA RESULT:     5.925      2.024      3.657
REMARK INTER + INTRA:           6.604
REMARK INTER:                   6.657
REMARK INTRA:                  -0.053
REMARK UNBOUND:                -0.014
REMARK SMILES COc1cc2ccc(=O)oc2c(O)c1O
REMARK SMILES IDX 3 1 14 2 12 3 11 4 5 5 4 6 6 7 7 8 8 9 9 10 10 11 2 12 1 13
REMARK SMILES IDX 15 14 13 16
REMARK H PARENT 15 15 13 17
REMARK Flexibility Score: inf
ROOT
ATOM      1  C   UNL     1      15.306  96.703   9.525  1.00  0.00     0.165 A 
ATOM      2  C   UNL     1      16.097  97.822   9.211  1.00  0.00     0.204 A 
ATOM      3  C   UNL     1      17.366  97.647   8.603  1.00  0.00     0.205 A 
ATOM      4  C   UNL     1      17.824  96.354   8.320  1.00  0.00     0.184 A 
ATOM      5  C   UNL     1      17.027  95.234   8.636  1.00  0.00     0.025 A 
ATOM      6  C   UNL     1      15.777  95.410   9.235  1.00  0.00     0.062 A 
ATOM      7  C   UNL     1      17.519  93.958   8.337  1.00  0.00     0.020 A 
ATOM      8  C   UNL     1      18.772  93.828   7.742  1.00  0.00     0.094 A 
ATOM      9  C   UNL     1      19.507  94.982   7.455  1.00  0.00     0.336 A 
ATOM     10  O   UNL     1      20.640  94.888   6.916  1.00  0.00    -0.246 OA
ATOM     11  O   UNL     1      19.016  96.183   7.749  1.00  0.00    -0.419 OA
ENDROOT
BRANCH   1  12
ATOM     12  O   UNL     1      14.055  96.922  10.125  1.00  0.00    -0.493 OA
ATOM     13  C   UNL     1      12.983  95.984  10.125  1.00  0.00     0.278 C 
ENDBRANCH   1  12
BRANCH   2  14
ATOM     14  O   UNL     1      15.586  99.086   9.517  1.00  0.00    -0.502 OA
ATOM     15  H   UNL     1      14.724  99.458   9.144  1.00  0.00     0.293 HD
ENDBRANCH   2  14
BRANCH   3  16
ATOM     16  O   UNL     1      18.193  98.722   8.269  1.00  0.00    -0.502 OA
ATOM     17  H   UNL     1      18.532  98.911   7.337  1.00  0.00     0.293 HD
ENDBRANCH   3  16
TORSDOF 3
ENDMDL
MODEL 9
REMARK VINA RESULT:     6.236      1.653      5.444
REMARK INTER + INTRA:           6.951
REMARK INTER:                   7.003
REMARK INTRA:                  -0.052
REMARK UNBOUND:                -0.014
REMARK SMILES COc1cc2ccc(=O)oc2c(O)c1O
REMARK SMILES IDX 3 1 14 2 12 3 11 4 5 5 4 6 6 7 7 8 8 9 9 10 10 11 2 12 1 13
REMARK SMILES IDX 15 14 13 16
REMARK H PARENT 15 15 13 17
REMARK Flexibility Score: inf
ROOT
ATOM      1  C   UNL     1      16.878  94.770   8.633  1.00  0.00     0.165 A 
ATOM      2  C   UNL     1      18.124  94.874   7.990  1.00  0.00     0.204 A 
ATOM      3  C   UNL     1      18.723  96.145   7.804  1.00  0.00     0.205 A 
ATOM      4  C   UNL     1      18.066  97.293   8.263  1.00  0.00     0.184 A 
ATOM      5  C   UNL     1      16.816  97.186   8.908  1.00  0.00     0.025 A 
ATOM      6  C   UNL     1      16.228  95.931   9.090  1.00  0.00     0.062 A 
ATOM      7  C   UNL     1      16.191  98.355   9.354  1.00  0.00     0.020 A 
ATOM      8  C   UNL     1      16.813  99.586   9.150  1.00  0.00     0.094 A 
ATOM      9  C   UNL     1      18.052  99.618   8.504  1.00  0.00     0.336 A 
ATOM     10  O   UNL     1      18.631 100.718   8.311  1.00  0.00    -0.246 OA
ATOM     11  O   UNL     1      18.625  98.490   8.090  1.00  0.00    -0.419 OA
ENDROOT
BRANCH   1  12
ATOM     12  O   UNL     1      16.321  93.492   8.797  1.00  0.00    -0.493 OA
ATOM     13  C   UNL     1      15.033  93.237   9.349  1.00  0.00     0.278 C 
ENDBRANCH   1  12
BRANCH   2  14
ATOM     14  O   UNL     1      18.731  93.693   7.554  1.00  0.00    -0.502 OA
ATOM     15  H   UNL     1      19.693  93.447   7.733  1.00  0.00     0.293 HD
ENDBRANCH   2  14
BRANCH   3  16
ATOM     16  O   UNL     1      19.959  96.307   7.172  1.00  0.00    -0.502 OA
ATOM     17  H   UNL     1      20.109  96.197   6.179  1.00  0.00     0.293 HD
ENDBRANCH   3  16
TORSDOF 3
ENDMDL
