MODEL 1
REMARK VINA RESULT:    -3.941      0.000      0.000
REMARK INTER + INTRA:          -6.741
REMARK INTER:                  -5.784
REMARK INTRA:                  -0.957
REMARK UNBOUND:                -0.957
REMARK SMILES CCCCCCCCCC=O
REMARK SMILES IDX 6 1 5 2 4 3 3 4 2 5 1 6 7 7 8 8 9 9 10 10 11 11
REMARK H PARENT
REMARK Flexibility Score: inf
ROOT
ATOM      1  C   UNL     1     119.566 121.254 119.780  1.00  0.00     0.000 C 
ENDROOT
BRANCH   1   2
ATOM      2  C   UNL     1     119.798 120.546 118.436  1.00  0.00     0.000 C 
BRANCH   2   3
ATOM      3  C   UNL     1     120.072 119.051 118.642  1.00  0.00    -0.000 C 
BRANCH   3   4
ATOM      4  C   UNL     1     119.566 118.230 117.447  1.00  0.00    -0.000 C 
BRANCH   4   5
ATOM      5  C   UNL     1     118.570 119.008 116.575  1.00  0.00    -0.003 C 
ATOM      6  C   UNL     1     118.806 118.800 115.078  1.00  0.00     0.004 C 
ENDBRANCH   4   5
ENDBRANCH   3   4
ENDBRANCH   2   3
ENDBRANCH   1   2
BRANCH   1   7
ATOM      7  C   UNL     1     118.370 120.679 120.562  1.00  0.00     0.000 C 
BRANCH   7   8
ATOM      8  C   UNL     1     116.987 121.004 119.967  1.00  0.00     0.008 C 
BRANCH   8   9
ATOM      9  C   UNL     1     116.280 119.769 119.389  1.00  0.00     0.072 C 
BRANCH   9  10
ATOM     10  C   UNL     1     116.620 118.534 120.170  1.00  0.00     0.224 C 
ATOM     11  O   UNL     1     116.902 117.502 119.583  1.00  0.00    -0.303 OA
ENDBRANCH   9  10
ENDBRANCH   8   9
ENDBRANCH   7   8
ENDBRANCH   1   7
TORSDOF 8
ENDMDL
MODEL 2
REMARK VINA RESULT:    -3.941      1.781      2.764
REMARK INTER + INTRA:          -6.740
REMARK INTER:                  -5.762
REMARK INTRA:                  -0.978
REMARK UNBOUND:                -0.957
REMARK SMILES CCCCCCCCCC=O
REMARK SMILES IDX 6 1 5 2 4 3 3 4 2 5 1 6 7 7 8 8 9 9 10 10 11 11
REMARK H PARENT
REMARK Flexibility Score: inf
ROOT
ATOM      1  C   UNL     1     116.398 119.618 119.824  1.00  0.00     0.000 C 
ENDROOT
BRANCH   1   2
ATOM      2  C   UNL     1     117.088 119.802 118.464  1.00  0.00     0.000 C 
BRANCH   2   3
ATOM      3  C   UNL     1     118.574 120.136 118.643  1.00  0.00    -0.000 C 
BRANCH   3   4
ATOM      4  C   UNL     1     119.415 119.524 117.513  1.00  0.00    -0.000 C 
BRANCH   4   5
ATOM      5  C   UNL     1     118.605 118.570 116.623  1.00  0.00    -0.003 C 
ATOM      6  C   UNL     1     118.788 118.853 115.132  1.00  0.00     0.004 C 
ENDBRANCH   4   5
ENDBRANCH   3   4
ENDBRANCH   2   3
ENDBRANCH   1   2
BRANCH   1   7
ATOM      7  C   UNL     1     116.916 118.394 120.600  1.00  0.00     0.000 C 
BRANCH   7   8
ATOM      8  C   UNL     1     116.603 117.033 119.954  1.00  0.00     0.008 C 
BRANCH   8   9
ATOM      9  C   UNL     1     117.860 116.298 119.467  1.00  0.00     0.072 C 
BRANCH   9  10
ATOM     10  C   UNL     1     119.075 116.736 120.230  1.00  0.00     0.224 C 
ATOM     11  O   UNL     1     120.153 116.815 119.664  1.00  0.00    -0.303 OA
ENDBRANCH   9  10
ENDBRANCH   8   9
ENDBRANCH   7   8
ENDBRANCH   1   7
TORSDOF 8
ENDMDL
MODEL 3
REMARK VINA RESULT:    -3.935      2.261      3.954
REMARK INTER + INTRA:          -6.732
REMARK INTER:                  -5.564
REMARK INTRA:                  -1.168
REMARK UNBOUND:                -0.957
REMARK SMILES CCCCCCCCCC=O
REMARK SMILES IDX 6 1 5 2 4 3 3 4 2 5 1 6 7 7 8 8 9 9 10 10 11 11
REMARK H PARENT
REMARK Flexibility Score: inf
ROOT
ATOM      1  C   UNL     1     118.052 117.829 117.669  1.00  0.00     0.000 C 
ENDROOT
BRANCH   1   2
ATOM      2  C   UNL     1     117.666 117.214 119.023  1.00  0.00     0.000 C 
BRANCH   2   3
ATOM      3  C   UNL     1     118.866 116.514 119.672  1.00  0.00    -0.000 C 
BRANCH   3   4
ATOM      4  C   UNL     1     119.489 117.392 120.767  1.00  0.00    -0.000 C 
BRANCH   4   5
ATOM      5  C   UNL     1     120.955 117.747 120.478  1.00  0.00    -0.003 C 
ATOM      6  C   UNL     1     121.466 117.134 119.174  1.00  0.00     0.004 C 
ENDBRANCH   4   5
ENDBRANCH   3   4
ENDBRANCH   2   3
ENDBRANCH   1   2
BRANCH   1   7
ATOM      7  C   UNL     1     118.164 119.363 117.717  1.00  0.00     0.000 C 
BRANCH   7   8
ATOM      8  C   UNL     1     119.599 119.914 117.622  1.00  0.00     0.008 C 
BRANCH   8   9
ATOM      9  C   UNL     1     119.955 120.860 118.778  1.00  0.00     0.072 C 
BRANCH   9  10
ATOM     10  C   UNL     1     118.822 120.973 119.755  1.00  0.00     0.224 C 
ATOM     11  O   UNL     1     119.047 120.938 120.954  1.00  0.00    -0.303 OA
ENDBRANCH   9  10
ENDBRANCH   8   9
ENDBRANCH   7   8
ENDBRANCH   1   7
TORSDOF 8
ENDMDL
MODEL 4
REMARK VINA RESULT:    -3.933      1.482      3.190
REMARK INTER + INTRA:          -6.730
REMARK INTER:                  -5.572
REMARK INTRA:                  -1.157
REMARK UNBOUND:                -0.957
REMARK SMILES CCCCCCCCCC=O
REMARK SMILES IDX 6 1 5 2 4 3 3 4 2 5 1 6 7 7 8 8 9 9 10 10 11 11
REMARK H PARENT
REMARK Flexibility Score: inf
ROOT
ATOM      1  C   UNL     1     119.748 118.099 117.625  1.00  0.00     0.000 C 
ENDROOT
BRANCH   1   2
ATOM      2  C   UNL     1     120.420 117.677 118.941  1.00  0.00     0.000 C 
BRANCH   2   3
ATOM      3  C   UNL     1     121.101 118.873 119.617  1.00  0.00    -0.000 C 
BRANCH   3   4
ATOM      4  C   UNL     1     120.198 119.479 120.701  1.00  0.00    -0.000 C 
BRANCH   4   5
ATOM      5  C   UNL     1     119.943 120.978 120.487  1.00  0.00    -0.003 C 
ATOM      6  C   UNL     1     120.445 121.476 119.130  1.00  0.00     0.004 C 
ENDBRANCH   4   5
ENDBRANCH   3   4
ENDBRANCH   2   3
ENDBRANCH   1   2
BRANCH   1   7
ATOM      7  C   UNL     1     118.215 118.188 117.734  1.00  0.00     0.000 C 
BRANCH   7   8
ATOM      8  C   UNL     1     117.641 119.616 117.683  1.00  0.00     0.008 C 
BRANCH   8   9
ATOM      9  C   UNL     1     116.739 119.942 118.883  1.00  0.00     0.072 C 
BRANCH   9  10
ATOM     10  C   UNL     1     116.596 118.757 119.792  1.00  0.00     0.224 C 
ATOM     11  O   UNL     1     116.704 118.900 120.999  1.00  0.00    -0.303 OA
ENDBRANCH   9  10
ENDBRANCH   8   9
ENDBRANCH   7   8
ENDBRANCH   1   7
TORSDOF 8
ENDMDL
MODEL 5
REMARK VINA RESULT:    -3.887      1.750      2.750
REMARK INTER + INTRA:          -6.662
REMARK INTER:                  -5.656
REMARK INTRA:                  -1.006
REMARK UNBOUND:                -0.957
REMARK SMILES CCCCCCCCCC=O
REMARK SMILES IDX 6 1 5 2 4 3 3 4 2 5 1 6 7 7 8 8 9 9 10 10 11 11
REMARK H PARENT
REMARK Flexibility Score: inf
ROOT
ATOM      1  C   UNL     1     120.613 117.011 119.811  1.00  0.00     0.000 C 
ENDROOT
BRANCH   1   2
ATOM      2  C   UNL     1     120.562 117.784 118.484  1.00  0.00     0.000 C 
BRANCH   2   3
ATOM      3  C   UNL     1     120.144 119.242 118.713  1.00  0.00    -0.000 C 
BRANCH   3   4
ATOM      4  C   UNL     1     119.219 119.732 117.589  1.00  0.00    -0.000 C 
BRANCH   4   5
ATOM      5  C   UNL     1     118.665 118.581 116.736  1.00  0.00    -0.003 C 
ATOM      6  C   UNL     1     118.828 118.826 115.236  1.00  0.00     0.004 C 
ENDBRANCH   4   5
ENDBRANCH   3   4
ENDBRANCH   2   3
ENDBRANCH   1   2
BRANCH   1   7
ATOM      7  C   UNL     1     119.227 116.834 120.457  1.00  0.00     0.000 C 
BRANCH   7   8
ATOM      8  C   UNL     1     118.183 116.128 119.572  1.00  0.00     0.008 C 
BRANCH   8   9
ATOM      9  C   UNL     1     116.799 116.789 119.637  1.00  0.00     0.072 C 
BRANCH   9  10
ATOM     10  C   UNL     1     116.883 118.169 120.221  1.00  0.00     0.224 C 
ATOM     11  O   UNL     1     116.334 119.102 119.659  1.00  0.00    -0.303 OA
ENDBRANCH   9  10
ENDBRANCH   8   9
ENDBRANCH   7   8
ENDBRANCH   1   7
TORSDOF 8
ENDMDL
MODEL 6
REMARK VINA RESULT:    -3.845      1.669      3.580
REMARK INTER + INTRA:          -6.600
REMARK INTER:                  -5.465
REMARK INTRA:                  -1.135
REMARK UNBOUND:                -0.957
REMARK SMILES CCCCCCCCCC=O
REMARK SMILES IDX 6 1 5 2 4 3 3 4 2 5 1 6 7 7 8 8 9 9 10 10 11 11
REMARK H PARENT
REMARK Flexibility Score: inf
ROOT
ATOM      1  C   UNL     1     119.260 119.699 117.616  1.00  0.00     0.000 C 
ENDROOT
BRANCH   1   2
ATOM      2  C   UNL     1     119.809 120.401 118.867  1.00  0.00     0.000 C 
BRANCH   2   3
ATOM      3  C   UNL     1     118.695 121.140 119.617  1.00  0.00    -0.000 C 
BRANCH   3   4
ATOM      4  C   UNL     1     118.123 120.273 120.748  1.00  0.00    -0.000 C 
BRANCH   4   5
ATOM      5  C   UNL     1     116.667 119.857 120.495  1.00  0.00    -0.003 C 
ATOM      6  C   UNL     1     116.072 120.512 119.249  1.00  0.00     0.004 C 
ENDBRANCH   4   5
ENDBRANCH   3   4
ENDBRANCH   2   3
ENDBRANCH   1   2
BRANCH   1   7
ATOM      7  C   UNL     1     119.272 118.164 117.734  1.00  0.00     0.000 C 
BRANCH   7   8
ATOM      8  C   UNL     1     117.885 117.509 117.860  1.00  0.00     0.008 C 
BRANCH   8   9
ATOM      9  C   UNL     1     117.777 116.561 119.063  1.00  0.00     0.072 C 
BRANCH   9  10
ATOM     10  C   UNL     1     119.025 116.595 119.895  1.00  0.00     0.224 C 
ATOM     11  O   UNL     1     118.960 116.885 121.078  1.00  0.00    -0.303 OA
ENDBRANCH   9  10
ENDBRANCH   8   9
ENDBRANCH   7   8
ENDBRANCH   1   7
TORSDOF 8
ENDMDL
MODEL 7
REMARK VINA RESULT:    -3.831      1.609      3.668
REMARK INTER + INTRA:          -6.580
REMARK INTER:                  -5.502
REMARK INTRA:                  -1.077
REMARK UNBOUND:                -0.957
REMARK SMILES CCCCCCCCCC=O
REMARK SMILES IDX 6 1 5 2 4 3 3 4 2 5 1 6 7 7 8 8 9 9 10 10 11 11
REMARK H PARENT
REMARK Flexibility Score: inf
ROOT
ATOM      1  C   UNL     1     119.676 117.959 117.509  1.00  0.00     0.000 C 
ENDROOT
BRANCH   1   2
ATOM      2  C   UNL     1     119.387 119.459 117.345  1.00  0.00     0.000 C 
BRANCH   2   3
ATOM      3  C   UNL     1     118.124 119.863 118.115  1.00  0.00    -0.000 C 
BRANCH   3   4
ATOM      4  C   UNL     1     118.483 120.582 119.423  1.00  0.00    -0.000 C 
BRANCH   4   5
ATOM      5  C   UNL     1     119.812 121.346 119.332  1.00  0.00    -0.003 C 
ATOM      6  C   UNL     1     120.786 120.975 120.450  1.00  0.00     0.004 C 
ENDBRANCH   4   5
ENDBRANCH   3   4
ENDBRANCH   2   3
ENDBRANCH   1   2
BRANCH   1   7
ATOM      7  C   UNL     1     120.636 117.655 118.674  1.00  0.00     0.000 C 
BRANCH   7   8
ATOM      8  C   UNL     1     119.961 117.128 119.953  1.00  0.00     0.008 C 
BRANCH   8   9
ATOM      9  C   UNL     1     118.603 116.463 119.682  1.00  0.00     0.072 C 
BRANCH   9  10
ATOM     10  C   UNL     1     117.542 117.003 120.596  1.00  0.00     0.224 C 
ATOM     11  O   UNL     1     116.484 117.397 120.133  1.00  0.00    -0.303 OA
ENDBRANCH   9  10
ENDBRANCH   8   9
ENDBRANCH   7   8
ENDBRANCH   1   7
TORSDOF 8
ENDMDL
MODEL 8
REMARK VINA RESULT:    -3.810      1.776      3.198
REMARK INTER + INTRA:          -6.549
REMARK INTER:                  -5.462
REMARK INTRA:                  -1.088
REMARK UNBOUND:                -0.957
REMARK SMILES CCCCCCCCCC=O
REMARK SMILES IDX 6 1 5 2 4 3 3 4 2 5 1 6 7 7 8 8 9 9 10 10 11 11
REMARK H PARENT
REMARK Flexibility Score: inf
ROOT
ATOM      1  C   UNL     1     118.230 119.396 117.412  1.00  0.00     0.000 C 
ENDROOT
BRANCH   1   2
ATOM      2  C   UNL     1     119.723 119.701 117.604  1.00  0.00     0.000 C 
BRANCH   2   3
ATOM      3  C   UNL     1     119.962 120.486 118.900  1.00  0.00    -0.000 C 
BRANCH   3   4
ATOM      4  C   UNL     1     120.640 119.605 119.960  1.00  0.00    -0.000 C 
BRANCH   4   5
ATOM      5  C   UNL     1     121.239 118.321 119.366  1.00  0.00    -0.003 C 
ATOM      6  C   UNL     1     120.823 117.065 120.132  1.00  0.00     0.004 C 
ENDBRANCH   4   5
ENDBRANCH   3   4
ENDBRANCH   2   3
ENDBRANCH   1   2
BRANCH   1   7
ATOM      7  C   UNL     1     117.842 117.979 117.873  1.00  0.00     0.000 C 
BRANCH   7   8
ATOM      8  C   UNL     1     117.241 117.897 119.288  1.00  0.00     0.008 C 
BRANCH   8   9
ATOM      9  C   UNL     1     116.393 119.125 119.651  1.00  0.00     0.072 C 
BRANCH   9  10
ATOM     10  C   UNL     1     116.791 119.685 120.985  1.00  0.00     0.224 C 
ATOM     11  O   UNL     1     117.245 120.815 121.059  1.00  0.00    -0.303 OA
ENDBRANCH   9  10
ENDBRANCH   8   9
ENDBRANCH   7   8
ENDBRANCH   1   7
TORSDOF 8
ENDMDL
MODEL 9
REMARK VINA RESULT:    -3.808      1.470      3.938
REMARK INTER + INTRA:          -6.547
REMARK INTER:                  -5.432
REMARK INTRA:                  -1.115
REMARK UNBOUND:                -0.957
REMARK SMILES CCCCCCCCCC=O
REMARK SMILES IDX 6 1 5 2 4 3 3 4 2 5 1 6 7 7 8 8 9 9 10 10 11 11
REMARK H PARENT
REMARK Flexibility Score: inf
ROOT
ATOM      1  C   UNL     1     117.775 119.708 117.719  1.00  0.00     0.000 C 
ENDROOT
BRANCH   1   2
ATOM      2  C   UNL     1     116.753 119.742 118.866  1.00  0.00     0.000 C 
BRANCH   2   3
ATOM      3  C   UNL     1     117.364 120.364 120.128  1.00  0.00    -0.000 C 
BRANCH   3   4
ATOM      4  C   UNL     1     118.628 121.167 119.789  1.00  0.00    -0.000 C 
BRANCH   4   5
ATOM      5  C   UNL     1     119.794 120.863 120.741  1.00  0.00    -0.003 C 
ATOM      6  C   UNL     1     121.158 120.969 120.058  1.00  0.00     0.004 C 
ENDBRANCH   4   5
ENDBRANCH   3   4
ENDBRANCH   2   3
ENDBRANCH   1   2
BRANCH   1   7
ATOM      7  C   UNL     1     118.293 118.289 117.419  1.00  0.00     0.000 C 
BRANCH   7   8
ATOM      8  C   UNL     1     119.762 118.038 117.805  1.00  0.00     0.008 C 
BRANCH   8   9
ATOM      9  C   UNL     1     119.919 117.455 119.217  1.00  0.00     0.072 C 
BRANCH   9  10
ATOM     10  C   UNL     1     118.730 116.622 119.596  1.00  0.00     0.224 C 
ATOM     11  O   UNL     1     118.169 116.813 120.663  1.00  0.00    -0.303 OA
ENDBRANCH   9  10
ENDBRANCH   8   9
ENDBRANCH   7   8
ENDBRANCH   1   7
TORSDOF 8
ENDMDL
