MODEL 1
REMARK VINA RESULT:     8.677      0.000      0.000
REMARK INTER + INTRA:          10.388
REMARK INTER:                  10.199
REMARK INTRA:                   0.189
REMARK UNBOUND:                 0.189
REMARK SMILES O=c1c(O)c(-c2ccc(O)cc2)oc2cc(O)cc(O)c12
REMARK SMILES IDX 5 1 3 2 2 3 1 4 21 5 19 6 18 7 16 8 15 9 14 10 13 11 6 12
REMARK SMILES IDX 7 13 8 14 9 15 12 16 11 17 10 18 4 20 20 22 17 24
REMARK H PARENT 10 19 4 21 20 23 17 25
REMARK Flexibility Score: inf
ROOT
ATOM      1  C   UNL     1     -14.773  -2.047  19.391  1.00  0.00     0.180 A 
ATOM      2  C   UNL     1     -15.568  -1.034  18.824  1.00  0.00     0.208 A 
ATOM      3  C   UNL     1     -16.095  -1.224  17.537  1.00  0.00     0.238 A 
ATOM      4  O   UNL     1     -16.760  -0.293  17.012  1.00  0.00    -0.285 OA
ATOM      5  C   UNL     1     -15.837  -2.430  16.840  1.00  0.00     0.111 A 
ATOM      6  C   UNL     1     -16.355  -2.745  15.547  1.00  0.00     0.134 A 
ATOM      7  C   UNL     1     -15.928  -3.910  14.898  1.00  0.00     0.093 A 
ATOM      8  C   UNL     1     -15.053  -4.803  15.522  1.00  0.00     0.123 A 
ATOM      9  C   UNL     1     -14.590  -4.533  16.807  1.00  0.00     0.094 A 
ATOM     10  C   UNL     1     -14.969  -3.361  17.466  1.00  0.00     0.146 A 
ATOM     11  O   UNL     1     -14.495  -3.138  18.686  1.00  0.00    -0.452 OA
ENDROOT
BRANCH   1  12
ATOM     12  C   UNL     1     -14.203  -1.931  20.753  1.00  0.00     0.021 A 
ATOM     13  C   UNL     1     -12.877  -2.314  21.028  1.00  0.00     0.016 A 
ATOM     14  C   UNL     1     -12.353  -2.170  22.316  1.00  0.00     0.047 A 
ATOM     15  C   UNL     1     -13.141  -1.632  23.341  1.00  0.00     0.115 A 
ATOM     16  C   UNL     1     -14.979  -1.372  21.782  1.00  0.00     0.016 A 
ATOM     17  C   UNL     1     -14.452  -1.231  23.069  1.00  0.00     0.047 A 
BRANCH  15  18
ATOM     18  O   UNL     1     -12.629  -1.487  24.629  1.00  0.00    -0.508 OA
ATOM     19  H   UNL     1     -11.753  -1.916  24.902  1.00  0.00     0.293 HD
ENDBRANCH  15  18
ENDBRANCH   1  12
BRANCH   2  20
ATOM     20  O   UNL     1     -15.792   0.156  19.520  1.00  0.00    -0.502 OA
ATOM     21  H   UNL     1     -16.222   0.177  20.436  1.00  0.00     0.293 HD
ENDBRANCH   2  20
BRANCH   6  22
ATOM     22  O   UNL     1     -17.303  -1.968  14.875  1.00  0.00    -0.507 OA
ATOM     23  H   UNL     1     -17.503  -2.031  13.889  1.00  0.00     0.293 HD
ENDBRANCH   6  22
BRANCH   8  24
ATOM     24  O   UNL     1     -14.646  -5.968  14.876  1.00  0.00    -0.508 OA
ATOM     25  H   UNL     1     -14.430  -6.813  15.392  1.00  0.00     0.293 HD
ENDBRANCH   8  24
TORSDOF 5
ENDMDL
MODEL 2
REMARK VINA RESULT:    10.946      1.683      2.999
REMARK INTER + INTRA:          13.055
REMARK INTER:                  13.302
REMARK INTRA:                  -0.247
REMARK UNBOUND:                 0.189
REMARK SMILES O=c1c(O)c(-c2ccc(O)cc2)oc2cc(O)cc(O)c12
REMARK SMILES IDX 5 1 3 2 2 3 1 4 21 5 19 6 18 7 16 8 15 9 14 10 13 11 6 12
REMARK SMILES IDX 7 13 8 14 9 15 12 16 11 17 10 18 4 20 20 22 17 24
REMARK H PARENT 10 19 4 21 20 23 17 25
REMARK Flexibility Score: inf
ROOT
ATOM      1  C   UNL     1     -14.357  -1.967  19.807  1.00  0.00     0.180 A 
ATOM      2  C   UNL     1     -13.229  -2.631  19.290  1.00  0.00     0.208 A 
ATOM      3  C   UNL     1     -13.187  -2.935  17.920  1.00  0.00     0.238 A 
ATOM      4  O   UNL     1     -12.200  -3.576  17.473  1.00  0.00    -0.285 OA
ATOM      5  C   UNL     1     -14.263  -2.558  17.081  1.00  0.00     0.111 A 
ATOM      6  C   UNL     1     -14.308  -2.780  15.671  1.00  0.00     0.134 A 
ATOM      7  C   UNL     1     -15.478  -2.484  14.962  1.00  0.00     0.093 A 
ATOM      8  C   UNL     1     -16.582  -1.913  15.601  1.00  0.00     0.123 A 
ATOM      9  C   UNL     1     -16.526  -1.638  16.965  1.00  0.00     0.094 A 
ATOM     10  C   UNL     1     -15.385  -1.956  17.706  1.00  0.00     0.146 A 
ATOM     11  O   UNL     1     -15.379  -1.686  19.006  1.00  0.00    -0.452 OA
ENDROOT
BRANCH   1  12
ATOM     12  C   UNL     1     -14.463  -1.591  21.235  1.00  0.00     0.021 A 
ATOM     13  C   UNL     1     -15.223  -2.355  22.140  1.00  0.00     0.016 A 
ATOM     14  C   UNL     1     -15.288  -1.993  23.488  1.00  0.00     0.047 A 
ATOM     15  C   UNL     1     -14.586  -0.874  23.952  1.00  0.00     0.115 A 
ATOM     16  C   UNL     1     -13.745  -0.482  21.712  1.00  0.00     0.016 A 
ATOM     17  C   UNL     1     -13.813  -0.123  23.062  1.00  0.00     0.047 A 
BRANCH  15  18
ATOM     18  O   UNL     1     -14.645  -0.503  25.294  1.00  0.00    -0.508 OA
ATOM     19  H   UNL     1     -15.287  -0.949  25.939  1.00  0.00     0.293 HD
ENDBRANCH  15  18
ENDBRANCH   1  12
BRANCH   2  20
ATOM     20  O   UNL     1     -12.188  -3.013  20.140  1.00  0.00    -0.502 OA
ATOM     21  H   UNL     1     -12.197  -2.816  21.132  1.00  0.00     0.293 HD
ENDBRANCH   2  20
BRANCH   6  22
ATOM     22  O   UNL     1     -13.229  -3.260  14.922  1.00  0.00    -0.507 OA
ATOM     23  H   UNL     1     -12.699  -2.711  14.262  1.00  0.00     0.293 HD
ENDBRANCH   6  22
BRANCH   8  24
ATOM     24  O   UNL     1     -17.737  -1.606  14.885  1.00  0.00    -0.508 OA
ATOM     25  H   UNL     1     -18.621  -2.061  15.084  1.00  0.00     0.293 HD
ENDBRANCH   8  24
TORSDOF 5
ENDMDL
