MODEL 1
REMARK VINA RESULT:    -7.880      0.000      0.000
REMARK INTER + INTRA:          -9.189
REMARK INTER:                  -9.492
REMARK INTRA:                   0.303
REMARK UNBOUND:                 0.303
REMARK SMILES Oc1cc(O)c2c(c1)O[C@@H](c1ccc(O)c(O)c1)[C@H](O)C2
REMARK SMILES IDX 21 1 19 2 10 3 9 4 7 5 8 6 2 7 3 8 4 9 6 10 20 11 11 13
REMARK SMILES IDX 18 14 12 15 16 16 13 17 14 18 17 19 15 21 5 23 1 25
REMARK H PARENT 20 12 17 20 15 22 5 24 1 26
REMARK Flexibility Score: inf
ROOT
ATOM      1  C   UNL     1       1.419  -6.815  28.885  1.00  0.00     0.079 C 
ATOM      2  C   UNL     1       0.215  -7.735  28.601  1.00  0.00     0.164 C 
ATOM      3  C   UNL     1      -1.038  -6.893  28.289  1.00  0.00     0.232 C 
ATOM      4  O   UNL     1      -0.768  -6.018  27.195  1.00  0.00    -0.482 OA
ATOM      5  C   UNL     1       0.466  -5.377  27.036  1.00  0.00     0.131 A 
ATOM      6  C   UNL     1       0.595  -4.393  26.052  1.00  0.00     0.093 A 
ATOM      7  C   UNL     1       1.811  -3.724  25.879  1.00  0.00     0.122 A 
ATOM      8  C   UNL     1       2.898  -4.035  26.699  1.00  0.00     0.092 A 
ATOM      9  C   UNL     1       2.787  -5.018  27.690  1.00  0.00     0.126 A 
ATOM     10  C   UNL     1       1.572  -5.729  27.841  1.00  0.00     0.039 A 
ENDROOT
BRANCH   2  11
ATOM     11  O   UNL     1      -0.007  -8.606  29.683  1.00  0.00    -0.389 OA
ATOM     12  H   UNL     1       0.001  -9.534  29.329  1.00  0.00     0.211 HD
ENDBRANCH   2  11
BRANCH   3  13
ATOM     13  C   UNL     1      -2.219  -7.774  27.957  1.00  0.00    -0.001 A 
ATOM     14  C   UNL     1      -2.965  -7.556  26.785  1.00  0.00     0.057 A 
ATOM     15  C   UNL     1      -2.553  -8.853  28.791  1.00  0.00     0.012 A 
ATOM     16  C   UNL     1      -4.042  -8.390  26.462  1.00  0.00     0.157 A 
ATOM     17  C   UNL     1      -3.628  -9.686  28.472  1.00  0.00     0.050 A 
ATOM     18  C   UNL     1      -4.377  -9.460  27.309  1.00  0.00     0.157 A 
BRANCH  16  19
ATOM     19  O   UNL     1      -4.765  -8.141  25.296  1.00  0.00    -0.504 OA
ATOM     20  H   UNL     1      -5.777  -8.162  25.275  1.00  0.00     0.293 HD
ENDBRANCH  16  19
BRANCH  18  21
ATOM     21  O   UNL     1      -5.450 -10.293  26.993  1.00  0.00    -0.504 OA
ATOM     22  H   UNL     1      -6.348  -9.917  26.712  1.00  0.00     0.293 HD
ENDBRANCH  18  21
ENDBRANCH   3  13
BRANCH   9  23
ATOM     23  O   UNL     1       3.894  -5.253  28.507  1.00  0.00    -0.507 OA
ATOM     24  H   UNL     1       4.272  -4.563  29.143  1.00  0.00     0.293 HD
ENDBRANCH   9  23
BRANCH   7  25
ATOM     25  O   UNL     1       1.948  -2.743  24.899  1.00  0.00    -0.508 OA
ATOM     26  H   UNL     1       1.696  -1.778  25.077  1.00  0.00     0.293 HD
ENDBRANCH   7  25
TORSDOF 6
ENDMDL
MODEL 2
REMARK VINA RESULT:    -7.665      3.461      8.762
REMARK INTER + INTRA:          -8.930
REMARK INTER:                  -8.715
REMARK INTRA:                  -0.215
REMARK UNBOUND:                 0.303
REMARK SMILES Oc1cc(O)c2c(c1)O[C@@H](c1ccc(O)c(O)c1)[C@H](O)C2
REMARK SMILES IDX 21 1 19 2 10 3 9 4 7 5 8 6 2 7 3 8 4 9 6 10 20 11 11 13
REMARK SMILES IDX 18 14 12 15 16 16 13 17 14 18 17 19 15 21 5 23 1 25
REMARK H PARENT 20 12 17 20 15 22 5 24 1 26
REMARK Flexibility Score: inf
ROOT
ATOM      1  C   UNL     1      -7.935 -10.222  27.888  1.00  0.00     0.079 C 
ATOM      2  C   UNL     1      -6.620  -9.498  28.236  1.00  0.00     0.164 C 
ATOM      3  C   UNL     1      -5.435 -10.164  27.508  1.00  0.00     0.232 C 
ATOM      4  O   UNL     1      -5.682 -10.175  26.102  1.00  0.00    -0.482 OA
ATOM      5  C   UNL     1      -6.952 -10.411  25.566  1.00  0.00     0.131 A 
ATOM      6  C   UNL     1      -7.081 -10.594  24.187  1.00  0.00     0.093 A 
ATOM      7  C   UNL     1      -8.336 -10.847  23.623  1.00  0.00     0.122 A 
ATOM      8  C   UNL     1      -9.463 -10.926  24.444  1.00  0.00     0.092 A 
ATOM      9  C   UNL     1      -9.353 -10.746  25.828  1.00  0.00     0.126 A 
ATOM     10  C   UNL     1      -8.093 -10.446  26.399  1.00  0.00     0.039 A 
ENDROOT
BRANCH   2  11
ATOM     11  O   UNL     1      -6.420  -9.477  29.629  1.00  0.00    -0.389 OA
ATOM     12  H   UNL     1      -6.056 -10.362  29.894  1.00  0.00     0.211 HD
ENDBRANCH   2  11
BRANCH   3  13
ATOM     13  C   UNL     1      -4.141  -9.439  27.793  1.00  0.00    -0.001 A 
ATOM     14  C   UNL     1      -3.740  -8.354  26.994  1.00  0.00     0.057 A 
ATOM     15  C   UNL     1      -3.350  -9.811  28.891  1.00  0.00     0.012 A 
ATOM     16  C   UNL     1      -2.555  -7.663  27.274  1.00  0.00     0.157 A 
ATOM     17  C   UNL     1      -2.167  -9.124  29.174  1.00  0.00     0.050 A 
ATOM     18  C   UNL     1      -1.763  -8.050  28.369  1.00  0.00     0.157 A 
BRANCH  16  19
ATOM     19  O   UNL     1      -2.183  -6.597  26.458  1.00  0.00    -0.504 OA
ATOM     20  H   UNL     1      -1.448  -6.679  25.766  1.00  0.00     0.293 HD
ENDBRANCH  16  19
BRANCH  18  21
ATOM     21  O   UNL     1      -0.581  -7.367  28.653  1.00  0.00    -0.504 OA
ATOM     22  H   UNL     1       0.210  -7.392  28.020  1.00  0.00     0.293 HD
ENDBRANCH  18  21
ENDBRANCH   3  13
BRANCH   9  23
ATOM     23  O   UNL     1     -10.508 -10.882  26.601  1.00  0.00    -0.507 OA
ATOM     24  H   UNL     1     -10.806 -10.195  27.281  1.00  0.00     0.293 HD
ENDBRANCH   9  23
BRANCH   7  25
ATOM     25  O   UNL     1      -8.473 -11.028  22.248  1.00  0.00    -0.508 OA
ATOM     26  H   UNL     1      -8.197 -11.893  21.798  1.00  0.00     0.293 HD
ENDBRANCH   7  25
TORSDOF 6
ENDMDL
MODEL 3
REMARK VINA RESULT:    -7.632      1.209      6.906
REMARK INTER + INTRA:          -8.890
REMARK INTER:                  -8.876
REMARK INTRA:                  -0.014
REMARK UNBOUND:                 0.303
REMARK SMILES Oc1cc(O)c2c(c1)O[C@@H](c1ccc(O)c(O)c1)[C@H](O)C2
REMARK SMILES IDX 21 1 19 2 10 3 9 4 7 5 8 6 2 7 3 8 4 9 6 10 20 11 11 13
REMARK SMILES IDX 18 14 12 15 16 16 13 17 14 18 17 19 15 21 5 23 1 25
REMARK H PARENT 20 12 17 20 15 22 5 24 1 26
REMARK Flexibility Score: inf
ROOT
ATOM      1  C   UNL     1      -2.193  -8.696  29.378  1.00  0.00     0.079 C 
ATOM      2  C   UNL     1      -1.221  -7.530  29.109  1.00  0.00     0.164 C 
ATOM      3  C   UNL     1      -0.718  -7.579  27.653  1.00  0.00     0.232 C 
ATOM      4  O   UNL     1      -1.831  -7.561  26.760  1.00  0.00    -0.482 OA
ATOM      5  C   UNL     1      -3.019  -8.250  27.030  1.00  0.00     0.131 A 
ATOM      6  C   UNL     1      -3.990  -8.342  26.029  1.00  0.00     0.093 A 
ATOM      7  C   UNL     1      -5.182  -9.036  26.264  1.00  0.00     0.122 A 
ATOM      8  C   UNL     1      -5.397  -9.647  27.500  1.00  0.00     0.092 A 
ATOM      9  C   UNL     1      -4.435  -9.566  28.515  1.00  0.00     0.126 A 
ATOM     10  C   UNL     1      -3.247  -8.828  28.299  1.00  0.00     0.039 A 
ENDROOT
BRANCH   2  11
ATOM     11  O   UNL     1      -0.152  -7.556  30.023  1.00  0.00    -0.389 OA
ATOM     12  H   UNL     1      -0.531  -7.734  30.924  1.00  0.00     0.211 HD
ENDBRANCH   2  11
BRANCH   3  13
ATOM     13  C   UNL     1       0.196  -6.415  27.351  1.00  0.00    -0.001 A 
ATOM     14  C   UNL     1       1.509  -6.389  27.854  1.00  0.00     0.057 A 
ATOM     15  C   UNL     1      -0.241  -5.370  26.523  1.00  0.00     0.012 A 
ATOM     16  C   UNL     1       2.366  -5.325  27.552  1.00  0.00     0.157 A 
ATOM     17  C   UNL     1       0.612  -4.306  26.220  1.00  0.00     0.050 A 
ATOM     18  C   UNL     1       1.917  -4.276  26.732  1.00  0.00     0.157 A 
BRANCH  16  19
ATOM     19  O   UNL     1       3.659  -5.328  28.073  1.00  0.00    -0.504 OA
ATOM     20  H   UNL     1       3.902  -4.821  28.915  1.00  0.00     0.293 HD
ENDBRANCH  16  19
BRANCH  18  21
ATOM     21  O   UNL     1       2.765  -3.212  26.428  1.00  0.00    -0.504 OA
ATOM     22  H   UNL     1       3.395  -2.823  27.120  1.00  0.00     0.293 HD
ENDBRANCH  18  21
ENDBRANCH   3  13
BRANCH   9  23
ATOM     23  O   UNL     1      -4.689 -10.235  29.714  1.00  0.00    -0.507 OA
ATOM     24  H   UNL     1      -4.728  -9.772  30.612  1.00  0.00     0.293 HD
ENDBRANCH   9  23
BRANCH   7  25
ATOM     25  O   UNL     1      -6.155  -9.130  25.271  1.00  0.00    -0.508 OA
ATOM     26  H   UNL     1      -5.983  -9.629  24.407  1.00  0.00     0.293 HD
ENDBRANCH   7  25
TORSDOF 6
ENDMDL
MODEL 4
REMARK VINA RESULT:    -7.551      1.839      2.705
REMARK INTER + INTRA:          -8.793
REMARK INTER:                  -8.559
REMARK INTRA:                  -0.234
REMARK UNBOUND:                 0.303
REMARK SMILES Oc1cc(O)c2c(c1)O[C@@H](c1ccc(O)c(O)c1)[C@H](O)C2
REMARK SMILES IDX 21 1 19 2 10 3 9 4 7 5 8 6 2 7 3 8 4 9 6 10 20 11 11 13
REMARK SMILES IDX 18 14 12 15 16 16 13 17 14 18 17 19 15 21 5 23 1 25
REMARK H PARENT 20 12 17 20 15 22 5 24 1 26
REMARK Flexibility Score: inf
ROOT
ATOM      1  C   UNL     1      -1.032  -8.418  29.472  1.00  0.00     0.079 C 
ATOM      2  C   UNL     1      -2.338  -9.099  29.019  1.00  0.00     0.164 C 
ATOM      3  C   UNL     1      -3.340  -8.046  28.505  1.00  0.00     0.232 C 
ATOM      4  O   UNL     1      -2.742  -7.290  27.453  1.00  0.00    -0.482 OA
ATOM      5  C   UNL     1      -1.396  -6.907  27.477  1.00  0.00     0.131 A 
ATOM      6  C   UNL     1      -0.930  -6.011  26.511  1.00  0.00     0.093 A 
ATOM      7  C   UNL     1       0.407  -5.599  26.518  1.00  0.00     0.122 A 
ATOM      8  C   UNL     1       1.276  -6.077  27.500  1.00  0.00     0.092 A 
ATOM      9  C   UNL     1       0.827  -6.975  28.476  1.00  0.00     0.126 A 
ATOM     10  C   UNL     1      -0.513  -7.430  28.448  1.00  0.00     0.039 A 
ENDROOT
BRANCH   2  11
ATOM     11  O   UNL     1      -2.887  -9.862  30.066  1.00  0.00    -0.389 OA
ATOM     12  H   UNL     1      -3.061  -9.248  30.826  1.00  0.00     0.211 HD
ENDBRANCH   2  11
BRANCH   3  13
ATOM     13  C   UNL     1      -4.609  -8.696  28.007  1.00  0.00    -0.001 A 
ATOM     14  C   UNL     1      -4.699  -9.166  26.685  1.00  0.00     0.057 A 
ATOM     15  C   UNL     1      -5.695  -8.883  28.877  1.00  0.00     0.012 A 
ATOM     16  C   UNL     1      -5.865  -9.794  26.231  1.00  0.00     0.157 A 
ATOM     17  C   UNL     1      -6.860  -9.509  28.426  1.00  0.00     0.050 A 
ATOM     18  C   UNL     1      -6.952  -9.966  27.105  1.00  0.00     0.157 A 
BRANCH  16  19
ATOM     19  O   UNL     1      -5.923 -10.241  24.912  1.00  0.00    -0.504 OA
ATOM     20  H   UNL     1      -6.795 -10.298  24.401  1.00  0.00     0.293 HD
ENDBRANCH  16  19
BRANCH  18  21
ATOM     21  O   UNL     1      -8.116 -10.590  26.658  1.00  0.00    -0.504 OA
ATOM     22  H   UNL     1      -8.212 -10.910  25.701  1.00  0.00     0.293 HD
ENDBRANCH  18  21
ENDBRANCH   3  13
BRANCH   9  23
ATOM     23  O   UNL     1       1.732  -7.382  29.458  1.00  0.00    -0.507 OA
ATOM     24  H   UNL     1       1.970  -8.351  29.628  1.00  0.00     0.293 HD
ENDBRANCH   9  23
BRANCH   7  25
ATOM     25  O   UNL     1       0.879  -4.707  25.557  1.00  0.00    -0.508 OA
ATOM     26  H   UNL     1       1.540  -3.976  25.791  1.00  0.00     0.293 HD
ENDBRANCH   7  25
TORSDOF 6
ENDMDL
MODEL 5
REMARK VINA RESULT:    -7.526      3.107      8.398
REMARK INTER + INTRA:          -8.763
REMARK INTER:                  -8.592
REMARK INTRA:                  -0.171
REMARK UNBOUND:                 0.303
REMARK SMILES Oc1cc(O)c2c(c1)O[C@@H](c1ccc(O)c(O)c1)[C@H](O)C2
REMARK SMILES IDX 21 1 19 2 10 3 9 4 7 5 8 6 2 7 3 8 4 9 6 10 20 11 11 13
REMARK SMILES IDX 18 14 12 15 16 16 13 17 14 18 17 19 15 21 5 23 1 25
REMARK H PARENT 20 12 17 20 15 22 5 24 1 26
REMARK Flexibility Score: inf
ROOT
ATOM      1  C   UNL     1       3.474  -3.958  28.145  1.00  0.00     0.079 C 
ATOM      2  C   UNL     1       3.947  -2.821  27.219  1.00  0.00     0.164 C 
ATOM      3  C   UNL     1       3.840  -3.255  25.744  1.00  0.00     0.232 C 
ATOM      4  O   UNL     1       2.500  -3.652  25.457  1.00  0.00    -0.482 OA
ATOM      5  C   UNL     1       1.717  -4.365  26.372  1.00  0.00     0.131 A 
ATOM      6  C   UNL     1       0.489  -4.882  25.953  1.00  0.00     0.093 A 
ATOM      7  C   UNL     1      -0.309  -5.612  26.841  1.00  0.00     0.122 A 
ATOM      8  C   UNL     1       0.130  -5.833  28.147  1.00  0.00     0.092 A 
ATOM      9  C   UNL     1       1.359  -5.323  28.585  1.00  0.00     0.126 A 
ATOM     10  C   UNL     1       2.150  -4.547  27.705  1.00  0.00     0.039 A 
ENDROOT
BRANCH   2  11
ATOM     11  O   UNL     1       5.259  -2.431  27.546  1.00  0.00    -0.389 OA
ATOM     12  H   UNL     1       5.260  -2.151  28.499  1.00  0.00     0.211 HD
ENDBRANCH   2  11
BRANCH   3  13
ATOM     13  C   UNL     1       4.250  -2.137  24.815  1.00  0.00    -0.001 A 
ATOM     14  C   UNL     1       3.293  -1.236  24.315  1.00  0.00     0.057 A 
ATOM     15  C   UNL     1       5.601  -1.956  24.480  1.00  0.00     0.012 A 
ATOM     16  C   UNL     1       3.676  -0.182  23.477  1.00  0.00     0.157 A 
ATOM     17  C   UNL     1       5.987  -0.906  23.644  1.00  0.00     0.050 A 
ATOM     18  C   UNL     1       5.030  -0.016  23.138  1.00  0.00     0.157 A 
BRANCH  16  19
ATOM     19  O   UNL     1       2.701   0.688  22.994  1.00  0.00    -0.504 OA
ATOM     20  H   UNL     1       2.891   1.356  22.257  1.00  0.00     0.293 HD
ENDBRANCH  16  19
BRANCH  18  21
ATOM     21  O   UNL     1       5.418   1.031  22.302  1.00  0.00    -0.504 OA
ATOM     22  H   UNL     1       5.444   0.922  21.295  1.00  0.00     0.293 HD
ENDBRANCH  18  21
ENDBRANCH   3  13
BRANCH   9  23
ATOM     23  O   UNL     1       1.763  -5.616  29.889  1.00  0.00    -0.507 OA
ATOM     24  H   UNL     1       1.214  -5.386  30.706  1.00  0.00     0.293 HD
ENDBRANCH   9  23
BRANCH   7  25
ATOM     25  O   UNL     1      -1.536  -6.128  26.431  1.00  0.00    -0.508 OA
ATOM     26  H   UNL     1      -2.324  -6.190  27.065  1.00  0.00     0.293 HD
ENDBRANCH   7  25
TORSDOF 6
ENDMDL
MODEL 6
REMARK VINA RESULT:    -7.373      4.512      9.921
REMARK INTER + INTRA:          -8.578
REMARK INTER:                  -8.273
REMARK INTRA:                  -0.305
REMARK UNBOUND:                 0.303
REMARK SMILES Oc1cc(O)c2c(c1)O[C@@H](c1ccc(O)c(O)c1)[C@H](O)C2
REMARK SMILES IDX 21 1 19 2 10 3 9 4 7 5 8 6 2 7 3 8 4 9 6 10 20 11 11 13
REMARK SMILES IDX 18 14 12 15 16 16 13 17 14 18 17 19 15 21 5 23 1 25
REMARK H PARENT 20 12 17 20 15 22 5 24 1 26
REMARK Flexibility Score: inf
ROOT
ATOM      1  C   UNL     1      -9.294 -10.582  26.614  1.00  0.00     0.079 C 
ATOM      2  C   UNL     1      -8.019  -9.828  27.037  1.00  0.00     0.164 C 
ATOM      3  C   UNL     1      -6.768 -10.554  26.503  1.00  0.00     0.232 C 
ATOM      4  O   UNL     1      -6.861 -10.689  25.086  1.00  0.00    -0.482 OA
ATOM      5  C   UNL     1      -8.068 -10.974  24.438  1.00  0.00     0.131 A 
ATOM      6  C   UNL     1      -8.049 -11.278  23.074  1.00  0.00     0.093 A 
ATOM      7  C   UNL     1      -9.237 -11.581  22.402  1.00  0.00     0.122 A 
ATOM      8  C   UNL     1     -10.447 -11.590  23.099  1.00  0.00     0.092 A 
ATOM      9  C   UNL     1     -10.486 -11.288  24.466  1.00  0.00     0.126 A 
ATOM     10  C   UNL     1      -9.292 -10.937  25.142  1.00  0.00     0.039 A 
ENDROOT
BRANCH   2  11
ATOM     11  O   UNL     1      -7.971  -9.684  28.436  1.00  0.00    -0.389 OA
ATOM     12  H   UNL     1      -7.918  -8.713  28.636  1.00  0.00     0.211 HD
ENDBRANCH   2  11
BRANCH   3  13
ATOM     13  C   UNL     1      -5.507  -9.805  26.862  1.00  0.00    -0.001 A 
ATOM     14  C   UNL     1      -4.717 -10.216  27.951  1.00  0.00     0.057 A 
ATOM     15  C   UNL     1      -5.083  -8.718  26.081  1.00  0.00     0.012 A 
ATOM     16  C   UNL     1      -3.533  -9.540  28.267  1.00  0.00     0.157 A 
ATOM     17  C   UNL     1      -3.903  -8.041  26.394  1.00  0.00     0.050 A 
ATOM     18  C   UNL     1      -3.123  -8.446  27.487  1.00  0.00     0.157 A 
BRANCH  16  19
ATOM     19  O   UNL     1      -2.778  -9.970  29.357  1.00  0.00    -0.504 OA
ATOM     20  H   UNL     1      -1.774  -9.843  29.400  1.00  0.00     0.293 HD
ENDBRANCH  16  19
BRANCH  18  21
ATOM     21  O   UNL     1      -1.946  -7.767  27.797  1.00  0.00    -0.504 OA
ATOM     22  H   UNL     1      -1.960  -6.834  28.193  1.00  0.00     0.293 HD
ENDBRANCH  18  21
ENDBRANCH   3  13
BRANCH   9  23
ATOM     23  O   UNL     1     -11.718 -11.357  25.118  1.00  0.00    -0.507 OA
ATOM     24  H   UNL     1     -11.935 -12.045  25.827  1.00  0.00     0.293 HD
ENDBRANCH   9  23
BRANCH   7  25
ATOM     25  O   UNL     1      -9.226 -11.884  21.042  1.00  0.00    -0.508 OA
ATOM     26  H   UNL     1     -10.083 -11.949  20.507  1.00  0.00     0.293 HD
ENDBRANCH   7  25
TORSDOF 6
ENDMDL
MODEL 7
REMARK VINA RESULT:    -7.274     10.441     12.565
REMARK INTER + INTRA:          -8.459
REMARK INTER:                  -8.093
REMARK INTRA:                  -0.365
REMARK UNBOUND:                 0.303
REMARK SMILES Oc1cc(O)c2c(c1)O[C@@H](c1ccc(O)c(O)c1)[C@H](O)C2
REMARK SMILES IDX 21 1 19 2 10 3 9 4 7 5 8 6 2 7 3 8 4 9 6 10 20 11 11 13
REMARK SMILES IDX 18 14 12 15 16 16 13 17 14 18 17 19 15 21 5 23 1 25
REMARK H PARENT 20 12 17 20 15 22 5 24 1 26
REMARK Flexibility Score: inf
ROOT
ATOM      1  C   UNL     1      -6.986   1.622  25.264  1.00  0.00     0.079 C 
ATOM      2  C   UNL     1      -7.213   1.976  23.782  1.00  0.00     0.164 C 
ATOM      3  C   UNL     1      -7.192   0.699  22.918  1.00  0.00     0.232 C 
ATOM      4  O   UNL     1      -8.169  -0.222  23.402  1.00  0.00    -0.482 OA
ATOM      5  C   UNL     1      -8.421  -0.400  24.767  1.00  0.00     0.131 A 
ATOM      6  C   UNL     1      -9.251  -1.448  25.170  1.00  0.00     0.093 A 
ATOM      7  C   UNL     1      -9.511  -1.660  26.529  1.00  0.00     0.122 A 
ATOM      8  C   UNL     1      -8.929  -0.825  27.485  1.00  0.00     0.092 A 
ATOM      9  C   UNL     1      -8.094   0.231  27.099  1.00  0.00     0.126 A 
ATOM     10  C   UNL     1      -7.863   0.477  25.724  1.00  0.00     0.039 A 
ENDROOT
BRANCH   2  11
ATOM     11  O   UNL     1      -6.255   2.908  23.343  1.00  0.00    -0.389 OA
ATOM     12  H   UNL     1      -5.741   3.209  24.139  1.00  0.00     0.211 HD
ENDBRANCH   2  11
BRANCH   3  13
ATOM     13  C   UNL     1      -7.464   1.016  21.467  1.00  0.00    -0.001 A 
ATOM     14  C   UNL     1      -6.451   0.873  20.503  1.00  0.00     0.057 A 
ATOM     15  C   UNL     1      -8.748   1.410  21.059  1.00  0.00     0.012 A 
ATOM     16  C   UNL     1      -6.709   1.139  19.153  1.00  0.00     0.157 A 
ATOM     17  C   UNL     1      -9.009   1.677  19.713  1.00  0.00     0.050 A 
ATOM     18  C   UNL     1      -7.994   1.545  18.755  1.00  0.00     0.157 A 
BRANCH  16  19
ATOM     19  O   UNL     1      -5.680   0.993  18.224  1.00  0.00    -0.504 OA
ATOM     20  H   UNL     1      -5.733   0.330  17.461  1.00  0.00     0.293 HD
ENDBRANCH  16  19
BRANCH  18  21
ATOM     21  O   UNL     1      -8.258   1.813  17.412  1.00  0.00    -0.504 OA
ATOM     22  H   UNL     1      -8.600   1.094  16.785  1.00  0.00     0.293 HD
ENDBRANCH  18  21
ENDBRANCH   3  13
BRANCH   9  23
ATOM     23  O   UNL     1      -7.507   1.003  28.103  1.00  0.00    -0.507 OA
ATOM     24  H   UNL     1      -7.936   1.163  29.005  1.00  0.00     0.293 HD
ENDBRANCH   9  23
BRANCH   7  25
ATOM     25  O   UNL     1     -10.339  -2.703  26.939  1.00  0.00    -0.508 OA
ATOM     26  H   UNL     1     -10.038  -3.377  27.632  1.00  0.00     0.293 HD
ENDBRANCH   7  25
TORSDOF 6
ENDMDL
MODEL 8
REMARK VINA RESULT:    -7.056     11.367     14.069
REMARK INTER + INTRA:          -8.197
REMARK INTER:                  -7.824
REMARK INTRA:                  -0.373
REMARK UNBOUND:                 0.303
REMARK SMILES Oc1cc(O)c2c(c1)O[C@@H](c1ccc(O)c(O)c1)[C@H](O)C2
REMARK SMILES IDX 21 1 19 2 10 3 9 4 7 5 8 6 2 7 3 8 4 9 6 10 20 11 11 13
REMARK SMILES IDX 18 14 12 15 16 16 13 17 14 18 17 19 15 21 5 23 1 25
REMARK H PARENT 20 12 17 20 15 22 5 24 1 26
REMARK Flexibility Score: inf
ROOT
ATOM      1  C   UNL     1      -3.971  -5.338  15.848  1.00  0.00     0.079 C 
ATOM      2  C   UNL     1      -2.468  -5.094  16.088  1.00  0.00     0.164 C 
ATOM      3  C   UNL     1      -1.667  -6.382  15.812  1.00  0.00     0.232 C 
ATOM      4  O   UNL     1      -1.928  -6.833  14.484  1.00  0.00    -0.482 OA
ATOM      5  C   UNL     1      -3.198  -6.755  13.902  1.00  0.00     0.131 A 
ATOM      6  C   UNL     1      -3.420  -7.386  12.675  1.00  0.00     0.093 A 
ATOM      7  C   UNL     1      -4.682  -7.338  12.075  1.00  0.00     0.122 A 
ATOM      8  C   UNL     1      -5.728  -6.665  12.710  1.00  0.00     0.092 A 
ATOM      9  C   UNL     1      -5.524  -6.027  13.940  1.00  0.00     0.126 A 
ATOM     10  C   UNL     1      -4.238  -6.035  14.531  1.00  0.00     0.039 A 
ENDROOT
BRANCH   2  11
ATOM     11  O   UNL     1      -2.246  -4.620  17.394  1.00  0.00    -0.389 OA
ATOM     12  H   UNL     1      -1.461  -4.013  17.365  1.00  0.00     0.211 HD
ENDBRANCH   2  11
BRANCH   3  13
ATOM     13  C   UNL     1      -0.185  -6.152  15.991  1.00  0.00    -0.001 A 
ATOM     14  C   UNL     1       0.531  -6.851  16.980  1.00  0.00     0.057 A 
ATOM     15  C   UNL     1       0.502  -5.275  15.138  1.00  0.00     0.012 A 
ATOM     16  C   UNL     1       1.910  -6.660  17.128  1.00  0.00     0.157 A 
ATOM     17  C   UNL     1       1.878  -5.082  15.284  1.00  0.00     0.050 A 
ATOM     18  C   UNL     1       2.588  -5.771  16.277  1.00  0.00     0.157 A 
BRANCH  16  19
ATOM     19  O   UNL     1       2.588  -7.364  18.122  1.00  0.00    -0.504 OA
ATOM     20  H   UNL     1       3.133  -8.192  17.919  1.00  0.00     0.293 HD
ENDBRANCH  16  19
BRANCH  18  21
ATOM     21  O   UNL     1       3.961  -5.575  16.420  1.00  0.00    -0.504 OA
ATOM     22  H   UNL     1       4.629  -6.288  16.152  1.00  0.00     0.293 HD
ENDBRANCH  18  21
ENDBRANCH   3  13
BRANCH   9  23
ATOM     23  O   UNL     1      -6.619  -5.409  14.547  1.00  0.00    -0.507 OA
ATOM     24  H   UNL     1      -6.542  -4.582  15.125  1.00  0.00     0.293 HD
ENDBRANCH   9  23
BRANCH   7  25
ATOM     25  O   UNL     1      -4.911  -7.963  10.851  1.00  0.00    -0.508 OA
ATOM     26  H   UNL     1      -5.533  -8.758  10.770  1.00  0.00     0.293 HD
ENDBRANCH   7  25
TORSDOF 6
ENDMDL
MODEL 9
REMARK VINA RESULT:    -6.991     10.780     11.682
REMARK INTER + INTRA:          -8.119
REMARK INTER:                  -7.750
REMARK INTRA:                  -0.368
REMARK UNBOUND:                 0.303
REMARK SMILES Oc1cc(O)c2c(c1)O[C@@H](c1ccc(O)c(O)c1)[C@H](O)C2
REMARK SMILES IDX 21 1 19 2 10 3 9 4 7 5 8 6 2 7 3 8 4 9 6 10 20 11 11 13
REMARK SMILES IDX 18 14 12 15 16 16 13 17 14 18 17 19 15 21 5 23 1 25
REMARK H PARENT 20 12 17 20 15 22 5 24 1 26
REMARK Flexibility Score: inf
ROOT
ATOM      1  C   UNL     1       1.199  -9.409  17.401  1.00  0.00     0.079 C 
ATOM      2  C   UNL     1       0.040  -9.005  16.469  1.00  0.00     0.164 C 
ATOM      3  C   UNL     1      -0.334  -7.527  16.693  1.00  0.00     0.232 C 
ATOM      4  O   UNL     1       0.816  -6.706  16.498  1.00  0.00    -0.482 OA
ATOM      5  C   UNL     1       2.094  -7.094  16.918  1.00  0.00     0.131 A 
ATOM      6  C   UNL     1       3.135  -6.163  16.865  1.00  0.00     0.093 A 
ATOM      7  C   UNL     1       4.419  -6.517  17.292  1.00  0.00     0.122 A 
ATOM      8  C   UNL     1       4.658  -7.801  17.783  1.00  0.00     0.092 A 
ATOM      9  C   UNL     1       3.627  -8.747  17.845  1.00  0.00     0.126 A 
ATOM     10  C   UNL     1       2.336  -8.409  17.373  1.00  0.00     0.039 A 
ENDROOT
BRANCH   2  11
ATOM     11  O   UNL     1      -1.068  -9.851  16.663  1.00  0.00    -0.389 OA
ATOM     12  H   UNL     1      -0.945 -10.313  17.533  1.00  0.00     0.211 HD
ENDBRANCH   2  11
BRANCH   3  13
ATOM     13  C   UNL     1      -1.435  -7.094  15.754  1.00  0.00    -0.001 A 
ATOM     14  C   UNL     1      -2.645  -6.584  16.259  1.00  0.00     0.057 A 
ATOM     15  C   UNL     1      -1.241  -7.150  14.365  1.00  0.00     0.012 A 
ATOM     16  C   UNL     1      -3.655  -6.156  15.389  1.00  0.00     0.157 A 
ATOM     17  C   UNL     1      -2.248  -6.724  13.495  1.00  0.00     0.050 A 
ATOM     18  C   UNL     1      -3.457  -6.227  13.999  1.00  0.00     0.157 A 
BRANCH  16  19
ATOM     19  O   UNL     1      -4.844  -5.663  15.923  1.00  0.00    -0.504 OA
ATOM     20  H   UNL     1      -5.716  -6.173  15.858  1.00  0.00     0.293 HD
ENDBRANCH  16  19
BRANCH  18  21
ATOM     21  O   UNL     1      -4.459  -5.804  13.128  1.00  0.00    -0.504 OA
ATOM     22  H   UNL     1      -4.259  -5.574  12.161  1.00  0.00     0.293 HD
ENDBRANCH  18  21
ENDBRANCH   3  13
BRANCH   9  23
ATOM     23  O   UNL     1       3.918 -10.000  18.387  1.00  0.00    -0.507 OA
ATOM     24  H   UNL     1       4.552 -10.136  19.163  1.00  0.00     0.293 HD
ENDBRANCH   9  23
BRANCH   7  25
ATOM     25  O   UNL     1       5.463  -5.595  17.240  1.00  0.00    -0.508 OA
ATOM     26  H   UNL     1       5.479  -4.779  17.840  1.00  0.00     0.293 HD
ENDBRANCH   7  25
TORSDOF 6
ENDMDL
