MODEL 1
REMARK VINA RESULT:    -4.404      0.000      0.000
REMARK INTER + INTRA:          -5.094
REMARK INTER:                  -5.047
REMARK INTRA:                  -0.047
REMARK UNBOUND:                -0.047
REMARK SMILES O=C([O-])c1cc(O)c(O)c(O)c1
REMARK SMILES IDX 4 1 5 2 12 3 6 4 10 5 8 6 2 7 1 8 3 9 7 10 11 12 9 14
REMARK H PARENT 7 11 11 13 9 15
REMARK Flexibility Score: inf
ROOT
ATOM      1  C   UNL     1      36.178 -31.724   9.500  1.00  0.00     0.005 A 
ATOM      2  C   UNL     1      36.043 -30.350   9.759  1.00  0.00     0.060 A 
ATOM      3  C   UNL     1      35.488 -32.642  10.311  1.00  0.00     0.060 A 
ATOM      4  C   UNL     1      35.232 -29.899  10.809  1.00  0.00     0.162 A 
ATOM      5  C   UNL     1      34.677 -32.196  11.363  1.00  0.00     0.162 A 
ATOM      6  C   UNL     1      34.547 -30.819  11.612  1.00  0.00     0.200 A 
ENDROOT
BRANCH   1   7
ATOM      7  C   UNL     1      37.037 -32.194   8.390  1.00  0.00     0.072 C 
ATOM      8  O   UNL     1      36.861 -31.766   7.219  1.00  0.00    -0.545 OA
ATOM      9  O   UNL     1      38.051 -33.115   8.626  1.00  0.00    -0.545 OA
ENDBRANCH   1   7
BRANCH   4  10
ATOM     10  O   UNL     1      35.101 -28.534  11.061  1.00  0.00    -0.504 OA
ATOM     11  H   UNL     1      34.940 -28.180  11.997  1.00  0.00     0.293 HD
ENDBRANCH   4  10
BRANCH   5  12
ATOM     12  O   UNL     1      33.996 -33.116  12.161  1.00  0.00    -0.504 OA
ATOM     13  H   UNL     1      33.411 -32.819  12.932  1.00  0.00     0.293 HD
ENDBRANCH   5  12
BRANCH   6  14
ATOM     14  O   UNL     1      33.744 -30.351  12.653  1.00  0.00    -0.502 OA
ATOM     15  H   UNL     1      33.708 -30.811  13.555  1.00  0.00     0.293 HD
ENDBRANCH   6  14
TORSDOF 4
ENDMDL
MODEL 2
REMARK VINA RESULT:    -4.390      0.116      2.424
REMARK INTER + INTRA:          -5.078
REMARK INTER:                  -5.031
REMARK INTRA:                  -0.047
REMARK UNBOUND:                -0.047
REMARK SMILES O=C([O-])c1cc(O)c(O)c(O)c1
REMARK SMILES IDX 4 1 5 2 12 3 6 4 10 5 8 6 2 7 1 8 3 9 7 10 11 12 9 14
REMARK H PARENT 7 11 11 13 9 15
REMARK Flexibility Score: inf
ROOT
ATOM      1  C   UNL     1      36.131 -31.631   9.553  1.00  0.00     0.005 A 
ATOM      2  C   UNL     1      35.422 -32.551  10.343  1.00  0.00     0.060 A 
ATOM      3  C   UNL     1      36.013 -30.258   9.832  1.00  0.00     0.060 A 
ATOM      4  C   UNL     1      34.610 -32.110  11.395  1.00  0.00     0.162 A 
ATOM      5  C   UNL     1      35.201 -29.812  10.884  1.00  0.00     0.162 A 
ATOM      6  C   UNL     1      34.497 -30.741  11.668  1.00  0.00     0.200 A 
ENDROOT
BRANCH   1   7
ATOM      7  C   UNL     1      36.988 -32.103   8.442  1.00  0.00     0.072 C 
ATOM      8  O   UNL     1      36.807 -31.681   7.269  1.00  0.00    -0.545 OA
ATOM      9  O   UNL     1      38.007 -33.019   8.679  1.00  0.00    -0.545 OA
ENDBRANCH   1   7
BRANCH   4  10
ATOM     10  O   UNL     1      33.908 -33.027  12.175  1.00  0.00    -0.504 OA
ATOM     11  H   UNL     1      34.207 -33.263  13.115  1.00  0.00     0.293 HD
ENDBRANCH   4  10
BRANCH   5  12
ATOM     12  O   UNL     1      35.091 -28.447  11.152  1.00  0.00    -0.504 OA
ATOM     13  H   UNL     1      34.854 -28.106  12.076  1.00  0.00     0.293 HD
ENDBRANCH   5  12
BRANCH   6  14
ATOM     14  O   UNL     1      33.682 -30.320  12.720  1.00  0.00    -0.502 OA
ATOM     15  H   UNL     1      34.064 -29.990  13.599  1.00  0.00     0.293 HD
ENDBRANCH   6  14
TORSDOF 4
ENDMDL
MODEL 3
REMARK VINA RESULT:    -4.252      1.560      4.533
REMARK INTER + INTRA:          -4.920
REMARK INTER:                  -4.875
REMARK INTRA:                  -0.045
REMARK UNBOUND:                -0.047
REMARK SMILES O=C([O-])c1cc(O)c(O)c(O)c1
REMARK SMILES IDX 4 1 5 2 12 3 6 4 10 5 8 6 2 7 1 8 3 9 7 10 11 12 9 14
REMARK H PARENT 7 11 11 13 9 15
REMARK Flexibility Score: inf
ROOT
ATOM      1  C   UNL     1      35.164 -30.085  10.820  1.00  0.00     0.005 A 
ATOM      2  C   UNL     1      34.407 -30.875   9.938  1.00  0.00     0.060 A 
ATOM      3  C   UNL     1      36.562 -30.233  10.840  1.00  0.00     0.060 A 
ATOM      4  C   UNL     1      35.034 -31.797   9.090  1.00  0.00     0.162 A 
ATOM      5  C   UNL     1      37.194 -31.155   9.994  1.00  0.00     0.162 A 
ATOM      6  C   UNL     1      36.427 -31.939   9.115  1.00  0.00     0.200 A 
ENDROOT
BRANCH   1   7
ATOM      7  C   UNL     1      34.495 -29.113  11.714  1.00  0.00     0.072 C 
ATOM      8  O   UNL     1      34.436 -27.893  11.405  1.00  0.00    -0.545 OA
ATOM      9  O   UNL     1      33.922 -29.534  12.908  1.00  0.00    -0.545 OA
ENDBRANCH   1   7
BRANCH   4  10
ATOM     10  O   UNL     1      34.278 -32.578   8.217  1.00  0.00    -0.504 OA
ATOM     11  H   UNL     1      33.348 -32.899   8.462  1.00  0.00     0.293 HD
ENDBRANCH   4  10
BRANCH   5  12
ATOM     12  O   UNL     1      38.581 -31.294  10.022  1.00  0.00    -0.504 OA
ATOM     13  H   UNL     1      39.145 -31.160   9.191  1.00  0.00     0.293 HD
ENDBRANCH   5  12
BRANCH   6  14
ATOM     14  O   UNL     1      37.034 -32.863   8.263  1.00  0.00    -0.502 OA
ATOM     15  H   UNL     1      37.409 -32.598   7.360  1.00  0.00     0.293 HD
ENDBRANCH   6  14
TORSDOF 4
ENDMDL
MODEL 4
REMARK VINA RESULT:    -4.251      1.543      4.286
REMARK INTER + INTRA:          -4.920
REMARK INTER:                  -4.875
REMARK INTRA:                  -0.045
REMARK UNBOUND:                -0.047
REMARK SMILES O=C([O-])c1cc(O)c(O)c(O)c1
REMARK SMILES IDX 4 1 5 2 12 3 6 4 10 5 8 6 2 7 1 8 3 9 7 10 11 12 9 14
REMARK H PARENT 7 11 11 13 9 15
REMARK Flexibility Score: inf
ROOT
ATOM      1  C   UNL     1      35.222 -30.115  10.811  1.00  0.00     0.005 A 
ATOM      2  C   UNL     1      36.619 -30.259  10.848  1.00  0.00     0.060 A 
ATOM      3  C   UNL     1      34.478 -30.912   9.924  1.00  0.00     0.060 A 
ATOM      4  C   UNL     1      37.263 -31.184  10.016  1.00  0.00     0.162 A 
ATOM      5  C   UNL     1      35.117 -31.839   9.089  1.00  0.00     0.162 A 
ATOM      6  C   UNL     1      36.514 -31.976   9.136  1.00  0.00     0.200 A 
ENDROOT
BRANCH   1   7
ATOM      7  C   UNL     1      34.548 -29.135  11.692  1.00  0.00     0.072 C 
ATOM      8  O   UNL     1      34.536 -27.910  11.398  1.00  0.00    -0.545 OA
ATOM      9  O   UNL     1      33.917 -29.554  12.858  1.00  0.00    -0.545 OA
ENDBRANCH   1   7
BRANCH   4  10
ATOM     10  O   UNL     1      38.649 -31.323  10.058  1.00  0.00    -0.504 OA
ATOM     11  H   UNL     1      39.259 -30.525  10.193  1.00  0.00     0.293 HD
ENDBRANCH   4  10
BRANCH   5  12
ATOM     12  O   UNL     1      34.368 -32.625   8.214  1.00  0.00    -0.504 OA
ATOM     13  H   UNL     1      33.518 -32.280   7.785  1.00  0.00     0.293 HD
ENDBRANCH   5  12
BRANCH   6  14
ATOM     14  O   UNL     1      37.173 -32.892   8.315  1.00  0.00    -0.502 OA
ATOM     15  H   UNL     1      37.560 -33.756   8.673  1.00  0.00     0.293 HD
ENDBRANCH   6  14
TORSDOF 4
ENDMDL
MODEL 5
REMARK VINA RESULT:    -3.636      2.000      2.574
REMARK INTER + INTRA:          -4.214
REMARK INTER:                  -4.161
REMARK INTRA:                  -0.053
REMARK UNBOUND:                -0.047
REMARK SMILES O=C([O-])c1cc(O)c(O)c(O)c1
REMARK SMILES IDX 4 1 5 2 12 3 6 4 10 5 8 6 2 7 1 8 3 9 7 10 11 12 9 14
REMARK H PARENT 7 11 11 13 9 15
REMARK Flexibility Score: inf
ROOT
ATOM      1  C   UNL     1      37.712 -31.672  10.012  1.00  0.00     0.005 A 
ATOM      2  C   UNL     1      37.206 -30.513  10.624  1.00  0.00     0.060 A 
ATOM      3  C   UNL     1      36.851 -32.462   9.230  1.00  0.00     0.060 A 
ATOM      4  C   UNL     1      35.864 -30.147  10.457  1.00  0.00     0.162 A 
ATOM      5  C   UNL     1      35.507 -32.101   9.062  1.00  0.00     0.162 A 
ATOM      6  C   UNL     1      35.012 -30.939   9.677  1.00  0.00     0.200 A 
ENDROOT
BRANCH   1   7
ATOM      7  C   UNL     1      39.131 -32.053  10.192  1.00  0.00     0.072 C 
ATOM      8  O   UNL     1      39.577 -33.119   9.690  1.00  0.00    -0.545 OA
ATOM      9  O   UNL     1      39.992 -31.238  10.917  1.00  0.00    -0.545 OA
ENDBRANCH   1   7
BRANCH   4  10
ATOM     10  O   UNL     1      35.367 -28.996  11.066  1.00  0.00    -0.504 OA
ATOM     11  H   UNL     1      34.491 -28.577  10.775  1.00  0.00     0.293 HD
ENDBRANCH   4  10
BRANCH   5  12
ATOM     12  O   UNL     1      34.663 -32.892   8.283  1.00  0.00    -0.504 OA
ATOM     13  H   UNL     1      34.349 -33.802   8.598  1.00  0.00     0.293 HD
ENDBRANCH   5  12
BRANCH   6  14
ATOM     14  O   UNL     1      33.678 -30.559   9.523  1.00  0.00    -0.502 OA
ATOM     15  H   UNL     1      32.912 -31.135   9.849  1.00  0.00     0.293 HD
ENDBRANCH   6  14
TORSDOF 4
ENDMDL
MODEL 6
REMARK VINA RESULT:    -3.582      2.226      3.402
REMARK INTER + INTRA:          -4.153
REMARK INTER:                  -4.100
REMARK INTRA:                  -0.053
REMARK UNBOUND:                -0.047
REMARK SMILES O=C([O-])c1cc(O)c(O)c(O)c1
REMARK SMILES IDX 4 1 5 2 12 3 6 4 10 5 8 6 2 7 1 8 3 9 7 10 11 12 9 14
REMARK H PARENT 7 11 11 13 9 15
REMARK Flexibility Score: inf
ROOT
ATOM      1  C   UNL     1      37.836 -31.152  10.355  1.00  0.00     0.005 A 
ATOM      2  C   UNL     1      37.186 -32.027   9.468  1.00  0.00     0.060 A 
ATOM      3  C   UNL     1      37.107 -30.099  10.931  1.00  0.00     0.060 A 
ATOM      4  C   UNL     1      35.830 -31.854   9.162  1.00  0.00     0.162 A 
ATOM      5  C   UNL     1      35.750 -29.920  10.628  1.00  0.00     0.162 A 
ATOM      6  C   UNL     1      35.109 -30.802   9.741  1.00  0.00     0.200 A 
ENDROOT
BRANCH   1   7
ATOM      7  C   UNL     1      39.270 -31.341  10.673  1.00  0.00     0.072 C 
ATOM      8  O   UNL     1      39.938 -32.248  10.110  1.00  0.00    -0.545 OA
ATOM      9  O   UNL     1      39.900 -30.516  11.598  1.00  0.00    -0.545 OA
ENDBRANCH   1   7
BRANCH   4  10
ATOM     10  O   UNL     1      35.190 -32.724   8.282  1.00  0.00    -0.504 OA
ATOM     11  H   UNL     1      35.223 -32.584   7.278  1.00  0.00     0.293 HD
ENDBRANCH   4  10
BRANCH   5  12
ATOM     12  O   UNL     1      35.035 -28.872  11.207  1.00  0.00    -0.504 OA
ATOM     13  H   UNL     1      34.044 -28.947  11.398  1.00  0.00     0.293 HD
ENDBRANCH   5  12
BRANCH   6  14
ATOM     14  O   UNL     1      33.759 -30.645   9.424  1.00  0.00    -0.502 OA
ATOM     15  H   UNL     1      33.158 -31.434   9.221  1.00  0.00     0.293 HD
ENDBRANCH   6  14
TORSDOF 4
ENDMDL
MODEL 7
REMARK VINA RESULT:    -3.066      2.159      4.359
REMARK INTER + INTRA:          -3.562
REMARK INTER:                  -3.510
REMARK INTRA:                  -0.052
REMARK UNBOUND:                -0.047
REMARK SMILES O=C([O-])c1cc(O)c(O)c(O)c1
REMARK SMILES IDX 4 1 5 2 12 3 6 4 10 5 8 6 2 7 1 8 3 9 7 10 11 12 9 14
REMARK H PARENT 7 11 11 13 9 15
REMARK Flexibility Score: inf
ROOT
ATOM      1  C   UNL     1      36.036 -28.754  11.468  1.00  0.00     0.005 A 
ATOM      2  C   UNL     1      34.641 -28.921  11.502  1.00  0.00     0.060 A 
ATOM      3  C   UNL     1      36.805 -29.599  10.650  1.00  0.00     0.060 A 
ATOM      4  C   UNL     1      34.024 -29.914  10.730  1.00  0.00     0.162 A 
ATOM      5  C   UNL     1      36.192 -30.594   9.876  1.00  0.00     0.162 A 
ATOM      6  C   UNL     1      34.797 -30.752   9.916  1.00  0.00     0.200 A 
ENDROOT
BRANCH   1   7
ATOM      7  C   UNL     1      36.682 -27.703  12.287  1.00  0.00     0.072 C 
ATOM      8  O   UNL     1      37.835 -27.285  11.999  1.00  0.00    -0.545 OA
ATOM      9  O   UNL     1      36.023 -27.161  13.385  1.00  0.00    -0.545 OA
ENDBRANCH   1   7
BRANCH   4  10
ATOM     10  O   UNL     1      32.640 -30.076  10.766  1.00  0.00    -0.504 OA
ATOM     11  H   UNL     1      32.072 -29.635  11.481  1.00  0.00     0.293 HD
ENDBRANCH   4  10
BRANCH   5  12
ATOM     12  O   UNL     1      36.966 -31.426   9.067  1.00  0.00    -0.504 OA
ATOM     13  H   UNL     1      36.708 -32.391   8.897  1.00  0.00     0.293 HD
ENDBRANCH   5  12
BRANCH   6  14
ATOM     14  O   UNL     1      34.164 -31.736   9.154  1.00  0.00    -0.502 OA
ATOM     15  H   UNL     1      34.682 -32.378   8.566  1.00  0.00     0.293 HD
ENDBRANCH   6  14
TORSDOF 4
ENDMDL
MODEL 8
REMARK VINA RESULT:    -2.926      2.370      3.370
REMARK INTER + INTRA:          -3.400
REMARK INTER:                  -3.353
REMARK INTRA:                  -0.048
REMARK UNBOUND:                -0.047
REMARK SMILES O=C([O-])c1cc(O)c(O)c(O)c1
REMARK SMILES IDX 4 1 5 2 12 3 6 4 10 5 8 6 2 7 1 8 3 9 7 10 11 12 9 14
REMARK H PARENT 7 11 11 13 9 15
REMARK Flexibility Score: inf
ROOT
ATOM      1  C   UNL     1      36.382 -32.283   8.345  1.00  0.00     0.005 A 
ATOM      2  C   UNL     1      35.976 -31.150   9.068  1.00  0.00     0.060 A 
ATOM      3  C   UNL     1      37.625 -32.871   8.639  1.00  0.00     0.060 A 
ATOM      4  C   UNL     1      36.794 -30.612  10.070  1.00  0.00     0.162 A 
ATOM      5  C   UNL     1      38.448 -32.336   9.639  1.00  0.00     0.162 A 
ATOM      6  C   UNL     1      38.031 -31.203  10.358  1.00  0.00     0.200 A 
ENDROOT
BRANCH   1   7
ATOM      7  C   UNL     1      35.512 -32.846   7.287  1.00  0.00     0.072 C 
ATOM      8  O   UNL     1      35.971 -33.082   6.138  1.00  0.00    -0.545 OA
ATOM      9  O   UNL     1      34.176 -33.125   7.549  1.00  0.00    -0.545 OA
ENDBRANCH   1   7
BRANCH   4  10
ATOM     10  O   UNL     1      36.386 -29.488  10.785  1.00  0.00    -0.504 OA
ATOM     11  H   UNL     1      36.691 -29.324  11.738  1.00  0.00     0.293 HD
ENDBRANCH   4  10
BRANCH   5  12
ATOM     12  O   UNL     1      39.679 -32.928   9.923  1.00  0.00    -0.504 OA
ATOM     13  H   UNL     1      39.744 -33.879  10.264  1.00  0.00     0.293 HD
ENDBRANCH   5  12
BRANCH   6  14
ATOM     14  O   UNL     1      38.833 -30.653  11.359  1.00  0.00    -0.502 OA
ATOM     15  H   UNL     1      39.117 -31.183  12.174  1.00  0.00     0.293 HD
ENDBRANCH   6  14
TORSDOF 4
ENDMDL
MODEL 9
REMARK VINA RESULT:    -2.767     22.057     23.140
REMARK INTER + INTRA:          -3.218
REMARK INTER:                  -3.166
REMARK INTRA:                  -0.052
REMARK UNBOUND:                -0.047
REMARK SMILES O=C([O-])c1cc(O)c(O)c(O)c1
REMARK SMILES IDX 4 1 5 2 12 3 6 4 10 5 8 6 2 7 1 8 3 9 7 10 11 12 9 14
REMARK H PARENT 7 11 11 13 9 15
REMARK Flexibility Score: inf
ROOT
ATOM      1  C   UNL     1      20.571 -15.288   4.983  1.00  0.00     0.005 A 
ATOM      2  C   UNL     1      20.211 -16.597   4.625  1.00  0.00     0.060 A 
ATOM      3  C   UNL     1      20.969 -14.390   3.977  1.00  0.00     0.060 A 
ATOM      4  C   UNL     1      20.244 -17.004   3.284  1.00  0.00     0.162 A 
ATOM      5  C   UNL     1      21.005 -14.793   2.635  1.00  0.00     0.162 A 
ATOM      6  C   UNL     1      20.641 -16.105   2.288  1.00  0.00     0.200 A 
ENDROOT
BRANCH   1   7
ATOM      7  C   UNL     1      20.534 -14.864   6.401  1.00  0.00     0.072 C 
ATOM      8  O   UNL     1      19.875 -15.522   7.249  1.00  0.00    -0.545 OA
ATOM      9  O   UNL     1      21.229 -13.734   6.816  1.00  0.00    -0.545 OA
ENDBRANCH   1   7
BRANCH   4  10
ATOM     10  O   UNL     1      19.885 -18.305   2.934  1.00  0.00    -0.504 OA
ATOM     11  H   UNL     1      19.850 -19.050   3.621  1.00  0.00     0.293 HD
ENDBRANCH   4  10
BRANCH   5  12
ATOM     12  O   UNL     1      21.400 -13.893   1.645  1.00  0.00    -0.504 OA
ATOM     13  H   UNL     1      21.643 -14.204   0.712  1.00  0.00     0.293 HD
ENDBRANCH   5  12
BRANCH   6  14
ATOM     14  O   UNL     1      20.668 -16.528   0.958  1.00  0.00    -0.502 OA
ATOM     15  H   UNL     1      19.941 -17.112   0.563  1.00  0.00     0.293 HD
ENDBRANCH   6  14
TORSDOF 4
ENDMDL
