MODEL 1
REMARK VINA RESULT:    -6.810      0.000      0.000
REMARK INTER + INTRA:         -10.294
REMARK INTER:                  -9.398
REMARK INTRA:                  -0.896
REMARK UNBOUND:                -0.896
REMARK SMILES CC[C@@H](CC[C@H](C)[C@H]1CC[C@H]2C3=CC[C@H]4C[C@@H](O)CC[C@@]4(C)[C@@H]3CC[C@@]12C)C(C)C
REMARK SMILES IDX 5 1 4 2 3 3 2 4 1 5 28 6 29 7 30 8 6 9 7 10 8 11 9 12 26 13
REMARK SMILES IDX 10 14 11 15 25 16 27 17 12 18 24 19 23 20 13 21 21 22 14 23
REMARK SMILES IDX 15 24 20 25 22 26 16 27 19 28 17 29 18 30
REMARK H PARENT 18 31
REMARK Flexibility Score: inf
ROOT
ATOM      1  C   UNL     1     115.122 125.580 124.241  1.00  0.00     0.004 C 
ENDROOT
BRANCH   1   2
ATOM      2  C   UNL     1     114.038 126.677 124.287  1.00  0.00     0.004 C 
BRANCH   2   3
ATOM      3  C   UNL     1     113.936 127.382 125.670  1.00  0.00    -0.009 C 
BRANCH   3   4
ATOM      4  C   UNL     1     114.831 126.656 126.715  1.00  0.00     0.000 C 
ATOM      5  C   UNL     1     116.051 127.469 127.156  1.00  0.00     0.004 C 
ENDBRANCH   3   4
BRANCH   3   6
ATOM      6  C   UNL     1     112.453 127.547 126.148  1.00  0.00    -0.014 C 
ATOM      7  C   UNL     1     112.354 128.106 127.579  1.00  0.00     0.007 C 
ATOM      8  C   UNL     1     111.585 128.386 125.193  1.00  0.00     0.007 C 
ENDBRANCH   3   6
ENDBRANCH   2   3
ENDBRANCH   1   2
BRANCH   1   9
ATOM      9  C   UNL     1     115.154 124.797 122.901  1.00  0.00    -0.011 C 
ATOM     10  C   UNL     1     113.893 125.110 122.067  1.00  0.00     0.008 C 
BRANCH   9  11
ATOM     11  C   UNL     1     115.401 123.265 123.175  1.00  0.00    -0.002 C 
ATOM     12  C   UNL     1     114.236 122.301 122.885  1.00  0.00     0.005 C 
ATOM     13  C   UNL     1     116.640 122.616 122.501  1.00  0.00    -0.023 C 
ATOM     14  C   UNL     1     114.869 120.916 122.705  1.00  0.00     0.009 C 
ATOM     15  C   UNL     1     116.389 121.118 122.791  1.00  0.00     0.021 C 
ATOM     16  C   UNL     1     116.687 122.892 120.965  1.00  0.00     0.008 C 
ATOM     17  C   UNL     1     117.955 123.087 123.170  1.00  0.00     0.012 C 
ATOM     18  C   UNL     1     117.202 120.204 121.881  1.00  0.00    -0.067 C 
ATOM     19  C   UNL     1     117.604 121.932 120.188  1.00  0.00     0.009 C 
ATOM     20  C   UNL     1     117.147 120.463 120.384  1.00  0.00     0.021 C 
ATOM     21  C   UNL     1     118.169 119.448 122.433  1.00  0.00    -0.027 C 
ATOM     22  C   UNL     1     117.902 119.385 119.506  1.00  0.00    -0.023 C 
ATOM     23  C   UNL     1     119.083 118.563 121.647  1.00  0.00     0.031 C 
ATOM     24  C   UNL     1     119.251 118.984 120.171  1.00  0.00     0.002 C 
ATOM     25  C   UNL     1     117.011 118.113 119.380  1.00  0.00     0.010 C 
ATOM     26  C   UNL     1     118.153 119.963 118.079  1.00  0.00     0.012 C 
ATOM     27  C   UNL     1     119.975 117.864 119.376  1.00  0.00     0.036 C 
ATOM     28  C   UNL     1     117.679 116.965 118.597  1.00  0.00     0.032 C 
ATOM     29  C   UNL     1     119.104 116.619 119.082  1.00  0.00     0.114 C 
BRANCH  29  30
ATOM     30  O   UNL     1     119.050 115.786 120.211  1.00  0.00    -0.393 OA
ATOM     31  H   UNL     1     119.708 116.138 120.866  1.00  0.00     0.210 HD
ENDBRANCH  29  30
ENDBRANCH   9  11
ENDBRANCH   1   9
TORSDOF 7
ENDMDL
MODEL 2
REMARK VINA RESULT:    -6.798      3.132      5.183
REMARK INTER + INTRA:         -10.277
REMARK INTER:                  -8.589
REMARK INTRA:                  -1.688
REMARK UNBOUND:                -0.896
REMARK SMILES CC[C@@H](CC[C@H](C)[C@H]1CC[C@H]2C3=CC[C@H]4C[C@@H](O)CC[C@@]4(C)[C@@H]3CC[C@@]12C)C(C)C
REMARK SMILES IDX 5 1 4 2 3 3 2 4 1 5 28 6 29 7 30 8 6 9 7 10 8 11 9 12 26 13
REMARK SMILES IDX 10 14 11 15 25 16 27 17 12 18 24 19 23 20 13 21 21 22 14 23
REMARK SMILES IDX 15 24 20 25 22 26 16 27 19 28 17 29 18 30
REMARK H PARENT 18 31
REMARK Flexibility Score: inf
ROOT
ATOM      1  C   UNL     1     113.905 122.444 123.631  1.00  0.00     0.004 C 
ENDROOT
BRANCH   1   2
ATOM      2  C   UNL     1     113.275 121.470 124.650  1.00  0.00     0.004 C 
BRANCH   2   3
ATOM      3  C   UNL     1     113.445 119.975 124.255  1.00  0.00    -0.009 C 
BRANCH   3   4
ATOM      4  C   UNL     1     112.109 119.406 123.698  1.00  0.00     0.000 C 
ATOM      5  C   UNL     1     111.842 119.772 122.236  1.00  0.00     0.004 C 
ENDBRANCH   3   4
BRANCH   3   6
ATOM      6  C   UNL     1     114.034 119.113 125.424  1.00  0.00    -0.014 C 
ATOM      7  C   UNL     1     115.485 119.497 125.764  1.00  0.00     0.007 C 
ATOM      8  C   UNL     1     113.171 119.126 126.698  1.00  0.00     0.007 C 
ENDBRANCH   3   6
ENDBRANCH   2   3
ENDBRANCH   1   2
BRANCH   1   9
ATOM      9  C   UNL     1     115.454 122.357 123.568  1.00  0.00    -0.011 C 
ATOM     10  C   UNL     1     116.089 123.430 124.479  1.00  0.00     0.008 C 
BRANCH   9  11
ATOM     11  C   UNL     1     115.937 122.394 122.069  1.00  0.00    -0.002 C 
ATOM     12  C   UNL     1     116.818 123.583 121.642  1.00  0.00     0.005 C 
ATOM     13  C   UNL     1     116.667 121.135 121.529  1.00  0.00    -0.023 C 
ATOM     14  C   UNL     1     117.567 123.123 120.385  1.00  0.00     0.009 C 
ATOM     15  C   UNL     1     117.188 121.651 120.167  1.00  0.00     0.021 C 
ATOM     16  C   UNL     1     117.847 120.697 122.453  1.00  0.00     0.008 C 
ATOM     17  C   UNL     1     115.683 119.958 121.324  1.00  0.00     0.012 C 
ATOM     18  C   UNL     1     118.309 120.784 119.605  1.00  0.00    -0.067 C 
ATOM     19  C   UNL     1     118.863 119.768 121.767  1.00  0.00     0.009 C 
ATOM     20  C   UNL     1     119.478 120.456 120.521  1.00  0.00     0.021 C 
ATOM     21  C   UNL     1     118.074 120.085 118.479  1.00  0.00    -0.027 C 
ATOM     22  C   UNL     1     120.660 119.675 119.817  1.00  0.00    -0.023 C 
ATOM     23  C   UNL     1     119.061 119.147 117.863  1.00  0.00     0.031 C 
ATOM     24  C   UNL     1     120.102 118.585 118.857  1.00  0.00     0.002 C 
ATOM     25  C   UNL     1     121.515 120.680 118.987  1.00  0.00     0.010 C 
ATOM     26  C   UNL     1     121.570 119.025 120.904  1.00  0.00     0.012 C 
ATOM     27  C   UNL     1     121.238 117.860 118.087  1.00  0.00     0.036 C 
ATOM     28  C   UNL     1     122.661 120.015 118.201  1.00  0.00     0.032 C 
ATOM     29  C   UNL     1     122.221 118.803 117.352  1.00  0.00     0.114 C 
BRANCH  29  30
ATOM     30  O   UNL     1     121.665 119.230 116.135  1.00  0.00    -0.393 OA
ATOM     31  H   UNL     1     120.682 119.117 116.206  1.00  0.00     0.210 HD
ENDBRANCH  29  30
ENDBRANCH   9  11
ENDBRANCH   1   9
TORSDOF 7
ENDMDL
MODEL 3
REMARK VINA RESULT:    -6.745      6.100     11.621
REMARK INTER + INTRA:         -10.204
REMARK INTER:                  -8.351
REMARK INTRA:                  -1.853
REMARK UNBOUND:                -0.896
REMARK SMILES CC[C@@H](CC[C@H](C)[C@H]1CC[C@H]2C3=CC[C@H]4C[C@@H](O)CC[C@@]4(C)[C@@H]3CC[C@@]12C)C(C)C
REMARK SMILES IDX 5 1 4 2 3 3 2 4 1 5 28 6 29 7 30 8 6 9 7 10 8 11 9 12 26 13
REMARK SMILES IDX 10 14 11 15 25 16 27 17 12 18 24 19 23 20 13 21 21 22 14 23
REMARK SMILES IDX 15 24 20 25 22 26 16 27 19 28 17 29 18 30
REMARK H PARENT 18 31
REMARK Flexibility Score: inf
ROOT
ATOM      1  C   UNL     1     125.732 118.242 114.817  1.00  0.00     0.004 C 
ENDROOT
BRANCH   1   2
ATOM      2  C   UNL     1     125.222 118.436 113.374  1.00  0.00     0.004 C 
BRANCH   2   3
ATOM      3  C   UNL     1     124.250 119.642 113.223  1.00  0.00    -0.009 C 
BRANCH   3   4
ATOM      4  C   UNL     1     122.888 119.169 112.639  1.00  0.00     0.000 C 
ATOM      5  C   UNL     1     122.134 120.256 111.868  1.00  0.00     0.004 C 
ENDBRANCH   3   4
BRANCH   3   6
ATOM      6  C   UNL     1     124.885 120.821 112.410  1.00  0.00    -0.014 C 
ATOM      7  C   UNL     1     124.985 122.117 113.236  1.00  0.00     0.007 C 
ATOM      8  C   UNL     1     126.253 120.482 111.793  1.00  0.00     0.007 C 
ENDBRANCH   3   6
ENDBRANCH   2   3
ENDBRANCH   1   2
BRANCH   1   9
ATOM      9  C   UNL     1     125.258 119.351 115.795  1.00  0.00    -0.011 C 
ATOM     10  C   UNL     1     126.423 120.308 116.127  1.00  0.00     0.008 C 
BRANCH   9  11
ATOM     11  C   UNL     1     124.558 118.703 117.050  1.00  0.00    -0.002 C 
ATOM     12  C   UNL     1     124.573 119.511 118.360  1.00  0.00     0.005 C 
ATOM     13  C   UNL     1     123.087 118.237 116.878  1.00  0.00    -0.023 C 
ATOM     14  C   UNL     1     123.422 118.958 119.210  1.00  0.00     0.009 C 
ATOM     15  C   UNL     1     122.701 117.917 118.341  1.00  0.00     0.021 C 
ATOM     16  C   UNL     1     122.179 119.362 116.289  1.00  0.00     0.008 C 
ATOM     17  C   UNL     1     122.999 116.964 116.002  1.00  0.00     0.012 C 
ATOM     18  C   UNL     1     121.192 117.856 118.546  1.00  0.00    -0.067 C 
ATOM     19  C   UNL     1     120.675 119.127 116.514  1.00  0.00     0.009 C 
ATOM     20  C   UNL     1     120.359 119.019 118.028  1.00  0.00     0.021 C 
ATOM     21  C   UNL     1     120.636 116.671 118.858  1.00  0.00    -0.027 C 
ATOM     22  C   UNL     1     118.825 118.944 118.407  1.00  0.00    -0.023 C 
ATOM     23  C   UNL     1     119.164 116.460 119.017  1.00  0.00     0.031 C 
ATOM     24  C   UNL     1     118.294 117.488 118.260  1.00  0.00     0.002 C 
ATOM     25  C   UNL     1     118.641 119.393 119.888  1.00  0.00     0.010 C 
ATOM     26  C   UNL     1     118.017 119.909 117.488  1.00  0.00     0.012 C 
ATOM     27  C   UNL     1     116.813 117.366 118.707  1.00  0.00     0.036 C 
ATOM     28  C   UNL     1     117.187 119.295 120.388  1.00  0.00     0.032 C 
ATOM     29  C   UNL     1     116.520 117.928 120.119  1.00  0.00     0.114 C 
BRANCH  29  30
ATOM     30  O   UNL     1     116.896 116.996 121.101  1.00  0.00    -0.393 OA
ATOM     31  H   UNL     1     117.398 116.273 120.641  1.00  0.00     0.210 HD
ENDBRANCH  29  30
ENDBRANCH   9  11
ENDBRANCH   1   9
TORSDOF 7
ENDMDL
MODEL 4
REMARK VINA RESULT:    -6.685      2.235      4.461
REMARK INTER + INTRA:         -10.121
REMARK INTER:                  -7.982
REMARK INTRA:                  -2.139
REMARK UNBOUND:                -0.896
REMARK SMILES CC[C@@H](CC[C@H](C)[C@H]1CC[C@H]2C3=CC[C@H]4C[C@@H](O)CC[C@@]4(C)[C@@H]3CC[C@@]12C)C(C)C
REMARK SMILES IDX 5 1 4 2 3 3 2 4 1 5 28 6 29 7 30 8 6 9 7 10 8 11 9 12 26 13
REMARK SMILES IDX 10 14 11 15 25 16 27 17 12 18 24 19 23 20 13 21 21 22 14 23
REMARK SMILES IDX 15 24 20 25 22 26 16 27 19 28 17 29 18 30
REMARK H PARENT 18 31
REMARK Flexibility Score: inf
ROOT
ATOM      1  C   UNL     1     115.240 121.906 124.245  1.00  0.00     0.004 C 
ENDROOT
BRANCH   1   2
ATOM      2  C   UNL     1     114.443 122.519 123.074  1.00  0.00     0.004 C 
BRANCH   2   3
ATOM      3  C   UNL     1     114.235 124.055 123.211  1.00  0.00    -0.009 C 
BRANCH   3   4
ATOM      4  C   UNL     1     114.255 124.731 121.810  1.00  0.00     0.000 C 
ATOM      5  C   UNL     1     114.495 123.756 120.654  1.00  0.00     0.004 C 
ENDBRANCH   3   4
BRANCH   3   6
ATOM      6  C   UNL     1     115.245 124.707 124.216  1.00  0.00    -0.014 C 
ATOM      7  C   UNL     1     116.292 125.587 123.511  1.00  0.00     0.007 C 
ATOM      8  C   UNL     1     114.566 125.497 125.349  1.00  0.00     0.007 C 
ENDBRANCH   3   6
ENDBRANCH   2   3
ENDBRANCH   1   2
BRANCH   1   9
ATOM      9  C   UNL     1     116.637 121.371 123.829  1.00  0.00    -0.011 C 
ATOM     10  C   UNL     1     117.721 121.890 124.798  1.00  0.00     0.008 C 
BRANCH   9  11
ATOM     11  C   UNL     1     116.906 121.686 122.309  1.00  0.00    -0.002 C 
ATOM     12  C   UNL     1     117.832 122.873 121.988  1.00  0.00     0.005 C 
ATOM     13  C   UNL     1     117.425 120.519 121.425  1.00  0.00    -0.023 C 
ATOM     14  C   UNL     1     118.348 122.634 120.563  1.00  0.00     0.009 C 
ATOM     15  C   UNL     1     117.798 121.269 120.125  1.00  0.00     0.021 C 
ATOM     16  C   UNL     1     118.673 119.818 122.048  1.00  0.00     0.008 C 
ATOM     17  C   UNL     1     116.309 119.481 121.153  1.00  0.00     0.012 C 
ATOM     18  C   UNL     1     118.737 120.463 119.236  1.00  0.00    -0.067 C 
ATOM     19  C   UNL     1     119.485 118.984 121.043  1.00  0.00     0.009 C 
ATOM     20  C   UNL     1     119.984 119.872 119.874  1.00  0.00     0.021 C 
ATOM     21  C   UNL     1     118.278 120.030 118.046  1.00  0.00    -0.027 C 
ATOM     22  C   UNL     1     120.973 119.175 118.854  1.00  0.00    -0.023 C 
ATOM     23  C   UNL     1     119.071 119.175 117.111  1.00  0.00     0.031 C 
ATOM     24  C   UNL     1     120.180 118.349 117.800  1.00  0.00     0.002 C 
ATOM     25  C   UNL     1     121.798 120.269 118.112  1.00  0.00     0.010 C 
ATOM     26  C   UNL     1     121.957 118.252 119.636  1.00  0.00     0.012 C 
ATOM     27  C   UNL     1     121.118 117.722 116.734  1.00  0.00     0.036 C 
ATOM     28  C   UNL     1     122.750 119.704 117.040  1.00  0.00     0.032 C 
ATOM     29  C   UNL     1     122.077 118.728 116.051  1.00  0.00     0.114 C 
BRANCH  29  30
ATOM     30  O   UNL     1     121.401 119.436 115.044  1.00  0.00    -0.393 OA
ATOM     31  H   UNL     1     120.598 119.844 115.461  1.00  0.00     0.210 HD
ENDBRANCH  29  30
ENDBRANCH   9  11
ENDBRANCH   1   9
TORSDOF 7
ENDMDL
MODEL 5
REMARK VINA RESULT:    -6.656      7.054     10.434
REMARK INTER + INTRA:         -10.082
REMARK INTER:                  -8.193
REMARK INTRA:                  -1.888
REMARK UNBOUND:                -0.896
REMARK SMILES CC[C@@H](CC[C@H](C)[C@H]1CC[C@H]2C3=CC[C@H]4C[C@@H](O)CC[C@@]4(C)[C@@H]3CC[C@@]12C)C(C)C
REMARK SMILES IDX 5 1 4 2 3 3 2 4 1 5 28 6 29 7 30 8 6 9 7 10 8 11 9 12 26 13
REMARK SMILES IDX 10 14 11 15 25 16 27 17 12 18 24 19 23 20 13 21 21 22 14 23
REMARK SMILES IDX 15 24 20 25 22 26 16 27 19 28 17 29 18 30
REMARK H PARENT 18 31
REMARK Flexibility Score: inf
ROOT
ATOM      1  C   UNL     1     120.007 117.538 120.147  1.00  0.00     0.004 C 
ENDROOT
BRANCH   1   2
ATOM      2  C   UNL     1     118.968 118.666 119.981  1.00  0.00     0.004 C 
BRANCH   2   3
ATOM      3  C   UNL     1     118.120 118.533 118.683  1.00  0.00    -0.009 C 
BRANCH   3   4
ATOM      4  C   UNL     1     118.121 119.875 117.895  1.00  0.00     0.000 C 
ATOM      5  C   UNL     1     117.992 119.704 116.380  1.00  0.00     0.004 C 
ENDBRANCH   3   4
BRANCH   3   6
ATOM      6  C   UNL     1     116.676 117.995 118.966  1.00  0.00    -0.014 C 
ATOM      7  C   UNL     1     116.411 116.638 118.289  1.00  0.00     0.007 C 
ATOM      8  C   UNL     1     116.328 117.915 120.463  1.00  0.00     0.007 C 
ENDBRANCH   3   6
ENDBRANCH   2   3
ENDBRANCH   1   2
BRANCH   1   9
ATOM      9  C   UNL     1     120.252 116.725 118.846  1.00  0.00    -0.011 C 
ATOM     10  C   UNL     1     119.782 115.266 119.029  1.00  0.00     0.008 C 
BRANCH   9  11
ATOM     11  C   UNL     1     121.750 116.883 118.384  1.00  0.00    -0.002 C 
ATOM     12  C   UNL     1     122.386 115.695 117.640  1.00  0.00     0.005 C 
ATOM     13  C   UNL     1     122.099 118.130 117.527  1.00  0.00    -0.023 C 
ATOM     14  C   UNL     1     123.572 116.273 116.857  1.00  0.00     0.009 C 
ATOM     15  C   UNL     1     123.539 117.792 117.078  1.00  0.00     0.021 C 
ATOM     16  C   UNL     1     121.148 118.285 116.299  1.00  0.00     0.008 C 
ATOM     17  C   UNL     1     122.085 119.421 118.382  1.00  0.00     0.012 C 
ATOM     18  C   UNL     1     123.984 118.617 115.876  1.00  0.00    -0.067 C 
ATOM     19  C   UNL     1     121.702 119.203 115.196  1.00  0.00     0.009 C 
ATOM     20  C   UNL     1     123.058 118.667 114.670  1.00  0.00     0.021 C 
ATOM     21  C   UNL     1     124.975 119.511 116.044  1.00  0.00    -0.027 C 
ATOM     22  C   UNL     1     123.658 119.424 113.417  1.00  0.00    -0.023 C 
ATOM     23  C   UNL     1     125.458 120.430 114.968  1.00  0.00     0.031 C 
ATOM     24  C   UNL     1     124.415 120.709 113.863  1.00  0.00     0.002 C 
ATOM     25  C   UNL     1     124.662 118.485 112.683  1.00  0.00     0.010 C 
ATOM     26  C   UNL     1     122.506 119.790 112.433  1.00  0.00     0.012 C 
ATOM     27  C   UNL     1     125.088 121.428 112.664  1.00  0.00     0.036 C 
ATOM     28  C   UNL     1     125.361 119.146 111.479  1.00  0.00     0.032 C 
ATOM     29  C   UNL     1     125.992 120.520 111.795  1.00  0.00     0.114 C 
BRANCH  29  30
ATOM     30  O   UNL     1     127.246 120.357 112.404  1.00  0.00    -0.393 OA
ATOM     31  H   UNL     1     127.151 119.639 113.083  1.00  0.00     0.210 HD
ENDBRANCH  29  30
ENDBRANCH   9  11
ENDBRANCH   1   9
TORSDOF 7
ENDMDL
MODEL 6
REMARK VINA RESULT:    -6.616      3.604      5.315
REMARK INTER + INTRA:         -10.025
REMARK INTER:                  -7.886
REMARK INTRA:                  -2.139
REMARK UNBOUND:                -0.896
REMARK SMILES CC[C@@H](CC[C@H](C)[C@H]1CC[C@H]2C3=CC[C@H]4C[C@@H](O)CC[C@@]4(C)[C@@H]3CC[C@@]12C)C(C)C
REMARK SMILES IDX 5 1 4 2 3 3 2 4 1 5 28 6 29 7 30 8 6 9 7 10 8 11 9 12 26 13
REMARK SMILES IDX 10 14 11 15 25 16 27 17 12 18 24 19 23 20 13 21 21 22 14 23
REMARK SMILES IDX 15 24 20 25 22 26 16 27 19 28 17 29 18 30
REMARK H PARENT 18 31
REMARK Flexibility Score: inf
ROOT
ATOM      1  C   UNL     1     115.084 120.921 124.338  1.00  0.00     0.004 C 
ENDROOT
BRANCH   1   2
ATOM      2  C   UNL     1     114.287 121.988 123.559  1.00  0.00     0.004 C 
BRANCH   2   3
ATOM      3  C   UNL     1     113.185 121.384 122.642  1.00  0.00    -0.009 C 
BRANCH   3   4
ATOM      4  C   UNL     1     113.053 119.854 122.892  1.00  0.00     0.000 C 
ATOM      5  C   UNL     1     111.679 119.428 123.416  1.00  0.00     0.004 C 
ENDBRANCH   3   4
BRANCH   3   6
ATOM      6  C   UNL     1     113.404 121.738 121.132  1.00  0.00    -0.014 C 
ATOM      7  C   UNL     1     112.097 121.685 120.320  1.00  0.00     0.007 C 
ATOM      8  C   UNL     1     114.109 123.088 120.910  1.00  0.00     0.007 C 
ENDBRANCH   3   6
ENDBRANCH   2   3
ENDBRANCH   1   2
BRANCH   1   9
ATOM      9  C   UNL     1     116.603 120.924 124.015  1.00  0.00    -0.011 C 
ATOM     10  C   UNL     1     117.371 121.771 125.053  1.00  0.00     0.008 C 
BRANCH   9  11
ATOM     11  C   UNL     1     116.836 121.349 122.516  1.00  0.00    -0.002 C 
ATOM     12  C   UNL     1     117.722 122.583 122.262  1.00  0.00     0.005 C 
ATOM     13  C   UNL     1     117.371 120.260 121.546  1.00  0.00    -0.023 C 
ATOM     14  C   UNL     1     118.219 122.455 120.816  1.00  0.00     0.009 C 
ATOM     15  C   UNL     1     117.699 121.107 120.295  1.00  0.00     0.021 C 
ATOM     16  C   UNL     1     118.650 119.557 122.101  1.00  0.00     0.008 C 
ATOM     17  C   UNL     1     116.281 119.211 121.222  1.00  0.00     0.012 C 
ATOM     18  C   UNL     1     118.645 120.392 119.338  1.00  0.00    -0.067 C 
ATOM     19  C   UNL     1     119.467 118.817 121.027  1.00  0.00     0.009 C 
ATOM     20  C   UNL     1     119.920 119.796 119.915  1.00  0.00     0.021 C 
ATOM     21  C   UNL     1     118.178 120.027 118.129  1.00  0.00    -0.027 C 
ATOM     22  C   UNL     1     120.910 119.199 118.834  1.00  0.00    -0.023 C 
ATOM     23  C   UNL     1     118.977 119.261 117.125  1.00  0.00     0.031 C 
ATOM     24  C   UNL     1     120.122 118.423 117.738  1.00  0.00     0.002 C 
ATOM     25  C   UNL     1     121.689 120.365 118.154  1.00  0.00     0.010 C 
ATOM     26  C   UNL     1     121.933 118.254 119.535  1.00  0.00     0.012 C 
ATOM     27  C   UNL     1     121.058 117.898 116.617  1.00  0.00     0.036 C 
ATOM     28  C   UNL     1     122.639 119.902 117.031  1.00  0.00     0.032 C 
ATOM     29  C   UNL     1     121.975 118.976 115.989  1.00  0.00     0.114 C 
BRANCH  29  30
ATOM     30  O   UNL     1     121.262 119.730 115.044  1.00  0.00    -0.393 OA
ATOM     31  H   UNL     1     120.417 119.243 114.858  1.00  0.00     0.210 HD
ENDBRANCH  29  30
ENDBRANCH   9  11
ENDBRANCH   1   9
TORSDOF 7
ENDMDL
MODEL 7
REMARK VINA RESULT:    -6.602      1.741      2.599
REMARK INTER + INTRA:         -10.007
REMARK INTER:                  -8.672
REMARK INTRA:                  -1.335
REMARK UNBOUND:                -0.896
REMARK SMILES CC[C@@H](CC[C@H](C)[C@H]1CC[C@H]2C3=CC[C@H]4C[C@@H](O)CC[C@@]4(C)[C@@H]3CC[C@@]12C)C(C)C
REMARK SMILES IDX 5 1 4 2 3 3 2 4 1 5 28 6 29 7 30 8 6 9 7 10 8 11 9 12 26 13
REMARK SMILES IDX 10 14 11 15 25 16 27 17 12 18 24 19 23 20 13 21 21 22 14 23
REMARK SMILES IDX 15 24 20 25 22 26 16 27 19 28 17 29 18 30
REMARK H PARENT 18 31
REMARK Flexibility Score: inf
ROOT
ATOM      1  C   UNL     1     114.616 124.674 124.694  1.00  0.00     0.004 C 
ENDROOT
BRANCH   1   2
ATOM      2  C   UNL     1     114.793 126.008 123.939  1.00  0.00     0.004 C 
BRANCH   2   3
ATOM      3  C   UNL     1     115.111 127.207 124.878  1.00  0.00    -0.009 C 
BRANCH   3   4
ATOM      4  C   UNL     1     116.550 127.735 124.614  1.00  0.00     0.000 C 
ATOM      5  C   UNL     1     117.412 126.791 123.772  1.00  0.00     0.004 C 
ENDBRANCH   3   4
BRANCH   3   6
ATOM      6  C   UNL     1     114.853 126.868 126.386  1.00  0.00    -0.014 C 
ATOM      7  C   UNL     1     115.987 127.361 127.302  1.00  0.00     0.007 C 
ATOM      8  C   UNL     1     113.496 127.371 126.909  1.00  0.00     0.007 C 
ENDBRANCH   3   6
ENDBRANCH   2   3
ENDBRANCH   1   2
BRANCH   1   9
ATOM      9  C   UNL     1     114.828 123.423 123.798  1.00  0.00    -0.011 C 
ATOM     10  C   UNL     1     113.922 122.265 124.270  1.00  0.00     0.008 C 
BRANCH   9  11
ATOM     11  C   UNL     1     116.361 123.070 123.717  1.00  0.00    -0.002 C 
ATOM     12  C   UNL     1     116.883 121.974 124.665  1.00  0.00     0.005 C 
ATOM     13  C   UNL     1     116.930 122.700 122.321  1.00  0.00    -0.023 C 
ATOM     14  C   UNL     1     118.185 121.459 124.039  1.00  0.00     0.009 C 
ATOM     15  C   UNL     1     118.339 122.188 122.696  1.00  0.00     0.021 C 
ATOM     16  C   UNL     1     116.093 121.583 121.621  1.00  0.00     0.008 C 
ATOM     17  C   UNL     1     117.029 123.946 121.407  1.00  0.00     0.012 C 
ATOM     18  C   UNL     1     118.969 121.350 121.589  1.00  0.00    -0.067 C 
ATOM     19  C   UNL     1     116.837 120.872 120.478  1.00  0.00     0.009 C 
ATOM     20  C   UNL     1     118.142 120.218 120.999  1.00  0.00     0.021 C 
ATOM     21  C   UNL     1     120.057 121.833 120.961  1.00  0.00    -0.027 C 
ATOM     22  C   UNL     1     118.920 119.313 119.961  1.00  0.00    -0.023 C 
ATOM     23  C   UNL     1     120.730 121.146 119.816  1.00  0.00     0.031 C 
ATOM     24  C   UNL     1     119.809 120.187 119.029  1.00  0.00     0.002 C 
ATOM     25  C   UNL     1     119.838 118.319 120.735  1.00  0.00     0.010 C 
ATOM     26  C   UNL     1     117.895 118.494 119.118  1.00  0.00     0.012 C 
ATOM     27  C   UNL     1     120.651 119.319 118.055  1.00  0.00     0.036 C 
ATOM     28  C   UNL     1     120.698 117.428 119.818  1.00  0.00     0.032 C 
ATOM     29  C   UNL     1     121.482 118.208 118.740  1.00  0.00     0.114 C 
BRANCH  29  30
ATOM     30  O   UNL     1     122.661 118.746 119.283  1.00  0.00    -0.393 OA
ATOM     31  H   UNL     1     123.403 118.137 119.032  1.00  0.00     0.210 HD
ENDBRANCH  29  30
ENDBRANCH   9  11
ENDBRANCH   1   9
TORSDOF 7
ENDMDL
MODEL 8
REMARK VINA RESULT:    -6.536      6.333     12.363
REMARK INTER + INTRA:          -9.916
REMARK INTER:                  -7.646
REMARK INTRA:                  -2.269
REMARK UNBOUND:                -0.896
REMARK SMILES CC[C@@H](CC[C@H](C)[C@H]1CC[C@H]2C3=CC[C@H]4C[C@@H](O)CC[C@@]4(C)[C@@H]3CC[C@@]12C)C(C)C
REMARK SMILES IDX 5 1 4 2 3 3 2 4 1 5 28 6 29 7 30 8 6 9 7 10 8 11 9 12 26 13
REMARK SMILES IDX 10 14 11 15 25 16 27 17 12 18 24 19 23 20 13 21 21 22 14 23
REMARK SMILES IDX 15 24 20 25 22 26 16 27 19 28 17 29 18 30
REMARK H PARENT 18 31
REMARK Flexibility Score: inf
ROOT
ATOM      1  C   UNL     1     125.274 117.507 112.257  1.00  0.00     0.004 C 
ENDROOT
BRANCH   1   2
ATOM      2  C   UNL     1     125.090 118.908 111.635  1.00  0.00     0.004 C 
BRANCH   2   3
ATOM      3  C   UNL     1     125.995 119.992 112.288  1.00  0.00    -0.009 C 
BRANCH   3   4
ATOM      4  C   UNL     1     126.781 119.391 113.488  1.00  0.00     0.000 C 
ATOM      5  C   UNL     1     128.301 119.522 113.362  1.00  0.00     0.004 C 
ENDBRANCH   3   4
BRANCH   3   6
ATOM      6  C   UNL     1     125.196 121.285 112.668  1.00  0.00    -0.014 C 
ATOM      7  C   UNL     1     123.822 121.352 111.978  1.00  0.00     0.007 C 
ATOM      8  C   UNL     1     125.036 121.489 114.185  1.00  0.00     0.007 C 
ENDBRANCH   3   6
ENDBRANCH   2   3
ENDBRANCH   1   2
BRANCH   1   9
ATOM      9  C   UNL     1     124.020 116.998 113.017  1.00  0.00    -0.011 C 
ATOM     10  C   UNL     1     123.117 116.175 112.072  1.00  0.00     0.008 C 
BRANCH   9  11
ATOM     11  C   UNL     1     123.299 118.200 113.737  1.00  0.00    -0.002 C 
ATOM     12  C   UNL     1     121.930 118.635 113.184  1.00  0.00     0.005 C 
ATOM     13  C   UNL     1     123.098 118.088 115.273  1.00  0.00    -0.023 C 
ATOM     14  C   UNL     1     121.234 119.389 114.323  1.00  0.00     0.009 C 
ATOM     15  C   UNL     1     122.163 119.290 115.542  1.00  0.00     0.021 C 
ATOM     16  C   UNL     1     122.416 116.743 115.680  1.00  0.00     0.008 C 
ATOM     17  C   UNL     1     124.437 118.259 116.030  1.00  0.00     0.012 C 
ATOM     18  C   UNL     1     121.443 119.181 116.881  1.00  0.00    -0.067 C 
ATOM     19  C   UNL     1     121.793 116.763 117.086  1.00  0.00     0.009 C 
ATOM     20  C   UNL     1     120.723 117.878 117.194  1.00  0.00     0.021 C 
ATOM     21  C   UNL     1     121.743 120.072 117.844  1.00  0.00    -0.027 C 
ATOM     22  C   UNL     1     119.885 117.901 118.536  1.00  0.00    -0.023 C 
ATOM     23  C   UNL     1     121.163 120.035 119.221  1.00  0.00     0.031 C 
ATOM     24  C   UNL     1     120.670 118.638 119.660  1.00  0.00     0.002 C 
ATOM     25  C   UNL     1     118.543 118.655 118.289  1.00  0.00     0.010 C 
ATOM     26  C   UNL     1     119.564 116.438 118.970  1.00  0.00     0.012 C 
ATOM     27  C   UNL     1     119.838 118.752 120.965  1.00  0.00     0.036 C 
ATOM     28  C   UNL     1     117.672 118.797 119.553  1.00  0.00     0.032 C 
ATOM     29  C   UNL     1     118.427 119.360 120.777  1.00  0.00     0.114 C 
BRANCH  29  30
ATOM     30  O   UNL     1     118.507 120.760 120.703  1.00  0.00    -0.393 OA
ATOM     31  H   UNL     1     117.580 121.102 120.616  1.00  0.00     0.210 HD
ENDBRANCH  29  30
ENDBRANCH   9  11
ENDBRANCH   1   9
TORSDOF 7
ENDMDL
MODEL 9
REMARK VINA RESULT:    -6.534      5.522      9.258
REMARK INTER + INTRA:          -9.913
REMARK INTER:                  -8.839
REMARK INTRA:                  -1.074
REMARK UNBOUND:                -0.896
REMARK SMILES CC[C@@H](CC[C@H](C)[C@H]1CC[C@H]2C3=CC[C@H]4C[C@@H](O)CC[C@@]4(C)[C@@H]3CC[C@@]12C)C(C)C
REMARK SMILES IDX 5 1 4 2 3 3 2 4 1 5 28 6 29 7 30 8 6 9 7 10 8 11 9 12 26 13
REMARK SMILES IDX 10 14 11 15 25 16 27 17 12 18 24 19 23 20 13 21 21 22 14 23
REMARK SMILES IDX 15 24 20 25 22 26 16 27 19 28 17 29 18 30
REMARK H PARENT 18 31
REMARK Flexibility Score: inf
ROOT
ATOM      1  C   UNL     1     119.006 118.945 119.476  1.00  0.00     0.004 C 
ENDROOT
BRANCH   1   2
ATOM      2  C   UNL     1     117.982 119.993 118.992  1.00  0.00     0.004 C 
BRANCH   2   3
ATOM      3  C   UNL     1     118.185 121.394 119.639  1.00  0.00    -0.009 C 
BRANCH   3   4
ATOM      4  C   UNL     1     119.258 121.320 120.764  1.00  0.00     0.000 C 
ATOM      5  C   UNL     1     120.301 122.438 120.699  1.00  0.00     0.004 C 
ENDBRANCH   3   4
BRANCH   3   6
ATOM      6  C   UNL     1     116.837 122.029 120.123  1.00  0.00    -0.014 C 
ATOM      7  C   UNL     1     116.526 121.700 121.594  1.00  0.00     0.007 C 
ATOM      8  C   UNL     1     116.752 123.548 119.892  1.00  0.00     0.007 C 
ENDBRANCH   3   6
ENDBRANCH   2   3
ENDBRANCH   1   2
BRANCH   1   9
ATOM      9  C   UNL     1     119.284 117.826 118.436  1.00  0.00    -0.011 C 
ATOM     10  C   UNL     1     118.647 116.497 118.895  1.00  0.00     0.008 C 
BRANCH   9  11
ATOM     11  C   UNL     1     120.827 117.746 118.127  1.00  0.00    -0.002 C 
ATOM     12  C   UNL     1     121.361 116.427 117.540  1.00  0.00     0.005 C 
ATOM     13  C   UNL     1     121.428 118.861 117.228  1.00  0.00    -0.023 C 
ATOM     14  C   UNL     1     122.686 116.777 116.850  1.00  0.00     0.009 C 
ATOM     15  C   UNL     1     122.844 118.300 116.960  1.00  0.00     0.021 C 
ATOM     16  C   UNL     1     120.631 119.036 115.896  1.00  0.00     0.008 C 
ATOM     17  C   UNL     1     121.511 120.210 117.983  1.00  0.00     0.012 C 
ATOM     18  C   UNL     1     123.513 118.956 115.757  1.00  0.00    -0.067 C 
ATOM     19  C   UNL     1     121.412 119.778 114.797  1.00  0.00     0.009 C 
ATOM     20  C   UNL     1     122.724 119.026 114.459  1.00  0.00     0.021 C 
ATOM     21  C   UNL     1     124.598 119.723 115.968  1.00  0.00    -0.027 C 
ATOM     22  C   UNL     1     123.542 119.590 113.227  1.00  0.00    -0.023 C 
ATOM     23  C   UNL     1     125.306 120.477 114.888  1.00  0.00     0.031 C 
ATOM     24  C   UNL     1     124.424 120.797 113.661  1.00  0.00     0.002 C 
ATOM     25  C   UNL     1     124.472 118.469 112.673  1.00  0.00     0.010 C 
ATOM     26  C   UNL     1     122.552 120.021 112.102  1.00  0.00     0.012 C 
ATOM     27  C   UNL     1     125.303 121.319 112.494  1.00  0.00     0.036 C 
ATOM     28  C   UNL     1     125.370 118.930 111.508  1.00  0.00     0.032 C 
ATOM     29  C   UNL     1     126.151 120.230 111.792  1.00  0.00     0.114 C 
BRANCH  29  30
ATOM     30  O   UNL     1     127.306 119.956 112.543  1.00  0.00    -0.393 OA
ATOM     31  H   UNL     1     127.882 120.764 112.499  1.00  0.00     0.210 HD
ENDBRANCH  29  30
ENDBRANCH   9  11
ENDBRANCH   1   9
TORSDOF 7
ENDMDL
