MODEL 1
REMARK VINA RESULT:    -4.369      0.000      0.000
REMARK INTER + INTRA:          -7.085
REMARK INTER:                  -6.668
REMARK INTRA:                  -0.417
REMARK UNBOUND:                -0.417
REMARK SMILES O=C([O-])CCCCCCCCC(=O)[O-]
REMARK SMILES IDX 7 1 6 2 5 3 4 4 2 5 1 6 3 7 8 8 9 9 10 10 11 11 12 12 13 13
REMARK SMILES IDX 14 14
REMARK H PARENT
REMARK Flexibility Score: inf
ROOT
ATOM      1  C   UNL     1       3.504  19.601  34.004  1.00  0.00     0.000 C 
ENDROOT
BRANCH   1   2
ATOM      2  C   UNL     1       3.614  18.088  34.230  1.00  0.00     0.000 C 
BRANCH   2   3
ATOM      3  C   UNL     1       5.058  17.680  34.540  1.00  0.00     0.006 C 
BRANCH   3   4
ATOM      4  C   UNL     1       5.510  16.527  33.639  1.00  0.00     0.053 C 
BRANCH   4   5
ATOM      5  C   UNL     1       6.632  16.964  32.751  1.00  0.00     0.041 C 
ATOM      6  O   UNL     1       6.994  18.170  32.734  1.00  0.00    -0.550 OA
ATOM      7  O   UNL     1       7.246  16.048  31.906  1.00  0.00    -0.550 OA
ENDBRANCH   4   5
ENDBRANCH   3   4
ENDBRANCH   2   3
ENDBRANCH   1   2
BRANCH   1   8
ATOM      8  C   UNL     1       3.247  19.920  32.527  1.00  0.00     0.000 C 
BRANCH   8   9
ATOM      9  C   UNL     1       1.748  19.875  32.207  1.00  0.00     0.000 C 
BRANCH   9  10
ATOM     10  C   UNL     1       0.936  20.629  33.266  1.00  0.00     0.006 C 
BRANCH  10  11
ATOM     11  C   UNL     1      -0.037  21.616  32.613  1.00  0.00     0.053 C 
BRANCH  11  12
ATOM     12  C   UNL     1      -0.347  22.742  33.548  1.00  0.00     0.041 C 
ATOM     13  O   UNL     1      -1.319  23.509  33.316  1.00  0.00    -0.550 OA
ATOM     14  O   UNL     1       0.466  22.974  34.650  1.00  0.00    -0.550 OA
ENDBRANCH  11  12
ENDBRANCH  10  11
ENDBRANCH   9  10
ENDBRANCH   8   9
ENDBRANCH   1   8
TORSDOF 9
ENDMDL
MODEL 2
REMARK VINA RESULT:    -4.294     17.714     19.048
REMARK INTER + INTRA:          -6.971
REMARK INTER:                  -6.679
REMARK INTRA:                  -0.292
REMARK UNBOUND:                -0.417
REMARK SMILES O=C([O-])CCCCCCCCC(=O)[O-]
REMARK SMILES IDX 7 1 6 2 5 3 4 4 2 5 1 6 3 7 8 8 9 9 10 10 11 11 12 12 13 13
REMARK SMILES IDX 14 14
REMARK H PARENT
REMARK Flexibility Score: inf
ROOT
ATOM      1  C   UNL     1       2.007   8.637  15.344  1.00  0.00     0.000 C 
ENDROOT
BRANCH   1   2
ATOM      2  C   UNL     1       2.941   9.449  16.249  1.00  0.00     0.000 C 
BRANCH   2   3
ATOM      3  C   UNL     1       4.180   9.923  15.480  1.00  0.00     0.006 C 
BRANCH   3   4
ATOM      4  C   UNL     1       5.438   9.822  16.346  1.00  0.00     0.053 C 
BRANCH   4   5
ATOM      5  C   UNL     1       6.331  10.999  16.114  1.00  0.00     0.041 C 
ATOM      6  O   UNL     1       7.049  11.444  17.047  1.00  0.00    -0.550 OA
ATOM      7  O   UNL     1       6.333  11.636  14.880  1.00  0.00    -0.550 OA
ENDBRANCH   4   5
ENDBRANCH   3   4
ENDBRANCH   2   3
ENDBRANCH   1   2
BRANCH   1   8
ATOM      8  C   UNL     1       0.626   8.469  15.987  1.00  0.00     0.000 C 
BRANCH   8   9
ATOM      9  C   UNL     1       0.447   9.431  17.167  1.00  0.00     0.000 C 
BRANCH   9  10
ATOM     10  C   UNL     1      -0.982   9.368  17.718  1.00  0.00     0.006 C 
BRANCH  10  11
ATOM     11  C   UNL     1      -1.213  10.452  18.775  1.00  0.00     0.053 C 
BRANCH  11  12
ATOM     12  C   UNL     1      -1.925   9.885  19.961  1.00  0.00     0.041 C 
ATOM     13  O   UNL     1      -3.145   9.584  19.885  1.00  0.00    -0.550 OA
ATOM     14  O   UNL     1      -1.253   9.733  21.168  1.00  0.00    -0.550 OA
ENDBRANCH  11  12
ENDBRANCH  10  11
ENDBRANCH   9  10
ENDBRANCH   8   9
ENDBRANCH   1   8
TORSDOF 9
ENDMDL
MODEL 3
REMARK VINA RESULT:    -4.261      0.435      7.278
REMARK INTER + INTRA:          -6.919
REMARK INTER:                  -6.434
REMARK INTRA:                  -0.485
REMARK UNBOUND:                -0.417
REMARK SMILES O=C([O-])CCCCCCCCC(=O)[O-]
REMARK SMILES IDX 7 1 6 2 5 3 4 4 2 5 1 6 3 7 8 8 9 9 10 10 11 11 12 12 13 13
REMARK SMILES IDX 14 14
REMARK H PARENT
REMARK Flexibility Score: inf
ROOT
ATOM      1  C   UNL     1       3.340  19.373  32.842  1.00  0.00     0.000 C 
ENDROOT
BRANCH   1   2
ATOM      2  C   UNL     1       2.082  19.934  32.169  1.00  0.00     0.000 C 
BRANCH   2   3
ATOM      3  C   UNL     1       1.062  20.405  33.212  1.00  0.00     0.006 C 
BRANCH   3   4
ATOM      4  C   UNL     1       0.078  21.409  32.606  1.00  0.00     0.053 C 
BRANCH   4   5
ATOM      5  C   UNL     1      -0.163  22.543  33.551  1.00  0.00     0.041 C 
ATOM      6  O   UNL     1      -1.084  23.371  33.325  1.00  0.00    -0.550 OA
ATOM      7  O   UNL     1       0.661  22.715  34.656  1.00  0.00    -0.550 OA
ENDBRANCH   4   5
ENDBRANCH   3   4
ENDBRANCH   2   3
ENDBRANCH   1   2
BRANCH   1   8
ATOM      8  C   UNL     1       3.123  19.186  34.348  1.00  0.00     0.000 C 
BRANCH   8   9
ATOM      9  C   UNL     1       3.742  17.870  34.835  1.00  0.00     0.000 C 
BRANCH   9  10
ATOM     10  C   UNL     1       5.274  17.942  34.816  1.00  0.00     0.006 C 
BRANCH  10  11
ATOM     11  C   UNL     1       5.876  16.669  34.215  1.00  0.00     0.053 C 
BRANCH  11  12
ATOM     12  C   UNL     1       6.604  16.982  32.947  1.00  0.00     0.041 C 
ATOM     13  O   UNL     1       6.776  18.178  32.593  1.00  0.00    -0.550 OA
ATOM     14  O   UNL     1       7.050  15.951  32.129  1.00  0.00    -0.550 OA
ENDBRANCH  11  12
ENDBRANCH  10  11
ENDBRANCH   9  10
ENDBRANCH   8   9
ENDBRANCH   1   8
TORSDOF 9
ENDMDL
MODEL 4
REMARK VINA RESULT:    -4.224     17.773     19.981
REMARK INTER + INTRA:          -6.863
REMARK INTER:                  -6.553
REMARK INTRA:                  -0.310
REMARK UNBOUND:                -0.417
REMARK SMILES O=C([O-])CCCCCCCCC(=O)[O-]
REMARK SMILES IDX 7 1 6 2 5 3 4 4 2 5 1 6 3 7 8 8 9 9 10 10 11 11 12 12 13 13
REMARK SMILES IDX 14 14
REMARK H PARENT
REMARK Flexibility Score: inf
ROOT
ATOM      1  C   UNL     1       0.551   8.335  16.006  1.00  0.00     0.000 C 
ENDROOT
BRANCH   1   2
ATOM      2  C   UNL     1       0.201   9.522  16.911  1.00  0.00     0.000 C 
BRANCH   2   3
ATOM      3  C   UNL     1      -0.909   9.152  17.900  1.00  0.00     0.006 C 
BRANCH   3   4
ATOM      4  C   UNL     1      -1.278  10.345  18.785  1.00  0.00     0.053 C 
BRANCH   4   5
ATOM      5  C   UNL     1      -2.005   9.886  20.009  1.00  0.00     0.041 C 
ATOM      6  O   UNL     1      -3.247   9.688  19.972  1.00  0.00    -0.550 OA
ATOM      7  O   UNL     1      -1.318   9.726  21.206  1.00  0.00    -0.550 OA
ENDBRANCH   4   5
ENDBRANCH   3   4
ENDBRANCH   2   3
ENDBRANCH   1   2
BRANCH   1   8
ATOM      8  C   UNL     1       1.954   8.493  15.407  1.00  0.00     0.000 C 
BRANCH   8   9
ATOM      9  C   UNL     1       2.837   9.373  16.300  1.00  0.00     0.000 C 
BRANCH   9  10
ATOM     10  C   UNL     1       3.894  10.112  15.471  1.00  0.00     0.006 C 
BRANCH  10  11
ATOM     11  C   UNL     1       5.306   9.650  15.842  1.00  0.00     0.053 C 
BRANCH  11  12
ATOM     12  C   UNL     1       6.207  10.827  16.042  1.00  0.00     0.041 C 
ATOM     13  O   UNL     1       6.640  11.106  17.191  1.00  0.00    -0.550 OA
ATOM     14  O   UNL     1       6.530  11.645  14.966  1.00  0.00    -0.550 OA
ENDBRANCH  11  12
ENDBRANCH  10  11
ENDBRANCH   9  10
ENDBRANCH   8   9
ENDBRANCH   1   8
TORSDOF 9
ENDMDL
MODEL 5
REMARK VINA RESULT:    -4.198     17.881     19.717
REMARK INTER + INTRA:          -6.824
REMARK INTER:                  -6.372
REMARK INTRA:                  -0.452
REMARK UNBOUND:                -0.417
REMARK SMILES O=C([O-])CCCCCCCCC(=O)[O-]
REMARK SMILES IDX 7 1 6 2 5 3 4 4 2 5 1 6 3 7 8 8 9 9 10 10 11 11 12 12 13 13
REMARK SMILES IDX 14 14
REMARK H PARENT
REMARK Flexibility Score: inf
ROOT
ATOM      1  C   UNL     1       6.533  10.510  16.796  1.00  0.00     0.000 C 
ENDROOT
BRANCH   1   2
ATOM      2  C   UNL     1       7.504  10.787  15.643  1.00  0.00     0.000 C 
BRANCH   2   3
ATOM      3  C   UNL     1       8.492  11.900  16.009  1.00  0.00     0.006 C 
BRANCH   3   4
ATOM      4  C   UNL     1       8.129  12.538  17.353  1.00  0.00     0.053 C 
BRANCH   4   5
ATOM      5  C   UNL     1       9.222  12.319  18.350  1.00  0.00     0.041 C 
ATOM      6  O   UNL     1       9.598  11.151  18.632  1.00  0.00    -0.550 OA
ATOM      7  O   UNL     1       9.793  13.403  19.005  1.00  0.00    -0.550 OA
ENDBRANCH   4   5
ENDBRANCH   3   4
ENDBRANCH   2   3
ENDBRANCH   1   2
BRANCH   1   8
ATOM      8  C   UNL     1       5.317   9.710  16.313  1.00  0.00     0.000 C 
BRANCH   8   9
ATOM      9  C   UNL     1       4.675  10.371  15.088  1.00  0.00     0.000 C 
BRANCH   9  10
ATOM     10  C   UNL     1       3.244   9.864  14.875  1.00  0.00     0.006 C 
BRANCH  10  11
ATOM     11  C   UNL     1       2.693   9.222  16.152  1.00  0.00     0.053 C 
BRANCH  11  12
ATOM     12  C   UNL     1       1.372   8.573  15.884  1.00  0.00     0.041 C 
ATOM     13  O   UNL     1       0.328   9.008  16.438  1.00  0.00    -0.550 OA
ATOM     14  O   UNL     1       1.301   7.457  15.060  1.00  0.00    -0.550 OA
ENDBRANCH  11  12
ENDBRANCH  10  11
ENDBRANCH   9  10
ENDBRANCH   8   9
ENDBRANCH   1   8
TORSDOF 9
ENDMDL
MODEL 6
REMARK VINA RESULT:    -4.153     17.889     20.407
REMARK INTER + INTRA:          -6.755
REMARK INTER:                  -6.407
REMARK INTRA:                  -0.348
REMARK UNBOUND:                -0.417
REMARK SMILES O=C([O-])CCCCCCCCC(=O)[O-]
REMARK SMILES IDX 7 1 6 2 5 3 4 4 2 5 1 6 3 7 8 8 9 9 10 10 11 11 12 12 13 13
REMARK SMILES IDX 14 14
REMARK H PARENT
REMARK Flexibility Score: inf
ROOT
ATOM      1  C   UNL     1       5.237   9.957  15.770  1.00  0.00     0.000 C 
ENDROOT
BRANCH   1   2
ATOM      2  C   UNL     1       4.030  10.297  14.888  1.00  0.00     0.000 C 
BRANCH   2   3
ATOM      3  C   UNL     1       2.995   9.168  14.911  1.00  0.00     0.006 C 
BRANCH   3   4
ATOM      4  C   UNL     1       2.143   9.228  16.182  1.00  0.00     0.053 C 
BRANCH   4   5
ATOM      5  C   UNL     1       0.874   8.459  16.000  1.00  0.00     0.041 C 
ATOM      6  O   UNL     1      -0.112   8.675  16.753  1.00  0.00    -0.550 OA
ATOM      7  O   UNL     1       0.794   7.468  15.030  1.00  0.00    -0.550 OA
ENDBRANCH   4   5
ENDBRANCH   3   4
ENDBRANCH   2   3
ENDBRANCH   1   2
BRANCH   1   8
ATOM      8  C   UNL     1       6.464   9.614  14.917  1.00  0.00     0.000 C 
BRANCH   8   9
ATOM      9  C   UNL     1       7.688  10.423  15.362  1.00  0.00     0.000 C 
BRANCH   9  10
ATOM     10  C   UNL     1       7.542  10.890  16.815  1.00  0.00     0.006 C 
BRANCH  10  11
ATOM     11  C   UNL     1       8.080  12.313  16.991  1.00  0.00     0.053 C 
BRANCH  11  12
ATOM     12  C   UNL     1       8.880  12.418  18.251  1.00  0.00     0.041 C 
ATOM     13  O   UNL     1       8.963  13.517  18.860  1.00  0.00    -0.550 OA
ATOM     14  O   UNL     1       9.574  11.313  18.728  1.00  0.00    -0.550 OA
ENDBRANCH  11  12
ENDBRANCH  10  11
ENDBRANCH   9  10
ENDBRANCH   8   9
ENDBRANCH   1   8
TORSDOF 9
ENDMDL
MODEL 7
REMARK VINA RESULT:    -4.124      4.282      5.486
REMARK INTER + INTRA:          -6.710
REMARK INTER:                  -6.341
REMARK INTRA:                  -0.369
REMARK UNBOUND:                -0.417
REMARK SMILES O=C([O-])CCCCCCCCC(=O)[O-]
REMARK SMILES IDX 7 1 6 2 5 3 4 4 2 5 1 6 3 7 8 8 9 9 10 10 11 11 12 12 13 13
REMARK SMILES IDX 14 14
REMARK H PARENT
REMARK Flexibility Score: inf
ROOT
ATOM      1  C   UNL     1      -0.514  21.389  31.730  1.00  0.00     0.000 C 
ENDROOT
BRANCH   1   2
ATOM      2  C   UNL     1       0.490  21.201  32.874  1.00  0.00     0.000 C 
BRANCH   2   3
ATOM      3  C   UNL     1       1.632  20.268  32.457  1.00  0.00     0.006 C 
BRANCH   3   4
ATOM      4  C   UNL     1       1.853  19.168  33.499  1.00  0.00     0.053 C 
BRANCH   4   5
ATOM      5  C   UNL     1       3.302  18.809  33.583  1.00  0.00     0.041 C 
ATOM      6  O   UNL     1       4.144  19.394  32.853  1.00  0.00    -0.550 OA
ATOM      7  O   UNL     1       3.718  17.792  34.434  1.00  0.00    -0.550 OA
ENDBRANCH   4   5
ENDBRANCH   3   4
ENDBRANCH   2   3
ENDBRANCH   1   2
BRANCH   1   8
ATOM      8  C   UNL     1      -0.484  20.195  30.769  1.00  0.00     0.000 C 
BRANCH   8   9
ATOM      9  C   UNL     1      -1.599  20.303  29.722  1.00  0.00     0.000 C 
BRANCH   9  10
ATOM     10  C   UNL     1      -1.593  19.091  28.784  1.00  0.00     0.006 C 
BRANCH  10  11
ATOM     11  C   UNL     1      -2.713  19.194  27.744  1.00  0.00     0.053 C 
BRANCH  11  12
ATOM     12  C   UNL     1      -2.560  20.441  26.932  1.00  0.00     0.041 C 
ATOM     13  O   UNL     1      -3.496  21.282  26.880  1.00  0.00    -0.550 OA
ATOM     14  O   UNL     1      -1.403  20.651  26.193  1.00  0.00    -0.550 OA
ENDBRANCH  11  12
ENDBRANCH  10  11
ENDBRANCH   9  10
ENDBRANCH   8   9
ENDBRANCH   1   8
TORSDOF 9
ENDMDL
MODEL 8
REMARK VINA RESULT:    -4.092      4.266      7.671
REMARK INTER + INTRA:          -6.662
REMARK INTER:                  -6.302
REMARK INTRA:                  -0.360
REMARK UNBOUND:                -0.417
REMARK SMILES O=C([O-])CCCCCCCCC(=O)[O-]
REMARK SMILES IDX 7 1 6 2 5 3 4 4 2 5 1 6 3 7 8 8 9 9 10 10 11 11 12 12 13 13
REMARK SMILES IDX 14 14
REMARK H PARENT
REMARK Flexibility Score: inf
ROOT
ATOM      1  C   UNL     1      -0.432  20.211  30.677  1.00  0.00     0.000 C 
ENDROOT
BRANCH   1   2
ATOM      2  C   UNL     1      -1.630  20.258  29.720  1.00  0.00     0.000 C 
BRANCH   2   3
ATOM      3  C   UNL     1      -1.604  19.074  28.747  1.00  0.00     0.006 C 
BRANCH   3   4
ATOM      4  C   UNL     1      -2.722  19.192  27.707  1.00  0.00     0.053 C 
BRANCH   4   5
ATOM      5  C   UNL     1      -2.598  20.473  26.947  1.00  0.00     0.041 C 
ATOM      6  O   UNL     1      -3.546  21.302  26.942  1.00  0.00    -0.550 OA
ATOM      7  O   UNL     1      -1.454  20.732  26.202  1.00  0.00    -0.550 OA
ENDBRANCH   4   5
ENDBRANCH   3   4
ENDBRANCH   2   3
ENDBRANCH   1   2
BRANCH   1   8
ATOM      8  C   UNL     1      -0.563  21.273  31.775  1.00  0.00     0.000 C 
BRANCH   8   9
ATOM      9  C   UNL     1       0.405  20.992  32.931  1.00  0.00     0.000 C 
BRANCH   9  10
ATOM     10  C   UNL     1       1.611  20.175  32.453  1.00  0.00     0.006 C 
BRANCH  10  11
ATOM     11  C   UNL     1       2.173  19.312  33.587  1.00  0.00     0.053 C 
BRANCH  11  12
ATOM     12  C   UNL     1       3.656  19.478  33.686  1.00  0.00     0.041 C 
ATOM     13  O   UNL     1       4.151  20.258  34.542  1.00  0.00    -0.550 OA
ATOM     14  O   UNL     1       4.491  18.809  32.800  1.00  0.00    -0.550 OA
ENDBRANCH  11  12
ENDBRANCH  10  11
ENDBRANCH   9  10
ENDBRANCH   8   9
ENDBRANCH   1   8
TORSDOF 9
ENDMDL
MODEL 9
REMARK VINA RESULT:    -4.003      4.468      7.256
REMARK INTER + INTRA:          -6.526
REMARK INTER:                  -6.111
REMARK INTRA:                  -0.415
REMARK UNBOUND:                -0.417
REMARK SMILES O=C([O-])CCCCCCCCC(=O)[O-]
REMARK SMILES IDX 7 1 6 2 5 3 4 4 2 5 1 6 3 7 8 8 9 9 10 10 11 11 12 12 13 13
REMARK SMILES IDX 14 14
REMARK H PARENT
REMARK Flexibility Score: inf
ROOT
ATOM      1  C   UNL     1      -0.454  20.753  31.650  1.00  0.00     0.000 C 
ENDROOT
BRANCH   1   2
ATOM      2  C   UNL     1      -1.201  20.986  30.331  1.00  0.00     0.000 C 
BRANCH   2   3
ATOM      3  C   UNL     1      -1.170  19.731  29.452  1.00  0.00     0.006 C 
BRANCH   3   4
ATOM      4  C   UNL     1      -1.940  19.954  28.147  1.00  0.00     0.053 C 
BRANCH   4   5
ATOM      5  C   UNL     1      -2.699  18.722  27.769  1.00  0.00     0.041 C 
ATOM      6  O   UNL     1      -2.439  17.622  28.324  1.00  0.00    -0.550 OA
ATOM      7  O   UNL     1      -3.659  18.777  26.767  1.00  0.00    -0.550 OA
ENDBRANCH   4   5
ENDBRANCH   3   4
ENDBRANCH   2   3
ENDBRANCH   1   2
BRANCH   1   8
ATOM      8  C   UNL     1      -0.522  21.994  32.548  1.00  0.00     0.000 C 
BRANCH   8   9
ATOM      9  C   UNL     1       0.586  21.969  33.608  1.00  0.00     0.000 C 
BRANCH   9  10
ATOM     10  C   UNL     1       0.436  20.754  34.532  1.00  0.00     0.006 C 
BRANCH  10  11
ATOM     11  C   UNL     1       1.797  20.115  34.823  1.00  0.00     0.053 C 
BRANCH  11  12
ATOM     12  C   UNL     1       2.037  18.955  33.910  1.00  0.00     0.041 C 
ATOM     13  O   UNL     1       1.783  17.783  34.294  1.00  0.00    -0.550 OA
ATOM     14  O   UNL     1       2.588  19.163  32.652  1.00  0.00    -0.550 OA
ENDBRANCH  11  12
ENDBRANCH  10  11
ENDBRANCH   9  10
ENDBRANCH   8   9
ENDBRANCH   1   8
TORSDOF 9
ENDMDL
