MODEL 1
REMARK VINA RESULT:    -4.923      0.000      0.000
REMARK INTER + INTRA:          -7.676
REMARK INTER:                  -7.514
REMARK INTRA:                  -0.163
REMARK UNBOUND:                -0.163
REMARK SMILES CCCCCCCCCCC(=O)[O-]
REMARK SMILES IDX 7 1 8 2 9 3 10 4 11 5 12 6 13 7 6 8 5 9 4 10 3 11 2 12 1 13
REMARK H PARENT
REMARK Flexibility Score: inf
ROOT
ATOM      1  C   UNL     1      -9.249  24.102 -26.166  1.00  0.00     0.000 C 
ENDROOT
BRANCH   1   2
ATOM      2  C   UNL     1      -9.442  25.131 -27.293  1.00  0.00     0.000 C 
BRANCH   2   3
ATOM      3  C   UNL     1      -8.114  25.531 -27.960  1.00  0.00     0.006 C 
BRANCH   3   4
ATOM      4  C   UNL     1      -7.883  27.048 -27.957  1.00  0.00     0.053 C 
BRANCH   4   5
ATOM      5  C   UNL     1      -7.884  27.572 -26.556  1.00  0.00     0.041 C 
ATOM      6  O   UNL     1      -8.972  27.837 -25.979  1.00  0.00    -0.550 OA
ATOM      7  O   UNL     1      -6.682  27.812 -25.903  1.00  0.00    -0.550 OA
ENDBRANCH   4   5
ENDBRANCH   3   4
ENDBRANCH   2   3
ENDBRANCH   1   2
BRANCH   1   8
ATOM      8  C   UNL     1     -10.388  23.071 -26.108  1.00  0.00     0.000 C 
BRANCH   8   9
ATOM      9  C   UNL     1     -10.296  22.152 -24.882  1.00  0.00    -0.000 C 
BRANCH   9  10
ATOM     10  C   UNL     1      -9.294  22.705 -23.857  1.00  0.00    -0.000 C 
BRANCH  10  11
ATOM     11  C   UNL     1      -9.971  23.178 -22.560  1.00  0.00    -0.000 C 
BRANCH  11  12
ATOM     12  C   UNL     1      -9.162  22.821 -21.306  1.00  0.00    -0.003 C 
ATOM     13  C   UNL     1     -10.082  22.519 -20.127  1.00  0.00     0.004 C 
ENDBRANCH  11  12
ENDBRANCH  10  11
ENDBRANCH   9  10
ENDBRANCH   8   9
ENDBRANCH   1   8
TORSDOF 9
ENDMDL
MODEL 2
REMARK VINA RESULT:    -4.812      3.068      6.163
REMARK INTER + INTRA:          -7.507
REMARK INTER:                  -7.062
REMARK INTRA:                  -0.444
REMARK UNBOUND:                -0.163
REMARK SMILES CCCCCCCCCCC(=O)[O-]
REMARK SMILES IDX 7 1 8 2 9 3 10 4 11 5 12 6 13 7 6 8 5 9 4 10 3 11 2 12 1 13
REMARK H PARENT
REMARK Flexibility Score: inf
ROOT
ATOM      1  C   UNL     1      -9.774  22.646 -25.949  1.00  0.00     0.000 C 
ENDROOT
BRANCH   1   2
ATOM      2  C   UNL     1     -10.450  22.270 -24.619  1.00  0.00     0.000 C 
BRANCH   2   3
ATOM      3  C   UNL     1     -10.171  23.294 -23.505  1.00  0.00     0.006 C 
BRANCH   3   4
ATOM      4  C   UNL     1      -9.030  22.862 -22.575  1.00  0.00     0.053 C 
BRANCH   4   5
ATOM      5  C   UNL     1      -9.502  22.822 -21.156  1.00  0.00     0.041 C 
ATOM      6  O   UNL     1     -10.570  23.402 -20.827  1.00  0.00    -0.550 OA
ATOM      7  O   UNL     1      -8.736  22.187 -20.186  1.00  0.00    -0.550 OA
ENDBRANCH   4   5
ENDBRANCH   3   4
ENDBRANCH   2   3
ENDBRANCH   1   2
BRANCH   1   8
ATOM      8  C   UNL     1     -10.051  24.101 -26.360  1.00  0.00     0.000 C 
BRANCH   8   9
ATOM      9  C   UNL     1      -8.846  24.765 -27.044  1.00  0.00    -0.000 C 
BRANCH   9  10
ATOM     10  C   UNL     1      -9.137  26.242 -27.350  1.00  0.00    -0.000 C 
BRANCH  10  11
ATOM     11  C   UNL     1      -8.597  27.190 -26.266  1.00  0.00    -0.000 C 
BRANCH  11  12
ATOM     12  C   UNL     1      -7.165  27.662 -26.553  1.00  0.00    -0.003 C 
ATOM     13  C   UNL     1      -6.902  27.732 -28.055  1.00  0.00     0.004 C 
ENDBRANCH  11  12
ENDBRANCH  10  11
ENDBRANCH   9  10
ENDBRANCH   8   9
ENDBRANCH   1   8
TORSDOF 9
ENDMDL
MODEL 3
REMARK VINA RESULT:    -4.665      4.951      6.171
REMARK INTER + INTRA:          -7.283
REMARK INTER:                  -6.942
REMARK INTRA:                  -0.340
REMARK UNBOUND:                -0.163
REMARK SMILES CCCCCCCCCCC(=O)[O-]
REMARK SMILES IDX 7 1 8 2 9 3 10 4 11 5 12 6 13 7 6 8 5 9 4 10 3 11 2 12 1 13
REMARK H PARENT
REMARK Flexibility Score: inf
ROOT
ATOM      1  C   UNL     1      -6.243  28.882 -23.419  1.00  0.00     0.000 C 
ENDROOT
BRANCH   1   2
ATOM      2  C   UNL     1      -7.471  28.171 -24.014  1.00  0.00     0.000 C 
BRANCH   2   3
ATOM      3  C   UNL     1      -7.318  27.889 -25.518  1.00  0.00     0.006 C 
BRANCH   3   4
ATOM      4  C   UNL     1      -8.641  27.487 -26.183  1.00  0.00     0.053 C 
BRANCH   4   5
ATOM      5  C   UNL     1      -8.384  26.596 -27.357  1.00  0.00     0.041 C 
ATOM      6  O   UNL     1      -7.213  26.450 -27.797  1.00  0.00    -0.550 OA
ATOM      7  O   UNL     1      -9.444  25.964 -27.996  1.00  0.00    -0.550 OA
ENDBRANCH   4   5
ENDBRANCH   3   4
ENDBRANCH   2   3
ENDBRANCH   1   2
BRANCH   1   8
ATOM      8  C   UNL     1      -6.326  29.023 -21.890  1.00  0.00     0.000 C 
BRANCH   8   9
ATOM      9  C   UNL     1      -5.479  27.978 -21.150  1.00  0.00    -0.000 C 
BRANCH   9  10
ATOM     10  C   UNL     1      -6.117  27.614 -19.800  1.00  0.00    -0.000 C 
BRANCH  10  11
ATOM     11  C   UNL     1      -5.651  28.531 -18.658  1.00  0.00    -0.000 C 
BRANCH  11  12
ATOM     12  C   UNL     1      -6.818  29.070 -17.819  1.00  0.00    -0.003 C 
ATOM     13  C   UNL     1      -6.956  30.582 -17.979  1.00  0.00     0.004 C 
ENDBRANCH  11  12
ENDBRANCH  10  11
ENDBRANCH   9  10
ENDBRANCH   8   9
ENDBRANCH   1   8
TORSDOF 9
ENDMDL
MODEL 4
REMARK VINA RESULT:    -4.629      7.053      9.127
REMARK INTER + INTRA:          -7.227
REMARK INTER:                  -6.171
REMARK INTRA:                  -1.056
REMARK UNBOUND:                -0.163
REMARK SMILES CCCCCCCCCCC(=O)[O-]
REMARK SMILES IDX 7 1 8 2 9 3 10 4 11 5 12 6 13 7 6 8 5 9 4 10 3 11 2 12 1 13
REMARK H PARENT
REMARK Flexibility Score: inf
ROOT
ATOM      1  C   UNL     1      -5.233  29.417 -22.559  1.00  0.00     0.000 C 
ENDROOT
BRANCH   1   2
ATOM      2  C   UNL     1      -6.153  28.352 -21.937  1.00  0.00     0.000 C 
BRANCH   2   3
ATOM      3  C   UNL     1      -6.118  28.367 -20.399  1.00  0.00     0.006 C 
BRANCH   3   4
ATOM      4  C   UNL     1      -5.960  26.965 -19.796  1.00  0.00     0.053 C 
BRANCH   4   5
ATOM      5  C   UNL     1      -4.538  26.512 -19.898  1.00  0.00     0.041 C 
ATOM      6  O   UNL     1      -4.262  25.401 -20.423  1.00  0.00    -0.550 OA
ATOM      7  O   UNL     1      -3.520  27.296 -19.370  1.00  0.00    -0.550 OA
ENDBRANCH   4   5
ENDBRANCH   3   4
ENDBRANCH   2   3
ENDBRANCH   1   2
BRANCH   1   8
ATOM      8  C   UNL     1      -4.179  29.936 -21.568  1.00  0.00     0.000 C 
BRANCH   8   9
ATOM      9  C   UNL     1      -4.056  31.467 -21.578  1.00  0.00    -0.000 C 
BRANCH   9  10
ATOM     10  C   UNL     1      -4.402  32.052 -20.200  1.00  0.00    -0.000 C 
BRANCH  10  11
ATOM     11  C   UNL     1      -5.747  32.797 -20.193  1.00  0.00    -0.000 C 
BRANCH  11  12
ATOM     12  C   UNL     1      -6.922  31.890 -19.802  1.00  0.00    -0.003 C 
ATOM     13  C   UNL     1      -6.855  31.508 -18.326  1.00  0.00     0.004 C 
ENDBRANCH  11  12
ENDBRANCH  10  11
ENDBRANCH   9  10
ENDBRANCH   8   9
ENDBRANCH   1   8
TORSDOF 9
ENDMDL
MODEL 5
REMARK VINA RESULT:    -4.592      8.183      9.488
REMARK INTER + INTRA:          -7.170
REMARK INTER:                  -6.194
REMARK INTRA:                  -0.976
REMARK UNBOUND:                -0.163
REMARK SMILES CCCCCCCCCCC(=O)[O-]
REMARK SMILES IDX 7 1 8 2 9 3 10 4 11 5 12 6 13 7 6 8 5 9 4 10 3 11 2 12 1 13
REMARK H PARENT
REMARK Flexibility Score: inf
ROOT
ATOM      1  C   UNL     1      -6.420  29.258 -18.733  1.00  0.00     0.000 C 
ENDROOT
BRANCH   1   2
ATOM      2  C   UNL     1      -6.446  30.012 -20.074  1.00  0.00     0.000 C 
BRANCH   2   3
ATOM      3  C   UNL     1      -6.180  31.518 -19.910  1.00  0.00     0.006 C 
BRANCH   3   4
ATOM      4  C   UNL     1      -6.786  32.089 -18.620  1.00  0.00     0.053 C 
BRANCH   4   5
ATOM      5  C   UNL     1      -6.658  33.579 -18.601  1.00  0.00     0.041 C 
ATOM      6  O   UNL     1      -6.854  34.218 -17.534  1.00  0.00    -0.550 OA
ATOM      7  O   UNL     1      -6.370  34.267 -19.774  1.00  0.00    -0.550 OA
ENDBRANCH   4   5
ENDBRANCH   3   4
ENDBRANCH   2   3
ENDBRANCH   1   2
BRANCH   1   8
ATOM      8  C   UNL     1      -6.337  27.734 -18.915  1.00  0.00     0.000 C 
BRANCH   8   9
ATOM      9  C   UNL     1      -5.820  27.327 -20.302  1.00  0.00    -0.000 C 
BRANCH   9  10
ATOM     10  C   UNL     1      -4.346  26.899 -20.233  1.00  0.00    -0.000 C 
BRANCH  10  11
ATOM     11  C   UNL     1      -3.382  28.022 -20.650  1.00  0.00    -0.000 C 
BRANCH  11  12
ATOM     12  C   UNL     1      -2.802  28.780 -19.448  1.00  0.00    -0.003 C 
ATOM     13  C   UNL     1      -2.435  30.211 -19.827  1.00  0.00     0.004 C 
ENDBRANCH  11  12
ENDBRANCH  10  11
ENDBRANCH   9  10
ENDBRANCH   8   9
ENDBRANCH   1   8
TORSDOF 9
ENDMDL
MODEL 6
REMARK VINA RESULT:    -4.538      6.735      9.073
REMARK INTER + INTRA:          -7.088
REMARK INTER:                  -6.042
REMARK INTRA:                  -1.046
REMARK UNBOUND:                -0.163
REMARK SMILES CCCCCCCCCCC(=O)[O-]
REMARK SMILES IDX 7 1 8 2 9 3 10 4 11 5 12 6 13 7 6 8 5 9 4 10 3 11 2 12 1 13
REMARK H PARENT
REMARK Flexibility Score: inf
ROOT
ATOM      1  C   UNL     1      -3.734  27.894 -19.508  1.00  0.00     0.000 C 
ENDROOT
BRANCH   1   2
ATOM      2  C   UNL     1      -4.598  26.700 -19.949  1.00  0.00     0.000 C 
BRANCH   2   3
ATOM      3  C   UNL     1      -6.069  26.848 -19.524  1.00  0.00     0.006 C 
BRANCH   3   4
ATOM      4  C   UNL     1      -6.393  28.249 -18.987  1.00  0.00     0.053 C 
BRANCH   4   5
ATOM      5  C   UNL     1      -6.997  28.156 -17.622  1.00  0.00     0.041 C 
ATOM      6  O   UNL     1      -6.929  29.133 -16.831  1.00  0.00    -0.550 OA
ATOM      7  O   UNL     1      -7.595  26.973 -17.206  1.00  0.00    -0.550 OA
ENDBRANCH   4   5
ENDBRANCH   3   4
ENDBRANCH   2   3
ENDBRANCH   1   2
BRANCH   1   8
ATOM      8  C   UNL     1      -3.159  28.678 -20.699  1.00  0.00     0.000 C 
BRANCH   8   9
ATOM      9  C   UNL     1      -3.580  30.155 -20.698  1.00  0.00    -0.000 C 
BRANCH   9  10
ATOM     10  C   UNL     1      -4.533  30.453 -21.865  1.00  0.00    -0.000 C 
BRANCH  10  11
ATOM     11  C   UNL     1      -4.939  29.187 -22.637  1.00  0.00    -0.000 C 
BRANCH  11  12
ATOM     12  C   UNL     1      -6.445  28.899 -22.550  1.00  0.00    -0.003 C 
ATOM     13  C   UNL     1      -6.995  28.439 -23.897  1.00  0.00     0.004 C 
ENDBRANCH  11  12
ENDBRANCH  10  11
ENDBRANCH   9  10
ENDBRANCH   8   9
ENDBRANCH   1   8
TORSDOF 9
ENDMDL
MODEL 7
REMARK VINA RESULT:    -4.516      7.644      9.317
REMARK INTER + INTRA:          -7.055
REMARK INTER:                  -6.080
REMARK INTRA:                  -0.975
REMARK UNBOUND:                -0.163
REMARK SMILES CCCCCCCCCCC(=O)[O-]
REMARK SMILES IDX 7 1 8 2 9 3 10 4 11 5 12 6 13 7 6 8 5 9 4 10 3 11 2 12 1 13
REMARK H PARENT
REMARK Flexibility Score: inf
ROOT
ATOM      1  C   UNL     1      -5.937  26.863 -20.084  1.00  0.00     0.000 C 
ENDROOT
BRANCH   1   2
ATOM      2  C   UNL     1      -6.144  27.840 -18.913  1.00  0.00     0.000 C 
BRANCH   2   3
ATOM      3  C   UNL     1      -6.580  29.238 -19.381  1.00  0.00     0.006 C 
BRANCH   3   4
ATOM      4  C   UNL     1      -6.580  30.270 -18.245  1.00  0.00     0.053 C 
BRANCH   4   5
ATOM      5  C   UNL     1      -6.576  31.658 -18.804  1.00  0.00     0.041 C 
ATOM      6  O   UNL     1      -6.911  32.633 -18.080  1.00  0.00    -0.550 OA
ATOM      7  O   UNL     1      -6.248  31.870 -20.137  1.00  0.00    -0.550 OA
ENDBRANCH   4   5
ENDBRANCH   3   4
ENDBRANCH   2   3
ENDBRANCH   1   2
BRANCH   1   8
ATOM      8  C   UNL     1      -4.540  26.221 -20.076  1.00  0.00     0.000 C 
BRANCH   8   9
ATOM      9  C   UNL     1      -3.411  27.253 -19.937  1.00  0.00    -0.000 C 
BRANCH   9  10
ATOM     10  C   UNL     1      -3.250  28.065 -21.231  1.00  0.00    -0.000 C 
BRANCH  10  11
ATOM     11  C   UNL     1      -3.598  29.551 -21.045  1.00  0.00    -0.000 C 
BRANCH  11  12
ATOM     12  C   UNL     1      -2.874  30.183 -19.848  1.00  0.00    -0.003 C 
ATOM     13  C   UNL     1      -2.522  31.642 -20.126  1.00  0.00     0.004 C 
ENDBRANCH  11  12
ENDBRANCH  10  11
ENDBRANCH   9  10
ENDBRANCH   8   9
ENDBRANCH   1   8
TORSDOF 9
ENDMDL
MODEL 8
REMARK VINA RESULT:    -4.502      7.773      9.489
REMARK INTER + INTRA:          -7.034
REMARK INTER:                  -5.890
REMARK INTRA:                  -1.143
REMARK UNBOUND:                -0.163
REMARK SMILES CCCCCCCCCCC(=O)[O-]
REMARK SMILES IDX 7 1 8 2 9 3 10 4 11 5 12 6 13 7 6 8 5 9 4 10 3 11 2 12 1 13
REMARK H PARENT
REMARK Flexibility Score: inf
ROOT
ATOM      1  C   UNL     1      -3.739  30.970 -20.857  1.00  0.00     0.000 C 
ENDROOT
BRANCH   1   2
ATOM      2  C   UNL     1      -4.699  32.044 -20.317  1.00  0.00     0.000 C 
BRANCH   2   3
ATOM      3  C   UNL     1      -6.140  31.528 -20.172  1.00  0.00     0.006 C 
BRANCH   3   4
ATOM      4  C   UNL     1      -6.780  31.925 -18.835  1.00  0.00     0.053 C 
BRANCH   4   5
ATOM      5  C   UNL     1      -6.823  30.750 -17.909  1.00  0.00     0.041 C 
ATOM      6  O   UNL     1      -6.497  29.606 -18.322  1.00  0.00    -0.550 OA
ATOM      7  O   UNL     1      -7.268  30.911 -16.603  1.00  0.00    -0.550 OA
ENDBRANCH   4   5
ENDBRANCH   3   4
ENDBRANCH   2   3
ENDBRANCH   1   2
BRANCH   1   8
ATOM      8  C   UNL     1      -3.004  30.218 -19.735  1.00  0.00     0.000 C 
BRANCH   8   9
ATOM      9  C   UNL     1      -2.926  28.705 -19.986  1.00  0.00    -0.000 C 
BRANCH   9  10
ATOM     10  C   UNL     1      -3.742  28.314 -21.228  1.00  0.00    -0.000 C 
BRANCH  10  11
ATOM     11  C   UNL     1      -5.066  27.616 -20.872  1.00  0.00    -0.000 C 
BRANCH  11  12
ATOM     12  C   UNL     1      -6.269  28.216 -21.613  1.00  0.00    -0.003 C 
ATOM     13  C   UNL     1      -5.840  28.848 -22.934  1.00  0.00     0.004 C 
ENDBRANCH  11  12
ENDBRANCH  10  11
ENDBRANCH   9  10
ENDBRANCH   8   9
ENDBRANCH   1   8
TORSDOF 9
ENDMDL
MODEL 9
REMARK VINA RESULT:    -4.499      8.190      9.941
REMARK INTER + INTRA:          -7.029
REMARK INTER:                  -6.260
REMARK INTRA:                  -0.769
REMARK UNBOUND:                -0.163
REMARK SMILES CCCCCCCCCCC(=O)[O-]
REMARK SMILES IDX 7 1 8 2 9 3 10 4 11 5 12 6 13 7 6 8 5 9 4 10 3 11 2 12 1 13
REMARK H PARENT
REMARK Flexibility Score: inf
ROOT
ATOM      1  C   UNL     1      -6.528  28.250 -18.957  1.00  0.00     0.000 C 
ENDROOT
BRANCH   1   2
ATOM      2  C   UNL     1      -5.991  27.752 -20.310  1.00  0.00     0.000 C 
BRANCH   2   3
ATOM      3  C   UNL     1      -4.701  26.926 -20.164  1.00  0.00     0.006 C 
BRANCH   3   4
ATOM      4  C   UNL     1      -3.447  27.708 -20.576  1.00  0.00     0.053 C 
BRANCH   4   5
ATOM      5  C   UNL     1      -2.864  28.416 -19.394  1.00  0.00     0.041 C 
ATOM      6  O   UNL     1      -2.792  27.835 -18.280  1.00  0.00    -0.550 OA
ATOM      7  O   UNL     1      -2.442  29.735 -19.512  1.00  0.00    -0.550 OA
ENDBRANCH   4   5
ENDBRANCH   3   4
ENDBRANCH   2   3
ENDBRANCH   1   2
BRANCH   1   8
ATOM      8  C   UNL     1      -6.259  29.747 -18.730  1.00  0.00     0.000 C 
BRANCH   8   9
ATOM      9  C   UNL     1      -6.294  30.562 -20.031  1.00  0.00    -0.000 C 
BRANCH   9  10
ATOM     10  C   UNL     1      -5.383  31.794 -19.930  1.00  0.00    -0.000 C 
BRANCH  10  11
ATOM     11  C   UNL     1      -6.173  33.110 -19.836  1.00  0.00    -0.000 C 
BRANCH  11  12
ATOM     12  C   UNL     1      -6.680  33.396 -18.415  1.00  0.00    -0.003 C 
ATOM     13  C   UNL     1      -6.776  34.897 -18.159  1.00  0.00     0.004 C 
ENDBRANCH  11  12
ENDBRANCH  10  11
ENDBRANCH   9  10
ENDBRANCH   8   9
ENDBRANCH   1   8
TORSDOF 9
ENDMDL
