MODEL 1
REMARK VINA RESULT:    -3.127      0.000      0.000
REMARK INTER + INTRA:         -11.643
REMARK INTER:                  -7.150
REMARK INTRA:                  -4.493
REMARK UNBOUND:                -4.493
REMARK SMILES CCCCCCCCCCCCCCCCCCCCCCCC(=O)[O-]
REMARK SMILES IDX 13 1 14 2 15 3 16 4 17 5 18 6 19 7 20 8 21 9 22 10 23 11
REMARK SMILES IDX 24 12 25 13 26 14 12 15 11 16 10 17 9 18 8 19 7 20 6 21 5 22
REMARK SMILES IDX 4 23 3 24 2 25 1 26
REMARK H PARENT
REMARK Flexibility Score: inf
ROOT
ATOM      1  C   UNL     1     -28.546   0.521 -38.458  1.00  0.00     0.000 C 
ENDROOT
BRANCH   1   2
ATOM      2  C   UNL     1     -27.712   1.815 -38.391  1.00  0.00     0.000 C 
BRANCH   2   3
ATOM      3  C   UNL     1     -28.385   3.059 -39.006  1.00  0.00     0.000 C 
BRANCH   3   4
ATOM      4  C   UNL     1     -28.038   4.397 -38.323  1.00  0.00     0.000 C 
BRANCH   4   5
ATOM      5  C   UNL     1     -27.091   4.281 -37.114  1.00  0.00     0.000 C 
BRANCH   5   6
ATOM      6  C   UNL     1     -26.739   5.646 -36.504  1.00  0.00     0.000 C 
BRANCH   6   7
ATOM      7  C   UNL     1     -26.521   5.528 -34.988  1.00  0.00     0.000 C 
BRANCH   7   8
ATOM      8  C   UNL     1     -27.344   4.395 -34.348  1.00  0.00     0.000 C 
BRANCH   8   9
ATOM      9  C   UNL     1     -26.529   3.375 -33.530  1.00  0.00     0.000 C 
BRANCH   9  10
ATOM     10  C   UNL     1     -26.205   2.054 -34.255  1.00  0.00     0.006 C 
BRANCH  10  11
ATOM     11  C   UNL     1     -24.934   2.113 -35.123  1.00  0.00     0.053 C 
BRANCH  11  12
ATOM     12  C   UNL     1     -23.745   2.628 -34.370  1.00  0.00     0.041 C 
ATOM     13  O   UNL     1     -23.036   1.842 -33.688  1.00  0.00    -0.550 OA
ATOM     14  O   UNL     1     -23.393   3.970 -34.456  1.00  0.00    -0.550 OA
ENDBRANCH  11  12
ENDBRANCH  10  11
ENDBRANCH   9  10
ENDBRANCH   8   9
ENDBRANCH   7   8
ENDBRANCH   6   7
ENDBRANCH   5   6
ENDBRANCH   4   5
ENDBRANCH   3   4
ENDBRANCH   2   3
ENDBRANCH   1   2
BRANCH   1  15
ATOM     15  C   UNL     1     -29.837   0.687 -39.278  1.00  0.00     0.000 C 
BRANCH  15  16
ATOM     16  C   UNL     1     -30.806  -0.493 -39.101  1.00  0.00     0.000 C 
BRANCH  16  17
ATOM     17  C   UNL     1     -31.877  -0.228 -38.030  1.00  0.00     0.000 C 
BRANCH  17  18
ATOM     18  C   UNL     1     -33.045   0.578 -38.613  1.00  0.00    -0.000 C 
BRANCH  18  19
ATOM     19  C   UNL     1     -33.238   1.937 -37.921  1.00  0.00    -0.000 C 
BRANCH  19  20
ATOM     20  C   UNL     1     -32.695   3.129 -38.738  1.00  0.00    -0.000 C 
BRANCH  20  21
ATOM     21  C   UNL     1     -31.733   4.005 -37.916  1.00  0.00    -0.000 C 
BRANCH  21  22
ATOM     22  C   UNL     1     -32.076   4.019 -36.418  1.00  0.00    -0.000 C 
BRANCH  22  23
ATOM     23  C   UNL     1     -30.846   3.802 -35.525  1.00  0.00    -0.000 C 
BRANCH  23  24
ATOM     24  C   UNL     1     -30.148   2.476 -35.862  1.00  0.00    -0.000 C 
BRANCH  24  25
ATOM     25  C   UNL     1     -29.936   1.589 -34.625  1.00  0.00    -0.003 C 
ATOM     26  C   UNL     1     -29.894   0.098 -34.964  1.00  0.00     0.004 C 
ENDBRANCH  24  25
ENDBRANCH  23  24
ENDBRANCH  22  23
ENDBRANCH  21  22
ENDBRANCH  20  21
ENDBRANCH  19  20
ENDBRANCH  18  19
ENDBRANCH  17  18
ENDBRANCH  16  17
ENDBRANCH  15  16
ENDBRANCH   1  15
TORSDOF 22
ENDMDL
MODEL 2
REMARK VINA RESULT:    -3.055      1.292      3.612
REMARK INTER + INTRA:         -11.476
REMARK INTER:                  -7.178
REMARK INTRA:                  -4.299
REMARK UNBOUND:                -4.493
REMARK SMILES CCCCCCCCCCCCCCCCCCCCCCCC(=O)[O-]
REMARK SMILES IDX 13 1 14 2 15 3 16 4 17 5 18 6 19 7 20 8 21 9 22 10 23 11
REMARK SMILES IDX 24 12 25 13 26 14 12 15 11 16 10 17 9 18 8 19 7 20 6 21 5 22
REMARK SMILES IDX 4 23 3 24 2 25 1 26
REMARK H PARENT
REMARK Flexibility Score: inf
ROOT
ATOM      1  C   UNL     1     -32.885   0.826 -38.705  1.00  0.00     0.000 C 
ENDROOT
BRANCH   1   2
ATOM      2  C   UNL     1     -31.436   0.403 -39.009  1.00  0.00     0.000 C 
BRANCH   2   3
ATOM      3  C   UNL     1     -30.495   1.548 -39.436  1.00  0.00     0.000 C 
BRANCH   3   4
ATOM      4  C   UNL     1     -28.992   1.272 -39.233  1.00  0.00     0.000 C 
BRANCH   4   5
ATOM      5  C   UNL     1     -28.157   2.500 -38.827  1.00  0.00     0.000 C 
BRANCH   5   6
ATOM      6  C   UNL     1     -28.938   3.816 -38.950  1.00  0.00     0.000 C 
BRANCH   6   7
ATOM      7  C   UNL     1     -28.333   4.900 -38.046  1.00  0.00     0.000 C 
BRANCH   7   8
ATOM      8  C   UNL     1     -27.089   4.417 -37.279  1.00  0.00     0.000 C 
BRANCH   8   9
ATOM      9  C   UNL     1     -26.649   5.318 -36.110  1.00  0.00     0.000 C 
BRANCH   9  10
ATOM     10  C   UNL     1     -27.094   4.850 -34.710  1.00  0.00     0.006 C 
BRANCH  10  11
ATOM     11  C   UNL     1     -26.137   3.837 -34.056  1.00  0.00     0.053 C 
BRANCH  11  12
ATOM     12  C   UNL     1     -24.709   4.294 -34.079  1.00  0.00     0.041 C 
ATOM     13  O   UNL     1     -24.309   5.167 -33.265  1.00  0.00    -0.550 OA
ATOM     14  O   UNL     1     -23.810   3.725 -34.973  1.00  0.00    -0.550 OA
ENDBRANCH  11  12
ENDBRANCH  10  11
ENDBRANCH   9  10
ENDBRANCH   8   9
ENDBRANCH   7   8
ENDBRANCH   6   7
ENDBRANCH   5   6
ENDBRANCH   4   5
ENDBRANCH   3   4
ENDBRANCH   2   3
ENDBRANCH   1   2
BRANCH   1  15
ATOM     15  C   UNL     1     -32.984   1.808 -37.525  1.00  0.00     0.000 C 
BRANCH  15  16
ATOM     16  C   UNL     1     -33.395   3.223 -37.966  1.00  0.00     0.000 C 
BRANCH  16  17
ATOM     17  C   UNL     1     -33.034   4.298 -36.928  1.00  0.00     0.000 C 
BRANCH  17  18
ATOM     18  C   UNL     1     -31.600   4.105 -36.418  1.00  0.00    -0.000 C 
BRANCH  18  19
ATOM     19  C   UNL     1     -31.522   3.979 -34.888  1.00  0.00    -0.000 C 
BRANCH  19  20
ATOM     20  C   UNL     1     -30.560   2.871 -34.407  1.00  0.00    -0.000 C 
BRANCH  20  21
ATOM     21  C   UNL     1     -29.656   2.356 -35.541  1.00  0.00    -0.000 C 
BRANCH  21  22
ATOM     22  C   UNL     1     -29.732   0.831 -35.716  1.00  0.00    -0.000 C 
BRANCH  22  23
ATOM     23  C   UNL     1     -30.987   0.222 -35.073  1.00  0.00    -0.000 C 
BRANCH  23  24
ATOM     24  C   UNL     1     -31.124  -1.265 -35.433  1.00  0.00    -0.000 C 
BRANCH  24  25
ATOM     25  C   UNL     1     -30.019  -1.744 -36.389  1.00  0.00    -0.003 C 
ATOM     26  C   UNL     1     -29.388  -3.065 -35.950  1.00  0.00     0.004 C 
ENDBRANCH  24  25
ENDBRANCH  23  24
ENDBRANCH  22  23
ENDBRANCH  21  22
ENDBRANCH  20  21
ENDBRANCH  19  20
ENDBRANCH  18  19
ENDBRANCH  17  18
ENDBRANCH  16  17
ENDBRANCH  15  16
ENDBRANCH   1  15
TORSDOF 22
ENDMDL
MODEL 3
REMARK VINA RESULT:    -2.985      2.026      2.621
REMARK INTER + INTRA:         -11.317
REMARK INTER:                  -7.777
REMARK INTRA:                  -3.540
REMARK UNBOUND:                -4.493
REMARK SMILES CCCCCCCCCCCCCCCCCCCCCCCC(=O)[O-]
REMARK SMILES IDX 13 1 14 2 15 3 16 4 17 5 18 6 19 7 20 8 21 9 22 10 23 11
REMARK SMILES IDX 24 12 25 13 26 14 12 15 11 16 10 17 9 18 8 19 7 20 6 21 5 22
REMARK SMILES IDX 4 23 3 24 2 25 1 26
REMARK H PARENT
REMARK Flexibility Score: inf
ROOT
ATOM      1  C   UNL     1     -29.184   0.668 -38.765  1.00  0.00     0.000 C 
ENDROOT
BRANCH   1   2
ATOM      2  C   UNL     1     -28.254   1.893 -38.693  1.00  0.00     0.000 C 
BRANCH   2   3
ATOM      3  C   UNL     1     -28.751   3.138 -39.457  1.00  0.00     0.000 C 
BRANCH   3   4
ATOM      4  C   UNL     1     -28.464   4.487 -38.770  1.00  0.00     0.000 C 
BRANCH   4   5
ATOM      5  C   UNL     1     -27.563   4.402 -37.524  1.00  0.00     0.000 C 
BRANCH   5   6
ATOM      6  C   UNL     1     -27.218   5.782 -36.945  1.00  0.00     0.000 C 
BRANCH   6   7
ATOM      7  C   UNL     1     -26.401   5.646 -35.652  1.00  0.00     0.000 C 
BRANCH   7   8
ATOM      8  C   UNL     1     -27.086   4.755 -34.600  1.00  0.00     0.000 C 
BRANCH   8   9
ATOM      9  C   UNL     1     -26.242   4.454 -33.347  1.00  0.00     0.000 C 
BRANCH   9  10
ATOM     10  C   UNL     1     -24.880   5.173 -33.279  1.00  0.00     0.006 C 
BRANCH  10  11
ATOM     11  C   UNL     1     -24.018   4.765 -32.070  1.00  0.00     0.053 C 
BRANCH  11  12
ATOM     12  C   UNL     1     -24.370   5.528 -30.828  1.00  0.00     0.041 C 
ATOM     13  O   UNL     1     -23.902   6.681 -30.637  1.00  0.00    -0.550 OA
ATOM     14  O   UNL     1     -25.248   4.982 -29.900  1.00  0.00    -0.550 OA
ENDBRANCH  11  12
ENDBRANCH  10  11
ENDBRANCH   9  10
ENDBRANCH   8   9
ENDBRANCH   7   8
ENDBRANCH   6   7
ENDBRANCH   5   6
ENDBRANCH   4   5
ENDBRANCH   3   4
ENDBRANCH   2   3
ENDBRANCH   1   2
BRANCH   1  15
ATOM     15  C   UNL     1     -30.538   0.985 -39.423  1.00  0.00     0.000 C 
BRANCH  15  16
ATOM     16  C   UNL     1     -31.677   0.100 -38.891  1.00  0.00     0.000 C 
BRANCH  16  17
ATOM     17  C   UNL     1     -33.003   0.862 -38.740  1.00  0.00     0.000 C 
BRANCH  17  18
ATOM     18  C   UNL     1     -32.775   2.377 -38.825  1.00  0.00    -0.000 C 
BRANCH  18  19
ATOM     19  C   UNL     1     -32.895   3.077 -37.461  1.00  0.00    -0.000 C 
BRANCH  19  20
ATOM     20  C   UNL     1     -31.669   3.944 -37.102  1.00  0.00    -0.000 C 
BRANCH  20  21
ATOM     21  C   UNL     1     -30.723   3.232 -36.118  1.00  0.00    -0.000 C 
BRANCH  21  22
ATOM     22  C   UNL     1     -31.383   2.029 -35.426  1.00  0.00    -0.000 C 
BRANCH  22  23
ATOM     23  C   UNL     1     -30.460   0.803 -35.360  1.00  0.00    -0.000 C 
BRANCH  23  24
ATOM     24  C   UNL     1     -31.276  -0.494 -35.242  1.00  0.00    -0.000 C 
BRANCH  24  25
ATOM     25  C   UNL     1     -30.619  -1.673 -35.978  1.00  0.00    -0.003 C 
ATOM     26  C   UNL     1     -29.893  -2.630 -35.032  1.00  0.00     0.004 C 
ENDBRANCH  24  25
ENDBRANCH  23  24
ENDBRANCH  22  23
ENDBRANCH  21  22
ENDBRANCH  20  21
ENDBRANCH  19  20
ENDBRANCH  18  19
ENDBRANCH  17  18
ENDBRANCH  16  17
ENDBRANCH  15  16
ENDBRANCH   1  15
TORSDOF 22
ENDMDL
MODEL 4
REMARK VINA RESULT:    -2.967      3.002      5.203
REMARK INTER + INTRA:         -11.275
REMARK INTER:                  -6.888
REMARK INTRA:                  -4.387
REMARK UNBOUND:                -4.493
REMARK SMILES CCCCCCCCCCCCCCCCCCCCCCCC(=O)[O-]
REMARK SMILES IDX 13 1 14 2 15 3 16 4 17 5 18 6 19 7 20 8 21 9 22 10 23 11
REMARK SMILES IDX 24 12 25 13 26 14 12 15 11 16 10 17 9 18 8 19 7 20 6 21 5 22
REMARK SMILES IDX 4 23 3 24 2 25 1 26
REMARK H PARENT
REMARK Flexibility Score: inf
ROOT
ATOM      1  C   UNL     1     -32.089  -0.073 -38.749  1.00  0.00     0.000 C 
ENDROOT
BRANCH   1   2
ATOM      2  C   UNL     1     -30.728  -0.518 -39.317  1.00  0.00     0.000 C 
BRANCH   2   3
ATOM      3  C   UNL     1     -29.807   0.628 -39.783  1.00  0.00     0.000 C 
BRANCH   3   4
ATOM      4  C   UNL     1     -28.334   0.506 -39.345  1.00  0.00     0.000 C 
BRANCH   4   5
ATOM      5  C   UNL     1     -28.121  -0.109 -37.950  1.00  0.00     0.000 C 
BRANCH   5   6
ATOM      6  C   UNL     1     -27.440   0.860 -36.973  1.00  0.00     0.000 C 
BRANCH   6   7
ATOM      7  C   UNL     1     -28.337   1.133 -35.756  1.00  0.00     0.000 C 
BRANCH   7   8
ATOM      8  C   UNL     1     -29.819   1.315 -36.132  1.00  0.00     0.000 C 
BRANCH   8   9
ATOM      9  C   UNL     1     -30.820   1.077 -34.985  1.00  0.00     0.000 C 
BRANCH   9  10
ATOM     10  C   UNL     1     -31.667  -0.205 -35.103  1.00  0.00     0.006 C 
BRANCH  10  11
ATOM     11  C   UNL     1     -30.904  -1.407 -35.689  1.00  0.00     0.053 C 
BRANCH  11  12
ATOM     12  C   UNL     1     -30.811  -2.555 -34.730  1.00  0.00     0.041 C 
ATOM     13  O   UNL     1     -31.491  -2.554 -33.671  1.00  0.00    -0.550 OA
ATOM     14  O   UNL     1     -30.005  -3.647 -35.027  1.00  0.00    -0.550 OA
ENDBRANCH  11  12
ENDBRANCH  10  11
ENDBRANCH   9  10
ENDBRANCH   8   9
ENDBRANCH   7   8
ENDBRANCH   6   7
ENDBRANCH   5   6
ENDBRANCH   4   5
ENDBRANCH   3   4
ENDBRANCH   2   3
ENDBRANCH   1   2
BRANCH   1  15
ATOM     15  C   UNL     1     -32.307   1.447 -38.847  1.00  0.00     0.000 C 
BRANCH  15  16
ATOM     16  C   UNL     1     -33.354   1.960 -37.846  1.00  0.00     0.000 C 
BRANCH  16  17
ATOM     17  C   UNL     1     -33.324   3.489 -37.684  1.00  0.00     0.000 C 
BRANCH  17  18
ATOM     18  C   UNL     1     -31.899   3.980 -37.396  1.00  0.00    -0.000 C 
BRANCH  18  19
ATOM     19  C   UNL     1     -31.454   5.108 -38.341  1.00  0.00    -0.000 C 
BRANCH  19  20
ATOM     20  C   UNL     1     -30.647   4.611 -39.559  1.00  0.00    -0.000 C 
BRANCH  20  21
ATOM     21  C   UNL     1     -29.167   5.028 -39.484  1.00  0.00    -0.000 C 
BRANCH  21  22
ATOM     22  C   UNL     1     -28.333   4.099 -38.588  1.00  0.00    -0.000 C 
BRANCH  22  23
ATOM     23  C   UNL     1     -27.861   4.785 -37.297  1.00  0.00    -0.000 C 
BRANCH  23  24
ATOM     24  C   UNL     1     -26.437   4.344 -36.928  1.00  0.00    -0.000 C 
BRANCH  24  25
ATOM     25  C   UNL     1     -26.050   4.740 -35.495  1.00  0.00    -0.003 C 
ATOM     26  C   UNL     1     -27.155   4.446 -34.479  1.00  0.00     0.004 C 
ENDBRANCH  24  25
ENDBRANCH  23  24
ENDBRANCH  22  23
ENDBRANCH  21  22
ENDBRANCH  20  21
ENDBRANCH  19  20
ENDBRANCH  18  19
ENDBRANCH  17  18
ENDBRANCH  16  17
ENDBRANCH  15  16
ENDBRANCH   1  15
TORSDOF 22
ENDMDL
MODEL 5
REMARK VINA RESULT:    -2.950      1.672      4.419
REMARK INTER + INTRA:         -11.237
REMARK INTER:                  -6.313
REMARK INTRA:                  -4.925
REMARK UNBOUND:                -4.493
REMARK SMILES CCCCCCCCCCCCCCCCCCCCCCCC(=O)[O-]
REMARK SMILES IDX 13 1 14 2 15 3 16 4 17 5 18 6 19 7 20 8 21 9 22 10 23 11
REMARK SMILES IDX 24 12 25 13 26 14 12 15 11 16 10 17 9 18 8 19 7 20 6 21 5 22
REMARK SMILES IDX 4 23 3 24 2 25 1 26
REMARK H PARENT
REMARK Flexibility Score: inf
ROOT
ATOM      1  C   UNL     1     -32.906   3.514 -38.734  1.00  0.00     0.000 C 
ENDROOT
BRANCH   1   2
ATOM      2  C   UNL     1     -32.682   2.133 -39.379  1.00  0.00     0.000 C 
BRANCH   2   3
ATOM      3  C   UNL     1     -32.791   0.934 -38.415  1.00  0.00     0.000 C 
BRANCH   3   4
ATOM      4  C   UNL     1     -31.697  -0.139 -38.576  1.00  0.00     0.000 C 
BRANCH   4   5
ATOM      5  C   UNL     1     -30.482   0.294 -39.417  1.00  0.00     0.000 C 
BRANCH   5   6
ATOM      6  C   UNL     1     -29.154   0.139 -38.663  1.00  0.00     0.000 C 
BRANCH   6   7
ATOM      7  C   UNL     1     -28.010   0.830 -39.420  1.00  0.00     0.000 C 
BRANCH   7   8
ATOM      8  C   UNL     1     -26.731   0.975 -38.575  1.00  0.00     0.000 C 
BRANCH   8   9
ATOM      9  C   UNL     1     -26.838   0.452 -37.129  1.00  0.00     0.000 C 
BRANCH   9  10
ATOM     10  C   UNL     1     -26.470   1.467 -36.030  1.00  0.00     0.006 C 
BRANCH  10  11
ATOM     11  C   UNL     1     -25.657   2.671 -36.538  1.00  0.00     0.053 C 
BRANCH  11  12
ATOM     12  C   UNL     1     -24.192   2.542 -36.247  1.00  0.00     0.041 C 
ATOM     13  O   UNL     1     -23.747   2.802 -35.099  1.00  0.00    -0.550 OA
ATOM     14  O   UNL     1     -23.323   2.093 -37.234  1.00  0.00    -0.550 OA
ENDBRANCH  11  12
ENDBRANCH  10  11
ENDBRANCH   9  10
ENDBRANCH   8   9
ENDBRANCH   7   8
ENDBRANCH   6   7
ENDBRANCH   5   6
ENDBRANCH   4   5
ENDBRANCH   3   4
ENDBRANCH   2   3
ENDBRANCH   1   2
BRANCH   1  15
ATOM     15  C   UNL     1     -32.173   4.644 -39.476  1.00  0.00     0.000 C 
BRANCH  15  16
ATOM     16  C   UNL     1     -30.817   4.197 -40.045  1.00  0.00     0.000 C 
BRANCH  16  17
ATOM     17  C   UNL     1     -29.796   5.343 -40.123  1.00  0.00     0.000 C 
BRANCH  17  18
ATOM     18  C   UNL     1     -29.171   5.613 -38.748  1.00  0.00    -0.000 C 
BRANCH  18  19
ATOM     19  C   UNL     1     -28.511   4.366 -38.137  1.00  0.00    -0.000 C 
BRANCH  19  20
ATOM     20  C   UNL     1     -29.043   4.013 -36.731  1.00  0.00    -0.000 C 
BRANCH  20  21
ATOM     21  C   UNL     1     -30.012   2.817 -36.761  1.00  0.00    -0.000 C 
BRANCH  21  22
ATOM     22  C   UNL     1     -30.948   2.781 -35.543  1.00  0.00    -0.000 C 
BRANCH  22  23
ATOM     23  C   UNL     1     -31.186   1.357 -35.019  1.00  0.00    -0.000 C 
BRANCH  23  24
ATOM     24  C   UNL     1     -29.857   0.609 -34.834  1.00  0.00    -0.000 C 
BRANCH  24  25
ATOM     25  C   UNL     1     -29.948  -0.867 -35.251  1.00  0.00    -0.003 C 
ATOM     26  C   UNL     1     -31.372  -1.419 -35.170  1.00  0.00     0.004 C 
ENDBRANCH  24  25
ENDBRANCH  23  24
ENDBRANCH  22  23
ENDBRANCH  21  22
ENDBRANCH  20  21
ENDBRANCH  19  20
ENDBRANCH  18  19
ENDBRANCH  17  18
ENDBRANCH  16  17
ENDBRANCH  15  16
ENDBRANCH   1  15
TORSDOF 22
ENDMDL
MODEL 6
REMARK VINA RESULT:    -2.950      1.727      3.714
REMARK INTER + INTRA:         -11.237
REMARK INTER:                  -7.284
REMARK INTRA:                  -3.953
REMARK UNBOUND:                -4.493
REMARK SMILES CCCCCCCCCCCCCCCCCCCCCCCC(=O)[O-]
REMARK SMILES IDX 13 1 14 2 15 3 16 4 17 5 18 6 19 7 20 8 21 9 22 10 23 11
REMARK SMILES IDX 24 12 25 13 26 14 12 15 11 16 10 17 9 18 8 19 7 20 6 21 5 22
REMARK SMILES IDX 4 23 3 24 2 25 1 26
REMARK H PARENT
REMARK Flexibility Score: inf
ROOT
ATOM      1  C   UNL     1     -30.777  -0.294 -37.712  1.00  0.00     0.000 C 
ENDROOT
BRANCH   1   2
ATOM      2  C   UNL     1     -29.650  -1.260 -38.124  1.00  0.00     0.000 C 
BRANCH   2   3
ATOM      3  C   UNL     1     -28.930  -0.901 -39.440  1.00  0.00     0.000 C 
BRANCH   3   4
ATOM      4  C   UNL     1     -27.612  -1.659 -39.695  1.00  0.00     0.000 C 
BRANCH   4   5
ATOM      5  C   UNL     1     -26.489  -1.364 -38.683  1.00  0.00     0.000 C 
BRANCH   5   6
ATOM      6  C   UNL     1     -26.269   0.139 -38.463  1.00  0.00     0.000 C 
BRANCH   6   7
ATOM      7  C   UNL     1     -26.589   0.534 -37.014  1.00  0.00     0.000 C 
BRANCH   7   8
ATOM      8  C   UNL     1     -25.362   1.065 -36.251  1.00  0.00     0.000 C 
BRANCH   8   9
ATOM      9  C   UNL     1     -24.820   2.420 -36.744  1.00  0.00     0.000 C 
BRANCH   9  10
ATOM     10  C   UNL     1     -24.274   3.353 -35.646  1.00  0.00     0.006 C 
BRANCH  10  11
ATOM     11  C   UNL     1     -25.209   3.505 -34.433  1.00  0.00     0.053 C 
BRANCH  11  12
ATOM     12  C   UNL     1     -25.434   4.938 -34.053  1.00  0.00     0.041 C 
ATOM     13  O   UNL     1     -26.369   5.595 -34.581  1.00  0.00    -0.550 OA
ATOM     14  O   UNL     1     -24.637   5.535 -33.084  1.00  0.00    -0.550 OA
ENDBRANCH  11  12
ENDBRANCH  10  11
ENDBRANCH   9  10
ENDBRANCH   8   9
ENDBRANCH   7   8
ENDBRANCH   6   7
ENDBRANCH   5   6
ENDBRANCH   4   5
ENDBRANCH   3   4
ENDBRANCH   2   3
ENDBRANCH   1   2
BRANCH   1  15
ATOM     15  C   UNL     1     -31.977  -0.335 -38.673  1.00  0.00     0.000 C 
BRANCH  15  16
ATOM     16  C   UNL     1     -33.137   0.562 -38.211  1.00  0.00     0.000 C 
BRANCH  16  17
ATOM     17  C   UNL     1     -32.751   2.048 -38.147  1.00  0.00     0.000 C 
BRANCH  17  18
ATOM     18  C   UNL     1     -32.467   2.599 -39.551  1.00  0.00    -0.000 C 
BRANCH  18  19
ATOM     19  C   UNL     1     -31.143   3.377 -39.631  1.00  0.00    -0.000 C 
BRANCH  19  20
ATOM     20  C   UNL     1     -29.947   2.516 -40.090  1.00  0.00    -0.000 C 
BRANCH  20  21
ATOM     21  C   UNL     1     -28.672   2.817 -39.284  1.00  0.00    -0.000 C 
BRANCH  21  22
ATOM     22  C   UNL     1     -28.627   4.262 -38.762  1.00  0.00    -0.000 C 
BRANCH  22  23
ATOM     23  C   UNL     1     -27.919   4.381 -37.404  1.00  0.00    -0.000 C 
BRANCH  23  24
ATOM     24  C   UNL     1     -28.511   3.394 -36.387  1.00  0.00    -0.000 C 
BRANCH  24  25
ATOM     25  C   UNL     1     -29.985   3.688 -36.068  1.00  0.00    -0.003 C 
ATOM     26  C   UNL     1     -30.642   2.587 -35.235  1.00  0.00     0.004 C 
ENDBRANCH  24  25
ENDBRANCH  23  24
ENDBRANCH  22  23
ENDBRANCH  21  22
ENDBRANCH  20  21
ENDBRANCH  19  20
ENDBRANCH  18  19
ENDBRANCH  17  18
ENDBRANCH  16  17
ENDBRANCH  15  16
ENDBRANCH   1  15
TORSDOF 22
ENDMDL
MODEL 7
REMARK VINA RESULT:    -2.940      3.636      6.794
REMARK INTER + INTRA:         -11.214
REMARK INTER:                  -7.265
REMARK INTRA:                  -3.949
REMARK UNBOUND:                -4.493
REMARK SMILES CCCCCCCCCCCCCCCCCCCCCCCC(=O)[O-]
REMARK SMILES IDX 13 1 14 2 15 3 16 4 17 5 18 6 19 7 20 8 21 9 22 10 23 11
REMARK SMILES IDX 24 12 25 13 26 14 12 15 11 16 10 17 9 18 8 19 7 20 6 21 5 22
REMARK SMILES IDX 4 23 3 24 2 25 1 26
REMARK H PARENT
REMARK Flexibility Score: inf
ROOT
ATOM      1  C   UNL     1     -31.619   4.330 -39.492  1.00  0.00     0.000 C 
ENDROOT
BRANCH   1   2
ATOM      2  C   UNL     1     -31.892   2.822 -39.654  1.00  0.00     0.000 C 
BRANCH   2   3
ATOM      3  C   UNL     1     -32.804   2.203 -38.575  1.00  0.00     0.000 C 
BRANCH   3   4
ATOM      4  C   UNL     1     -32.945   0.669 -38.638  1.00  0.00     0.000 C 
BRANCH   4   5
ATOM      5  C   UNL     1     -31.904  -0.112 -37.816  1.00  0.00     0.000 C 
BRANCH   5   6
ATOM      6  C   UNL     1     -30.658  -0.481 -38.634  1.00  0.00     0.000 C 
BRANCH   6   7
ATOM      7  C   UNL     1     -29.617  -1.193 -37.758  1.00  0.00     0.000 C 
BRANCH   7   8
ATOM      8  C   UNL     1     -30.136  -1.504 -36.342  1.00  0.00     0.000 C 
BRANCH   8   9
ATOM      9  C   UNL     1     -29.738  -2.884 -35.786  1.00  0.00     0.000 C 
BRANCH   9  10
ATOM     10  C   UNL     1     -30.488  -3.327 -34.515  1.00  0.00     0.006 C 
BRANCH  10  11
ATOM     11  C   UNL     1     -31.354  -2.222 -33.884  1.00  0.00     0.053 C 
BRANCH  11  12
ATOM     12  C   UNL     1     -32.807  -2.589 -33.827  1.00  0.00     0.041 C 
ATOM     13  O   UNL     1     -33.685  -1.762 -34.188  1.00  0.00    -0.550 OA
ATOM     14  O   UNL     1     -33.188  -3.861 -33.416  1.00  0.00    -0.550 OA
ENDBRANCH  11  12
ENDBRANCH  10  11
ENDBRANCH   9  10
ENDBRANCH   8   9
ENDBRANCH   7   8
ENDBRANCH   6   7
ENDBRANCH   5   6
ENDBRANCH   4   5
ENDBRANCH   3   4
ENDBRANCH   2   3
ENDBRANCH   1   2
BRANCH   1  15
ATOM     15  C   UNL     1     -30.129   4.645 -39.278  1.00  0.00     0.000 C 
BRANCH  15  16
ATOM     16  C   UNL     1     -29.272   3.379 -39.123  1.00  0.00     0.000 C 
BRANCH  16  17
ATOM     17  C   UNL     1     -27.936   3.647 -38.411  1.00  0.00     0.000 C 
BRANCH  17  18
ATOM     18  C   UNL     1     -27.916   5.054 -37.799  1.00  0.00    -0.000 C 
BRANCH  18  19
ATOM     19  C   UNL     1     -26.855   5.211 -36.698  1.00  0.00    -0.000 C 
BRANCH  19  20
ATOM     20  C   UNL     1     -25.904   4.000 -36.578  1.00  0.00    -0.000 C 
BRANCH  20  21
ATOM     21  C   UNL     1     -26.163   3.185 -35.299  1.00  0.00    -0.000 C 
BRANCH  21  22
ATOM     22  C   UNL     1     -26.257   1.674 -35.567  1.00  0.00    -0.000 C 
BRANCH  22  23
ATOM     23  C   UNL     1     -27.708   1.176 -35.654  1.00  0.00    -0.000 C 
BRANCH  23  24
ATOM     24  C   UNL     1     -28.670   2.162 -34.974  1.00  0.00    -0.000 C 
BRANCH  24  25
ATOM     25  C   UNL     1     -30.035   2.232 -35.676  1.00  0.00    -0.003 C 
ATOM     26  C   UNL     1     -30.640   3.637 -35.657  1.00  0.00     0.004 C 
ENDBRANCH  24  25
ENDBRANCH  23  24
ENDBRANCH  22  23
ENDBRANCH  21  22
ENDBRANCH  20  21
ENDBRANCH  19  20
ENDBRANCH  18  19
ENDBRANCH  17  18
ENDBRANCH  16  17
ENDBRANCH  15  16
ENDBRANCH   1  15
TORSDOF 22
ENDMDL
MODEL 8
REMARK VINA RESULT:    -2.934      1.960      3.342
REMARK INTER + INTRA:         -11.200
REMARK INTER:                  -7.710
REMARK INTRA:                  -3.490
REMARK UNBOUND:                -4.493
REMARK SMILES CCCCCCCCCCCCCCCCCCCCCCCC(=O)[O-]
REMARK SMILES IDX 13 1 14 2 15 3 16 4 17 5 18 6 19 7 20 8 21 9 22 10 23 11
REMARK SMILES IDX 24 12 25 13 26 14 12 15 11 16 10 17 9 18 8 19 7 20 6 21 5 22
REMARK SMILES IDX 4 23 3 24 2 25 1 26
REMARK H PARENT
REMARK Flexibility Score: inf
ROOT
ATOM      1  C   UNL     1     -32.606   3.731 -37.928  1.00  0.00     0.000 C 
ENDROOT
BRANCH   1   2
ATOM      2  C   UNL     1     -31.071   3.819 -37.849  1.00  0.00     0.000 C 
BRANCH   2   3
ATOM      3  C   UNL     1     -30.371   4.242 -39.157  1.00  0.00     0.000 C 
BRANCH   3   4
ATOM      4  C   UNL     1     -28.880   4.604 -39.016  1.00  0.00     0.000 C 
BRANCH   4   5
ATOM      5  C   UNL     1     -28.208   4.095 -37.728  1.00  0.00     0.000 C 
BRANCH   5   6
ATOM      6  C   UNL     1     -27.154   5.070 -37.184  1.00  0.00     0.000 C 
BRANCH   6   7
ATOM      7  C   UNL     1     -25.986   4.310 -36.537  1.00  0.00     0.000 C 
BRANCH   7   8
ATOM      8  C   UNL     1     -26.445   3.291 -35.478  1.00  0.00     0.000 C 
BRANCH   8   9
ATOM      9  C   UNL     1     -26.028   3.616 -34.031  1.00  0.00     0.000 C 
BRANCH   9  10
ATOM     10  C   UNL     1     -25.688   5.095 -33.758  1.00  0.00     0.006 C 
BRANCH  10  11
ATOM     11  C   UNL     1     -24.356   5.302 -33.014  1.00  0.00     0.053 C 
BRANCH  11  12
ATOM     12  C   UNL     1     -24.547   5.550 -31.548  1.00  0.00     0.041 C 
ATOM     13  O   UNL     1     -23.564   5.855 -30.823  1.00  0.00    -0.550 OA
ATOM     14  O   UNL     1     -25.818   5.485 -30.989  1.00  0.00    -0.550 OA
ENDBRANCH  11  12
ENDBRANCH  10  11
ENDBRANCH   9  10
ENDBRANCH   8   9
ENDBRANCH   7   8
ENDBRANCH   6   7
ENDBRANCH   5   6
ENDBRANCH   4   5
ENDBRANCH   3   4
ENDBRANCH   2   3
ENDBRANCH   1   2
BRANCH   1  15
ATOM     15  C   UNL     1     -33.128   2.290 -37.790  1.00  0.00     0.000 C 
BRANCH  15  16
ATOM     16  C   UNL     1     -32.725   1.398 -38.976  1.00  0.00     0.000 C 
BRANCH  16  17
ATOM     17  C   UNL     1     -32.569  -0.079 -38.584  1.00  0.00     0.000 C 
BRANCH  17  18
ATOM     18  C   UNL     1     -31.170  -0.596 -38.944  1.00  0.00    -0.000 C 
BRANCH  18  19
ATOM     19  C   UNL     1     -30.211   0.526 -39.374  1.00  0.00    -0.000 C 
BRANCH  19  20
ATOM     20  C   UNL     1     -28.900   0.564 -38.560  1.00  0.00    -0.000 C 
BRANCH  20  21
ATOM     21  C   UNL     1     -29.089   0.023 -37.131  1.00  0.00    -0.000 C 
BRANCH  21  22
ATOM     22  C   UNL     1     -29.389   1.133 -36.111  1.00  0.00    -0.000 C 
BRANCH  22  23
ATOM     23  C   UNL     1     -30.098   0.609 -34.854  1.00  0.00    -0.000 C 
BRANCH  23  24
ATOM     24  C   UNL     1     -31.558   0.240 -35.159  1.00  0.00    -0.000 C 
BRANCH  24  25
ATOM     25  C   UNL     1     -31.864  -1.239 -34.879  1.00  0.00    -0.003 C 
ATOM     26  C   UNL     1     -32.452  -1.469 -33.486  1.00  0.00     0.004 C 
ENDBRANCH  24  25
ENDBRANCH  23  24
ENDBRANCH  22  23
ENDBRANCH  21  22
ENDBRANCH  20  21
ENDBRANCH  19  20
ENDBRANCH  18  19
ENDBRANCH  17  18
ENDBRANCH  16  17
ENDBRANCH  15  16
ENDBRANCH   1  15
TORSDOF 22
ENDMDL
MODEL 9
REMARK VINA RESULT:    -2.931      2.612      5.820
REMARK INTER + INTRA:         -11.195
REMARK INTER:                  -7.378
REMARK INTRA:                  -3.817
REMARK UNBOUND:                -4.493
REMARK SMILES CCCCCCCCCCCCCCCCCCCCCCCC(=O)[O-]
REMARK SMILES IDX 13 1 14 2 15 3 16 4 17 5 18 6 19 7 20 8 21 9 22 10 23 11
REMARK SMILES IDX 24 12 25 13 26 14 12 15 11 16 10 17 9 18 8 19 7 20 6 21 5 22
REMARK SMILES IDX 4 23 3 24 2 25 1 26
REMARK H PARENT
REMARK Flexibility Score: inf
ROOT
ATOM      1  C   UNL     1     -29.766  -0.657 -38.313  1.00  0.00     0.000 C 
ENDROOT
BRANCH   1   2
ATOM      2  C   UNL     1     -31.065  -0.495 -39.125  1.00  0.00     0.000 C 
BRANCH   2   3
ATOM      3  C   UNL     1     -32.345  -0.314 -38.283  1.00  0.00     0.000 C 
BRANCH   3   4
ATOM      4  C   UNL     1     -33.106   1.006 -38.520  1.00  0.00     0.000 C 
BRANCH   4   5
ATOM      5  C   UNL     1     -32.340   2.056 -39.345  1.00  0.00     0.000 C 
BRANCH   5   6
ATOM      6  C   UNL     1     -32.486   3.477 -38.780  1.00  0.00     0.000 C 
BRANCH   6   7
ATOM      7  C   UNL     1     -32.768   3.440 -37.271  1.00  0.00     0.000 C 
BRANCH   7   8
ATOM      8  C   UNL     1     -31.811   4.332 -36.459  1.00  0.00     0.000 C 
BRANCH   8   9
ATOM      9  C   UNL     1     -30.828   3.576 -35.544  1.00  0.00     0.000 C 
BRANCH   9  10
ATOM     10  C   UNL     1     -30.580   2.101 -35.916  1.00  0.00     0.006 C 
BRANCH  10  11
ATOM     11  C   UNL     1     -31.307   1.096 -35.004  1.00  0.00     0.053 C 
BRANCH  11  12
ATOM     12  C   UNL     1     -31.037   1.337 -33.549  1.00  0.00     0.041 C 
ATOM     13  O   UNL     1     -29.883   1.156 -33.080  1.00  0.00    -0.550 OA
ATOM     14  O   UNL     1     -32.050   1.801 -32.719  1.00  0.00    -0.550 OA
ENDBRANCH  11  12
ENDBRANCH  10  11
ENDBRANCH   9  10
ENDBRANCH   8   9
ENDBRANCH   7   8
ENDBRANCH   6   7
ENDBRANCH   5   6
ENDBRANCH   4   5
ENDBRANCH   3   4
ENDBRANCH   2   3
ENDBRANCH   1   2
BRANCH   1  15
ATOM     15  C   UNL     1     -28.719   0.420 -38.644  1.00  0.00     0.000 C 
BRANCH  15  16
ATOM     16  C   UNL     1     -28.945   1.062 -40.023  1.00  0.00     0.000 C 
BRANCH  16  17
ATOM     17  C   UNL     1     -28.717   2.582 -40.017  1.00  0.00     0.000 C 
BRANCH  17  18
ATOM     18  C   UNL     1     -28.340   3.072 -38.612  1.00  0.00    -0.000 C 
BRANCH  18  19
ATOM     19  C   UNL     1     -28.552   4.584 -38.430  1.00  0.00    -0.000 C 
BRANCH  19  20
ATOM     20  C   UNL     1     -27.585   5.225 -37.413  1.00  0.00    -0.000 C 
BRANCH  20  21
ATOM     21  C   UNL     1     -27.281   4.287 -36.230  1.00  0.00    -0.000 C 
BRANCH  21  22
ATOM     22  C   UNL     1     -26.572   5.004 -35.071  1.00  0.00    -0.000 C 
BRANCH  22  23
ATOM     23  C   UNL     1     -25.704   4.057 -34.229  1.00  0.00    -0.000 C 
BRANCH  23  24
ATOM     24  C   UNL     1     -24.427   4.762 -33.748  1.00  0.00    -0.000 C 
BRANCH  24  25
ATOM     25  C   UNL     1     -24.188   4.587 -32.240  1.00  0.00    -0.003 C 
ATOM     26  C   UNL     1     -24.381   5.884 -31.454  1.00  0.00     0.004 C 
ENDBRANCH  24  25
ENDBRANCH  23  24
ENDBRANCH  22  23
ENDBRANCH  21  22
ENDBRANCH  20  21
ENDBRANCH  19  20
ENDBRANCH  18  19
ENDBRANCH  17  18
ENDBRANCH  16  17
ENDBRANCH  15  16
ENDBRANCH   1  15
TORSDOF 22
ENDMDL
