MODEL 1
REMARK VINA RESULT:     9.119      0.000      0.000
REMARK INTER + INTRA:          14.150
REMARK INTER:                  12.850
REMARK INTRA:                   1.300
REMARK UNBOUND:                 1.300
REMARK SMILES CC1=CCC(=C(C)C)CCC(C)=CCC1
REMARK SMILES IDX 5 1 6 2 7 3 8 4 9 5 10 6 11 7 12 8 13 9 4 11 3 12 2 13 1 14
REMARK SMILES IDX 15 15 14 16
REMARK H PARENT
REMARK Flexibility Score: 60.00
ROOT
ATOM      1  C   UNL     1      -1.148   6.108 -11.202  1.00  0.00    -0.067 C 
ATOM      2  C   UNL     1      -1.612   5.578 -12.381  1.00  0.00    -0.077 C 
ATOM      3  C   UNL     1      -0.686   5.253 -13.534  1.00  0.00     0.039 C 
ATOM      4  C   UNL     1      -3.079   5.253 -12.574  1.00  0.00     0.039 C 
ENDROOT
BRANCH   1   5
ATOM      5  C   UNL     1      -2.098   6.381 -10.037  1.00  0.00     0.035 C 
BRANCH   5   6
ATOM      6  C   UNL     1      -1.565   5.996  -8.634  1.00  0.00     0.035 C 
BRANCH   6   7
ATOM      7  C   UNL     1      -0.960   7.127  -7.812  1.00  0.00    -0.077 C 
ATOM      8  C   UNL     1      -1.845   8.265  -7.367  1.00  0.00     0.039 C 
ATOM      9  C   UNL     1       0.322   7.130  -7.382  1.00  0.00    -0.028 CG0
ATOM     10  G   UNL     1       1.367   6.101  -7.745  1.00  0.00     0.000 G0
ENDBRANCH   6   7
ENDBRANCH   5   6
ENDBRANCH   1   5
BRANCH   1  11
ATOM     11  C   UNL     1       0.348   6.268 -10.918  1.00  0.00     0.058 C 
BRANCH  11  12
ATOM     12  C   UNL     1       1.067   4.949 -10.759  1.00  0.00    -0.024 C 
ATOM     13  C   UNL     1       1.260   4.285  -9.596  1.00  0.00    -0.077 C 
ATOM     14  C   UNL     1       2.015   2.978  -9.654  1.00  0.00     0.039 C 
BRANCH  13  15
ATOM     15  C   UNL     1       0.740   4.770  -8.248  1.00  0.00     0.034 C 
BRANCH  15  16
ATOM     16  C   UNL     1       1.353   6.096  -7.746  1.00  0.00     0.032 CG0
ATOM     17  G   UNL     1       0.311   7.127  -7.383  1.00  0.00     0.000 G0
ENDBRANCH  15  16
ENDBRANCH  13  15
ENDBRANCH  11  12
ENDBRANCH   1  11
TORSDOF 0
ENDMDL
MODEL 2
REMARK VINA RESULT:     9.948      0.728      3.464
REMARK INTER + INTRA:          15.319
REMARK INTER:                  15.334
REMARK INTRA:                  -0.015
REMARK UNBOUND:                 1.300
REMARK SMILES CC1=CCC(=C(C)C)CCC(C)=CCC1
REMARK SMILES IDX 5 1 6 2 7 3 8 4 9 5 10 6 11 7 12 8 13 9 4 11 3 12 2 13 1 14
REMARK SMILES IDX 15 15 14 16
REMARK H PARENT
REMARK Flexibility Score: 60.00
ROOT
ATOM      1  C   UNL     1      -0.868   5.796 -11.002  1.00  0.00    -0.067 C 
ATOM      2  C   UNL     1      -1.385   5.333 -12.187  1.00  0.00    -0.077 C 
ATOM      3  C   UNL     1      -2.699   4.583 -12.251  1.00  0.00     0.039 C 
ATOM      4  C   UNL     1      -0.680   5.585 -13.504  1.00  0.00     0.039 C 
ENDROOT
BRANCH   1   5
ATOM      5  C   UNL     1       0.436   6.592 -10.973  1.00  0.00     0.035 C 
BRANCH   5   6
ATOM      6  C   UNL     1       1.689   5.807 -10.510  1.00  0.00     0.035 C 
BRANCH   6   7
ATOM      7  C   UNL     1       1.446   4.679  -9.515  1.00  0.00    -0.077 C 
ATOM      8  C   UNL     1       1.541   3.250  -9.990  1.00  0.00     0.039 C 
ATOM      9  C   UNL     1       1.229   4.885  -8.197  1.00  0.00    -0.028 CG0
ATOM     10  G   UNL     1       1.070   6.235  -7.539  1.00  0.00     0.000 G0
ENDBRANCH   6   7
ENDBRANCH   5   6
ENDBRANCH   1   5
BRANCH   1  11
ATOM     11  C   UNL     1      -1.652   5.718  -9.689  1.00  0.00     0.058 C 
BRANCH  11  12
ATOM     12  C   UNL     1      -1.783   7.052  -8.995  1.00  0.00    -0.024 C 
ATOM     13  C   UNL     1      -1.236   7.384  -7.803  1.00  0.00    -0.077 C 
ATOM     14  C   UNL     1      -1.495   8.775  -7.277  1.00  0.00     0.039 C 
BRANCH  13  15
ATOM     15  C   UNL     1      -0.361   6.443  -6.982  1.00  0.00     0.034 C 
BRANCH  15  16
ATOM     16  C   UNL     1       1.065   6.226  -7.532  1.00  0.00     0.032 CG0
ATOM     17  G   UNL     1       1.237   4.888  -8.212  1.00  0.00     0.000 G0
ENDBRANCH  15  16
ENDBRANCH  13  15
ENDBRANCH  11  12
ENDBRANCH   1  11
TORSDOF 0
ENDMDL
