MODEL 1
REMARK VINA RESULT:    -3.353      0.000      0.000
REMARK INTER + INTRA:          -8.490
REMARK INTER:                  -6.098
REMARK INTRA:                  -2.392
REMARK UNBOUND:                -2.392
REMARK SMILES CCCCCCCCCCCCCC[C@H](C)C(=O)[O-]
REMARK SMILES IDX 9 1 10 2 11 3 12 4 13 5 14 6 15 7 16 8 17 9 18 10 19 11 8 12
REMARK SMILES IDX 7 13 6 14 5 15 4 16 3 17 2 18 1 19
REMARK H PARENT
REMARK Flexibility Score: inf
ROOT
ATOM      1  C   UNL     1       7.227 105.559 180.344  1.00  0.00     0.000 C 
ENDROOT
BRANCH   1   2
ATOM      2  C   UNL     1       7.640 105.864 181.793  1.00  0.00     0.000 C 
BRANCH   2   3
ATOM      3  C   UNL     1       6.446 106.223 182.691  1.00  0.00     0.000 C 
BRANCH   3   4
ATOM      4  C   UNL     1       6.593 107.609 183.343  1.00  0.00     0.000 C 
BRANCH   4   5
ATOM      5  C   UNL     1       5.237 108.265 183.650  1.00  0.00     0.001 C 
BRANCH   5   6
ATOM      6  C   UNL     1       4.069 107.580 182.908  1.00  0.00     0.009 C 
BRANCH   6   7
ATOM      7  C   UNL     1       3.185 108.550 182.093  1.00  0.00     0.032 C 
ATOM      8  C   UNL     1       3.992 109.365 181.071  1.00  0.00     0.014 C 
BRANCH   7   9
ATOM      9  C   UNL     1       2.361 109.437 182.991  1.00  0.00     0.044 C 
ATOM     10  O   UNL     1       1.309 108.989 183.520  1.00  0.00    -0.550 OA
ATOM     11  O   UNL     1       2.772 110.733 183.287  1.00  0.00    -0.550 OA
ENDBRANCH   7   9
ENDBRANCH   6   7
ENDBRANCH   5   6
ENDBRANCH   4   5
ENDBRANCH   3   4
ENDBRANCH   2   3
ENDBRANCH   1   2
BRANCH   1  12
ATOM     12  C   UNL     1       6.039 106.430 179.918  1.00  0.00     0.000 C 
BRANCH  12  13
ATOM     13  C   UNL     1       5.000 105.608 179.147  1.00  0.00    -0.000 C 
BRANCH  13  14
ATOM     14  C   UNL     1       3.660 105.573 179.892  1.00  0.00    -0.000 C 
BRANCH  14  15
ATOM     15  C   UNL     1       2.604 104.803 179.090  1.00  0.00    -0.000 C 
BRANCH  15  16
ATOM     16  C   UNL     1       1.648 105.764 178.372  1.00  0.00    -0.000 C 
BRANCH  16  17
ATOM     17  C   UNL     1       1.008 106.790 179.322  1.00  0.00    -0.000 C 
BRANCH  17  18
ATOM     18  C   UNL     1       1.180 108.252 178.856  1.00  0.00    -0.003 C 
ATOM     19  C   UNL     1       2.334 108.415 177.867  1.00  0.00     0.004 C 
ENDBRANCH  17  18
ENDBRANCH  16  17
ENDBRANCH  15  16
ENDBRANCH  14  15
ENDBRANCH  13  14
ENDBRANCH  12  13
ENDBRANCH   1  12
TORSDOF 14
ENDMDL
MODEL 2
REMARK VINA RESULT:    -3.257      3.505      6.636
REMARK INTER + INTRA:          -8.314
REMARK INTER:                  -5.777
REMARK INTRA:                  -2.537
REMARK UNBOUND:                -2.392
REMARK SMILES CCCCCCCCCCCCCC[C@H](C)C(=O)[O-]
REMARK SMILES IDX 9 1 10 2 11 3 12 4 13 5 14 6 15 7 16 8 17 9 18 10 19 11 8 12
REMARK SMILES IDX 7 13 6 14 5 15 4 16 3 17 2 18 1 19
REMARK H PARENT
REMARK Flexibility Score: inf
ROOT
ATOM      1  C   UNL     1       5.737 114.356 182.273  1.00  0.00     0.000 C 
ENDROOT
BRANCH   1   2
ATOM      2  C   UNL     1       5.520 114.498 183.788  1.00  0.00     0.000 C 
BRANCH   2   3
ATOM      3  C   UNL     1       4.048 114.736 184.161  1.00  0.00     0.000 C 
BRANCH   3   4
ATOM      4  C   UNL     1       3.444 113.566 184.957  1.00  0.00     0.000 C 
BRANCH   4   5
ATOM      5  C   UNL     1       3.976 112.200 184.494  1.00  0.00     0.001 C 
BRANCH   5   6
ATOM      6  C   UNL     1       2.963 111.442 183.611  1.00  0.00     0.009 C 
BRANCH   6   7
ATOM      7  C   UNL     1       3.565 110.239 182.850  1.00  0.00     0.032 C 
ATOM      8  C   UNL     1       4.247 110.657 181.537  1.00  0.00     0.014 C 
BRANCH   7   9
ATOM      9  C   UNL     1       2.545 109.153 182.630  1.00  0.00     0.044 C 
ATOM     10  O   UNL     1       2.311 108.741 181.462  1.00  0.00    -0.550 OA
ATOM     11  O   UNL     1       1.891 108.559 183.705  1.00  0.00    -0.550 OA
ENDBRANCH   7   9
ENDBRANCH   6   7
ENDBRANCH   5   6
ENDBRANCH   4   5
ENDBRANCH   3   4
ENDBRANCH   2   3
ENDBRANCH   1   2
BRANCH   1  12
ATOM     12  C   UNL     1       6.825 113.318 181.970  1.00  0.00     0.000 C 
BRANCH  12  13
ATOM     13  C   UNL     1       7.489 112.822 183.259  1.00  0.00    -0.000 C 
BRANCH  13  14
ATOM     14  C   UNL     1       7.570 111.291 183.284  1.00  0.00    -0.000 C 
BRANCH  14  15
ATOM     15  C   UNL     1       7.548 110.761 184.723  1.00  0.00    -0.000 C 
BRANCH  15  16
ATOM     16  C   UNL     1       6.634 109.536 184.846  1.00  0.00    -0.000 C 
BRANCH  16  17
ATOM     17  C   UNL     1       6.587 108.693 183.561  1.00  0.00    -0.000 C 
BRANCH  17  18
ATOM     18  C   UNL     1       5.818 107.365 183.722  1.00  0.00    -0.003 C 
ATOM     19  C   UNL     1       5.409 106.762 182.379  1.00  0.00     0.004 C 
ENDBRANCH  17  18
ENDBRANCH  16  17
ENDBRANCH  15  16
ENDBRANCH  14  15
ENDBRANCH  13  14
ENDBRANCH  12  13
ENDBRANCH   1  12
TORSDOF 14
ENDMDL
MODEL 3
REMARK VINA RESULT:    -3.231      4.058      5.975
REMARK INTER + INTRA:          -8.267
REMARK INTER:                  -5.923
REMARK INTRA:                  -2.344
REMARK UNBOUND:                -2.392
REMARK SMILES CCCCCCCCCCCCCC[C@H](C)C(=O)[O-]
REMARK SMILES IDX 9 1 10 2 11 3 12 4 13 5 14 6 15 7 16 8 17 9 18 10 19 11 8 12
REMARK SMILES IDX 7 13 6 14 5 15 4 16 3 17 2 18 1 19
REMARK H PARENT
REMARK Flexibility Score: inf
ROOT
ATOM      1  C   UNL     1       5.143 105.185 176.292  1.00  0.00     0.000 C 
ENDROOT
BRANCH   1   2
ATOM      2  C   UNL     1       3.660 104.803 176.162  1.00  0.00     0.000 C 
BRANCH   2   3
ATOM      3  C   UNL     1       2.718 106.011 176.290  1.00  0.00     0.000 C 
BRANCH   3   4
ATOM      4  C   UNL     1       2.292 106.276 177.744  1.00  0.00     0.000 C 
BRANCH   4   5
ATOM      5  C   UNL     1       2.168 104.985 178.569  1.00  0.00     0.001 C 
BRANCH   5   6
ATOM      6  C   UNL     1       2.877 105.088 179.936  1.00  0.00     0.009 C 
BRANCH   6   7
ATOM      7  C   UNL     1       3.802 106.318 180.076  1.00  0.00     0.032 C 
ATOM      8  C   UNL     1       5.275 105.927 180.267  1.00  0.00     0.014 C 
BRANCH   7   9
ATOM      9  C   UNL     1       3.325 107.252 181.158  1.00  0.00     0.044 C 
ATOM     10  O   UNL     1       2.527 108.185 180.874  1.00  0.00    -0.550 OA
ATOM     11  O   UNL     1       3.713 107.069 182.481  1.00  0.00    -0.550 OA
ENDBRANCH   7   9
ENDBRANCH   6   7
ENDBRANCH   5   6
ENDBRANCH   4   5
ENDBRANCH   3   4
ENDBRANCH   2   3
ENDBRANCH   1   2
BRANCH   1  12
ATOM     12  C   UNL     1       5.890 104.187 177.186  1.00  0.00     0.000 C 
BRANCH  12  13
ATOM     13  C   UNL     1       5.306 102.777 177.046  1.00  0.00    -0.000 C 
BRANCH  13  14
ATOM     14  C   UNL     1       6.378 101.777 176.597  1.00  0.00    -0.000 C 
BRANCH  14  15
ATOM     15  C   UNL     1       6.154 101.346 175.142  1.00  0.00    -0.000 C 
BRANCH  15  16
ATOM     16  C   UNL     1       7.134 102.056 174.200  1.00  0.00    -0.000 C 
BRANCH  16  17
ATOM     17  C   UNL     1       6.490 103.226 173.437  1.00  0.00    -0.000 C 
BRANCH  17  18
ATOM     18  C   UNL     1       4.977 103.045 173.194  1.00  0.00    -0.003 C 
ATOM     19  C   UNL     1       4.633 102.960 171.707  1.00  0.00     0.004 C 
ENDBRANCH  17  18
ENDBRANCH  16  17
ENDBRANCH  15  16
ENDBRANCH  14  15
ENDBRANCH  13  14
ENDBRANCH  12  13
ENDBRANCH   1  12
TORSDOF 14
ENDMDL
MODEL 4
REMARK VINA RESULT:    -3.222      4.370      6.413
REMARK INTER + INTRA:          -8.251
REMARK INTER:                  -6.267
REMARK INTRA:                  -1.984
REMARK UNBOUND:                -2.392
REMARK SMILES CCCCCCCCCCCCCC[C@H](C)C(=O)[O-]
REMARK SMILES IDX 9 1 10 2 11 3 12 4 13 5 14 6 15 7 16 8 17 9 18 10 19 11 8 12
REMARK SMILES IDX 7 13 6 14 5 15 4 16 3 17 2 18 1 19
REMARK H PARENT
REMARK Flexibility Score: inf
ROOT
ATOM      1  C   UNL     1       4.566 111.982 182.157  1.00  0.00     0.000 C 
ENDROOT
BRANCH   1   2
ATOM      2  C   UNL     1       5.719 112.009 183.172  1.00  0.00     0.000 C 
BRANCH   2   3
ATOM      3  C   UNL     1       5.565 113.121 184.221  1.00  0.00     0.000 C 
BRANCH   3   4
ATOM      4  C   UNL     1       4.282 112.971 185.058  1.00  0.00     0.000 C 
BRANCH   4   5
ATOM      5  C   UNL     1       3.223 114.030 184.711  1.00  0.00     0.001 C 
BRANCH   5   6
ATOM      6  C   UNL     1       3.828 115.258 183.999  1.00  0.00     0.009 C 
BRANCH   6   7
ATOM      7  C   UNL     1       3.196 115.565 182.623  1.00  0.00     0.032 C 
ATOM      8  C   UNL     1       4.247 115.709 181.512  1.00  0.00     0.014 C 
BRANCH   7   9
ATOM      9  C   UNL     1       2.281 116.761 182.687  1.00  0.00     0.044 C 
ATOM     10  O   UNL     1       1.128 116.695 182.180  1.00  0.00    -0.550 OA
ATOM     11  O   UNL     1       2.670 117.924 183.343  1.00  0.00    -0.550 OA
ENDBRANCH   7   9
ENDBRANCH   6   7
ENDBRANCH   5   6
ENDBRANCH   4   5
ENDBRANCH   3   4
ENDBRANCH   2   3
ENDBRANCH   1   2
BRANCH   1  12
ATOM     12  C   UNL     1       4.044 110.554 181.957  1.00  0.00     0.000 C 
BRANCH  12  13
ATOM     13  C   UNL     1       2.931 110.228 182.960  1.00  0.00    -0.000 C 
BRANCH  13  14
ATOM     14  C   UNL     1       2.393 108.808 182.744  1.00  0.00    -0.000 C 
BRANCH  14  15
ATOM     15  C   UNL     1       3.093 108.128 181.562  1.00  0.00    -0.000 C 
BRANCH  15  16
ATOM     16  C   UNL     1       3.703 106.784 181.982  1.00  0.00    -0.000 C 
BRANCH  16  17
ATOM     17  C   UNL     1       5.229 106.851 182.162  1.00  0.00    -0.000 C 
BRANCH  17  18
ATOM     18  C   UNL     1       5.668 107.072 183.625  1.00  0.00    -0.003 C 
ATOM     19  C   UNL     1       6.431 108.384 183.811  1.00  0.00     0.004 C 
ENDBRANCH  17  18
ENDBRANCH  16  17
ENDBRANCH  15  16
ENDBRANCH  14  15
ENDBRANCH  13  14
ENDBRANCH  12  13
ENDBRANCH   1  12
TORSDOF 14
ENDMDL
MODEL 5
REMARK VINA RESULT:    -3.216      3.671      6.486
REMARK INTER + INTRA:          -8.240
REMARK INTER:                  -6.295
REMARK INTRA:                  -1.945
REMARK UNBOUND:                -2.392
REMARK SMILES CCCCCCCCCCCCCC[C@H](C)C(=O)[O-]
REMARK SMILES IDX 9 1 10 2 11 3 12 4 13 5 14 6 15 7 16 8 17 9 18 10 19 11 8 12
REMARK SMILES IDX 7 13 6 14 5 15 4 16 3 17 2 18 1 19
REMARK H PARENT
REMARK Flexibility Score: inf
ROOT
ATOM      1  C   UNL     1       5.212 110.872 183.436  1.00  0.00     0.000 C 
ENDROOT
BRANCH   1   2
ATOM      2  C   UNL     1       6.657 110.455 183.749  1.00  0.00     0.000 C 
BRANCH   2   3
ATOM      3  C   UNL     1       6.834 108.931 183.837  1.00  0.00     0.000 C 
BRANCH   3   4
ATOM      4  C   UNL     1       5.490 108.182 183.885  1.00  0.00     0.000 C 
BRANCH   4   5
ATOM      5  C   UNL     1       5.281 107.266 182.669  1.00  0.00     0.001 C 
BRANCH   5   6
ATOM      6  C   UNL     1       3.788 107.070 182.328  1.00  0.00     0.009 C 
BRANCH   6   7
ATOM      7  C   UNL     1       3.088 108.344 181.807  1.00  0.00     0.032 C 
ATOM      8  C   UNL     1       2.062 108.901 182.806  1.00  0.00     0.014 C 
BRANCH   7   9
ATOM      9  C   UNL     1       2.482 108.127 180.444  1.00  0.00     0.044 C 
ATOM     10  O   UNL     1       3.226 107.855 179.464  1.00  0.00    -0.550 OA
ATOM     11  O   UNL     1       1.104 108.172 180.260  1.00  0.00    -0.550 OA
ENDBRANCH   7   9
ENDBRANCH   6   7
ENDBRANCH   5   6
ENDBRANCH   4   5
ENDBRANCH   3   4
ENDBRANCH   2   3
ENDBRANCH   1   2
BRANCH   1  12
ATOM     12  C   UNL     1       4.739 111.974 184.392  1.00  0.00     0.000 C 
BRANCH  12  13
ATOM     13  C   UNL     1       3.234 112.222 184.247  1.00  0.00    -0.000 C 
BRANCH  13  14
ATOM     14  C   UNL     1       2.856 113.626 184.734  1.00  0.00    -0.000 C 
BRANCH  14  15
ATOM     15  C   UNL     1       3.905 114.659 184.304  1.00  0.00    -0.000 C 
BRANCH  15  16
ATOM     16  C   UNL     1       3.397 115.502 183.128  1.00  0.00    -0.000 C 
BRANCH  16  17
ATOM     17  C   UNL     1       4.463 115.714 182.039  1.00  0.00    -0.000 C 
BRANCH  17  18
ATOM     18  C   UNL     1       5.308 114.455 181.751  1.00  0.00    -0.003 C 
ATOM     19  C   UNL     1       4.602 113.485 180.804  1.00  0.00     0.004 C 
ENDBRANCH  17  18
ENDBRANCH  16  17
ENDBRANCH  15  16
ENDBRANCH  14  15
ENDBRANCH  13  14
ENDBRANCH  12  13
ENDBRANCH   1  12
TORSDOF 14
ENDMDL
MODEL 6
REMARK VINA RESULT:    -3.212      3.279      6.150
REMARK INTER + INTRA:          -8.232
REMARK INTER:                  -6.412
REMARK INTRA:                  -1.820
REMARK UNBOUND:                -2.392
REMARK SMILES CCCCCCCCCCCCCC[C@H](C)C(=O)[O-]
REMARK SMILES IDX 9 1 10 2 11 3 12 4 13 5 14 6 15 7 16 8 17 9 18 10 19 11 8 12
REMARK SMILES IDX 7 13 6 14 5 15 4 16 3 17 2 18 1 19
REMARK H PARENT
REMARK Flexibility Score: inf
ROOT
ATOM      1  C   UNL     1       5.683 110.426 183.587  1.00  0.00     0.000 C 
ENDROOT
BRANCH   1   2
ATOM      2  C   UNL     1       6.072 109.004 184.018  1.00  0.00     0.000 C 
BRANCH   2   3
ATOM      3  C   UNL     1       5.001 107.959 183.666  1.00  0.00     0.000 C 
BRANCH   3   4
ATOM      4  C   UNL     1       5.585 106.739 182.932  1.00  0.00     0.000 C 
BRANCH   4   5
ATOM      5  C   UNL     1       5.876 107.024 181.449  1.00  0.00     0.001 C 
BRANCH   5   6
ATOM      6  C   UNL     1       5.041 106.135 180.503  1.00  0.00     0.009 C 
BRANCH   6   7
ATOM      7  C   UNL     1       3.516 106.235 180.725  1.00  0.00     0.032 C 
ATOM      8  C   UNL     1       2.743 105.117 180.009  1.00  0.00     0.014 C 
BRANCH   7   9
ATOM      9  C   UNL     1       2.990 107.600 180.362  1.00  0.00     0.044 C 
ATOM     10  O   UNL     1       2.196 108.193 181.141  1.00  0.00    -0.550 OA
ATOM     11  O   UNL     1       3.410 108.242 179.201  1.00  0.00    -0.550 OA
ENDBRANCH   7   9
ENDBRANCH   6   7
ENDBRANCH   5   6
ENDBRANCH   4   5
ENDBRANCH   3   4
ENDBRANCH   2   3
ENDBRANCH   1   2
BRANCH   1  12
ATOM     12  C   UNL     1       4.353 110.423 182.823  1.00  0.00     0.000 C 
BRANCH  12  13
ATOM     13  C   UNL     1       3.291 111.245 183.561  1.00  0.00    -0.000 C 
BRANCH  13  14
ATOM     14  C   UNL     1       3.939 112.327 184.433  1.00  0.00    -0.000 C 
BRANCH  14  15
ATOM     15  C   UNL     1       3.000 113.526 184.611  1.00  0.00    -0.000 C 
BRANCH  15  16
ATOM     16  C   UNL     1       3.689 114.833 184.198  1.00  0.00    -0.000 C 
BRANCH  16  17
ATOM     17  C   UNL     1       4.887 114.606 183.260  1.00  0.00    -0.000 C 
BRANCH  17  18
ATOM     18  C   UNL     1       4.566 114.870 181.774  1.00  0.00    -0.003 C 
ATOM     19  C   UNL     1       4.665 113.605 180.923  1.00  0.00     0.004 C 
ENDBRANCH  17  18
ENDBRANCH  16  17
ENDBRANCH  15  16
ENDBRANCH  14  15
ENDBRANCH  13  14
ENDBRANCH  12  13
ENDBRANCH   1  12
TORSDOF 14
ENDMDL
MODEL 7
REMARK VINA RESULT:    -3.194      2.292      5.948
REMARK INTER + INTRA:          -8.199
REMARK INTER:                  -5.739
REMARK INTRA:                  -2.461
REMARK UNBOUND:                -2.392
REMARK SMILES CCCCCCCCCCCCCC[C@H](C)C(=O)[O-]
REMARK SMILES IDX 9 1 10 2 11 3 12 4 13 5 14 6 15 7 16 8 17 9 18 10 19 11 8 12
REMARK SMILES IDX 7 13 6 14 5 15 4 16 3 17 2 18 1 19
REMARK H PARENT
REMARK Flexibility Score: inf
ROOT
ATOM      1  C   UNL     1       3.913 109.327 181.141  1.00  0.00     0.000 C 
ENDROOT
BRANCH   1   2
ATOM      2  C   UNL     1       3.282 108.446 182.229  1.00  0.00     0.000 C 
BRANCH   2   3
ATOM      3  C   UNL     1       3.733 106.978 182.145  1.00  0.00     0.000 C 
BRANCH   3   4
ATOM      4  C   UNL     1       4.792 106.747 181.053  1.00  0.00     0.000 C 
BRANCH   4   5
ATOM      5  C   UNL     1       4.288 105.834 179.924  1.00  0.00     0.001 C 
BRANCH   5   6
ATOM      6  C   UNL     1       2.906 105.220 180.236  1.00  0.00     0.009 C 
BRANCH   6   7
ATOM      7  C   UNL     1       1.834 105.501 179.159  1.00  0.00     0.032 C 
ATOM      8  C   UNL     1       2.156 104.824 177.818  1.00  0.00     0.014 C 
BRANCH   7   9
ATOM      9  C   UNL     1       1.585 106.978 178.995  1.00  0.00     0.044 C 
ATOM     10  O   UNL     1       2.033 107.580 177.982  1.00  0.00    -0.550 OA
ATOM     11  O   UNL     1       0.822 107.681 179.922  1.00  0.00    -0.550 OA
ENDBRANCH   7   9
ENDBRANCH   6   7
ENDBRANCH   5   6
ENDBRANCH   4   5
ENDBRANCH   3   4
ENDBRANCH   2   3
ENDBRANCH   1   2
BRANCH   1  12
ATOM     12  C   UNL     1       4.377 110.669 181.723  1.00  0.00     0.000 C 
BRANCH  12  13
ATOM     13  C   UNL     1       4.383 110.634 183.255  1.00  0.00    -0.000 C 
BRANCH  13  14
ATOM     14  C   UNL     1       5.587 111.397 183.820  1.00  0.00    -0.000 C 
BRANCH  14  15
ATOM     15  C   UNL     1       6.418 110.504 184.749  1.00  0.00    -0.000 C 
BRANCH  15  16
ATOM     16  C   UNL     1       6.301 109.028 184.346  1.00  0.00    -0.000 C 
BRANCH  16  17
ATOM     17  C   UNL     1       7.564 108.497 183.648  1.00  0.00    -0.000 C 
BRANCH  17  18
ATOM     18  C   UNL     1       7.518 108.624 182.111  1.00  0.00    -0.003 C 
ATOM     19  C   UNL     1       8.303 109.833 181.603  1.00  0.00     0.004 C 
ENDBRANCH  17  18
ENDBRANCH  16  17
ENDBRANCH  15  16
ENDBRANCH  14  15
ENDBRANCH  13  14
ENDBRANCH  12  13
ENDBRANCH   1  12
TORSDOF 14
ENDMDL
MODEL 8
REMARK VINA RESULT:    -3.183      2.505      3.792
REMARK INTER + INTRA:          -8.179
REMARK INTER:                  -5.960
REMARK INTRA:                  -2.219
REMARK UNBOUND:                -2.392
REMARK SMILES CCCCCCCCCCCCCC[C@H](C)C(=O)[O-]
REMARK SMILES IDX 9 1 10 2 11 3 12 4 13 5 14 6 15 7 16 8 17 9 18 10 19 11 8 12
REMARK SMILES IDX 7 13 6 14 5 15 4 16 3 17 2 18 1 19
REMARK H PARENT
REMARK Flexibility Score: inf
ROOT
ATOM      1  C   UNL     1       4.846 108.616 181.833  1.00  0.00     0.000 C 
ENDROOT
BRANCH   1   2
ATOM      2  C   UNL     1       6.203 108.752 182.540  1.00  0.00     0.000 C 
BRANCH   2   3
ATOM      3  C   UNL     1       6.102 108.589 184.065  1.00  0.00     0.000 C 
BRANCH   3   4
ATOM      4  C   UNL     1       6.776 109.742 184.828  1.00  0.00     0.000 C 
BRANCH   4   5
ATOM      5  C   UNL     1       6.578 111.103 184.139  1.00  0.00     0.001 C 
BRANCH   5   6
ATOM      6  C   UNL     1       5.480 111.951 184.816  1.00  0.00     0.009 C 
BRANCH   6   7
ATOM      7  C   UNL     1       4.292 112.298 183.891  1.00  0.00     0.032 C 
ATOM      8  C   UNL     1       4.690 112.324 182.408  1.00  0.00     0.014 C 
BRANCH   7   9
ATOM      9  C   UNL     1       3.615 113.577 184.312  1.00  0.00     0.044 C 
ATOM     10  O   UNL     1       2.483 113.533 184.865  1.00  0.00    -0.550 OA
ATOM     11  O   UNL     1       4.244 114.806 184.146  1.00  0.00    -0.550 OA
ENDBRANCH   7   9
ENDBRANCH   6   7
ENDBRANCH   5   6
ENDBRANCH   4   5
ENDBRANCH   3   4
ENDBRANCH   2   3
ENDBRANCH   1   2
BRANCH   1  12
ATOM     12  C   UNL     1       3.692 108.716 182.838  1.00  0.00     0.000 C 
BRANCH  12  13
ATOM     13  C   UNL     1       2.335 108.624 182.131  1.00  0.00    -0.000 C 
BRANCH  13  14
ATOM     14  C   UNL     1       2.506 108.626 180.607  1.00  0.00    -0.000 C 
BRANCH  14  15
ATOM     15  C   UNL     1       1.473 107.712 179.936  1.00  0.00    -0.000 C 
BRANCH  15  16
ATOM     16  C   UNL     1       2.160 106.640 179.081  1.00  0.00    -0.000 C 
BRANCH  16  17
ATOM     17  C   UNL     1       2.799 105.522 179.923  1.00  0.00    -0.000 C 
BRANCH  17  18
ATOM     18  C   UNL     1       4.342 105.524 179.879  1.00  0.00    -0.003 C 
ATOM     19  C   UNL     1       4.892 106.413 178.764  1.00  0.00     0.004 C 
ENDBRANCH  17  18
ENDBRANCH  16  17
ENDBRANCH  15  16
ENDBRANCH  14  15
ENDBRANCH  13  14
ENDBRANCH  12  13
ENDBRANCH   1  12
TORSDOF 14
ENDMDL
MODEL 9
REMARK VINA RESULT:    -3.179      2.151      5.344
REMARK INTER + INTRA:          -8.173
REMARK INTER:                  -6.421
REMARK INTRA:                  -1.752
REMARK UNBOUND:                -2.392
REMARK SMILES CCCCCCCCCCCCCC[C@H](C)C(=O)[O-]
REMARK SMILES IDX 9 1 10 2 11 3 12 4 13 5 14 6 15 7 16 8 17 9 18 10 19 11 8 12
REMARK SMILES IDX 7 13 6 14 5 15 4 16 3 17 2 18 1 19
REMARK H PARENT
REMARK Flexibility Score: inf
ROOT
ATOM      1  C   UNL     1       6.207 106.857 182.123  1.00  0.00     0.000 C 
ENDROOT
BRANCH   1   2
ATOM      2  C   UNL     1       4.718 106.828 182.501  1.00  0.00     0.000 C 
BRANCH   2   3
ATOM      3  C   UNL     1       3.815 106.396 181.335  1.00  0.00     0.000 C 
BRANCH   3   4
ATOM      4  C   UNL     1       4.616 105.946 180.101  1.00  0.00     0.000 C 
BRANCH   4   5
ATOM      5  C   UNL     1       3.771 105.123 179.115  1.00  0.00     0.001 C 
BRANCH   5   6
ATOM      6  C   UNL     1       2.272 105.116 179.486  1.00  0.00     0.009 C 
BRANCH   6   7
ATOM      7  C   UNL     1       1.367 105.844 178.468  1.00  0.00     0.032 C 
ATOM      8  C   UNL     1       1.621 105.387 177.024  1.00  0.00     0.014 C 
BRANCH   7   9
ATOM      9  C   UNL     1       1.466 107.341 178.607  1.00  0.00     0.044 C 
ATOM     10  O   UNL     1       1.902 108.032 177.646  1.00  0.00    -0.550 OA
ATOM     11  O   UNL     1       1.036 107.981 179.764  1.00  0.00    -0.550 OA
ENDBRANCH   7   9
ENDBRANCH   6   7
ENDBRANCH   5   6
ENDBRANCH   4   5
ENDBRANCH   3   4
ENDBRANCH   2   3
ENDBRANCH   1   2
BRANCH   1  12
ATOM     12  C   UNL     1       7.053 107.425 183.269  1.00  0.00     0.000 C 
BRANCH  12  13
ATOM     13  C   UNL     1       6.293 108.520 184.026  1.00  0.00    -0.000 C 
BRANCH  13  14
ATOM     14  C   UNL     1       6.660 109.911 183.498  1.00  0.00    -0.000 C 
BRANCH  14  15
ATOM     15  C   UNL     1       5.510 110.511 182.680  1.00  0.00    -0.000 C 
BRANCH  15  16
ATOM     16  C   UNL     1       4.650 111.446 183.540  1.00  0.00    -0.000 C 
BRANCH  16  17
ATOM     17  C   UNL     1       3.145 111.149 183.425  1.00  0.00    -0.000 C 
BRANCH  17  18
ATOM     18  C   UNL     1       2.834 109.779 182.787  1.00  0.00    -0.003 C 
ATOM     19  C   UNL     1       1.596 109.121 183.397  1.00  0.00     0.004 C 
ENDBRANCH  17  18
ENDBRANCH  16  17
ENDBRANCH  15  16
ENDBRANCH  14  15
ENDBRANCH  13  14
ENDBRANCH  12  13
ENDBRANCH   1  12
TORSDOF 14
ENDMDL
