MODEL 1
REMARK VINA RESULT:    -7.377      0.000      0.000
REMARK INTER + INTRA:          -9.028
REMARK INTER:                  -9.102
REMARK INTRA:                   0.074
REMARK UNBOUND:                 0.074
REMARK SMILES O=c1c(O)c(-c2cc(O)c(O)c(O)c2)oc2cc(O)cc(O)c12
REMARK SMILES IDX 5 1 3 2 2 3 1 4 23 5 21 6 20 7 18 8 17 9 16 10 15 11 6 12
REMARK SMILES IDX 7 13 8 14 14 15 10 16 12 17 9 18 11 20 13 22 4 24 22 26
REMARK SMILES IDX 19 28
REMARK H PARENT 9 19 11 21 13 23 4 25 22 27 19 29
REMARK Flexibility Score: inf
ROOT
ATOM      1  C   UNL     1      38.254  -2.377  28.125  1.00  0.00     0.180 A 
ATOM      2  C   UNL     1      36.858  -2.288  28.259  1.00  0.00     0.208 A 
ATOM      3  C   UNL     1      36.151  -3.389  28.767  1.00  0.00     0.238 A 
ATOM      4  O   UNL     1      34.895  -3.330  28.815  1.00  0.00    -0.285 OA
ATOM      5  C   UNL     1      36.853  -4.545  29.187  1.00  0.00     0.111 A 
ATOM      6  C   UNL     1      36.243  -5.703  29.759  1.00  0.00     0.134 A 
ATOM      7  C   UNL     1      37.027  -6.829  30.039  1.00  0.00     0.093 A 
ATOM      8  C   UNL     1      38.407  -6.817  29.828  1.00  0.00     0.123 A 
ATOM      9  C   UNL     1      39.020  -5.674  29.322  1.00  0.00     0.094 A 
ATOM     10  C   UNL     1      38.260  -4.547  28.996  1.00  0.00     0.146 A 
ATOM     11  O   UNL     1      38.881  -3.487  28.496  1.00  0.00    -0.452 OA
ENDROOT
BRANCH   1  12
ATOM     12  C   UNL     1      39.066  -1.264  27.584  1.00  0.00     0.029 A 
ATOM     13  C   UNL     1      40.322  -0.988  28.148  1.00  0.00     0.062 A 
ATOM     14  C   UNL     1      41.121   0.043  27.644  1.00  0.00     0.162 A 
ATOM     15  C   UNL     1      38.634  -0.513  26.477  1.00  0.00     0.062 A 
ATOM     16  C   UNL     1      40.674   0.806  26.551  1.00  0.00     0.200 A 
ATOM     17  C   UNL     1      39.430   0.521  25.965  1.00  0.00     0.162 A 
BRANCH  14  18
ATOM     18  O   UNL     1      42.354   0.295  28.243  1.00  0.00    -0.504 OA
ATOM     19  H   UNL     1      42.452   0.915  29.038  1.00  0.00     0.293 HD
ENDBRANCH  14  18
BRANCH  16  20
ATOM     20  O   UNL     1      41.476   1.836  26.057  1.00  0.00    -0.502 OA
ATOM     21  H   UNL     1      41.173   2.802  26.054  1.00  0.00     0.293 HD
ENDBRANCH  16  20
BRANCH  17  22
ATOM     22  O   UNL     1      38.988   1.265  24.871  1.00  0.00    -0.504 OA
ATOM     23  H   UNL     1      38.011   1.281  24.599  1.00  0.00     0.293 HD
ENDBRANCH  17  22
ENDBRANCH   1  12
BRANCH   2  24
ATOM     24  O   UNL     1      36.192  -1.110  27.910  1.00  0.00    -0.502 OA
ATOM     25  H   UNL     1      35.210  -1.094  27.661  1.00  0.00     0.293 HD
ENDBRANCH   2  24
BRANCH   6  26
ATOM     26  O   UNL     1      34.888  -5.790  30.093  1.00  0.00    -0.507 OA
ATOM     27  H   UNL     1      34.126  -5.499  29.500  1.00  0.00     0.293 HD
ENDBRANCH   6  26
BRANCH   8  28
ATOM     28  O   UNL     1      39.182  -7.937  30.125  1.00  0.00    -0.508 OA
ATOM     29  H   UNL     1      38.888  -8.870  29.860  1.00  0.00     0.293 HD
ENDBRANCH   8  28
TORSDOF 7
ENDMDL
MODEL 2
REMARK VINA RESULT:    -7.373      2.593      4.801
REMARK INTER + INTRA:          -9.023
REMARK INTER:                  -9.464
REMARK INTRA:                   0.442
REMARK UNBOUND:                 0.074
REMARK SMILES O=c1c(O)c(-c2cc(O)c(O)c(O)c2)oc2cc(O)cc(O)c12
REMARK SMILES IDX 5 1 3 2 2 3 1 4 23 5 21 6 20 7 18 8 17 9 16 10 15 11 6 12
REMARK SMILES IDX 7 13 8 14 14 15 10 16 12 17 9 18 11 20 13 22 4 24 22 26
REMARK SMILES IDX 19 28
REMARK H PARENT 9 19 11 21 13 23 4 25 22 27 19 29
REMARK Flexibility Score: inf
ROOT
ATOM      1  C   UNL     1      41.499  -2.547  28.296  1.00  0.00     0.180 A 
ATOM      2  C   UNL     1      42.853  -2.601  28.667  1.00  0.00     0.208 A 
ATOM      3  C   UNL     1      43.365  -3.791  29.207  1.00  0.00     0.238 A 
ATOM      4  O   UNL     1      44.559  -3.809  29.606  1.00  0.00    -0.285 OA
ATOM      5  C   UNL     1      42.532  -4.931  29.319  1.00  0.00     0.111 A 
ATOM      6  C   UNL     1      42.956  -6.203  29.810  1.00  0.00     0.134 A 
ATOM      7  C   UNL     1      42.017  -7.228  29.975  1.00  0.00     0.093 A 
ATOM      8  C   UNL     1      40.681  -7.048  29.606  1.00  0.00     0.123 A 
ATOM      9  C   UNL     1      40.269  -5.829  29.074  1.00  0.00     0.094 A 
ATOM     10  C   UNL     1      41.175  -4.774  28.934  1.00  0.00     0.146 A 
ATOM     11  O   UNL     1      40.734  -3.622  28.443  1.00  0.00    -0.452 OA
ENDROOT
BRANCH   1  12
ATOM     12  C   UNL     1      40.884  -1.324  27.734  1.00  0.00     0.029 A 
ATOM     13  C   UNL     1      39.501  -1.296  27.493  1.00  0.00     0.062 A 
ATOM     14  C   UNL     1      38.889  -0.147  26.982  1.00  0.00     0.162 A 
ATOM     15  C   UNL     1      41.645  -0.168  27.490  1.00  0.00     0.062 A 
ATOM     16  C   UNL     1      39.659   1.000  26.718  1.00  0.00     0.200 A 
ATOM     17  C   UNL     1      41.039   0.988  26.979  1.00  0.00     0.162 A 
BRANCH  14  18
ATOM     18  O   UNL     1      37.516  -0.163  26.742  1.00  0.00    -0.504 OA
ATOM     19  H   UNL     1      36.857   0.315  27.345  1.00  0.00     0.293 HD
ENDBRANCH  14  18
BRANCH  16  20
ATOM     20  O   UNL     1      39.040   2.141  26.205  1.00  0.00    -0.502 OA
ATOM     21  H   UNL     1      39.498   3.044  26.194  1.00  0.00     0.293 HD
ENDBRANCH  16  20
BRANCH  17  22
ATOM     22  O   UNL     1      41.805   2.127  26.734  1.00  0.00    -0.504 OA
ATOM     23  H   UNL     1      42.525   2.432  27.379  1.00  0.00     0.293 HD
ENDBRANCH  17  22
ENDBRANCH   1  12
BRANCH   2  24
ATOM     24  O   UNL     1      43.679  -1.489  28.478  1.00  0.00    -0.502 OA
ATOM     25  H   UNL     1      43.319  -0.542  28.458  1.00  0.00     0.293 HD
ENDBRANCH   2  24
BRANCH   6  26
ATOM     26  O   UNL     1      44.281  -6.518  30.124  1.00  0.00    -0.507 OA
ATOM     27  H   UNL     1      45.082  -5.953  29.888  1.00  0.00     0.293 HD
ENDBRANCH   6  26
BRANCH   8  28
ATOM     28  O   UNL     1      39.757  -8.079  29.757  1.00  0.00    -0.508 OA
ATOM     29  H   UNL     1      39.315  -8.517  28.957  1.00  0.00     0.293 HD
ENDBRANCH   8  28
TORSDOF 7
ENDMDL
MODEL 3
REMARK VINA RESULT:    -6.699      1.319      7.465
REMARK INTER + INTRA:          -8.191
REMARK INTER:                  -8.330
REMARK INTRA:                   0.139
REMARK UNBOUND:                 0.074
REMARK SMILES O=c1c(O)c(-c2cc(O)c(O)c(O)c2)oc2cc(O)cc(O)c12
REMARK SMILES IDX 5 1 3 2 2 3 1 4 23 5 21 6 20 7 18 8 17 9 16 10 15 11 6 12
REMARK SMILES IDX 7 13 8 14 14 15 10 16 12 17 9 18 11 20 13 22 4 24 22 26
REMARK SMILES IDX 19 28
REMARK H PARENT 9 19 11 21 13 23 4 25 22 27 19 29
REMARK Flexibility Score: inf
ROOT
ATOM      1  C   UNL     1      39.327  -3.233  28.674  1.00  0.00     0.180 A 
ATOM      2  C   UNL     1      40.701  -3.276  28.965  1.00  0.00     0.208 A 
ATOM      3  C   UNL     1      41.519  -2.213  28.553  1.00  0.00     0.238 A 
ATOM      4  O   UNL     1      42.759  -2.292  28.751  1.00  0.00    -0.285 OA
ATOM      5  C   UNL     1      40.945  -1.093  27.903  1.00  0.00     0.111 A 
ATOM      6  C   UNL     1      41.672   0.061  27.480  1.00  0.00     0.134 A 
ATOM      7  C   UNL     1      41.016   1.061  26.751  1.00  0.00     0.093 A 
ATOM      8  C   UNL     1      39.647   0.979  26.485  1.00  0.00     0.123 A 
ATOM      9  C   UNL     1      38.918  -0.116  26.940  1.00  0.00     0.094 A 
ATOM     10  C   UNL     1      39.552  -1.149  27.637  1.00  0.00     0.146 A 
ATOM     11  O   UNL     1      38.823  -2.185  28.033  1.00  0.00    -0.452 OA
ENDROOT
BRANCH   1  12
ATOM     12  C   UNL     1      38.404  -4.323  29.064  1.00  0.00     0.029 A 
ATOM     13  C   UNL     1      37.080  -4.013  29.414  1.00  0.00     0.062 A 
ATOM     14  C   UNL     1      36.180  -5.024  29.766  1.00  0.00     0.162 A 
ATOM     15  C   UNL     1      38.807  -5.668  29.034  1.00  0.00     0.062 A 
ATOM     16  C   UNL     1      36.594  -6.367  29.757  1.00  0.00     0.200 A 
ATOM     17  C   UNL     1      37.910  -6.688  29.384  1.00  0.00     0.162 A 
BRANCH  14  18
ATOM     18  O   UNL     1      34.878  -4.674  30.122  1.00  0.00    -0.504 OA
ATOM     19  H   UNL     1      34.679  -3.908  30.753  1.00  0.00     0.293 HD
ENDBRANCH  14  18
BRANCH  16  20
ATOM     20  O   UNL     1      35.690  -7.369  30.113  1.00  0.00    -0.502 OA
ATOM     21  H   UNL     1      34.688  -7.217  30.112  1.00  0.00     0.293 HD
ENDBRANCH  16  20
BRANCH  17  22
ATOM     22  O   UNL     1      38.323  -8.019  29.359  1.00  0.00    -0.504 OA
ATOM     23  H   UNL     1      38.889  -8.415  30.101  1.00  0.00     0.293 HD
ENDBRANCH  17  22
ENDBRANCH   1  12
BRANCH   2  24
ATOM     24  O   UNL     1      41.236  -4.355  29.676  1.00  0.00    -0.502 OA
ATOM     25  H   UNL     1      42.193  -4.367  30.007  1.00  0.00     0.293 HD
ENDBRANCH   2  24
BRANCH   6  26
ATOM     26  O   UNL     1      43.020   0.287  27.769  1.00  0.00    -0.507 OA
ATOM     27  H   UNL     1      43.458   1.194  27.815  1.00  0.00     0.293 HD
ENDBRANCH   6  26
BRANCH   8  28
ATOM     28  O   UNL     1      38.999   1.987  25.774  1.00  0.00    -0.508 OA
ATOM     29  H   UNL     1      38.969   1.986  24.760  1.00  0.00     0.293 HD
ENDBRANCH   8  28
TORSDOF 7
ENDMDL
MODEL 4
REMARK VINA RESULT:    -6.400     19.045     22.106
REMARK INTER + INTRA:          -7.822
REMARK INTER:                  -7.536
REMARK INTRA:                  -0.287
REMARK UNBOUND:                 0.074
REMARK SMILES O=c1c(O)c(-c2cc(O)c(O)c(O)c2)oc2cc(O)cc(O)c12
REMARK SMILES IDX 5 1 3 2 2 3 1 4 23 5 21 6 20 7 18 8 17 9 16 10 15 11 6 12
REMARK SMILES IDX 7 13 8 14 14 15 10 16 12 17 9 18 11 20 13 22 4 24 22 26
REMARK SMILES IDX 19 28
REMARK H PARENT 9 19 11 21 13 23 4 25 22 27 19 29
REMARK Flexibility Score: inf
ROOT
ATOM      1  C   UNL     1      51.537   4.125  12.468  1.00  0.00     0.180 A 
ATOM      2  C   UNL     1      51.755   5.096  11.475  1.00  0.00     0.208 A 
ATOM      3  C   UNL     1      50.824   6.134  11.321  1.00  0.00     0.238 A 
ATOM      4  O   UNL     1      50.986   6.956  10.382  1.00  0.00    -0.285 OA
ATOM      5  C   UNL     1      49.716   6.223  12.197  1.00  0.00     0.111 A 
ATOM      6  C   UNL     1      48.733   7.259  12.162  1.00  0.00     0.134 A 
ATOM      7  C   UNL     1      47.621   7.185  13.011  1.00  0.00     0.093 A 
ATOM      8  C   UNL     1      47.489   6.148  13.937  1.00  0.00     0.123 A 
ATOM      9  C   UNL     1      48.470   5.163  14.017  1.00  0.00     0.094 A 
ATOM     10  C   UNL     1      49.571   5.188  13.158  1.00  0.00     0.146 A 
ATOM     11  O   UNL     1      50.471   4.217  13.253  1.00  0.00    -0.452 OA
ENDROOT
BRANCH   1  12
ATOM     12  C   UNL     1      52.467   2.993  12.681  1.00  0.00     0.029 A 
ATOM     13  C   UNL     1      53.245   2.950  13.848  1.00  0.00     0.062 A 
ATOM     14  C   UNL     1      54.116   1.882  14.087  1.00  0.00     0.162 A 
ATOM     15  C   UNL     1      52.544   1.928  11.768  1.00  0.00     0.062 A 
ATOM     16  C   UNL     1      54.206   0.830  13.159  1.00  0.00     0.200 A 
ATOM     17  C   UNL     1      53.413   0.853  12.000  1.00  0.00     0.162 A 
BRANCH  14  18
ATOM     18  O   UNL     1      54.884   1.884  15.250  1.00  0.00    -0.504 OA
ATOM     19  H   UNL     1      54.710   2.531  16.010  1.00  0.00     0.293 HD
ENDBRANCH  14  18
BRANCH  16  20
ATOM     20  O   UNL     1      55.080  -0.231  13.403  1.00  0.00    -0.502 OA
ATOM     21  H   UNL     1      55.837  -0.462  12.771  1.00  0.00     0.293 HD
ENDBRANCH  16  20
BRANCH  17  22
ATOM     22  O   UNL     1      53.487  -0.195  11.083  1.00  0.00    -0.504 OA
ATOM     23  H   UNL     1      52.700  -0.442  10.493  1.00  0.00     0.293 HD
ENDBRANCH  17  22
ENDBRANCH   1  12
BRANCH   2  24
ATOM     24  O   UNL     1      52.896   5.033  10.669  1.00  0.00    -0.502 OA
ATOM     25  H   UNL     1      52.848   5.034   9.657  1.00  0.00     0.293 HD
ENDBRANCH   2  24
BRANCH   6  26
ATOM     26  O   UNL     1      48.812   8.386  11.339  1.00  0.00    -0.507 OA
ATOM     27  H   UNL     1      48.073   9.060  11.208  1.00  0.00     0.293 HD
ENDBRANCH   6  26
BRANCH   8  28
ATOM     28  O   UNL     1      46.388   6.092  14.790  1.00  0.00    -0.508 OA
ATOM     29  H   UNL     1      45.997   5.207  15.094  1.00  0.00     0.293 HD
ENDBRANCH   8  28
TORSDOF 7
ENDMDL
MODEL 5
REMARK VINA RESULT:    -6.349      2.923      5.502
REMARK INTER + INTRA:          -7.759
REMARK INTER:                  -7.680
REMARK INTRA:                  -0.079
REMARK UNBOUND:                 0.074
REMARK SMILES O=c1c(O)c(-c2cc(O)c(O)c(O)c2)oc2cc(O)cc(O)c12
REMARK SMILES IDX 5 1 3 2 2 3 1 4 23 5 21 6 20 7 18 8 17 9 16 10 15 11 6 12
REMARK SMILES IDX 7 13 8 14 14 15 10 16 12 17 9 18 11 20 13 22 4 24 22 26
REMARK SMILES IDX 19 28
REMARK H PARENT 9 19 11 21 13 23 4 25 22 27 19 29
REMARK Flexibility Score: inf
ROOT
ATOM      1  C   UNL     1      40.305  -3.083  28.904  1.00  0.00     0.180 A 
ATOM      2  C   UNL     1      41.399  -2.207  29.004  1.00  0.00     0.208 A 
ATOM      3  C   UNL     1      42.664  -2.729  29.319  1.00  0.00     0.238 A 
ATOM      4  O   UNL     1      43.623  -1.931  29.480  1.00  0.00    -0.285 OA
ATOM      5  C   UNL     1      42.830  -4.126  29.474  1.00  0.00     0.111 A 
ATOM      6  C   UNL     1      44.075  -4.770  29.749  1.00  0.00     0.134 A 
ATOM      7  C   UNL     1      44.100  -6.150  29.988  1.00  0.00     0.093 A 
ATOM      8  C   UNL     1      42.938  -6.919  29.898  1.00  0.00     0.123 A 
ATOM      9  C   UNL     1      41.729  -6.309  29.576  1.00  0.00     0.094 A 
ATOM     10  C   UNL     1      41.664  -4.928  29.371  1.00  0.00     0.146 A 
ATOM     11  O   UNL     1      40.486  -4.385  29.088  1.00  0.00    -0.452 OA
ENDROOT
BRANCH   1  12
ATOM     12  C   UNL     1      38.939  -2.605  28.590  1.00  0.00     0.029 A 
ATOM     13  C   UNL     1      37.890  -2.883  29.480  1.00  0.00     0.062 A 
ATOM     14  C   UNL     1      36.594  -2.426  29.221  1.00  0.00     0.162 A 
ATOM     15  C   UNL     1      38.680  -1.828  27.449  1.00  0.00     0.062 A 
ATOM     16  C   UNL     1      36.335  -1.668  28.066  1.00  0.00     0.200 A 
ATOM     17  C   UNL     1      37.384  -1.365  27.182  1.00  0.00     0.162 A 
BRANCH  14  18
ATOM     18  O   UNL     1      35.576  -2.736  30.122  1.00  0.00    -0.504 OA
ATOM     19  H   UNL     1      35.292  -2.097  30.855  1.00  0.00     0.293 HD
ENDBRANCH  14  18
BRANCH  16  20
ATOM     20  O   UNL     1      35.038  -1.219  27.813  1.00  0.00    -0.502 OA
ATOM     21  H   UNL     1      34.675  -1.119  26.873  1.00  0.00     0.293 HD
ENDBRANCH  16  20
BRANCH  17  22
ATOM     22  O   UNL     1      37.137  -0.601  26.042  1.00  0.00    -0.504 OA
ATOM     23  H   UNL     1      37.201  -0.998  25.112  1.00  0.00     0.293 HD
ENDBRANCH  17  22
ENDBRANCH   1  12
BRANCH   2  24
ATOM     24  O   UNL     1      41.228  -0.839  28.772  1.00  0.00    -0.502 OA
ATOM     25  H   UNL     1      41.663  -0.362  27.991  1.00  0.00     0.293 HD
ENDBRANCH   2  24
BRANCH   6  26
ATOM     26  O   UNL     1      45.308  -4.113  29.774  1.00  0.00    -0.507 OA
ATOM     27  H   UNL     1      45.993  -4.140  29.035  1.00  0.00     0.293 HD
ENDBRANCH   6  26
BRANCH   8  28
ATOM     28  O   UNL     1      42.976  -8.294  30.121  1.00  0.00    -0.508 OA
ATOM     29  H   UNL     1      42.821  -8.957  29.370  1.00  0.00     0.293 HD
ENDBRANCH   8  28
TORSDOF 7
ENDMDL
MODEL 6
REMARK VINA RESULT:    -6.156     19.057     21.553
REMARK INTER + INTRA:          -7.521
REMARK INTER:                  -7.173
REMARK INTRA:                  -0.348
REMARK UNBOUND:                 0.074
REMARK SMILES O=c1c(O)c(-c2cc(O)c(O)c(O)c2)oc2cc(O)cc(O)c12
REMARK SMILES IDX 5 1 3 2 2 3 1 4 23 5 21 6 20 7 18 8 17 9 16 10 15 11 6 12
REMARK SMILES IDX 7 13 8 14 14 15 10 16 12 17 9 18 11 20 13 22 4 24 22 26
REMARK SMILES IDX 19 28
REMARK H PARENT 9 19 11 21 13 23 4 25 22 27 19 29
REMARK Flexibility Score: inf
ROOT
ATOM      1  C   UNL     1      49.280   3.546  11.761  1.00  0.00     0.180 A 
ATOM      2  C   UNL     1      49.082   2.157  11.837  1.00  0.00     0.208 A 
ATOM      3  C   UNL     1      50.175   1.300  11.630  1.00  0.00     0.238 A 
ATOM      4  O   UNL     1      49.975   0.058  11.627  1.00  0.00    -0.285 OA
ATOM      5  C   UNL     1      51.463   1.843  11.404  1.00  0.00     0.111 A 
ATOM      6  C   UNL     1      52.650   1.070  11.225  1.00  0.00     0.134 A 
ATOM      7  C   UNL     1      53.851   1.714  10.902  1.00  0.00     0.093 A 
ATOM      8  C   UNL     1      53.922   3.106  10.814  1.00  0.00     0.123 A 
ATOM      9  C   UNL     1      52.782   3.872  11.041  1.00  0.00     0.094 A 
ATOM     10  C   UNL     1      51.560   3.257  11.327  1.00  0.00     0.146 A 
ATOM     11  O   UNL     1      50.493   4.025  11.514  1.00  0.00    -0.452 OA
ENDROOT
BRANCH   1  12
ATOM     12  C   UNL     1      48.174   4.511  11.953  1.00  0.00     0.029 A 
ATOM     13  C   UNL     1      47.834   4.919  13.252  1.00  0.00     0.062 A 
ATOM     14  C   UNL     1      46.808   5.847  13.464  1.00  0.00     0.162 A 
ATOM     15  C   UNL     1      47.496   5.075  10.860  1.00  0.00     0.062 A 
ATOM     16  C   UNL     1      46.117   6.391  12.367  1.00  0.00     0.200 A 
ATOM     17  C   UNL     1      46.468   6.006  11.062  1.00  0.00     0.162 A 
BRANCH  14  18
ATOM     18  O   UNL     1      46.490   6.215  14.770  1.00  0.00    -0.504 OA
ATOM     19  H   UNL     1      47.125   6.061  15.544  1.00  0.00     0.293 HD
ENDBRANCH  14  18
BRANCH  16  20
ATOM     20  O   UNL     1      45.093   7.313  12.587  1.00  0.00    -0.502 OA
ATOM     21  H   UNL     1      44.442   7.580  11.859  1.00  0.00     0.293 HD
ENDBRANCH  16  20
BRANCH  17  22
ATOM     22  O   UNL     1      45.796   6.553   9.970  1.00  0.00    -0.504 OA
ATOM     23  H   UNL     1      45.978   7.499   9.653  1.00  0.00     0.293 HD
ENDBRANCH  17  22
ENDBRANCH   1  12
BRANCH   2  24
ATOM     24  O   UNL     1      47.817   1.642  12.138  1.00  0.00    -0.502 OA
ATOM     25  H   UNL     1      47.688   0.730  12.558  1.00  0.00     0.293 HD
ENDBRANCH   2  24
BRANCH   6  26
ATOM     26  O   UNL     1      52.711  -0.318  11.378  1.00  0.00    -0.507 OA
ATOM     27  H   UNL     1      51.959  -0.957  11.167  1.00  0.00     0.293 HD
ENDBRANCH   6  26
BRANCH   8  28
ATOM     28  O   UNL     1      55.125   3.739  10.509  1.00  0.00    -0.508 OA
ATOM     29  H   UNL     1      55.147   4.659  10.083  1.00  0.00     0.293 HD
ENDBRANCH   8  28
TORSDOF 7
ENDMDL
MODEL 7
REMARK VINA RESULT:    -6.139      1.400      3.048
REMARK INTER + INTRA:          -7.500
REMARK INTER:                  -7.890
REMARK INTRA:                   0.389
REMARK UNBOUND:                 0.074
REMARK SMILES O=c1c(O)c(-c2cc(O)c(O)c(O)c2)oc2cc(O)cc(O)c12
REMARK SMILES IDX 5 1 3 2 2 3 1 4 23 5 21 6 20 7 18 8 17 9 16 10 15 11 6 12
REMARK SMILES IDX 7 13 8 14 14 15 10 16 12 17 9 18 11 20 13 22 4 24 22 26
REMARK SMILES IDX 19 28
REMARK H PARENT 9 19 11 21 13 23 4 25 22 27 19 29
REMARK Flexibility Score: inf
ROOT
ATOM      1  C   UNL     1      39.938  -2.699  28.261  1.00  0.00     0.180 A 
ATOM      2  C   UNL     1      40.838  -3.771  28.389  1.00  0.00     0.208 A 
ATOM      3  C   UNL     1      40.362  -5.010  28.847  1.00  0.00     0.238 A 
ATOM      4  O   UNL     1      41.186  -5.943  29.030  1.00  0.00    -0.285 OA
ATOM      5  C   UNL     1      38.982  -5.179  29.117  1.00  0.00     0.111 A 
ATOM      6  C   UNL     1      38.382  -6.402  29.543  1.00  0.00     0.134 A 
ATOM      7  C   UNL     1      37.023  -6.423  29.883  1.00  0.00     0.093 A 
ATOM      8  C   UNL     1      36.230  -5.281  29.752  1.00  0.00     0.123 A 
ATOM      9  C   UNL     1      36.794  -4.097  29.285  1.00  0.00     0.094 A 
ATOM     10  C   UNL     1      38.155  -4.034  28.974  1.00  0.00     0.146 A 
ATOM     11  O   UNL     1      38.656  -2.879  28.554  1.00  0.00    -0.452 OA
ENDROOT
BRANCH   1  12
ATOM     12  C   UNL     1      40.368  -1.361  27.799  1.00  0.00     0.029 A 
ATOM     13  C   UNL     1      41.720  -0.997  27.900  1.00  0.00     0.062 A 
ATOM     14  C   UNL     1      42.159   0.253  27.452  1.00  0.00     0.162 A 
ATOM     15  C   UNL     1      39.462  -0.466  27.206  1.00  0.00     0.062 A 
ATOM     16  C   UNL     1      41.244   1.154  26.880  1.00  0.00     0.200 A 
ATOM     17  C   UNL     1      39.894   0.789  26.753  1.00  0.00     0.162 A 
BRANCH  14  18
ATOM     18  O   UNL     1      43.508   0.582  27.583  1.00  0.00    -0.504 OA
ATOM     19  H   UNL     1      44.118   0.103  28.235  1.00  0.00     0.293 HD
ENDBRANCH  14  18
BRANCH  16  20
ATOM     20  O   UNL     1      41.691   2.401  26.438  1.00  0.00    -0.502 OA
ATOM     21  H   UNL     1      42.670   2.658  26.450  1.00  0.00     0.293 HD
ENDBRANCH  16  20
BRANCH  17  22
ATOM     22  O   UNL     1      38.984   1.672  26.173  1.00  0.00    -0.504 OA
ATOM     23  H   UNL     1      38.181   2.020  26.684  1.00  0.00     0.293 HD
ENDBRANCH  17  22
ENDBRANCH   1  12
BRANCH   2  24
ATOM     24  O   UNL     1      42.183  -3.606  28.044  1.00  0.00    -0.502 OA
ATOM     25  H   UNL     1      42.493  -2.892  27.396  1.00  0.00     0.293 HD
ENDBRANCH   2  24
BRANCH   6  26
ATOM     26  O   UNL     1      39.061  -7.621  29.624  1.00  0.00    -0.507 OA
ATOM     27  H   UNL     1      38.864  -8.432  29.057  1.00  0.00     0.293 HD
ENDBRANCH   6  26
BRANCH   8  28
ATOM     28  O   UNL     1      34.875  -5.315  30.076  1.00  0.00    -0.508 OA
ATOM     29  H   UNL     1      34.225  -5.912  29.577  1.00  0.00     0.293 HD
ENDBRANCH   8  28
TORSDOF 7
ENDMDL
MODEL 8
REMARK VINA RESULT:    -6.021      2.398      6.802
REMARK INTER + INTRA:          -7.355
REMARK INTER:                  -7.772
REMARK INTRA:                   0.417
REMARK UNBOUND:                 0.074
REMARK SMILES O=c1c(O)c(-c2cc(O)c(O)c(O)c2)oc2cc(O)cc(O)c12
REMARK SMILES IDX 5 1 3 2 2 3 1 4 23 5 21 6 20 7 18 8 17 9 16 10 15 11 6 12
REMARK SMILES IDX 7 13 8 14 14 15 10 16 12 17 9 18 11 20 13 22 4 24 22 26
REMARK SMILES IDX 19 28
REMARK H PARENT 9 19 11 21 13 23 4 25 22 27 19 29
REMARK Flexibility Score: inf
ROOT
ATOM      1  C   UNL     1      40.136  -4.150  28.628  1.00  0.00     0.180 A 
ATOM      2  C   UNL     1      38.731  -4.166  28.620  1.00  0.00     0.208 A 
ATOM      3  C   UNL     1      38.037  -3.010  28.230  1.00  0.00     0.238 A 
ATOM      4  O   UNL     1      36.781  -3.009  28.297  1.00  0.00    -0.285 OA
ATOM      5  C   UNL     1      38.756  -1.869  27.799  1.00  0.00     0.111 A 
ATOM      6  C   UNL     1      38.156  -0.657  27.339  1.00  0.00     0.134 A 
ATOM      7  C   UNL     1      38.968   0.444  27.039  1.00  0.00     0.093 A 
ATOM      8  C   UNL     1      40.360   0.357  27.119  1.00  0.00     0.123 A 
ATOM      9  C   UNL     1      40.956  -0.837  27.514  1.00  0.00     0.094 A 
ATOM     10  C   UNL     1      40.173  -1.941  27.858  1.00  0.00     0.146 A 
ATOM     11  O   UNL     1      40.782  -3.053  28.250  1.00  0.00    -0.452 OA
ENDROOT
BRANCH   1  12
ATOM     12  C   UNL     1      40.936  -5.325  29.041  1.00  0.00     0.029 A 
ATOM     13  C   UNL     1      40.351  -6.600  29.017  1.00  0.00     0.062 A 
ATOM     14  C   UNL     1      41.089  -7.732  29.380  1.00  0.00     0.162 A 
ATOM     15  C   UNL     1      42.289  -5.199  29.399  1.00  0.00     0.062 A 
ATOM     16  C   UNL     1      42.436  -7.598  29.760  1.00  0.00     0.200 A 
ATOM     17  C   UNL     1      43.036  -6.328  29.764  1.00  0.00     0.162 A 
BRANCH  14  18
ATOM     18  O   UNL     1      40.467  -8.979  29.358  1.00  0.00    -0.504 OA
ATOM     19  H   UNL     1      40.463  -9.565  28.532  1.00  0.00     0.293 HD
ENDBRANCH  14  18
BRANCH  16  20
ATOM     20  O   UNL     1      43.164  -8.732  30.125  1.00  0.00    -0.502 OA
ATOM     21  H   UNL     1      42.974  -9.645  29.730  1.00  0.00     0.293 HD
ENDBRANCH  16  20
BRANCH  17  22
ATOM     22  O   UNL     1      44.376  -6.191  30.125  1.00  0.00    -0.504 OA
ATOM     23  H   UNL     1      44.648  -5.897  31.056  1.00  0.00     0.293 HD
ENDBRANCH  17  22
ENDBRANCH   1  12
BRANCH   2  24
ATOM     24  O   UNL     1      38.040  -5.329  28.976  1.00  0.00    -0.502 OA
ATOM     25  H   UNL     1      38.482  -6.093  29.473  1.00  0.00     0.293 HD
ENDBRANCH   2  24
BRANCH   6  26
ATOM     26  O   UNL     1      36.783  -0.491  27.137  1.00  0.00    -0.507 OA
ATOM     27  H   UNL     1      36.211   0.202  27.594  1.00  0.00     0.293 HD
ENDBRANCH   6  26
BRANCH   8  28
ATOM     28  O   UNL     1      41.160   1.453  26.802  1.00  0.00    -0.508 OA
ATOM     29  H   UNL     1      41.676   1.498  25.931  1.00  0.00     0.293 HD
ENDBRANCH   8  28
TORSDOF 7
ENDMDL
MODEL 9
REMARK VINA RESULT:    -6.015     18.816     21.290
REMARK INTER + INTRA:          -7.348
REMARK INTER:                  -7.126
REMARK INTRA:                  -0.222
REMARK UNBOUND:                 0.074
REMARK SMILES O=c1c(O)c(-c2cc(O)c(O)c(O)c2)oc2cc(O)cc(O)c12
REMARK SMILES IDX 5 1 3 2 2 3 1 4 23 5 21 6 20 7 18 8 17 9 16 10 15 11 6 12
REMARK SMILES IDX 7 13 8 14 14 15 10 16 12 17 9 18 11 20 13 22 4 24 22 26
REMARK SMILES IDX 19 28
REMARK H PARENT 9 19 11 21 13 23 4 25 22 27 19 29
REMARK Flexibility Score: inf
ROOT
ATOM      1  C   UNL     1      50.071   3.431  12.203  1.00  0.00     0.180 A 
ATOM      2  C   UNL     1      50.205   2.412  11.245  1.00  0.00     0.208 A 
ATOM      3  C   UNL     1      51.342   1.590  11.278  1.00  0.00     0.238 A 
ATOM      4  O   UNL     1      51.491   0.728  10.373  1.00  0.00    -0.285 OA
ATOM      5  C   UNL     1      52.305   1.760  12.301  1.00  0.00     0.111 A 
ATOM      6  C   UNL     1      53.475   0.956  12.459  1.00  0.00     0.134 A 
ATOM      7  C   UNL     1      54.412   1.285  13.446  1.00  0.00     0.093 A 
ATOM      8  C   UNL     1      54.191   2.349  14.323  1.00  0.00     0.123 A 
ATOM      9  C   UNL     1      53.028   3.106  14.213  1.00  0.00     0.094 A 
ATOM     10  C   UNL     1      52.093   2.827  13.213  1.00  0.00     0.146 A 
ATOM     11  O   UNL     1      51.008   3.588  13.131  1.00  0.00    -0.452 OA
ENDROOT
BRANCH   1  12
ATOM     12  C   UNL     1      48.908   4.346  12.223  1.00  0.00     0.029 A 
ATOM     13  C   UNL     1      48.058   4.356  13.340  1.00  0.00     0.062 A 
ATOM     14  C   UNL     1      46.964   5.225  13.397  1.00  0.00     0.162 A 
ATOM     15  C   UNL     1      48.669   5.249  11.174  1.00  0.00     0.062 A 
ATOM     16  C   UNL     1      46.716   6.111  12.334  1.00  0.00     0.200 A 
ATOM     17  C   UNL     1      47.575   6.125  11.224  1.00  0.00     0.162 A 
BRANCH  14  18
ATOM     18  O   UNL     1      46.134   5.194  14.517  1.00  0.00    -0.504 OA
ATOM     19  H   UNL     1      45.151   4.957  14.454  1.00  0.00     0.293 HD
ENDBRANCH  14  18
BRANCH  16  20
ATOM     20  O   UNL     1      45.619   6.973  12.398  1.00  0.00    -0.502 OA
ATOM     21  H   UNL     1      45.701   7.926  12.732  1.00  0.00     0.293 HD
ENDBRANCH  16  20
BRANCH  17  22
ATOM     22  O   UNL     1      47.343   7.012  10.173  1.00  0.00    -0.504 OA
ATOM     23  H   UNL     1      47.837   7.894  10.103  1.00  0.00     0.293 HD
ENDBRANCH  17  22
ENDBRANCH   1  12
BRANCH   2  24
ATOM     24  O   UNL     1      49.205   2.211  10.288  1.00  0.00    -0.502 OA
ATOM     25  H   UNL     1      49.390   2.246   9.293  1.00  0.00     0.293 HD
ENDBRANCH   2  24
BRANCH   6  26
ATOM     26  O   UNL     1      53.750  -0.183  11.696  1.00  0.00    -0.507 OA
ATOM     27  H   UNL     1      53.088  -0.652  11.097  1.00  0.00     0.293 HD
ENDBRANCH   6  26
BRANCH   8  28
ATOM     28  O   UNL     1      55.121   2.659  15.313  1.00  0.00    -0.508 OA
ATOM     29  H   UNL     1      55.002   3.462  15.920  1.00  0.00     0.293 HD
ENDBRANCH   8  28
TORSDOF 7
ENDMDL
