MODEL 1
REMARK VINA RESULT:    -6.147      0.000      0.000
REMARK INTER + INTRA:         -11.012
REMARK INTER:                  -9.561
REMARK INTRA:                  -1.451
REMARK UNBOUND:                -1.451
REMARK SMILES C[C@@]12C[C@@]3(O)O[C@@H](O1)[C@]1(COC(=O)c4ccccc4)[C@H]3C[C@@]12O[C@@H]1O[C@H](CO)[C@@H](O)[C@@H](O)[C@@H]1O
REMARK SMILES IDX 1 1 2 2 3 3 4 4 20 5 21 6 22 7 9 8 7 9 8 10 6 11 23 12 24 13
REMARK SMILES IDX 33 14 25 15 31 16 26 17 29 18 34 19 32 21 27 23 28 24 30 26
REMARK SMILES IDX 5 28 10 30 11 31 12 32 13 33 14 34 15 35 19 36 16 37 18 38
REMARK SMILES IDX 17 39
REMARK H PARENT 34 20 32 22 28 25 30 27 5 29
REMARK Flexibility Score: inf
ROOT
ATOM      1  C   UNL     1     132.411 105.493  91.459  1.00  0.00     0.046 C 
ATOM      2  C   UNL     1     132.171 104.498  92.593  1.00  0.00     0.104 C 
ATOM      3  C   UNL     1     130.797 104.779  93.304  1.00  0.00     0.104 C 
ATOM      4  C   UNL     1     130.763 103.717  94.456  1.00  0.00     0.175 C 
ATOM      5  C   UNL     1     132.107 103.726  95.252  1.00  0.00     0.070 C 
ATOM      6  C   UNL     1     132.925 105.018  95.028  1.00  0.00     0.050 C 
ATOM      7  C   UNL     1     133.333 104.405  93.666  1.00  0.00     0.115 C 
ATOM      8  C   UNL     1     132.985 103.012  94.220  1.00  0.00     0.096 C 
ATOM      9  C   UNL     1     132.028 102.372  93.227  1.00  0.00     0.267 C 
ATOM     10  O   UNL     1     132.066 103.189  92.071  1.00  0.00    -0.342 OA
ATOM     11  O   UNL     1     130.741 102.458  93.818  1.00  0.00    -0.320 OA
ENDROOT
BRANCH   7  12
ATOM     12  O   UNL     1     134.636 104.599  93.100  1.00  0.00    -0.339 OA
BRANCH  12  13
ATOM     13  C   UNL     1     135.341 105.751  93.546  1.00  0.00     0.282 C 
ATOM     14  C   UNL     1     136.652 105.354  94.267  1.00  0.00     0.202 C 
ATOM     15  O   UNL     1     135.544 106.696  92.499  1.00  0.00    -0.341 OA
ATOM     16  C   UNL     1     137.724 104.891  93.271  1.00  0.00     0.179 C 
ATOM     17  C   UNL     1     136.542 106.347  91.543  1.00  0.00     0.178 C 
ATOM     18  C   UNL     1     137.902 105.947  92.173  1.00  0.00     0.177 C 
BRANCH  14  19
ATOM     19  O   UNL     1     136.420 104.373  95.248  1.00  0.00    -0.385 OA
ATOM     20  H   UNL     1     135.473 104.441  95.530  1.00  0.00     0.211 HD
ENDBRANCH  14  19
BRANCH  16  21
ATOM     21  O   UNL     1     138.949 104.695  93.931  1.00  0.00    -0.387 OA
ATOM     22  H   UNL     1     139.494 104.092  93.357  1.00  0.00     0.211 HD
ENDBRANCH  16  21
BRANCH  17  23
ATOM     23  C   UNL     1     136.026 105.330  90.517  1.00  0.00     0.191 C 
BRANCH  23  24
ATOM     24  O   UNL     1     135.364 105.994  89.474  1.00  0.00    -0.394 OA
ATOM     25  H   UNL     1     134.799 106.688  89.902  1.00  0.00     0.210 HD
ENDBRANCH  23  24
ENDBRANCH  17  23
BRANCH  18  26
ATOM     26  O   UNL     1     138.589 107.076  92.660  1.00  0.00    -0.387 OA
ATOM     27  H   UNL     1     139.462 107.137  92.195  1.00  0.00     0.211 HD
ENDBRANCH  18  26
ENDBRANCH  12  13
ENDBRANCH   7  12
BRANCH   4  28
ATOM     28  O   UNL     1     129.643 103.866  95.286  1.00  0.00    -0.365 OA
ATOM     29  H   UNL     1     129.021 103.127  95.060  1.00  0.00     0.214 HD
ENDBRANCH   4  28
BRANCH   8  30
ATOM     30  C   UNL     1     134.060 102.056  94.791  1.00  0.00     0.249 C 
BRANCH  30  31
ATOM     31  O   UNL     1     134.620 101.222  93.776  1.00  0.00    -0.461 OA
BRANCH  31  32
ATOM     32  C   UNL     1     135.973 101.236  93.418  1.00  0.00     0.338 C 
ATOM     33  O   UNL     1     136.320 101.895  92.401  1.00  0.00    -0.246 OA
BRANCH  32  34
ATOM     34  C   UNL     1     137.004 100.521  94.202  1.00  0.00     0.060 A 
ATOM     35  C   UNL     1     137.912 101.237  95.004  1.00  0.00     0.015 A 
ATOM     36  C   UNL     1     137.125  99.122  94.104  1.00  0.00     0.015 A 
ATOM     37  C   UNL     1     138.900 100.558  95.727  1.00  0.00     0.001 A 
ATOM     38  C   UNL     1     138.116  98.447  94.828  1.00  0.00     0.001 A 
ATOM     39  C   UNL     1     138.999  99.164  95.644  1.00  0.00     0.000 A 
ENDBRANCH  32  34
ENDBRANCH  31  32
ENDBRANCH  30  31
ENDBRANCH   8  30
TORSDOF 12
ENDMDL
MODEL 2
REMARK VINA RESULT:    -6.128      3.434      6.740
REMARK INTER + INTRA:         -10.982
REMARK INTER:                  -9.964
REMARK INTRA:                  -1.018
REMARK UNBOUND:                -1.451
REMARK SMILES C[C@@]12C[C@@]3(O)O[C@@H](O1)[C@]1(COC(=O)c4ccccc4)[C@H]3C[C@@]12O[C@@H]1O[C@H](CO)[C@@H](O)[C@@H](O)[C@@H]1O
REMARK SMILES IDX 1 1 2 2 3 3 4 4 20 5 21 6 22 7 9 8 7 9 8 10 6 11 23 12 24 13
REMARK SMILES IDX 33 14 25 15 31 16 26 17 29 18 34 19 32 21 27 23 28 24 30 26
REMARK SMILES IDX 5 28 10 30 11 31 12 32 13 33 14 34 15 35 19 36 16 37 18 38
REMARK SMILES IDX 17 39
REMARK H PARENT 34 20 32 22 28 25 30 27 5 29
REMARK Flexibility Score: inf
ROOT
ATOM      1  C   UNL     1     135.711 102.403  94.515  1.00  0.00     0.046 C 
ATOM      2  C   UNL     1     135.576 101.873  93.088  1.00  0.00     0.104 C 
ATOM      3  C   UNL     1     136.899 102.112  92.273  1.00  0.00     0.104 C 
ATOM      4  C   UNL     1     136.546 101.570  90.845  1.00  0.00     0.175 C 
ATOM      5  C   UNL     1     135.178 102.146  90.361  1.00  0.00     0.070 C 
ATOM      6  C   UNL     1     134.743 103.399  91.153  1.00  0.00     0.050 C 
ATOM      7  C   UNL     1     134.329 102.422  92.280  1.00  0.00     0.115 C 
ATOM      8  C   UNL     1     134.252 101.294  91.235  1.00  0.00     0.096 C 
ATOM      9  C   UNL     1     135.107 100.152  91.761  1.00  0.00     0.267 C 
ATOM     10  O   UNL     1     135.393 100.472  93.110  1.00  0.00    -0.342 OA
ATOM     11  O   UNL     1     136.309 100.188  91.007  1.00  0.00    -0.320 OA
ENDROOT
BRANCH   7  12
ATOM     12  O   UNL     1     133.181 102.652  93.107  1.00  0.00    -0.339 OA
BRANCH  12  13
ATOM     13  C   UNL     1     132.522 103.900  92.922  1.00  0.00     0.282 C 
ATOM     14  C   UNL     1     130.994 103.702  92.772  1.00  0.00     0.202 C 
ATOM     15  O   UNL     1     132.867 104.845  93.931  1.00  0.00    -0.341 OA
ATOM     16  C   UNL     1     130.334 103.377  94.119  1.00  0.00     0.179 C 
ATOM     17  C   UNL     1     132.275 104.622  95.208  1.00  0.00     0.178 C 
ATOM     18  C   UNL     1     130.736 104.427  95.161  1.00  0.00     0.177 C 
BRANCH  14  19
ATOM     19  O   UNL     1     130.697 102.716  91.814  1.00  0.00    -0.385 OA
ATOM     20  H   UNL     1     131.181 101.890  92.065  1.00  0.00     0.211 HD
ENDBRANCH  14  19
BRANCH  16  21
ATOM     21  O   UNL     1     128.935 103.365  93.984  1.00  0.00    -0.387 OA
ATOM     22  H   UNL     1     128.666 104.273  93.678  1.00  0.00     0.211 HD
ENDBRANCH  16  21
BRANCH  17  23
ATOM     23  C   UNL     1     133.001 103.525  95.996  1.00  0.00     0.191 C 
BRANCH  23  24
ATOM     24  O   UNL     1     133.572 104.065  97.158  1.00  0.00    -0.394 OA
ATOM     25  H   UNL     1     134.554 103.972  97.052  1.00  0.00     0.210 HD
ENDBRANCH  23  24
ENDBRANCH  17  23
BRANCH  18  26
ATOM     26  O   UNL     1     130.075 105.650  94.932  1.00  0.00    -0.387 OA
ATOM     27  H   UNL     1     130.595 106.373  95.364  1.00  0.00     0.211 HD
ENDBRANCH  18  26
ENDBRANCH  12  13
ENDBRANCH   7  12
BRANCH   4  28
ATOM     28  O   UNL     1     137.580 101.785  89.923  1.00  0.00    -0.365 OA
ATOM     29  H   UNL     1     137.590 102.758  89.728  1.00  0.00     0.214 HD
ENDBRANCH   4  28
BRANCH   8  30
ATOM     30  C   UNL     1     132.918 100.857  90.584  1.00  0.00     0.249 C 
BRANCH  30  31
ATOM     31  O   UNL     1     132.138 100.049  91.466  1.00  0.00    -0.461 OA
BRANCH  31  32
ATOM     32  C   UNL     1     131.027  99.303  91.056  1.00  0.00     0.338 C 
ATOM     33  O   UNL     1     129.990  99.918  90.690  1.00  0.00    -0.246 OA
BRANCH  32  34
ATOM     34  C   UNL     1     131.039  97.824  91.025  1.00  0.00     0.060 A 
ATOM     35  C   UNL     1     129.835  97.100  91.106  1.00  0.00     0.015 A 
ATOM     36  C   UNL     1     132.261  97.125  90.979  1.00  0.00     0.015 A 
ATOM     37  C   UNL     1     129.851  95.701  91.098  1.00  0.00     0.001 A 
ATOM     38  C   UNL     1     132.273  95.725  90.973  1.00  0.00     0.001 A 
ATOM     39  C   UNL     1     131.069  95.013  91.027  1.00  0.00     0.000 A 
ENDBRANCH  32  34
ENDBRANCH  31  32
ENDBRANCH  30  31
ENDBRANCH   8  30
TORSDOF 12
ENDMDL
MODEL 3
REMARK VINA RESULT:    -6.073      1.760      5.469
REMARK INTER + INTRA:         -10.897
REMARK INTER:                  -9.519
REMARK INTRA:                  -1.378
REMARK UNBOUND:                -1.451
REMARK SMILES C[C@@]12C[C@@]3(O)O[C@@H](O1)[C@]1(COC(=O)c4ccccc4)[C@H]3C[C@@]12O[C@@H]1O[C@H](CO)[C@@H](O)[C@@H](O)[C@@H]1O
REMARK SMILES IDX 1 1 2 2 3 3 4 4 20 5 21 6 22 7 9 8 7 9 8 10 6 11 23 12 24 13
REMARK SMILES IDX 33 14 25 15 31 16 26 17 29 18 34 19 32 21 27 23 28 24 30 26
REMARK SMILES IDX 5 28 10 30 11 31 12 32 13 33 14 34 15 35 19 36 16 37 18 38
REMARK SMILES IDX 17 39
REMARK H PARENT 34 20 32 22 28 25 30 27 5 29
REMARK Flexibility Score: inf
ROOT
ATOM      1  C   UNL     1     135.806 105.684  93.722  1.00  0.00     0.046 C 
ATOM      2  C   UNL     1     135.995 104.915  92.415  1.00  0.00     0.104 C 
ATOM      3  C   UNL     1     136.718 105.806  91.339  1.00  0.00     0.104 C 
ATOM      4  C   UNL     1     136.761 104.882  90.074  1.00  0.00     0.175 C 
ATOM      5  C   UNL     1     135.355 104.258  89.802  1.00  0.00     0.070 C 
ATOM      6  C   UNL     1     134.216 105.015  90.519  1.00  0.00     0.050 C 
ATOM      7  C   UNL     1     134.675 104.286  91.805  1.00  0.00     0.115 C 
ATOM      8  C   UNL     1     135.348 103.217  90.925  1.00  0.00     0.096 C 
ATOM      9  C   UNL     1     136.788 103.103  91.400  1.00  0.00     0.267 C 
ATOM     10  O   UNL     1     136.849 103.809  92.626  1.00  0.00    -0.342 OA
ATOM     11  O   UNL     1     137.572 103.782  90.430  1.00  0.00    -0.320 OA
ENDROOT
BRANCH   7  12
ATOM     12  O   UNL     1     133.748 103.847  92.807  1.00  0.00    -0.339 OA
BRANCH  12  13
ATOM     13  C   UNL     1     132.530 104.577  92.888  1.00  0.00     0.282 C 
ATOM     14  C   UNL     1     131.315 103.663  92.596  1.00  0.00     0.202 C 
ATOM     15  O   UNL     1     132.410 105.289  94.118  1.00  0.00    -0.341 OA
ATOM     16  C   UNL     1     131.016 102.730  93.777  1.00  0.00     0.179 C 
ATOM     17  C   UNL     1     132.111 104.492  95.260  1.00  0.00     0.178 C 
ATOM     18  C   UNL     1     130.894 103.549  95.067  1.00  0.00     0.177 C 
BRANCH  14  19
ATOM     19  O   UNL     1     131.500 102.930  91.409  1.00  0.00    -0.385 OA
ATOM     20  H   UNL     1     130.664 102.433  91.225  1.00  0.00     0.211 HD
ENDBRANCH  14  19
BRANCH  16  21
ATOM     21  O   UNL     1     129.818 102.032  93.553  1.00  0.00    -0.387 OA
ATOM     22  H   UNL     1     129.193 102.665  93.106  1.00  0.00     0.211 HD
ENDBRANCH  16  21
BRANCH  17  23
ATOM     23  C   UNL     1     133.354 103.774  95.803  1.00  0.00     0.191 C 
BRANCH  23  24
ATOM     24  O   UNL     1     134.046 104.615  96.686  1.00  0.00    -0.394 OA
ATOM     25  H   UNL     1     134.616 104.023  97.242  1.00  0.00     0.210 HD
ENDBRANCH  23  24
ENDBRANCH  17  23
BRANCH  18  26
ATOM     26  O   UNL     1     129.683 104.268  95.100  1.00  0.00    -0.387 OA
ATOM     27  H   UNL     1     129.161 104.040  94.290  1.00  0.00     0.211 HD
ENDBRANCH  18  26
ENDBRANCH  12  13
ENDBRANCH   7  12
BRANCH   4  28
ATOM     28  O   UNL     1     137.288 105.537  88.953  1.00  0.00    -0.365 OA
ATOM     29  H   UNL     1     137.085 106.502  89.065  1.00  0.00     0.214 HD
ENDBRANCH   4  28
BRANCH   8  30
ATOM     30  C   UNL     1     134.667 101.867  90.594  1.00  0.00     0.249 C 
BRANCH  30  31
ATOM     31  O   UNL     1     135.532 100.761  90.852  1.00  0.00    -0.461 OA
BRANCH  31  32
ATOM     32  C   UNL     1     135.214  99.714  91.725  1.00  0.00     0.338 C 
ATOM     33  O   UNL     1     134.214  98.993  91.461  1.00  0.00    -0.246 OA
BRANCH  32  34
ATOM     34  C   UNL     1     136.020  99.419  92.930  1.00  0.00     0.060 A 
ATOM     35  C   UNL     1     136.178 100.391  93.935  1.00  0.00     0.015 A 
ATOM     36  C   UNL     1     136.688  98.186  93.052  1.00  0.00     0.015 A 
ATOM     37  C   UNL     1     136.959 100.116  95.064  1.00  0.00     0.001 A 
ATOM     38  C   UNL     1     137.470  97.916  94.182  1.00  0.00     0.001 A 
ATOM     39  C   UNL     1     137.600  98.878  95.190  1.00  0.00     0.000 A 
ENDBRANCH  32  34
ENDBRANCH  31  32
ENDBRANCH  30  31
ENDBRANCH   8  30
TORSDOF 12
ENDMDL
MODEL 4
REMARK VINA RESULT:    -6.002      2.827      4.693
REMARK INTER + INTRA:         -10.786
REMARK INTER:                  -9.778
REMARK INTRA:                  -1.008
REMARK UNBOUND:                -1.451
REMARK SMILES C[C@@]12C[C@@]3(O)O[C@@H](O1)[C@]1(COC(=O)c4ccccc4)[C@H]3C[C@@]12O[C@@H]1O[C@H](CO)[C@@H](O)[C@@H](O)[C@@H]1O
REMARK SMILES IDX 1 1 2 2 3 3 4 4 20 5 21 6 22 7 9 8 7 9 8 10 6 11 23 12 24 13
REMARK SMILES IDX 33 14 25 15 31 16 26 17 29 18 34 19 32 21 27 23 28 24 30 26
REMARK SMILES IDX 5 28 10 30 11 31 12 32 13 33 14 34 15 35 19 36 16 37 18 38
REMARK SMILES IDX 17 39
REMARK H PARENT 34 20 32 22 28 25 30 27 5 29
REMARK Flexibility Score: inf
ROOT
ATOM      1  C   UNL     1     134.190 105.922  93.733  1.00  0.00     0.046 C 
ATOM      2  C   UNL     1     133.132 104.826  93.613  1.00  0.00     0.104 C 
ATOM      3  C   UNL     1     131.902 105.130  94.544  1.00  0.00     0.104 C 
ATOM      4  C   UNL     1     130.974 103.885  94.334  1.00  0.00     0.175 C 
ATOM      5  C   UNL     1     131.791 102.561  94.472  1.00  0.00     0.070 C 
ATOM      6  C   UNL     1     133.139 102.764  95.199  1.00  0.00     0.050 C 
ATOM      7  C   UNL     1     133.656 103.353  93.864  1.00  0.00     0.115 C 
ATOM      8  C   UNL     1     132.526 102.608  93.130  1.00  0.00     0.096 C 
ATOM      9  C   UNL     1     131.796 103.643  92.288  1.00  0.00     0.267 C 
ATOM     10  O   UNL     1     132.614 104.798  92.299  1.00  0.00    -0.342 OA
ATOM     11  O   UNL     1     130.586 103.919  92.977  1.00  0.00    -0.320 OA
ENDROOT
BRANCH   7  12
ATOM     12  O   UNL     1     135.001 103.150  93.410  1.00  0.00    -0.339 OA
BRANCH  12  13
ATOM     13  C   UNL     1     135.973 102.932  94.426  1.00  0.00     0.282 C 
ATOM     14  C   UNL     1     136.642 101.546  94.264  1.00  0.00     0.202 C 
ATOM     15  O   UNL     1     136.914 104.000  94.509  1.00  0.00    -0.341 OA
ATOM     16  C   UNL     1     137.635 101.534  93.094  1.00  0.00     0.179 C 
ATOM     17  C   UNL     1     137.885 104.044  93.467  1.00  0.00     0.178 C 
ATOM     18  C   UNL     1     138.622 102.698  93.239  1.00  0.00     0.177 C 
BRANCH  14  19
ATOM     19  O   UNL     1     135.682 100.527  94.121  1.00  0.00    -0.385 OA
ATOM     20  H   UNL     1     135.369 100.273  95.025  1.00  0.00     0.211 HD
ENDBRANCH  14  19
BRANCH  16  21
ATOM     21  O   UNL     1     138.345 100.321  93.072  1.00  0.00    -0.387 OA
ATOM     22  H   UNL     1     137.673  99.594  92.961  1.00  0.00     0.211 HD
ENDBRANCH  16  21
BRANCH  17  23
ATOM     23  C   UNL     1     137.318 104.651  92.177  1.00  0.00     0.191 C 
BRANCH  23  24
ATOM     24  O   UNL     1     137.402 106.050  92.227  1.00  0.00    -0.394 OA
ATOM     25  H   UNL     1     137.932 106.323  91.434  1.00  0.00     0.210 HD
ENDBRANCH  23  24
ENDBRANCH  17  23
BRANCH  18  26
ATOM     26  O   UNL     1     139.555 102.449  94.264  1.00  0.00    -0.387 OA
ATOM     27  H   UNL     1     140.267 103.135  94.214  1.00  0.00     0.211 HD
ENDBRANCH  18  26
ENDBRANCH  12  13
ENDBRANCH   7  12
BRANCH   4  28
ATOM     28  O   UNL     1     129.846 103.913  95.166  1.00  0.00    -0.365 OA
ATOM     29  H   UNL     1     129.489 104.838  95.130  1.00  0.00     0.214 HD
ENDBRANCH   4  28
BRANCH   8  30
ATOM     30  C   UNL     1     132.750 101.245  92.430  1.00  0.00     0.249 C 
BRANCH  30  31
ATOM     31  O   UNL     1     131.886 101.080  91.305  1.00  0.00    -0.461 OA
BRANCH  31  32
ATOM     32  C   UNL     1     130.714 100.316  91.331  1.00  0.00     0.338 C 
ATOM     33  O   UNL     1     129.613 100.907  91.492  1.00  0.00    -0.246 OA
BRANCH  32  34
ATOM     34  C   UNL     1     130.728  98.846  91.162  1.00  0.00     0.060 A 
ATOM     35  C   UNL     1     129.522  98.120  91.145  1.00  0.00     0.015 A 
ATOM     36  C   UNL     1     131.951  98.153  91.079  1.00  0.00     0.015 A 
ATOM     37  C   UNL     1     129.540  96.728  91.006  1.00  0.00     0.001 A 
ATOM     38  C   UNL     1     131.964  96.759  90.941  1.00  0.00     0.001 A 
ATOM     39  C   UNL     1     130.759  96.048  90.900  1.00  0.00     0.000 A 
ENDBRANCH  32  34
ENDBRANCH  31  32
ENDBRANCH  30  31
ENDBRANCH   8  30
TORSDOF 12
ENDMDL
MODEL 5
REMARK VINA RESULT:    -5.987      2.847      5.438
REMARK INTER + INTRA:         -10.762
REMARK INTER:                  -9.745
REMARK INTRA:                  -1.017
REMARK UNBOUND:                -1.451
REMARK SMILES C[C@@]12C[C@@]3(O)O[C@@H](O1)[C@]1(COC(=O)c4ccccc4)[C@H]3C[C@@]12O[C@@H]1O[C@H](CO)[C@@H](O)[C@@H](O)[C@@H]1O
REMARK SMILES IDX 1 1 2 2 3 3 4 4 20 5 21 6 22 7 9 8 7 9 8 10 6 11 23 12 24 13
REMARK SMILES IDX 33 14 25 15 31 16 26 17 29 18 34 19 32 21 27 23 28 24 30 26
REMARK SMILES IDX 5 28 10 30 11 31 12 32 13 33 14 34 15 35 19 36 16 37 18 38
REMARK SMILES IDX 17 39
REMARK H PARENT 34 20 32 22 28 25 30 27 5 29
REMARK Flexibility Score: inf
ROOT
ATOM      1  C   UNL     1     134.697 105.373  93.182  1.00  0.00     0.046 C 
ATOM      2  C   UNL     1     133.346 104.685  93.369  1.00  0.00     0.104 C 
ATOM      3  C   UNL     1     132.495 105.410  94.474  1.00  0.00     0.104 C 
ATOM      4  C   UNL     1     131.198 104.536  94.564  1.00  0.00     0.175 C 
ATOM      5  C   UNL     1     131.563 103.022  94.682  1.00  0.00     0.070 C 
ATOM      6  C   UNL     1     133.026 102.793  95.126  1.00  0.00     0.050 C 
ATOM      7  C   UNL     1     133.416 103.130  93.666  1.00  0.00     0.115 C 
ATOM      8  C   UNL     1     131.983 102.776  93.231  1.00  0.00     0.096 C 
ATOM      9  C   UNL     1     131.461 103.963  92.437  1.00  0.00     0.267 C 
ATOM     10  O   UNL     1     132.587 104.783  92.181  1.00  0.00    -0.342 OA
ATOM     11  O   UNL     1     130.570 104.649  93.304  1.00  0.00    -0.320 OA
ENDROOT
BRANCH   7  12
ATOM     12  O   UNL     1     134.504 102.479  92.997  1.00  0.00    -0.339 OA
BRANCH  12  13
ATOM     13  C   UNL     1     134.753 101.132  93.382  1.00  0.00     0.282 C 
ATOM     14  C   UNL     1     135.295 100.306  92.190  1.00  0.00     0.202 C 
ATOM     15  O   UNL     1     135.579 101.048  94.540  1.00  0.00    -0.341 OA
ATOM     16  C   UNL     1     136.757 100.654  91.883  1.00  0.00     0.179 C 
ATOM     17  C   UNL     1     136.958 101.336  94.332  1.00  0.00     0.178 C 
ATOM     18  C   UNL     1     137.596 100.541  93.162  1.00  0.00     0.177 C 
BRANCH  14  19
ATOM     19  O   UNL     1     134.489 100.467  91.047  1.00  0.00    -0.385 OA
ATOM     20  H   UNL     1     134.880 101.191  90.497  1.00  0.00     0.211 HD
ENDBRANCH  14  19
BRANCH  16  21
ATOM     21  O   UNL     1     137.271  99.779  90.911  1.00  0.00    -0.387 OA
ATOM     22  H   UNL     1     137.632  98.987  91.395  1.00  0.00     0.211 HD
ENDBRANCH  16  21
BRANCH  17  23
ATOM     23  C   UNL     1     137.227 102.845  94.258  1.00  0.00     0.191 C 
BRANCH  23  24
ATOM     24  O   UNL     1     136.527 103.508  95.276  1.00  0.00    -0.394 OA
ATOM     25  H   UNL     1     135.834 102.873  95.592  1.00  0.00     0.210 HD
ENDBRANCH  23  24
ENDBRANCH  17  23
BRANCH  18  26
ATOM     26  O   UNL     1     137.805  99.194  93.516  1.00  0.00    -0.387 OA
ATOM     27  H   UNL     1     136.923  98.766  93.656  1.00  0.00     0.211 HD
ENDBRANCH  18  26
ENDBRANCH  12  13
ENDBRANCH   7  12
BRANCH   4  28
ATOM     28  O   UNL     1     130.335 104.965  95.581  1.00  0.00    -0.365 OA
ATOM     29  H   UNL     1     130.209 105.941  95.456  1.00  0.00     0.214 HD
ENDBRANCH   4  28
BRANCH   8  30
ATOM     30  C   UNL     1     131.614 101.392  92.643  1.00  0.00     0.249 C 
BRANCH  30  31
ATOM     31  O   UNL     1     131.721 101.376  91.219  1.00  0.00    -0.461 OA
BRANCH  31  32
ATOM     32  C   UNL     1     130.908 100.596  90.389  1.00  0.00     0.338 C 
ATOM     33  O   UNL     1     130.375 101.140  89.384  1.00  0.00    -0.246 OA
BRANCH  32  34
ATOM     34  C   UNL     1     130.670  99.158  90.643  1.00  0.00     0.060 A 
ATOM     35  C   UNL     1     129.374  98.689  90.924  1.00  0.00     0.015 A 
ATOM     36  C   UNL     1     131.750  98.254  90.669  1.00  0.00     0.015 A 
ATOM     37  C   UNL     1     129.156  97.332  91.185  1.00  0.00     0.001 A 
ATOM     38  C   UNL     1     131.528  96.897  90.932  1.00  0.00     0.001 A 
ATOM     39  C   UNL     1     130.231  96.435  91.185  1.00  0.00     0.000 A 
ENDBRANCH  32  34
ENDBRANCH  31  32
ENDBRANCH  30  31
ENDBRANCH   8  30
TORSDOF 12
ENDMDL
MODEL 6
REMARK VINA RESULT:    -5.933      2.906      6.455
REMARK INTER + INTRA:         -10.678
REMARK INTER:                  -9.276
REMARK INTRA:                  -1.402
REMARK UNBOUND:                -1.451
REMARK SMILES C[C@@]12C[C@@]3(O)O[C@@H](O1)[C@]1(COC(=O)c4ccccc4)[C@H]3C[C@@]12O[C@@H]1O[C@H](CO)[C@@H](O)[C@@H](O)[C@@H]1O
REMARK SMILES IDX 1 1 2 2 3 3 4 4 20 5 21 6 22 7 9 8 7 9 8 10 6 11 23 12 24 13
REMARK SMILES IDX 33 14 25 15 31 16 26 17 29 18 34 19 32 21 27 23 28 24 30 26
REMARK SMILES IDX 5 28 10 30 11 31 12 32 13 33 14 34 15 35 19 36 16 37 18 38
REMARK SMILES IDX 17 39
REMARK H PARENT 34 20 32 22 28 25 30 27 5 29
REMARK Flexibility Score: inf
ROOT
ATOM      1  C   UNL     1     134.389 103.870  95.674  1.00  0.00     0.046 C 
ATOM      2  C   UNL     1     135.033 103.087  94.530  1.00  0.00     0.104 C 
ATOM      3  C   UNL     1     136.598 103.235  94.561  1.00  0.00     0.104 C 
ATOM      4  C   UNL     1     137.062 102.431  93.298  1.00  0.00     0.175 C 
ATOM      5  C   UNL     1     136.230 102.850  92.044  1.00  0.00     0.070 C 
ATOM      6  C   UNL     1     135.511 104.205  92.230  1.00  0.00     0.050 C 
ATOM      7  C   UNL     1     134.481 103.428  93.085  1.00  0.00     0.115 C 
ATOM      8  C   UNL     1     134.924 102.129  92.387  1.00  0.00     0.096 C 
ATOM      9  C   UNL     1     135.269 101.138  93.488  1.00  0.00     0.267 C 
ATOM     10  O   UNL     1     134.780 101.706  94.689  1.00  0.00    -0.342 OA
ATOM     11  O   UNL     1     136.687 101.091  93.536  1.00  0.00    -0.320 OA
ENDROOT
BRANCH   7  12
ATOM     12  O   UNL     1     133.084 103.752  93.080  1.00  0.00    -0.339 OA
BRANCH  12  13
ATOM     13  C   UNL     1     132.757 105.083  92.697  1.00  0.00     0.282 C 
ATOM     14  C   UNL     1     131.771 105.089  91.503  1.00  0.00     0.202 C 
ATOM     15  O   UNL     1     132.304 105.863  93.800  1.00  0.00    -0.341 OA
ATOM     16  C   UNL     1     130.353 104.700  91.943  1.00  0.00     0.179 C 
ATOM     17  C   UNL     1     130.984 105.576  94.253  1.00  0.00     0.178 C 
ATOM     18  C   UNL     1     129.919 105.575  93.125  1.00  0.00     0.177 C 
BRANCH  14  19
ATOM     19  O   UNL     1     132.222 104.256  90.462  1.00  0.00    -0.385 OA
ATOM     20  H   UNL     1     131.433 103.972  89.936  1.00  0.00     0.211 HD
ENDBRANCH  14  19
BRANCH  16  21
ATOM     21  O   UNL     1     129.450 104.873  90.879  1.00  0.00    -0.387 OA
ATOM     22  H   UNL     1     129.231 103.965  90.536  1.00  0.00     0.211 HD
ENDBRANCH  16  21
BRANCH  17  23
ATOM     23  C   UNL     1     130.938 104.319  95.132  1.00  0.00     0.191 C 
BRANCH  23  24
ATOM     24  O   UNL     1     129.612 103.888  95.284  1.00  0.00    -0.394 OA
ATOM     25  H   UNL     1     129.099 104.678  95.594  1.00  0.00     0.210 HD
ENDBRANCH  23  24
ENDBRANCH  17  23
BRANCH  18  26
ATOM     26  O   UNL     1     129.620 106.886  92.706  1.00  0.00    -0.387 OA
ATOM     27  H   UNL     1     130.470 107.356  92.516  1.00  0.00     0.211 HD
ENDBRANCH  18  26
ENDBRANCH  12  13
ENDBRANCH   7  12
BRANCH   4  28
ATOM     28  O   UNL     1     138.444 102.523  93.084  1.00  0.00    -0.365 OA
ATOM     29  H   UNL     1     138.881 102.278  93.941  1.00  0.00     0.214 HD
ENDBRANCH   4  28
BRANCH   8  30
ATOM     30  C   UNL     1     134.148 101.524  91.192  1.00  0.00     0.249 C 
BRANCH  30  31
ATOM     31  O   UNL     1     133.267 100.480  91.606  1.00  0.00    -0.461 OA
BRANCH  31  32
ATOM     32  C   UNL     1     131.923 100.401  91.223  1.00  0.00     0.338 C 
ATOM     33  O   UNL     1     131.312 101.468  90.946  1.00  0.00    -0.246 OA
BRANCH  32  34
ATOM     34  C   UNL     1     131.207  99.111  91.119  1.00  0.00     0.060 A 
ATOM     35  C   UNL     1     129.801  99.075  91.118  1.00  0.00     0.015 A 
ATOM     36  C   UNL     1     131.928  97.901  91.084  1.00  0.00     0.015 A 
ATOM     37  C   UNL     1     129.127  97.850  91.041  1.00  0.00     0.001 A 
ATOM     38  C   UNL     1     131.250  96.678  91.008  1.00  0.00     0.001 A 
ATOM     39  C   UNL     1     129.850  96.653  90.982  1.00  0.00     0.000 A 
ENDBRANCH  32  34
ENDBRANCH  31  32
ENDBRANCH  30  31
ENDBRANCH   8  30
TORSDOF 12
ENDMDL
MODEL 7
REMARK VINA RESULT:    -5.769      2.462      4.225
REMARK INTER + INTRA:         -10.423
REMARK INTER:                  -9.798
REMARK INTRA:                  -0.625
REMARK UNBOUND:                -1.451
REMARK SMILES C[C@@]12C[C@@]3(O)O[C@@H](O1)[C@]1(COC(=O)c4ccccc4)[C@H]3C[C@@]12O[C@@H]1O[C@H](CO)[C@@H](O)[C@@H](O)[C@@H]1O
REMARK SMILES IDX 1 1 2 2 3 3 4 4 20 5 21 6 22 7 9 8 7 9 8 10 6 11 23 12 24 13
REMARK SMILES IDX 33 14 25 15 31 16 26 17 29 18 34 19 32 21 27 23 28 24 30 26
REMARK SMILES IDX 5 28 10 30 11 31 12 32 13 33 14 34 15 35 19 36 16 37 18 38
REMARK SMILES IDX 17 39
REMARK H PARENT 34 20 32 22 28 25 30 27 5 29
REMARK Flexibility Score: inf
ROOT
ATOM      1  C   UNL     1     131.859 104.291  90.605  1.00  0.00     0.046 C 
ATOM      2  C   UNL     1     132.122 102.796  90.432  1.00  0.00     0.104 C 
ATOM      3  C   UNL     1     130.933 102.100  89.674  1.00  0.00     0.104 C 
ATOM      4  C   UNL     1     131.352 100.590  89.652  1.00  0.00     0.175 C 
ATOM      5  C   UNL     1     131.795 100.122  91.074  1.00  0.00     0.070 C 
ATOM      6  C   UNL     1     131.304 101.066  92.194  1.00  0.00     0.050 C 
ATOM      7  C   UNL     1     132.454 102.010  91.767  1.00  0.00     0.115 C 
ATOM      8  C   UNL     1     133.164 100.806  91.122  1.00  0.00     0.096 C 
ATOM      9  C   UNL     1     133.484 101.203  89.689  1.00  0.00     0.267 C 
ATOM     10  O   UNL     1     133.258 102.598  89.614  1.00  0.00    -0.342 OA
ATOM     11  O   UNL     1     132.532 100.531  88.878  1.00  0.00    -0.320 OA
ENDROOT
BRANCH   7  12
ATOM     12  O   UNL     1     133.189 102.796  92.714  1.00  0.00    -0.339 OA
BRANCH  12  13
ATOM     13  C   UNL     1     133.136 102.351  94.064  1.00  0.00     0.282 C 
ATOM     14  C   UNL     1     134.487 102.593  94.780  1.00  0.00     0.202 C 
ATOM     15  O   UNL     1     132.025 102.899  94.768  1.00  0.00    -0.341 OA
ATOM     16  C   UNL     1     134.690 104.077  95.113  1.00  0.00     0.179 C 
ATOM     17  C   UNL     1     132.147 104.271  95.133  1.00  0.00     0.178 C 
ATOM     18  C   UNL     1     133.468 104.609  95.873  1.00  0.00     0.177 C 
BRANCH  14  19
ATOM     19  O   UNL     1     135.564 102.096  94.023  1.00  0.00    -0.385 OA
ATOM     20  H   UNL     1     135.273 102.041  93.078  1.00  0.00     0.211 HD
ENDBRANCH  14  19
BRANCH  16  21
ATOM     21  O   UNL     1     135.840 104.245  95.903  1.00  0.00    -0.387 OA
ATOM     22  H   UNL     1     136.623 104.168  95.294  1.00  0.00     0.211 HD
ENDBRANCH  16  21
BRANCH  17  23
ATOM     23  C   UNL     1     131.855 105.209  93.954  1.00  0.00     0.191 C 
BRANCH  23  24
ATOM     24  O   UNL     1     132.718 106.313  93.994  1.00  0.00    -0.394 OA
ATOM     25  H   UNL     1     132.320 106.997  93.395  1.00  0.00     0.210 HD
ENDBRANCH  23  24
ENDBRANCH  17  23
BRANCH  18  26
ATOM     26  O   UNL     1     133.447 104.133  97.198  1.00  0.00    -0.387 OA
ATOM     27  H   UNL     1     133.572 104.901  97.810  1.00  0.00     0.211 HD
ENDBRANCH  18  26
ENDBRANCH  12  13
ENDBRANCH   7  12
BRANCH   4  28
ATOM     28  O   UNL     1     130.361  99.770  89.096  1.00  0.00    -0.365 OA
ATOM     29  H   UNL     1     129.807  99.441  89.852  1.00  0.00     0.214 HD
ENDBRANCH   4  28
BRANCH   8  30
ATOM     30  C   UNL     1     134.289 100.023  91.843  1.00  0.00     0.249 C 
BRANCH  30  31
ATOM     31  O   UNL     1     135.581 100.377  91.348  1.00  0.00    -0.461 OA
BRANCH  31  32
ATOM     32  C   UNL     1     136.735  99.622  91.585  1.00  0.00     0.338 C 
ATOM     33  O   UNL     1     137.263  99.011  90.617  1.00  0.00    -0.246 OA
BRANCH  32  34
ATOM     34  C   UNL     1     137.360  99.534  92.923  1.00  0.00     0.060 A 
ATOM     35  C   UNL     1     136.803  98.708  93.916  1.00  0.00     0.015 A 
ATOM     36  C   UNL     1     138.482 100.326  93.235  1.00  0.00     0.015 A 
ATOM     37  C   UNL     1     137.385  98.644  95.187  1.00  0.00     0.001 A 
ATOM     38  C   UNL     1     139.060 100.260  94.509  1.00  0.00     0.001 A 
ATOM     39  C   UNL     1     138.515  99.416  95.483  1.00  0.00     0.000 A 
ENDBRANCH  32  34
ENDBRANCH  31  32
ENDBRANCH  30  31
ENDBRANCH   8  30
TORSDOF 12
ENDMDL
MODEL 8
REMARK VINA RESULT:    -5.732      2.776      6.189
REMARK INTER + INTRA:         -10.366
REMARK INTER:                  -9.264
REMARK INTRA:                  -1.102
REMARK UNBOUND:                -1.451
REMARK SMILES C[C@@]12C[C@@]3(O)O[C@@H](O1)[C@]1(COC(=O)c4ccccc4)[C@H]3C[C@@]12O[C@@H]1O[C@H](CO)[C@@H](O)[C@@H](O)[C@@H]1O
REMARK SMILES IDX 1 1 2 2 3 3 4 4 20 5 21 6 22 7 9 8 7 9 8 10 6 11 23 12 24 13
REMARK SMILES IDX 33 14 25 15 31 16 26 17 29 18 34 19 32 21 27 23 28 24 30 26
REMARK SMILES IDX 5 28 10 30 11 31 12 32 13 33 14 34 15 35 19 36 16 37 18 38
REMARK SMILES IDX 17 39
REMARK H PARENT 34 20 32 22 28 25 30 27 5 29
REMARK Flexibility Score: inf
ROOT
ATOM      1  C   UNL     1     135.798 105.423  93.818  1.00  0.00     0.046 C 
ATOM      2  C   UNL     1     135.914 104.711  92.471  1.00  0.00     0.104 C 
ATOM      3  C   UNL     1     136.687 105.601  91.431  1.00  0.00     0.104 C 
ATOM      4  C   UNL     1     136.646 104.743  90.120  1.00  0.00     0.175 C 
ATOM      5  C   UNL     1     135.196 104.238  89.838  1.00  0.00     0.070 C 
ATOM      6  C   UNL     1     134.124 105.038  90.612  1.00  0.00     0.050 C 
ATOM      7  C   UNL     1     134.544 104.212  91.851  1.00  0.00     0.115 C 
ATOM      8  C   UNL     1     135.126 103.144  90.907  1.00  0.00     0.096 C 
ATOM      9  C   UNL     1     136.559 102.901  91.353  1.00  0.00     0.267 C 
ATOM     10  O   UNL     1     136.687 103.536  92.612  1.00  0.00    -0.342 OA
ATOM     11  O   UNL     1     137.378 103.570  90.406  1.00  0.00    -0.320 OA
ENDROOT
BRANCH   7  12
ATOM     12  O   UNL     1     133.599 103.790  92.844  1.00  0.00    -0.339 OA
BRANCH  12  13
ATOM     13  C   UNL     1     132.426 104.586  92.963  1.00  0.00     0.282 C 
ATOM     14  C   UNL     1     131.159 103.755  92.647  1.00  0.00     0.202 C 
ATOM     15  O   UNL     1     132.356 105.256  94.219  1.00  0.00    -0.341 OA
ATOM     16  C   UNL     1     130.813 102.797  93.794  1.00  0.00     0.179 C 
ATOM     17  C   UNL     1     132.018 104.435  95.334  1.00  0.00     0.178 C 
ATOM     18  C   UNL     1     130.747 103.573  95.115  1.00  0.00     0.177 C 
BRANCH  14  19
ATOM     19  O   UNL     1     131.293 103.059  91.432  1.00  0.00    -0.385 OA
ATOM     20  H   UNL     1     130.873 103.604  90.720  1.00  0.00     0.211 HD
ENDBRANCH  14  19
BRANCH  16  21
ATOM     21  O   UNL     1     129.575 102.178  93.554  1.00  0.00    -0.387 OA
ATOM     22  H   UNL     1     129.249 101.833  94.429  1.00  0.00     0.211 HD
ENDBRANCH  16  21
BRANCH  17  23
ATOM     23  C   UNL     1     133.220 103.626  95.839  1.00  0.00     0.191 C 
BRANCH  23  24
ATOM     24  O   UNL     1     133.925 104.364  96.801  1.00  0.00    -0.394 OA
ATOM     25  H   UNL     1     133.405 105.196  96.946  1.00  0.00     0.210 HD
ENDBRANCH  23  24
ENDBRANCH  17  23
BRANCH  18  26
ATOM     26  O   UNL     1     129.580 104.359  95.186  1.00  0.00    -0.387 OA
ATOM     27  H   UNL     1     129.629 105.056  94.484  1.00  0.00     0.211 HD
ENDBRANCH  18  26
ENDBRANCH  12  13
ENDBRANCH   7  12
BRANCH   4  28
ATOM     28  O   UNL     1     137.207 105.416  89.025  1.00  0.00    -0.365 OA
ATOM     29  H   UNL     1     136.501 105.465  88.330  1.00  0.00     0.214 HD
ENDBRANCH   4  28
BRANCH   8  30
ATOM     30  C   UNL     1     134.343 101.866  90.519  1.00  0.00     0.249 C 
BRANCH  30  31
ATOM     31  O   UNL     1     134.506 100.831  91.490  1.00  0.00    -0.461 OA
BRANCH  31  32
ATOM     32  C   UNL     1     134.888  99.522  91.172  1.00  0.00     0.338 C 
ATOM     33  O   UNL     1     136.102  99.295  90.917  1.00  0.00    -0.246 OA
BRANCH  32  34
ATOM     34  C   UNL     1     133.921  98.403  91.142  1.00  0.00     0.060 A 
ATOM     35  C   UNL     1     134.374  97.071  91.125  1.00  0.00     0.015 A 
ATOM     36  C   UNL     1     132.539  98.662  91.067  1.00  0.00     0.015 A 
ATOM     37  C   UNL     1     133.457  96.015  91.076  1.00  0.00     0.001 A 
ATOM     38  C   UNL     1     131.625  97.603  91.016  1.00  0.00     0.001 A 
ATOM     39  C   UNL     1     132.083  96.280  91.026  1.00  0.00     0.000 A 
ENDBRANCH  32  34
ENDBRANCH  31  32
ENDBRANCH  30  31
ENDBRANCH   8  30
TORSDOF 12
ENDMDL
MODEL 9
REMARK VINA RESULT:    -5.706      2.314      3.274
REMARK INTER + INTRA:         -10.326
REMARK INTER:                  -9.369
REMARK INTRA:                  -0.957
REMARK UNBOUND:                -1.451
REMARK SMILES C[C@@]12C[C@@]3(O)O[C@@H](O1)[C@]1(COC(=O)c4ccccc4)[C@H]3C[C@@]12O[C@@H]1O[C@H](CO)[C@@H](O)[C@@H](O)[C@@H]1O
REMARK SMILES IDX 1 1 2 2 3 3 4 4 20 5 21 6 22 7 9 8 7 9 8 10 6 11 23 12 24 13
REMARK SMILES IDX 33 14 25 15 31 16 26 17 29 18 34 19 32 21 27 23 28 24 30 26
REMARK SMILES IDX 5 28 10 30 11 31 12 32 13 33 14 34 15 35 19 36 16 37 18 38
REMARK SMILES IDX 17 39
REMARK H PARENT 34 20 32 22 28 25 30 27 5 29
REMARK Flexibility Score: inf
ROOT
ATOM      1  C   UNL     1     133.623 106.525  93.001  1.00  0.00     0.046 C 
ATOM      2  C   UNL     1     133.196 105.139  93.485  1.00  0.00     0.104 C 
ATOM      3  C   UNL     1     131.963 105.239  94.456  1.00  0.00     0.104 C 
ATOM      4  C   UNL     1     131.721 103.752  94.886  1.00  0.00     0.175 C 
ATOM      5  C   UNL     1     133.060 103.086  95.339  1.00  0.00     0.070 C 
ATOM      6  C   UNL     1     134.156 104.120  95.678  1.00  0.00     0.050 C 
ATOM      7  C   UNL     1     134.345 104.274  94.149  1.00  0.00     0.115 C 
ATOM      8  C   UNL     1     133.693 102.892  93.958  1.00  0.00     0.096 C 
ATOM      9  C   UNL     1     132.569 103.075  92.951  1.00  0.00     0.267 C 
ATOM     10  O   UNL     1     132.755 104.361  92.391  1.00  0.00    -0.342 OA
ATOM     11  O   UNL     1     131.367 103.063  93.706  1.00  0.00    -0.320 OA
ENDROOT
BRANCH   7  12
ATOM     12  O   UNL     1     135.631 104.499  93.557  1.00  0.00    -0.339 OA
BRANCH  12  13
ATOM     13  C   UNL     1     136.743 104.431  94.443  1.00  0.00     0.282 C 
ATOM     14  C   UNL     1     137.897 103.608  93.821  1.00  0.00     0.202 C 
ATOM     15  O   UNL     1     137.154 105.721  94.889  1.00  0.00    -0.341 OA
ATOM     16  C   UNL     1     138.622 104.396  92.722  1.00  0.00     0.179 C 
ATOM     17  C   UNL     1     137.855 106.507  93.929  1.00  0.00     0.178 C 
ATOM     18  C   UNL     1     139.044 105.768  93.260  1.00  0.00     0.177 C 
BRANCH  14  19
ATOM     19  O   UNL     1     137.438 102.370  93.334  1.00  0.00    -0.385 OA
ATOM     20  H   UNL     1     137.688 102.306  92.378  1.00  0.00     0.211 HD
ENDBRANCH  14  19
BRANCH  16  21
ATOM     21  O   UNL     1     139.760 103.694  92.291  1.00  0.00    -0.387 OA
ATOM     22  H   UNL     1     140.506 103.950  92.899  1.00  0.00     0.211 HD
ENDBRANCH  16  21
BRANCH  17  23
ATOM     23  C   UNL     1     136.905 107.166  92.921  1.00  0.00     0.191 C 
BRANCH  23  24
ATOM     24  O   UNL     1     136.572 108.459  93.349  1.00  0.00    -0.394 OA
ATOM     25  H   UNL     1     136.031 108.346  94.172  1.00  0.00     0.210 HD
ENDBRANCH  23  24
ENDBRANCH  17  23
BRANCH  18  26
ATOM     26  O   UNL     1     140.135 105.654  94.144  1.00  0.00    -0.387 OA
ATOM     27  H   UNL     1     140.050 104.801  94.639  1.00  0.00     0.211 HD
ENDBRANCH  18  26
ENDBRANCH  12  13
ENDBRANCH   7  12
BRANCH   4  28
ATOM     28  O   UNL     1     130.707 103.633  95.846  1.00  0.00    -0.365 OA
ATOM     29  H   UNL     1     130.982 102.906  96.463  1.00  0.00     0.214 HD
ENDBRANCH   4  28
BRANCH   8  30
ATOM     30  C   UNL     1     134.527 101.601  93.771  1.00  0.00     0.249 C 
BRANCH  30  31
ATOM     31  O   UNL     1     134.736 101.302  92.390  1.00  0.00    -0.461 OA
BRANCH  31  32
ATOM     32  C   UNL     1     135.251 100.085  91.929  1.00  0.00     0.338 C 
ATOM     33  O   UNL     1     136.502  99.953  91.850  1.00  0.00    -0.246 OA
BRANCH  32  34
ATOM     34  C   UNL     1     134.379  98.952  91.550  1.00  0.00     0.060 A 
ATOM     35  C   UNL     1     133.018  99.166  91.264  1.00  0.00     0.015 A 
ATOM     36  C   UNL     1     134.889  97.639  91.535  1.00  0.00     0.015 A 
ATOM     37  C   UNL     1     132.191  98.088  90.926  1.00  0.00     0.001 A 
ATOM     38  C   UNL     1     134.057  96.564  91.199  1.00  0.00     0.001 A 
ATOM     39  C   UNL     1     132.711  96.788  90.890  1.00  0.00     0.000 A 
ENDBRANCH  32  34
ENDBRANCH  31  32
ENDBRANCH  30  31
ENDBRANCH   8  30
TORSDOF 12
ENDMDL
