MODEL 1
REMARK VINA RESULT:    -4.000      0.000      0.000
REMARK INTER + INTRA:          -5.291
REMARK INTER:                  -5.403
REMARK INTRA:                   0.111
REMARK UNBOUND:                 0.111
REMARK SMILES C=C(C)[C@H]1CC[C@@H](C)C2=C(C1)[C@H](C)CC2
REMARK SMILES IDX 10 1 9 2 15 3 14 4 12 5 13 6 7 7 8 8 6 9 11 11 4 12 5 13
REMARK SMILES IDX 2 15 1 16 3 17
REMARK H PARENT
REMARK Flexibility Score: 80.00
ROOT
ATOM      1  C   UNL     1      30.876   7.994  31.532  1.00  0.00    -0.067 C 
ATOM      2  C   UNL     1      30.687   9.246  31.080  1.00  0.00    -0.068 C 
ATOM      3  C   UNL     1      30.120   9.230  29.692  1.00  0.00     0.032 C 
ATOM      4  C   UNL     1      29.859   7.759  29.378  1.00  0.00     0.012 C 
ATOM      5  C   UNL     1      30.538   6.964  30.499  1.00  0.00     0.012 C 
ATOM      6  C   UNL     1      31.801   6.250  30.006  1.00  0.00     0.012 C 
ENDROOT
BRANCH   2   7
ATOM      7  C   UNL     1      30.854  10.542  31.880  1.00  0.00     0.012 C 
ATOM      8  C   UNL     1      30.647  11.777  30.986  1.00  0.00     0.012 C 
BRANCH   7   9
ATOM      9  C   UNL     1      32.232  10.640  32.573  1.00  0.00     0.008 CG0
ATOM     10  G   UNL     1      32.332   9.786  33.849  1.00  0.00     0.000 G0
ENDBRANCH   7   9
ENDBRANCH   2   7
BRANCH   1  11
ATOM     11  C   UNL     1      31.396   7.588  32.896  1.00  0.00     0.039 C 
BRANCH  11  12
ATOM     12  C   UNL     1      31.224   8.695  33.956  1.00  0.00     0.018 C 
BRANCH  12  13
ATOM     13  C   UNL     1      32.319   9.780  33.845  1.00  0.00     0.009 CG0
ATOM     14  G   UNL     1      32.236  10.647  32.576  1.00  0.00     0.000 G0
ENDBRANCH  12  13
BRANCH  12  15
ATOM     15  C   UNL     1      31.192   8.115  35.364  1.00  0.00    -0.077 C 
ATOM     16  C   UNL     1      31.346   8.901  36.444  1.00  0.00     0.008 C 
ATOM     17  C   UNL     1      31.022   6.628  35.532  1.00  0.00     0.039 C 
ENDBRANCH  12  15
ENDBRANCH  11  12
ENDBRANCH   1  11
TORSDOF 1
ENDMDL
MODEL 2
REMARK VINA RESULT:    -3.966      1.755      3.617
REMARK INTER + INTRA:          -5.245
REMARK INTER:                  -5.327
REMARK INTRA:                   0.082
REMARK UNBOUND:                 0.111
REMARK SMILES C=C(C)[C@H]1CC[C@@H](C)C2=C(C1)[C@H](C)CC2
REMARK SMILES IDX 10 1 9 2 15 3 14 4 12 5 13 6 7 7 8 8 6 9 11 11 4 12 5 13
REMARK SMILES IDX 2 15 1 16 3 17
REMARK H PARENT
REMARK Flexibility Score: 80.00
ROOT
ATOM      1  C   UNL     1      30.126   9.686  30.207  1.00  0.00    -0.067 C 
ATOM      2  C   UNL     1      30.246   8.451  29.687  1.00  0.00    -0.068 C 
ATOM      3  C   UNL     1      29.854   8.444  28.240  1.00  0.00     0.032 C 
ATOM      4  C   UNL     1      29.585   9.904  27.886  1.00  0.00     0.012 C 
ATOM      5  C   UNL     1      29.572  10.663  29.217  1.00  0.00     0.012 C 
ATOM      6  C   UNL     1      28.156  11.097  29.611  1.00  0.00     0.012 C 
ENDROOT
BRANCH   2   7
ATOM      7  C   UNL     1      30.846   7.223  30.379  1.00  0.00     0.012 C 
ATOM      8  C   UNL     1      30.816   5.995  29.452  1.00  0.00     0.012 C 
BRANCH   7   9
ATOM      9  C   UNL     1      30.130   6.878  31.704  1.00  0.00     0.008 CG0
ATOM     10  G   UNL     1      30.482   7.841  32.852  1.00  0.00     0.000 G0
ENDBRANCH   7   9
ENDBRANCH   2   7
BRANCH   1  11
ATOM     11  C   UNL     1      30.458  10.114  31.622  1.00  0.00     0.039 C 
BRANCH  11  12
ATOM     12  C   UNL     1      31.320   9.079  32.373  1.00  0.00     0.018 C 
BRANCH  12  13
ATOM     13  C   UNL     1      30.491   7.861  32.840  1.00  0.00     0.009 CG0
ATOM     14  G   UNL     1      30.125   6.869  31.721  1.00  0.00     0.000 G0
ENDBRANCH  12  13
BRANCH  12  15
ATOM     15  C   UNL     1      32.043   9.712  33.554  1.00  0.00    -0.077 C 
ATOM     16  C   UNL     1      31.713   9.403  34.821  1.00  0.00     0.008 C 
ATOM     17  C   UNL     1      33.120  10.730  33.284  1.00  0.00     0.039 C 
ENDBRANCH  12  15
ENDBRANCH  11  12
ENDBRANCH   1  11
TORSDOF 1
ENDMDL
MODEL 3
REMARK VINA RESULT:    -3.884      0.945      1.339
REMARK INTER + INTRA:          -5.134
REMARK INTER:                  -5.235
REMARK INTRA:                   0.100
REMARK UNBOUND:                 0.111
REMARK SMILES C=C(C)[C@H]1CC[C@@H](C)C2=C(C1)[C@H](C)CC2
REMARK SMILES IDX 10 1 9 2 15 3 14 4 12 5 13 6 7 7 8 8 6 9 11 11 4 12 5 13
REMARK SMILES IDX 2 15 1 16 3 17
REMARK H PARENT
REMARK Flexibility Score: 80.00
ROOT
ATOM      1  C   UNL     1      30.678   7.953  30.507  1.00  0.00    -0.067 C 
ATOM      2  C   UNL     1      30.296   9.214  30.236  1.00  0.00    -0.068 C 
ATOM      3  C   UNL     1      29.751   9.315  28.844  1.00  0.00     0.032 C 
ATOM      4  C   UNL     1      29.729   7.885  28.311  1.00  0.00     0.012 C 
ATOM      5  C   UNL     1      30.517   7.048  29.325  1.00  0.00     0.012 C 
ATOM      6  C   UNL     1      31.882   6.621  28.773  1.00  0.00     0.012 C 
ENDROOT
BRANCH   2   7
ATOM      7  C   UNL     1      30.248  10.386  31.222  1.00  0.00     0.012 C 
ATOM      8  C   UNL     1      29.841  11.690  30.513  1.00  0.00     0.012 C 
BRANCH   7   9
ATOM      9  C   UNL     1      31.591  10.602  31.955  1.00  0.00     0.008 CG0
ATOM     10  G   UNL     1      31.839   9.583  33.080  1.00  0.00     0.000 G0
ENDBRANCH   7   9
ENDBRANCH   2   7
BRANCH   1  11
ATOM     11  C   UNL     1      31.244   7.435  31.814  1.00  0.00     0.039 C 
BRANCH  11  12
ATOM     12  C   UNL     1      30.911   8.345  33.013  1.00  0.00     0.018 C 
BRANCH  12  13
ATOM     13  C   UNL     1      31.839   9.579  33.082  1.00  0.00     0.009 CG0
ATOM     14  G   UNL     1      31.619  10.609  31.960  1.00  0.00     0.000 G0
ENDBRANCH  12  13
BRANCH  12  15
ATOM     15  C   UNL     1      30.957   7.572  34.325  1.00  0.00    -0.077 C 
ATOM     16  C   UNL     1      30.709   6.251  34.364  1.00  0.00     0.008 C 
ATOM     17  C   UNL     1      31.250   8.322  35.598  1.00  0.00     0.039 C 
ENDBRANCH  12  15
ENDBRANCH  11  12
ENDBRANCH   1  11
TORSDOF 1
ENDMDL
MODEL 4
REMARK VINA RESULT:    -3.773      2.086      4.792
REMARK INTER + INTRA:          -4.985
REMARK INTER:                  -5.077
REMARK INTRA:                   0.092
REMARK UNBOUND:                 0.111
REMARK SMILES C=C(C)[C@H]1CC[C@@H](C)C2=C(C1)[C@H](C)CC2
REMARK SMILES IDX 10 1 9 2 15 3 14 4 12 5 13 6 7 7 8 8 6 9 11 11 4 12 5 13
REMARK SMILES IDX 2 15 1 16 3 17
REMARK H PARENT
REMARK Flexibility Score: 80.00
ROOT
ATOM      1  C   UNL     1      30.916   7.983  34.728  1.00  0.00    -0.067 C 
ATOM      2  C   UNL     1      31.098   8.555  35.931  1.00  0.00    -0.068 C 
ATOM      3  C   UNL     1      31.379   7.517  36.976  1.00  0.00     0.032 C 
ATOM      4  C   UNL     1      31.474   6.196  36.219  1.00  0.00     0.012 C 
ATOM      5  C   UNL     1      30.975   6.489  34.799  1.00  0.00     0.012 C 
ATOM      6  C   UNL     1      29.594   5.875  34.543  1.00  0.00     0.012 C 
ENDROOT
BRANCH   2   7
ATOM      7  C   UNL     1      31.179  10.056  36.226  1.00  0.00     0.012 C 
ATOM      8  C   UNL     1      31.452  10.315  37.719  1.00  0.00     0.012 C 
BRANCH   7   9
ATOM      9  C   UNL     1      29.902  10.816  35.804  1.00  0.00     0.008 CG0
ATOM     10  G   UNL     1      29.755  10.956  34.279  1.00  0.00     0.000 G0
ENDBRANCH   7   9
ENDBRANCH   2   7
BRANCH   1  11
ATOM     11  C   UNL     1      30.648   8.691  33.415  1.00  0.00     0.039 C 
BRANCH  11  12
ATOM     12  C   UNL     1      30.894  10.211  33.494  1.00  0.00     0.018 C 
BRANCH  12  13
ATOM     13  C   UNL     1      29.779  10.941  34.277  1.00  0.00     0.009 CG0
ATOM     14  G   UNL     1      29.887  10.819  35.807  1.00  0.00     0.000 G0
ENDBRANCH  12  13
BRANCH  12  15
ATOM     15  C   UNL     1      31.053  10.819  32.106  1.00  0.00    -0.077 C 
ATOM     16  C   UNL     1      31.824  11.903  31.905  1.00  0.00     0.008 C 
ATOM     17  C   UNL     1      30.298  10.208  30.956  1.00  0.00     0.039 C 
ENDBRANCH  12  15
ENDBRANCH  11  12
ENDBRANCH   1  11
TORSDOF 1
ENDMDL
MODEL 5
REMARK VINA RESULT:    -3.689      3.043      6.035
REMARK INTER + INTRA:          -4.872
REMARK INTER:                  -5.039
REMARK INTRA:                   0.168
REMARK UNBOUND:                 0.111
REMARK SMILES C=C(C)[C@H]1CC[C@@H](C)C2=C(C1)[C@H](C)CC2
REMARK SMILES IDX 10 1 9 2 15 3 14 4 12 5 13 6 7 7 8 8 6 9 11 11 4 12 5 13
REMARK SMILES IDX 2 15 1 16 3 17
REMARK H PARENT
REMARK Flexibility Score: 80.00
ROOT
ATOM      1  C   UNL     1      30.127   8.154  29.178  1.00  0.00    -0.067 C 
ATOM      2  C   UNL     1      30.256   9.121  30.104  1.00  0.00    -0.068 C 
ATOM      3  C   UNL     1      30.874   8.576  31.357  1.00  0.00     0.032 C 
ATOM      4  C   UNL     1      31.236   7.129  31.034  1.00  0.00     0.012 C 
ATOM      5  C   UNL     1      30.566   6.818  29.692  1.00  0.00     0.012 C 
ATOM      6  C   UNL     1      29.367   5.877  29.858  1.00  0.00     0.012 C 
ENDROOT
BRANCH   2   7
ATOM      7  C   UNL     1      29.981  10.615  29.910  1.00  0.00     0.012 C 
ATOM      8  C   UNL     1      30.056  11.372  31.249  1.00  0.00     0.012 C 
BRANCH   7   9
ATOM      9  C   UNL     1      28.612  10.887  29.248  1.00  0.00     0.008 CG0
ATOM     10  G   UNL     1      28.621  10.671  27.724  1.00  0.00     0.000 G0
ENDBRANCH   7   9
ENDBRANCH   2   7
BRANCH   1  11
ATOM     11  C   UNL     1      29.583   8.309  27.772  1.00  0.00     0.039 C 
BRANCH  11  12
ATOM     12  C   UNL     1      29.747   9.739  27.221  1.00  0.00     0.018 C 
BRANCH  12  13
ATOM     13  C   UNL     1      28.633  10.686  27.719  1.00  0.00     0.009 CG0
ATOM     14  G   UNL     1      28.602  10.892  29.244  1.00  0.00     0.000 G0
ENDBRANCH  12  13
BRANCH  12  15
ATOM     15  C   UNL     1      29.805   9.743  25.699  1.00  0.00    -0.077 C 
ATOM     16  C   UNL     1      30.894   9.302  25.042  1.00  0.00     0.008 C 
ATOM     17  C   UNL     1      28.631  10.288  24.929  1.00  0.00     0.039 C 
ENDBRANCH  12  15
ENDBRANCH  11  12
ENDBRANCH   1  11
TORSDOF 1
ENDMDL
MODEL 6
REMARK VINA RESULT:    -3.602      3.880      6.293
REMARK INTER + INTRA:          -4.754
REMARK INTER:                  -4.845
REMARK INTRA:                   0.090
REMARK UNBOUND:                 0.111
REMARK SMILES C=C(C)[C@H]1CC[C@@H](C)C2=C(C1)[C@H](C)CC2
REMARK SMILES IDX 10 1 9 2 15 3 14 4 12 5 13 6 7 7 8 8 6 9 11 11 4 12 5 13
REMARK SMILES IDX 2 15 1 16 3 17
REMARK H PARENT
REMARK Flexibility Score: 80.00
ROOT
ATOM      1  C   UNL     1      29.205  10.028  27.371  1.00  0.00    -0.067 C 
ATOM      2  C   UNL     1      29.434   9.530  26.142  1.00  0.00    -0.068 C 
ATOM      3  C   UNL     1      29.217  10.580  25.095  1.00  0.00     0.032 C 
ATOM      4  C   UNL     1      28.936  11.868  25.864  1.00  0.00     0.012 C 
ATOM      5  C   UNL     1      28.735  11.449  27.325  1.00  0.00     0.012 C 
ATOM      6  C   UNL     1      27.266  11.553  27.750  1.00  0.00     0.012 C 
ENDROOT
BRANCH   2   7
ATOM      7  C   UNL     1      29.994   8.144  25.808  1.00  0.00     0.012 C 
ATOM      8  C   UNL     1      30.058   7.923  24.286  1.00  0.00     0.012 C 
BRANCH   7   9
ATOM      9  C   UNL     1      29.179   7.001  26.454  1.00  0.00     0.008 CG0
ATOM     10  G   UNL     1      29.443   6.843  27.961  1.00  0.00     0.000 G0
ENDBRANCH   7   9
ENDBRANCH   2   7
BRANCH   1  11
ATOM     11  C   UNL     1      29.349   9.297  28.690  1.00  0.00     0.039 C 
BRANCH  11  12
ATOM     12  C   UNL     1      30.228   8.035  28.582  1.00  0.00     0.018 C 
BRANCH  12  13
ATOM     13  C   UNL     1      29.462   6.845  27.961  1.00  0.00     0.009 CG0
ATOM     14  G   UNL     1      29.169   6.987  26.457  1.00  0.00     0.000 G0
ENDBRANCH  12  13
BRANCH  12  15
ATOM     15  C   UNL     1      30.808   7.645  29.935  1.00  0.00    -0.077 C 
ATOM     16  C   UNL     1      31.250   6.397  30.170  1.00  0.00     0.008 C 
ATOM     17  C   UNL     1      30.844   8.676  31.033  1.00  0.00     0.039 C 
ENDBRANCH  12  15
ENDBRANCH  11  12
ENDBRANCH   1  11
TORSDOF 1
ENDMDL
MODEL 7
REMARK VINA RESULT:    -3.557      1.987      3.593
REMARK INTER + INTRA:          -4.693
REMARK INTER:                  -4.838
REMARK INTRA:                   0.145
REMARK UNBOUND:                 0.111
REMARK SMILES C=C(C)[C@H]1CC[C@@H](C)C2=C(C1)[C@H](C)CC2
REMARK SMILES IDX 10 1 9 2 15 3 14 4 12 5 13 6 7 7 8 8 6 9 11 11 4 12 5 13
REMARK SMILES IDX 2 15 1 16 3 17
REMARK H PARENT
REMARK Flexibility Score: 80.00
ROOT
ATOM      1  C   UNL     1      30.214   9.321  33.092  1.00  0.00    -0.067 C 
ATOM      2  C   UNL     1      30.503   8.611  31.987  1.00  0.00    -0.068 C 
ATOM      3  C   UNL     1      30.550   9.501  30.781  1.00  0.00     0.032 C 
ATOM      4  C   UNL     1      30.369  10.919  31.317  1.00  0.00     0.012 C 
ATOM      5  C   UNL     1      29.956  10.763  32.784  1.00  0.00     0.012 C 
ATOM      6  C   UNL     1      28.478  11.111  32.999  1.00  0.00     0.012 C 
ENDROOT
BRANCH   2   7
ATOM      7  C   UNL     1      30.897   7.132  31.928  1.00  0.00     0.012 C 
ATOM      8  C   UNL     1      30.984   6.638  30.473  1.00  0.00     0.012 C 
BRANCH   7   9
ATOM      9  C   UNL     1      29.925   6.225  32.716  1.00  0.00     0.008 CG0
ATOM     10  G   UNL     1      30.184   6.230  34.233  1.00  0.00     0.000 G0
ENDBRANCH   7   9
ENDBRANCH   2   7
BRANCH   1  11
ATOM     11  C   UNL     1      30.113   8.796  34.510  1.00  0.00     0.039 C 
BRANCH  11  12
ATOM     12  C   UNL     1      30.933   7.510  34.732  1.00  0.00     0.018 C 
BRANCH  12  13
ATOM     13  C   UNL     1      30.188   6.251  34.233  1.00  0.00     0.009 CG0
ATOM     14  G   UNL     1      29.931   6.219  32.716  1.00  0.00     0.000 G0
ENDBRANCH  12  13
BRANCH  12  15
ATOM     15  C   UNL     1      31.326   7.348  36.195  1.00  0.00    -0.077 C 
ATOM     16  C   UNL     1      31.580   8.418  36.970  1.00  0.00     0.008 C 
ATOM     17  C   UNL     1      31.466   5.959  36.759  1.00  0.00     0.039 C 
ENDBRANCH  12  15
ENDBRANCH  11  12
ENDBRANCH   1  11
TORSDOF 1
ENDMDL
MODEL 8
REMARK VINA RESULT:    -3.487      2.235      5.273
REMARK INTER + INTRA:          -4.598
REMARK INTER:                  -4.842
REMARK INTRA:                   0.244
REMARK UNBOUND:                 0.111
REMARK SMILES C=C(C)[C@H]1CC[C@@H](C)C2=C(C1)[C@H](C)CC2
REMARK SMILES IDX 10 1 9 2 15 3 14 4 12 5 13 6 7 7 8 8 6 9 11 11 4 12 5 13
REMARK SMILES IDX 2 15 1 16 3 17
REMARK H PARENT
REMARK Flexibility Score: 80.00
ROOT
ATOM      1  C   UNL     1      30.904   9.401  31.631  1.00  0.00    -0.067 C 
ATOM      2  C   UNL     1      30.781   8.113  31.262  1.00  0.00    -0.068 C 
ATOM      3  C   UNL     1      31.250   7.201  32.354  1.00  0.00     0.032 C 
ATOM      4  C   UNL     1      31.575   8.113  33.534  1.00  0.00     0.012 C 
ATOM      5  C   UNL     1      31.535   9.542  32.981  1.00  0.00     0.012 C 
ATOM      6  C   UNL     1      32.939  10.148  32.868  1.00  0.00     0.012 C 
ENDROOT
BRANCH   2   7
ATOM      7  C   UNL     1      30.114   7.589  29.986  1.00  0.00     0.012 C 
ATOM      8  C   UNL     1      30.430   6.098  29.768  1.00  0.00     0.012 C 
BRANCH   7   9
ATOM      9  C   UNL     1      30.526   8.385  28.728  1.00  0.00     0.008 CG0
ATOM     10  G   UNL     1      29.749   9.704  28.563  1.00  0.00     0.000 G0
ENDBRANCH   7   9
ENDBRANCH   2   7
BRANCH   1  11
ATOM     11  C   UNL     1      30.507  10.621  30.825  1.00  0.00     0.039 C 
BRANCH  11  12
ATOM     12  C   UNL     1      29.311  10.355  29.888  1.00  0.00     0.018 C 
BRANCH  12  13
ATOM     13  C   UNL     1      29.748   9.696  28.560  1.00  0.00     0.009 CG0
ATOM     14  G   UNL     1      30.521   8.376  28.724  1.00  0.00     0.000 G0
ENDBRANCH  12  13
BRANCH  12  15
ATOM     15  C   UNL     1      28.528  11.632  29.614  1.00  0.00    -0.077 C 
ATOM     16  C   UNL     1      28.967  12.542  28.726  1.00  0.00     0.008 C 
ATOM     17  C   UNL     1      27.260  11.885  30.387  1.00  0.00     0.039 C 
ENDBRANCH  12  15
ENDBRANCH  11  12
ENDBRANCH   1  11
TORSDOF 1
ENDMDL
MODEL 9
REMARK VINA RESULT:    -3.457      3.254      6.352
REMARK INTER + INTRA:          -4.559
REMARK INTER:                  -4.846
REMARK INTRA:                   0.288
REMARK UNBOUND:                 0.111
REMARK SMILES C=C(C)[C@H]1CC[C@@H](C)C2=C(C1)[C@H](C)CC2
REMARK SMILES IDX 10 1 9 2 15 3 14 4 12 5 13 6 7 7 8 8 6 9 11 11 4 12 5 13
REMARK SMILES IDX 2 15 1 16 3 17
REMARK H PARENT
REMARK Flexibility Score: 80.00
ROOT
ATOM      1  C   UNL     1      29.963  10.521  30.261  1.00  0.00    -0.067 C 
ATOM      2  C   UNL     1      30.196   9.220  30.008  1.00  0.00    -0.068 C 
ATOM      3  C   UNL     1      30.834   8.556  31.191  1.00  0.00     0.032 C 
ATOM      4  C   UNL     1      30.853   9.616  32.289  1.00  0.00     0.012 C 
ATOM      5  C   UNL     1      30.470  10.934  31.607  1.00  0.00     0.012 C 
ATOM      6  C   UNL     1      31.671  11.876  31.473  1.00  0.00     0.012 C 
ENDROOT
BRANCH   2   7
ATOM      7  C   UNL     1      29.750   8.435  28.771  1.00  0.00     0.012 C 
ATOM      8  C   UNL     1      30.502   7.097  28.662  1.00  0.00     0.012 C 
BRANCH   7   9
ATOM      9  C   UNL     1      29.938   9.233  27.460  1.00  0.00     0.008 CG0
ATOM     10  G   UNL     1      28.793  10.222  27.182  1.00  0.00     0.000 G0
ENDBRANCH   7   9
ENDBRANCH   2   7
BRANCH   1  11
ATOM     11  C   UNL     1      29.301  11.522  29.336  1.00  0.00     0.039 C 
BRANCH  11  12
ATOM     12  C   UNL     1      28.206  10.889  28.454  1.00  0.00     0.018 C 
BRANCH  12  13
ATOM     13  C   UNL     1      28.792  10.225  27.188  1.00  0.00     0.009 CG0
ATOM     14  G   UNL     1      29.941   9.237  27.457  1.00  0.00     0.000 G0
ENDBRANCH  12  13
BRANCH  12  15
ATOM     15  C   UNL     1      27.142  11.911  28.073  1.00  0.00    -0.077 C 
ATOM     16  C   UNL     1      25.902  11.851  28.590  1.00  0.00     0.008 C 
ATOM     17  C   UNL     1      27.488  12.978  27.068  1.00  0.00     0.039 C 
ENDBRANCH  12  15
ENDBRANCH  11  12
ENDBRANCH   1  11
TORSDOF 1
ENDMDL
