MODEL 1
REMARK VINA RESULT:    -4.556      0.000      0.000
REMARK INTER + INTRA:          -4.776
REMARK INTER:                  -5.621
REMARK INTRA:                   0.845
REMARK UNBOUND:                 0.845
REMARK SMILES CC1=CC=CC(C)(C)CC1=O
REMARK SMILES IDX 1 1 2 2 3 3 10 4 11 5 9 6 4 8 5 9 6 10 7 11 8 12
REMARK H PARENT
REMARK Flexibility Score: 80.00
ROOT
ATOM      1  C   UNL     1      -7.614  34.797  25.642  1.00  0.00     0.048 C 
ATOM      2  C   UNL     1      -8.074  34.246  24.312  1.00  0.00    -0.008 C 
ATOM      3  C   UNL     1      -7.592  34.823  23.189  1.00  0.00     0.007 C 
ENDROOT
BRANCH   2   4
ATOM      4  C   UNL     1      -9.069  33.141  24.352  1.00  0.00     0.159 C 
ATOM      5  O   UNL     1      -9.402  32.672  25.476  1.00  0.00    -0.295 OA
BRANCH   4   6
ATOM      6  C   UNL     1      -9.739  32.568  23.140  1.00  0.00     0.091 CG0
ATOM      7  G   UNL     1      -8.758  32.128  22.030  1.00  0.00     0.000 G0
ENDBRANCH   4   6
ENDBRANCH   2   4
BRANCH   3   8
ATOM      8  C   UNL     1      -7.850  34.494  21.770  1.00  0.00    -0.003 C 
ATOM      9  C   UNL     1      -8.318  33.354  21.248  1.00  0.00    -0.020 C 
BRANCH   9  10
ATOM     10  C   UNL     1      -8.762  32.137  22.024  1.00  0.00    -0.010 CG0
ATOM     11  C   UNL     1      -7.534  31.361  22.553  1.00  0.00     0.016 C 
ATOM     12  C   UNL     1      -9.534  31.206  21.061  1.00  0.00     0.016 C 
ATOM     13  G   UNL     1      -9.726  32.570  23.151  1.00  0.00     0.000 G0
ENDBRANCH   9  10
ENDBRANCH   3   8
TORSDOF 0
ENDMDL
MODEL 2
REMARK VINA RESULT:    -4.427      1.760      3.414
REMARK INTER + INTRA:          -4.617
REMARK INTER:                  -5.472
REMARK INTRA:                   0.855
REMARK UNBOUND:                 0.845
REMARK SMILES CC1=CC=CC(C)(C)CC1=O
REMARK SMILES IDX 1 1 2 2 3 3 10 4 11 5 9 6 4 8 5 9 6 10 7 11 8 12
REMARK H PARENT
REMARK Flexibility Score: 80.00
ROOT
ATOM      1  C   UNL     1      -7.849  32.925  20.196  1.00  0.00     0.048 C 
ATOM      2  C   UNL     1      -7.856  33.173  21.688  1.00  0.00    -0.008 C 
ATOM      3  C   UNL     1      -7.948  34.452  22.113  1.00  0.00     0.007 C 
ENDROOT
BRANCH   2   4
ATOM      4  C   UNL     1      -7.704  31.982  22.565  1.00  0.00     0.159 C 
ATOM      5  O   UNL     1      -7.694  30.838  22.032  1.00  0.00    -0.295 OA
BRANCH   4   6
ATOM      6  C   UNL     1      -7.522  32.051  24.052  1.00  0.00     0.091 CG0
ATOM      7  G   UNL     1      -8.603  32.882  24.779  1.00  0.00     0.000 G0
ENDBRANCH   4   6
ENDBRANCH   2   4
BRANCH   3   8
ATOM      8  C   UNL     1      -7.989  34.990  23.492  1.00  0.00    -0.003 C 
ATOM      9  C   UNL     1      -8.289  34.352  24.629  1.00  0.00    -0.020 C 
BRANCH   9  10
ATOM     10  C   UNL     1      -8.597  32.879  24.769  1.00  0.00    -0.010 CG0
ATOM     11  C   UNL     1     -10.023  32.578  24.252  1.00  0.00     0.016 C 
ATOM     12  C   UNL     1      -8.549  32.517  26.271  1.00  0.00     0.016 C 
ATOM     13  G   UNL     1      -7.511  32.057  24.041  1.00  0.00     0.000 G0
ENDBRANCH   9  10
ENDBRANCH   3   8
TORSDOF 0
ENDMDL
MODEL 3
REMARK VINA RESULT:    -4.366      1.701      3.589
REMARK INTER + INTRA:          -4.542
REMARK INTER:                  -5.396
REMARK INTRA:                   0.854
REMARK UNBOUND:                 0.845
REMARK SMILES CC1=CC=CC(C)(C)CC1=O
REMARK SMILES IDX 1 1 2 2 3 3 10 4 11 5 9 6 4 8 5 9 6 10 7 11 8 12
REMARK H PARENT
REMARK Flexibility Score: 80.00
ROOT
ATOM      1  C   UNL     1      -8.558  28.591  22.676  1.00  0.00     0.048 C 
ATOM      2  C   UNL     1      -8.491  30.098  22.583  1.00  0.00    -0.008 C 
ATOM      3  C   UNL     1      -9.070  30.691  21.516  1.00  0.00     0.007 C 
ENDROOT
BRANCH   2   4
ATOM      4  C   UNL     1      -7.739  30.803  23.656  1.00  0.00     0.159 C 
ATOM      5  O   UNL     1      -7.252  30.119  24.598  1.00  0.00    -0.295 OA
BRANCH   4   6
ATOM      6  C   UNL     1      -7.485  32.280  23.674  1.00  0.00     0.091 CG0
ATOM      7  G   UNL     1      -8.749  33.137  23.439  1.00  0.00     0.000 G0
ENDBRANCH   4   6
ENDBRANCH   2   4
BRANCH   3   8
ATOM      8  C   UNL     1      -9.171  32.126  21.169  1.00  0.00    -0.003 C 
ATOM      9  C   UNL     1      -9.064  33.189  21.975  1.00  0.00    -0.020 C 
BRANCH   9  10
ATOM     10  C   UNL     1      -8.738  33.160  23.449  1.00  0.00    -0.010 CG0
ATOM     11  C   UNL     1      -9.966  32.686  24.260  1.00  0.00     0.016 C 
ATOM     12  C   UNL     1      -8.399  34.599  23.897  1.00  0.00     0.016 C 
ATOM     13  G   UNL     1      -7.492  32.277  23.682  1.00  0.00     0.000 G0
ENDBRANCH   9  10
ENDBRANCH   3   8
TORSDOF 0
ENDMDL
MODEL 4
REMARK VINA RESULT:    -4.237      1.690      2.111
REMARK INTER + INTRA:          -4.383
REMARK INTER:                  -5.244
REMARK INTRA:                   0.861
REMARK UNBOUND:                 0.845
REMARK SMILES CC1=CC=CC(C)(C)CC1=O
REMARK SMILES IDX 1 1 2 2 3 3 10 4 11 5 9 6 4 8 5 9 6 10 7 11 8 12
REMARK H PARENT
REMARK Flexibility Score: 80.00
ROOT
ATOM      1  C   UNL     1      -7.355  34.673  24.214  1.00  0.00     0.048 C 
ATOM      2  C   UNL     1      -7.915  33.366  23.701  1.00  0.00    -0.008 C 
ATOM      3  C   UNL     1      -8.059  33.221  22.366  1.00  0.00     0.007 C 
ENDROOT
BRANCH   2   4
ATOM      4  C   UNL     1      -8.313  32.362  24.724  1.00  0.00     0.159 C 
ATOM      5  O   UNL     1      -8.059  32.603  25.937  1.00  0.00    -0.295 OA
BRANCH   4   6
ATOM      6  C   UNL     1      -9.039  31.087  24.413  1.00  0.00     0.091 CG0
ATOM      7  G   UNL     1      -8.361  30.230  23.322  1.00  0.00     0.000 G0
ENDBRANCH   4   6
ENDBRANCH   2   4
BRANCH   3   8
ATOM      8  C   UNL     1      -8.562  32.067  21.588  1.00  0.00    -0.003 C 
ATOM      9  C   UNL     1      -8.665  30.788  21.964  1.00  0.00    -0.020 C 
BRANCH   9  10
ATOM     10  C   UNL     1      -8.344  30.233  23.332  1.00  0.00    -0.010 CG0
ATOM     11  C   UNL     1      -6.813  30.150  23.531  1.00  0.00     0.016 C 
ATOM     12  C   UNL     1      -8.914  28.799  23.417  1.00  0.00     0.016 C 
ATOM     13  G   UNL     1      -9.041  31.092  24.411  1.00  0.00     0.000 G0
ENDBRANCH   9  10
ENDBRANCH   3   8
TORSDOF 0
ENDMDL
MODEL 5
REMARK VINA RESULT:    -4.162      1.791      2.955
REMARK INTER + INTRA:          -4.290
REMARK INTER:                  -5.378
REMARK INTRA:                   1.088
REMARK UNBOUND:                 0.845
REMARK SMILES CC1=CC=CC(C)(C)CC1=O
REMARK SMILES IDX 1 1 2 2 3 3 10 4 11 5 9 6 4 8 5 9 6 10 7 11 8 12
REMARK H PARENT
REMARK Flexibility Score: 80.00
ROOT
ATOM      1  C   UNL     1      -7.578  30.347  26.715  1.00  0.00     0.048 C 
ATOM      2  C   UNL     1      -7.808  30.575  25.238  1.00  0.00    -0.008 C 
ATOM      3  C   UNL     1      -6.898  30.075  24.373  1.00  0.00     0.007 C 
ENDROOT
BRANCH   2   4
ATOM      4  C   UNL     1      -8.997  31.384  24.863  1.00  0.00     0.159 C 
ATOM      5  O   UNL     1      -9.632  31.982  25.776  1.00  0.00    -0.295 OA
BRANCH   4   6
ATOM      6  C   UNL     1      -9.477  31.573  23.454  1.00  0.00     0.091 CG0
ATOM      7  G   UNL     1      -8.395  32.109  22.490  1.00  0.00     0.000 G0
ENDBRANCH   4   6
ENDBRANCH   2   4
BRANCH   3   8
ATOM      8  C   UNL     1      -6.867  30.130  22.895  1.00  0.00    -0.003 C 
ATOM      9  C   UNL     1      -7.519  30.964  22.076  1.00  0.00    -0.020 C 
BRANCH   9  10
ATOM     10  C   UNL     1      -8.407  32.111  22.497  1.00  0.00    -0.010 CG0
ATOM     11  C   UNL     1      -9.012  32.804  21.254  1.00  0.00     0.016 C 
ATOM     12  C   UNL     1      -7.535  33.148  23.241  1.00  0.00     0.016 C 
ATOM     13  G   UNL     1      -9.483  31.595  23.478  1.00  0.00     0.000 G0
ENDBRANCH   9  10
ENDBRANCH   3   8
TORSDOF 0
ENDMDL
MODEL 6
REMARK VINA RESULT:    -4.143      2.091      3.390
REMARK INTER + INTRA:          -4.267
REMARK INTER:                  -5.126
REMARK INTRA:                   0.859
REMARK UNBOUND:                 0.845
REMARK SMILES CC1=CC=CC(C)(C)CC1=O
REMARK SMILES IDX 1 1 2 2 3 3 10 4 11 5 9 6 4 8 5 9 6 10 7 11 8 12
REMARK H PARENT
REMARK Flexibility Score: 80.00
ROOT
ATOM      1  C   UNL     1      -7.569  34.973  22.210  1.00  0.00     0.048 C 
ATOM      2  C   UNL     1      -7.670  34.035  23.392  1.00  0.00    -0.008 C 
ATOM      3  C   UNL     1      -7.755  34.581  24.625  1.00  0.00     0.007 C 
ENDROOT
BRANCH   2   4
ATOM      4  C   UNL     1      -7.612  32.579  23.096  1.00  0.00     0.159 C 
ATOM      5  O   UNL     1      -7.585  32.209  21.889  1.00  0.00    -0.295 OA
BRANCH   4   6
ATOM      6  C   UNL     1      -7.544  31.510  24.146  1.00  0.00     0.091 CG0
ATOM      7  G   UNL     1      -8.653  31.610  25.217  1.00  0.00     0.000 G0
ENDBRANCH   4   6
ENDBRANCH   2   4
BRANCH   3   8
ATOM      8  C   UNL     1      -7.875  33.922  25.945  1.00  0.00    -0.003 C 
ATOM      9  C   UNL     1      -8.282  32.679  26.224  1.00  0.00    -0.020 C 
BRANCH   9  10
ATOM     10  C   UNL     1      -8.658  31.618  25.216  1.00  0.00    -0.010 CG0
ATOM     11  C   UNL     1     -10.048  31.921  24.611  1.00  0.00     0.016 C 
ATOM     12  C   UNL     1      -8.746  30.262  25.953  1.00  0.00     0.016 C 
ATOM     13  G   UNL     1      -7.550  31.512  24.144  1.00  0.00     0.000 G0
ENDBRANCH   9  10
ENDBRANCH   3   8
TORSDOF 0
ENDMDL
MODEL 7
REMARK VINA RESULT:    -4.097      1.805      3.258
REMARK INTER + INTRA:          -4.211
REMARK INTER:                  -5.081
REMARK INTRA:                   0.871
REMARK UNBOUND:                 0.845
REMARK SMILES CC1=CC=CC(C)(C)CC1=O
REMARK SMILES IDX 1 1 2 2 3 3 10 4 11 5 9 6 4 8 5 9 6 10 7 11 8 12
REMARK H PARENT
REMARK Flexibility Score: 80.00
ROOT
ATOM      1  C   UNL     1      -7.099  33.908  20.043  1.00  0.00     0.048 C 
ATOM      2  C   UNL     1      -7.903  33.275  21.157  1.00  0.00    -0.008 C 
ATOM      3  C   UNL     1      -8.572  32.135  20.882  1.00  0.00     0.007 C 
ENDROOT
BRANCH   2   4
ATOM      4  C   UNL     1      -7.932  34.000  22.455  1.00  0.00     0.159 C 
ATOM      5  O   UNL     1      -7.213  35.029  22.588  1.00  0.00    -0.295 OA
BRANCH   4   6
ATOM      6  C   UNL     1      -8.796  33.609  23.617  1.00  0.00     0.091 CG0
ATOM      7  G   UNL     1      -8.638  32.134  24.048  1.00  0.00     0.000 G0
ENDBRANCH   4   6
ENDBRANCH   2   4
BRANCH   3   8
ATOM      8  C   UNL     1      -9.418  31.298  21.763  1.00  0.00    -0.003 C 
ATOM      9  C   UNL     1      -9.444  31.255  23.099  1.00  0.00    -0.020 C 
BRANCH   9  10
ATOM     10  C   UNL     1      -8.638  32.125  24.035  1.00  0.00    -0.010 CG0
ATOM     11  C   UNL     1      -7.162  31.666  24.056  1.00  0.00     0.016 C 
ATOM     12  C   UNL     1      -9.209  31.957  25.461  1.00  0.00     0.016 C 
ATOM     13  G   UNL     1      -8.798  33.605  23.624  1.00  0.00     0.000 G0
ENDBRANCH   9  10
ENDBRANCH   3   8
TORSDOF 0
ENDMDL
MODEL 8
REMARK VINA RESULT:    -4.024      2.215      3.237
REMARK INTER + INTRA:          -4.120
REMARK INTER:                  -5.209
REMARK INTRA:                   1.089
REMARK UNBOUND:                 0.845
REMARK SMILES CC1=CC=CC(C)(C)CC1=O
REMARK SMILES IDX 1 1 2 2 3 3 10 4 11 5 9 6 4 8 5 9 6 10 7 11 8 12
REMARK H PARENT
REMARK Flexibility Score: 80.00
ROOT
ATOM      1  C   UNL     1      -7.389  34.368  23.187  1.00  0.00     0.048 C 
ATOM      2  C   UNL     1      -7.993  32.989  23.325  1.00  0.00    -0.008 C 
ATOM      3  C   UNL     1      -8.342  32.574  24.562  1.00  0.00     0.007 C 
ENDROOT
BRANCH   2   4
ATOM      4  C   UNL     1      -8.101  32.179  22.082  1.00  0.00     0.159 C 
ATOM      5  O   UNL     1      -7.538  32.603  21.035  1.00  0.00    -0.295 OA
BRANCH   4   6
ATOM      6  C   UNL     1      -8.809  30.859  21.998  1.00  0.00     0.091 CG0
ATOM      7  G   UNL     1      -8.314  29.816  23.024  1.00  0.00     0.000 G0
ENDBRANCH   4   6
ENDBRANCH   2   4
BRANCH   3   8
ATOM      8  C   UNL     1      -8.956  31.299  24.995  1.00  0.00    -0.003 C 
ATOM      9  C   UNL     1      -8.987  30.127  24.351  1.00  0.00    -0.020 C 
BRANCH   9  10
ATOM     10  C   UNL     1      -8.323  29.818  23.030  1.00  0.00    -0.010 CG0
ATOM     11  C   UNL     1      -8.621  28.361  22.607  1.00  0.00     0.016 C 
ATOM     12  C   UNL     1      -6.794  29.955  23.215  1.00  0.00     0.016 C 
ATOM     13  G   UNL     1      -8.775  30.852  21.975  1.00  0.00     0.000 G0
ENDBRANCH   9  10
ENDBRANCH   3   8
TORSDOF 0
ENDMDL
MODEL 9
REMARK VINA RESULT:    -3.973      2.031      4.042
REMARK INTER + INTRA:          -4.057
REMARK INTER:                  -5.149
REMARK INTRA:                   1.092
REMARK UNBOUND:                 0.845
REMARK SMILES CC1=CC=CC(C)(C)CC1=O
REMARK SMILES IDX 1 1 2 2 3 3 10 4 11 5 9 6 4 8 5 9 6 10 7 11 8 12
REMARK H PARENT
REMARK Flexibility Score: 80.00
ROOT
ATOM      1  C   UNL     1      -8.997  28.573  21.937  1.00  0.00     0.048 C 
ATOM      2  C   UNL     1      -8.550  29.816  22.673  1.00  0.00    -0.008 C 
ATOM      3  C   UNL     1      -7.954  29.657  23.875  1.00  0.00     0.007 C 
ENDROOT
BRANCH   2   4
ATOM      4  C   UNL     1      -8.855  31.121  22.029  1.00  0.00     0.159 C 
ATOM      5  O   UNL     1      -9.649  31.138  21.047  1.00  0.00    -0.295 OA
BRANCH   4   6
ATOM      6  C   UNL     1      -8.309  32.437  22.496  1.00  0.00     0.091 CG0
ATOM      7  G   UNL     1      -8.634  32.763  23.971  1.00  0.00     0.000 G0
ENDBRANCH   4   6
ENDBRANCH   2   4
BRANCH   3   8
ATOM      8  C   UNL     1      -7.411  30.673  24.804  1.00  0.00    -0.003 C 
ATOM      9  C   UNL     1      -7.663  31.986  24.845  1.00  0.00    -0.020 C 
BRANCH   9  10
ATOM     10  C   UNL     1      -8.639  32.733  23.968  1.00  0.00    -0.010 CG0
ATOM     11  C   UNL     1      -8.592  34.247  24.282  1.00  0.00     0.016 C 
ATOM     12  C   UNL     1     -10.063  32.225  24.290  1.00  0.00     0.016 C 
ATOM     13  G   UNL     1      -8.341  32.421  22.485  1.00  0.00     0.000 G0
ENDBRANCH   9  10
ENDBRANCH   3   8
TORSDOF 0
ENDMDL
