MODEL 1
REMARK VINA RESULT:    -5.463      0.000      0.000
REMARK INTER + INTRA:         -15.520
REMARK INTER:                 -11.850
REMARK INTRA:                  -3.670
REMARK UNBOUND:                -3.670
REMARK SMILES CCCCCCCCCCCCCCCCCCCCCC(=O)[O-]
REMARK SMILES IDX 12 1 11 2 10 3 9 4 8 5 7 6 6 7 5 8 4 9 3 10 2 11 1 12 13 13
REMARK SMILES IDX 14 14 15 15 16 16 17 17 18 18 19 19 20 20 21 21 22 22 23 23
REMARK SMILES IDX 24 24
REMARK H PARENT
REMARK Flexibility Score: inf
ROOT
ATOM      1  C   UNL     1     121.936 178.429 127.775  1.00  0.00     0.000 C 
ENDROOT
BRANCH   1   2
ATOM      2  C   UNL     1     120.890 177.497 128.415  1.00  0.00     0.000 C 
BRANCH   2   3
ATOM      3  C   UNL     1     121.138 177.154 129.899  1.00  0.00     0.000 C 
BRANCH   3   4
ATOM      4  C   UNL     1     120.277 176.004 130.460  1.00  0.00    -0.000 C 
BRANCH   4   5
ATOM      5  C   UNL     1     118.895 176.428 130.992  1.00  0.00    -0.000 C 
BRANCH   5   6
ATOM      6  C   UNL     1     117.920 175.244 131.125  1.00  0.00    -0.000 C 
BRANCH   6   7
ATOM      7  C   UNL     1     117.454 174.704 129.756  1.00  0.00    -0.000 C 
BRANCH   7   8
ATOM      8  C   UNL     1     117.292 175.795 128.679  1.00  0.00    -0.000 C 
BRANCH   8   9
ATOM      9  C   UNL     1     117.071 175.269 127.249  1.00  0.00    -0.000 C 
BRANCH   9  10
ATOM     10  C   UNL     1     117.603 173.847 126.986  1.00  0.00    -0.000 C 
BRANCH  10  11
ATOM     11  C   UNL     1     119.025 173.782 126.402  1.00  0.00    -0.003 C 
ATOM     12  C   UNL     1     120.112 173.807 127.477  1.00  0.00     0.004 C 
ENDBRANCH  10  11
ENDBRANCH   9  10
ENDBRANCH   8   9
ENDBRANCH   7   8
ENDBRANCH   6   7
ENDBRANCH   5   6
ENDBRANCH   4   5
ENDBRANCH   3   4
ENDBRANCH   2   3
ENDBRANCH   1   2
BRANCH   1  13
ATOM     13  C   UNL     1     122.330 177.992 126.354  1.00  0.00     0.000 C 
BRANCH  13  14
ATOM     14  C   UNL     1     121.694 176.653 125.950  1.00  0.00     0.000 C 
BRANCH  14  15
ATOM     15  C   UNL     1     120.983 176.716 124.590  1.00  0.00     0.000 C 
BRANCH  15  16
ATOM     16  C   UNL     1     119.492 177.034 124.770  1.00  0.00     0.000 C 
BRANCH  16  17
ATOM     17  C   UNL     1     119.113 178.442 124.279  1.00  0.00     0.000 C 
BRANCH  17  18
ATOM     18  C   UNL     1     118.717 179.405 125.419  1.00  0.00     0.000 C 
BRANCH  18  19
ATOM     19  C   UNL     1     118.294 178.653 126.689  1.00  0.00     0.000 C 
BRANCH  19  20
ATOM     20  C   UNL     1     116.970 179.197 127.239  1.00  0.00     0.006 C 
BRANCH  20  21
ATOM     21  C   UNL     1     115.991 179.507 126.103  1.00  0.00     0.053 C 
BRANCH  21  22
ATOM     22  C   UNL     1     115.188 178.293 125.754  1.00  0.00     0.041 C 
ATOM     23  O   UNL     1     115.507 177.586 124.760  1.00  0.00    -0.550 OA
ATOM     24  O   UNL     1     114.108 177.921 126.547  1.00  0.00    -0.550 OA
ENDBRANCH  21  22
ENDBRANCH  20  21
ENDBRANCH  19  20
ENDBRANCH  18  19
ENDBRANCH  17  18
ENDBRANCH  16  17
ENDBRANCH  15  16
ENDBRANCH  14  15
ENDBRANCH  13  14
ENDBRANCH   1  13
TORSDOF 20
ENDMDL
MODEL 2
REMARK VINA RESULT:    -5.403      2.693      5.991
REMARK INTER + INTRA:         -15.390
REMARK INTER:                 -11.500
REMARK INTRA:                  -3.890
REMARK UNBOUND:                -3.670
REMARK SMILES CCCCCCCCCCCCCCCCCCCCCC(=O)[O-]
REMARK SMILES IDX 12 1 11 2 10 3 9 4 8 5 7 6 6 7 5 8 4 9 3 10 2 11 1 12 13 13
REMARK SMILES IDX 14 14 15 15 16 16 17 17 18 18 19 19 20 20 21 21 22 22 23 23
REMARK SMILES IDX 24 24
REMARK H PARENT
REMARK Flexibility Score: inf
ROOT
ATOM      1  C   UNL     1     117.909 178.375 124.662  1.00  0.00     0.000 C 
ENDROOT
BRANCH   1   2
ATOM      2  C   UNL     1     118.890 177.233 124.336  1.00  0.00     0.000 C 
BRANCH   2   3
ATOM      3  C   UNL     1     119.079 176.190 125.457  1.00  0.00     0.000 C 
BRANCH   3   4
ATOM      4  C   UNL     1     120.122 175.093 125.164  1.00  0.00    -0.000 C 
BRANCH   4   5
ATOM      5  C   UNL     1     121.519 175.349 125.762  1.00  0.00    -0.000 C 
BRANCH   5   6
ATOM      6  C   UNL     1     122.254 176.515 125.078  1.00  0.00    -0.000 C 
BRANCH   6   7
ATOM      7  C   UNL     1     122.788 177.554 126.088  1.00  0.00    -0.000 C 
BRANCH   7   8
ATOM      8  C   UNL     1     121.680 178.295 126.862  1.00  0.00    -0.000 C 
BRANCH   8   9
ATOM      9  C   UNL     1     121.542 177.893 128.342  1.00  0.00    -0.000 C 
BRANCH   9  10
ATOM     10  C   UNL     1     120.097 177.845 128.874  1.00  0.00    -0.000 C 
BRANCH  10  11
ATOM     11  C   UNL     1     119.951 177.324 130.315  1.00  0.00    -0.003 C 
ATOM     12  C   UNL     1     121.210 176.624 130.826  1.00  0.00     0.004 C 
ENDBRANCH  10  11
ENDBRANCH   9  10
ENDBRANCH   8   9
ENDBRANCH   7   8
ENDBRANCH   6   7
ENDBRANCH   5   6
ENDBRANCH   4   5
ENDBRANCH   3   4
ENDBRANCH   2   3
ENDBRANCH   1   2
BRANCH   1  13
ATOM     13  C   UNL     1     118.128 178.962 126.067  1.00  0.00     0.000 C 
BRANCH  13  14
ATOM     14  C   UNL     1     116.828 179.046 126.881  1.00  0.00     0.000 C 
BRANCH  14  15
ATOM     15  C   UNL     1     115.825 177.940 126.522  1.00  0.00     0.000 C 
BRANCH  15  16
ATOM     16  C   UNL     1     115.542 177.047 127.738  1.00  0.00     0.000 C 
BRANCH  16  17
ATOM     17  C   UNL     1     116.817 176.436 128.346  1.00  0.00     0.000 C 
BRANCH  17  18
ATOM     18  C   UNL     1     116.548 175.566 129.592  1.00  0.00     0.000 C 
BRANCH  18  19
ATOM     19  C   UNL     1     117.639 174.506 129.802  1.00  0.00     0.000 C 
BRANCH  19  20
ATOM     20  C   UNL     1     118.457 174.292 128.523  1.00  0.00     0.006 C 
BRANCH  20  21
ATOM     21  C   UNL     1     119.868 173.795 128.851  1.00  0.00     0.053 C 
BRANCH  21  22
ATOM     22  C   UNL     1     120.037 172.371 128.424  1.00  0.00     0.041 C 
ATOM     23  O   UNL     1     120.991 172.045 127.667  1.00  0.00    -0.550 OA
ATOM     24  O   UNL     1     119.162 171.396 128.892  1.00  0.00    -0.550 OA
ENDBRANCH  21  22
ENDBRANCH  20  21
ENDBRANCH  19  20
ENDBRANCH  18  19
ENDBRANCH  17  18
ENDBRANCH  16  17
ENDBRANCH  15  16
ENDBRANCH  14  15
ENDBRANCH  13  14
ENDBRANCH   1  13
TORSDOF 20
ENDMDL
MODEL 3
REMARK VINA RESULT:    -5.334      2.384      5.647
REMARK INTER + INTRA:         -15.241
REMARK INTER:                 -11.357
REMARK INTRA:                  -3.884
REMARK UNBOUND:                -3.670
REMARK SMILES CCCCCCCCCCCCCCCCCCCCCC(=O)[O-]
REMARK SMILES IDX 12 1 11 2 10 3 9 4 8 5 7 6 6 7 5 8 4 9 3 10 2 11 1 12 13 13
REMARK SMILES IDX 14 14 15 15 16 16 17 17 18 18 19 19 20 20 21 21 22 22 23 23
REMARK SMILES IDX 24 24
REMARK H PARENT
REMARK Flexibility Score: inf
ROOT
ATOM      1  C   UNL     1     121.993 178.665 128.158  1.00  0.00     0.000 C 
ENDROOT
BRANCH   1   2
ATOM      2  C   UNL     1     122.340 178.226 126.723  1.00  0.00     0.000 C 
BRANCH   2   3
ATOM      3  C   UNL     1     121.715 176.888 126.276  1.00  0.00     0.000 C 
BRANCH   3   4
ATOM      4  C   UNL     1     121.921 176.530 124.791  1.00  0.00    -0.000 C 
BRANCH   4   5
ATOM      5  C   UNL     1     120.773 176.956 123.856  1.00  0.00    -0.000 C 
BRANCH   5   6
ATOM      6  C   UNL     1     119.403 176.950 124.556  1.00  0.00    -0.000 C 
BRANCH   6   7
ATOM      7  C   UNL     1     118.619 178.263 124.337  1.00  0.00    -0.000 C 
BRANCH   7   8
ATOM      8  C   UNL     1     118.673 179.227 125.538  1.00  0.00    -0.000 C 
BRANCH   8   9
ATOM      9  C   UNL     1     118.295 178.600 126.892  1.00  0.00    -0.000 C 
BRANCH   9  10
ATOM     10  C   UNL     1     116.789 178.342 127.095  1.00  0.00    -0.000 C 
BRANCH  10  11
ATOM     11  C   UNL     1     116.393 176.859 127.209  1.00  0.00    -0.003 C 
ATOM     12  C   UNL     1     115.744 176.316 125.937  1.00  0.00     0.004 C 
ENDBRANCH  10  11
ENDBRANCH   9  10
ENDBRANCH   8   9
ENDBRANCH   7   8
ENDBRANCH   6   7
ENDBRANCH   5   6
ENDBRANCH   4   5
ENDBRANCH   3   4
ENDBRANCH   2   3
ENDBRANCH   1   2
BRANCH   1  13
ATOM     13  C   UNL     1     121.052 177.677 128.869  1.00  0.00     0.000 C 
BRANCH  13  14
ATOM     14  C   UNL     1     120.967 177.927 130.383  1.00  0.00     0.000 C 
BRANCH  14  15
ATOM     15  C   UNL     1     119.758 177.242 131.035  1.00  0.00     0.000 C 
BRANCH  15  16
ATOM     16  C   UNL     1     118.787 176.720 129.965  1.00  0.00     0.000 C 
BRANCH  16  17
ATOM     17  C   UNL     1     117.992 175.485 130.425  1.00  0.00     0.000 C 
BRANCH  17  18
ATOM     18  C   UNL     1     118.120 174.281 129.467  1.00  0.00     0.000 C 
BRANCH  18  19
ATOM     19  C   UNL     1     119.317 174.423 128.517  1.00  0.00     0.000 C 
BRANCH  19  20
ATOM     20  C   UNL     1     118.900 174.183 127.061  1.00  0.00     0.006 C 
BRANCH  20  21
ATOM     21  C   UNL     1     117.732 173.196 126.982  1.00  0.00     0.053 C 
BRANCH  21  22
ATOM     22  C   UNL     1     118.235 171.798 126.795  1.00  0.00     0.041 C 
ATOM     23  O   UNL     1     118.592 171.114 127.792  1.00  0.00    -0.550 OA
ATOM     24  O   UNL     1     118.277 171.238 125.523  1.00  0.00    -0.550 OA
ENDBRANCH  21  22
ENDBRANCH  20  21
ENDBRANCH  19  20
ENDBRANCH  18  19
ENDBRANCH  17  18
ENDBRANCH  16  17
ENDBRANCH  15  16
ENDBRANCH  14  15
ENDBRANCH  13  14
ENDBRANCH   1  13
TORSDOF 20
ENDMDL
MODEL 4
REMARK VINA RESULT:    -5.257      2.758      5.059
REMARK INTER + INTRA:         -15.075
REMARK INTER:                 -11.503
REMARK INTRA:                  -3.572
REMARK UNBOUND:                -3.670
REMARK SMILES CCCCCCCCCCCCCCCCCCCCCC(=O)[O-]
REMARK SMILES IDX 12 1 11 2 10 3 9 4 8 5 7 6 6 7 5 8 4 9 3 10 2 11 1 12 13 13
REMARK SMILES IDX 14 14 15 15 16 16 17 17 18 18 19 19 20 20 21 21 22 22 23 23
REMARK SMILES IDX 24 24
REMARK H PARENT
REMARK Flexibility Score: inf
ROOT
ATOM      1  C   UNL     1     121.051 176.521 130.028  1.00  0.00     0.000 C 
ENDROOT
BRANCH   1   2
ATOM      2  C   UNL     1     119.842 175.614 130.324  1.00  0.00     0.000 C 
BRANCH   2   3
ATOM      3  C   UNL     1     118.462 176.278 130.140  1.00  0.00     0.000 C 
BRANCH   3   4
ATOM      4  C   UNL     1     117.282 175.302 129.960  1.00  0.00    -0.000 C 
BRANCH   4   5
ATOM      5  C   UNL     1     116.038 175.906 129.282  1.00  0.00    -0.000 C 
BRANCH   5   6
ATOM      6  C   UNL     1     116.185 176.010 127.753  1.00  0.00    -0.000 C 
BRANCH   6   7
ATOM      7  C   UNL     1     116.246 177.472 127.261  1.00  0.00    -0.000 C 
BRANCH   7   8
ATOM      8  C   UNL     1     117.679 177.996 127.045  1.00  0.00    -0.000 C 
BRANCH   8   9
ATOM      9  C   UNL     1     117.781 179.277 126.198  1.00  0.00    -0.000 C 
BRANCH   9  10
ATOM     10  C   UNL     1     118.860 179.251 125.098  1.00  0.00    -0.000 C 
BRANCH  10  11
ATOM     11  C   UNL     1     118.633 178.209 123.989  1.00  0.00    -0.003 C 
ATOM     12  C   UNL     1     119.406 178.523 122.708  1.00  0.00     0.004 C 
ENDBRANCH  10  11
ENDBRANCH   9  10
ENDBRANCH   8   9
ENDBRANCH   7   8
ENDBRANCH   6   7
ENDBRANCH   5   6
ENDBRANCH   4   5
ENDBRANCH   3   4
ENDBRANCH   2   3
ENDBRANCH   1   2
BRANCH   1  13
ATOM     13  C   UNL     1     120.642 177.875 129.422  1.00  0.00     0.000 C 
BRANCH  13  14
ATOM     14  C   UNL     1     121.819 178.602 128.753  1.00  0.00     0.000 C 
BRANCH  14  15
ATOM     15  C   UNL     1     121.623 178.790 127.241  1.00  0.00     0.000 C 
BRANCH  15  16
ATOM     16  C   UNL     1     122.436 177.750 126.454  1.00  0.00     0.000 C 
BRANCH  16  17
ATOM     17  C   UNL     1     121.553 176.765 125.669  1.00  0.00     0.000 C 
BRANCH  17  18
ATOM     18  C   UNL     1     120.697 175.852 126.573  1.00  0.00     0.000 C 
BRANCH  18  19
ATOM     19  C   UNL     1     119.671 175.041 125.768  1.00  0.00     0.000 C 
BRANCH  19  20
ATOM     20  C   UNL     1     118.986 173.988 126.647  1.00  0.00     0.006 C 
BRANCH  20  21
ATOM     21  C   UNL     1     119.382 172.573 126.217  1.00  0.00     0.053 C 
BRANCH  21  22
ATOM     22  C   UNL     1     120.589 172.111 126.972  1.00  0.00     0.041 C 
ATOM     23  O   UNL     1     121.744 172.410 126.565  1.00  0.00    -0.550 OA
ATOM     24  O   UNL     1     120.438 171.381 128.146  1.00  0.00    -0.550 OA
ENDBRANCH  21  22
ENDBRANCH  20  21
ENDBRANCH  19  20
ENDBRANCH  18  19
ENDBRANCH  17  18
ENDBRANCH  16  17
ENDBRANCH  15  16
ENDBRANCH  14  15
ENDBRANCH  13  14
ENDBRANCH   1  13
TORSDOF 20
ENDMDL
MODEL 5
REMARK VINA RESULT:    -5.240      2.698      5.467
REMARK INTER + INTRA:         -15.038
REMARK INTER:                 -11.070
REMARK INTRA:                  -3.968
REMARK UNBOUND:                -3.670
REMARK SMILES CCCCCCCCCCCCCCCCCCCCCC(=O)[O-]
REMARK SMILES IDX 12 1 11 2 10 3 9 4 8 5 7 6 6 7 5 8 4 9 3 10 2 11 1 12 13 13
REMARK SMILES IDX 14 14 15 15 16 16 17 17 18 18 19 19 20 20 21 21 22 22 23 23
REMARK SMILES IDX 24 24
REMARK H PARENT
REMARK Flexibility Score: inf
ROOT
ATOM      1  C   UNL     1     115.053 177.773 126.475  1.00  0.00     0.000 C 
ENDROOT
BRANCH   1   2
ATOM      2  C   UNL     1     115.668 176.492 125.880  1.00  0.00     0.000 C 
BRANCH   2   3
ATOM      3  C   UNL     1     116.460 175.621 126.877  1.00  0.00     0.000 C 
BRANCH   3   4
ATOM      4  C   UNL     1     116.051 175.777 128.355  1.00  0.00    -0.000 C 
BRANCH   4   5
ATOM      5  C   UNL     1     117.213 176.076 129.322  1.00  0.00    -0.000 C 
BRANCH   5   6
ATOM      6  C   UNL     1     118.339 175.030 129.239  1.00  0.00    -0.000 C 
BRANCH   6   7
ATOM      7  C   UNL     1     119.741 175.673 129.174  1.00  0.00    -0.000 C 
BRANCH   7   8
ATOM      8  C   UNL     1     119.735 177.127 128.662  1.00  0.00    -0.000 C 
BRANCH   8   9
ATOM      9  C   UNL     1     120.750 178.060 129.346  1.00  0.00    -0.000 C 
BRANCH   9  10
ATOM     10  C   UNL     1     122.069 178.270 128.576  1.00  0.00    -0.000 C 
BRANCH  10  11
ATOM     11  C   UNL     1     121.903 178.667 127.098  1.00  0.00    -0.003 C 
ATOM     12  C   UNL     1     122.802 177.862 126.160  1.00  0.00     0.004 C 
ENDBRANCH  10  11
ENDBRANCH   9  10
ENDBRANCH   8   9
ENDBRANCH   7   8
ENDBRANCH   6   7
ENDBRANCH   5   6
ENDBRANCH   4   5
ENDBRANCH   3   4
ENDBRANCH   2   3
ENDBRANCH   1   2
BRANCH   1  13
ATOM     13  C   UNL     1     115.856 179.037 126.121  1.00  0.00     0.000 C 
BRANCH  13  14
ATOM     14  C   UNL     1     117.137 179.176 126.958  1.00  0.00     0.000 C 
BRANCH  14  15
ATOM     15  C   UNL     1     118.373 179.507 126.107  1.00  0.00     0.000 C 
BRANCH  15  16
ATOM     16  C   UNL     1     118.333 178.748 124.773  1.00  0.00     0.000 C 
BRANCH  16  17
ATOM     17  C   UNL     1     119.538 177.812 124.576  1.00  0.00     0.000 C 
BRANCH  17  18
ATOM     18  C   UNL     1     119.187 176.317 124.732  1.00  0.00     0.000 C 
BRANCH  18  19
ATOM     19  C   UNL     1     120.345 175.512 125.338  1.00  0.00     0.000 C 
BRANCH  19  20
ATOM     20  C   UNL     1     119.884 174.113 125.762  1.00  0.00     0.006 C 
BRANCH  20  21
ATOM     21  C   UNL     1     120.999 173.369 126.503  1.00  0.00     0.053 C 
BRANCH  21  22
ATOM     22  C   UNL     1     120.452 172.168 127.209  1.00  0.00     0.041 C 
ATOM     23  O   UNL     1     120.170 171.125 126.560  1.00  0.00    -0.550 OA
ATOM     24  O   UNL     1     120.286 172.188 128.590  1.00  0.00    -0.550 OA
ENDBRANCH  21  22
ENDBRANCH  20  21
ENDBRANCH  19  20
ENDBRANCH  18  19
ENDBRANCH  17  18
ENDBRANCH  16  17
ENDBRANCH  15  16
ENDBRANCH  14  15
ENDBRANCH  13  14
ENDBRANCH   1  13
TORSDOF 20
ENDMDL
MODEL 6
REMARK VINA RESULT:    -5.223      2.594      4.712
REMARK INTER + INTRA:         -15.000
REMARK INTER:                 -11.609
REMARK INTRA:                  -3.391
REMARK UNBOUND:                -3.670
REMARK SMILES CCCCCCCCCCCCCCCCCCCCCC(=O)[O-]
REMARK SMILES IDX 12 1 11 2 10 3 9 4 8 5 7 6 6 7 5 8 4 9 3 10 2 11 1 12 13 13
REMARK SMILES IDX 14 14 15 15 16 16 17 17 18 18 19 19 20 20 21 21 22 22 23 23
REMARK SMILES IDX 24 24
REMARK H PARENT
REMARK Flexibility Score: inf
ROOT
ATOM      1  C   UNL     1     120.136 177.464 128.236  1.00  0.00     0.000 C 
ENDROOT
BRANCH   1   2
ATOM      2  C   UNL     1     119.652 177.265 129.685  1.00  0.00     0.000 C 
BRANCH   2   3
ATOM      3  C   UNL     1     119.685 175.809 130.193  1.00  0.00     0.000 C 
BRANCH   3   4
ATOM      4  C   UNL     1     118.323 175.237 130.638  1.00  0.00    -0.000 C 
BRANCH   4   5
ATOM      5  C   UNL     1     117.394 174.805 129.488  1.00  0.00    -0.000 C 
BRANCH   5   6
ATOM      6  C   UNL     1     116.092 175.623 129.435  1.00  0.00    -0.000 C 
BRANCH   6   7
ATOM      7  C   UNL     1     115.959 176.442 128.133  1.00  0.00    -0.000 C 
BRANCH   7   8
ATOM      8  C   UNL     1     116.950 176.022 127.030  1.00  0.00    -0.000 C 
BRANCH   8   9
ATOM      9  C   UNL     1     116.857 176.837 125.728  1.00  0.00    -0.000 C 
BRANCH   9  10
ATOM     10  C   UNL     1     116.307 178.267 125.888  1.00  0.00    -0.000 C 
BRANCH  10  11
ATOM     11  C   UNL     1     117.342 179.316 126.334  1.00  0.00    -0.003 C 
ATOM     12  C   UNL     1     118.620 179.285 125.497  1.00  0.00     0.004 C 
ENDBRANCH  10  11
ENDBRANCH   9  10
ENDBRANCH   8   9
ENDBRANCH   7   8
ENDBRANCH   6   7
ENDBRANCH   5   6
ENDBRANCH   4   5
ENDBRANCH   3   4
ENDBRANCH   2   3
ENDBRANCH   1   2
BRANCH   1  13
ATOM     13  C   UNL     1     121.566 178.025 128.159  1.00  0.00     0.000 C 
BRANCH  13  14
ATOM     14  C   UNL     1     121.982 178.388 126.725  1.00  0.00     0.000 C 
BRANCH  14  15
ATOM     15  C   UNL     1     122.378 177.162 125.890  1.00  0.00     0.000 C 
BRANCH  15  16
ATOM     16  C   UNL     1     121.467 177.024 124.661  1.00  0.00     0.000 C 
BRANCH  16  17
ATOM     17  C   UNL     1     120.479 175.850 124.774  1.00  0.00     0.000 C 
BRANCH  17  18
ATOM     18  C   UNL     1     120.913 174.777 125.795  1.00  0.00     0.000 C 
BRANCH  18  19
ATOM     19  C   UNL     1     119.732 173.916 126.265  1.00  0.00     0.000 C 
BRANCH  19  20
ATOM     20  C   UNL     1     120.217 172.592 126.868  1.00  0.00     0.006 C 
BRANCH  20  21
ATOM     21  C   UNL     1     119.241 171.455 126.551  1.00  0.00     0.053 C 
BRANCH  21  22
ATOM     22  C   UNL     1     118.340 171.194 127.718  1.00  0.00     0.041 C 
ATOM     23  O   UNL     1     118.773 171.325 128.894  1.00  0.00    -0.550 OA
ATOM     24  O   UNL     1     117.012 170.841 127.506  1.00  0.00    -0.550 OA
ENDBRANCH  21  22
ENDBRANCH  20  21
ENDBRANCH  19  20
ENDBRANCH  18  19
ENDBRANCH  17  18
ENDBRANCH  16  17
ENDBRANCH  15  16
ENDBRANCH  14  15
ENDBRANCH  13  14
ENDBRANCH   1  13
TORSDOF 20
ENDMDL
MODEL 7
REMARK VINA RESULT:    -5.218      2.748      6.271
REMARK INTER + INTRA:         -14.988
REMARK INTER:                 -11.435
REMARK INTRA:                  -3.553
REMARK UNBOUND:                -3.670
REMARK SMILES CCCCCCCCCCCCCCCCCCCCCC(=O)[O-]
REMARK SMILES IDX 12 1 11 2 10 3 9 4 8 5 7 6 6 7 5 8 4 9 3 10 2 11 1 12 13 13
REMARK SMILES IDX 14 14 15 15 16 16 17 17 18 18 19 19 20 20 21 21 22 22 23 23
REMARK SMILES IDX 24 24
REMARK H PARENT
REMARK Flexibility Score: inf
ROOT
ATOM      1  C   UNL     1     115.630 179.472 126.251  1.00  0.00     0.000 C 
ENDROOT
BRANCH   1   2
ATOM      2  C   UNL     1     117.108 179.448 126.685  1.00  0.00     0.000 C 
BRANCH   2   3
ATOM      3  C   UNL     1     118.129 179.398 125.530  1.00  0.00     0.000 C 
BRANCH   3   4
ATOM      4  C   UNL     1     119.257 178.359 125.695  1.00  0.00    -0.000 C 
BRANCH   4   5
ATOM      5  C   UNL     1     119.265 177.237 124.640  1.00  0.00    -0.000 C 
BRANCH   5   6
ATOM      6  C   UNL     1     119.523 175.848 125.251  1.00  0.00    -0.000 C 
BRANCH   6   7
ATOM      7  C   UNL     1     120.917 175.292 124.890  1.00  0.00    -0.000 C 
BRANCH   7   8
ATOM      8  C   UNL     1     121.769 176.253 124.038  1.00  0.00    -0.000 C 
BRANCH   8   9
ATOM      9  C   UNL     1     122.961 176.890 124.774  1.00  0.00    -0.000 C 
BRANCH   9  10
ATOM     10  C   UNL     1     122.767 177.084 126.291  1.00  0.00    -0.000 C 
BRANCH  10  11
ATOM     11  C   UNL     1     122.374 178.509 126.718  1.00  0.00    -0.003 C 
ATOM     12  C   UNL     1     121.985 178.604 128.193  1.00  0.00     0.004 C 
ENDBRANCH  10  11
ENDBRANCH   9  10
ENDBRANCH   8   9
ENDBRANCH   7   8
ENDBRANCH   6   7
ENDBRANCH   5   6
ENDBRANCH   4   5
ENDBRANCH   3   4
ENDBRANCH   2   3
ENDBRANCH   1   2
BRANCH   1  13
ATOM     13  C   UNL     1     114.888 178.170 126.599  1.00  0.00     0.000 C 
BRANCH  13  14
ATOM     14  C   UNL     1     115.453 176.952 125.852  1.00  0.00     0.000 C 
BRANCH  14  15
ATOM     15  C   UNL     1     116.235 175.999 126.768  1.00  0.00     0.000 C 
BRANCH  15  16
ATOM     16  C   UNL     1     115.942 176.302 128.245  1.00  0.00     0.000 C 
BRANCH  16  17
ATOM     17  C   UNL     1     117.129 175.988 129.171  1.00  0.00     0.000 C 
BRANCH  17  18
ATOM     18  C   UNL     1     118.430 176.716 128.772  1.00  0.00     0.000 C 
BRANCH  18  19
ATOM     19  C   UNL     1     119.677 175.868 129.056  1.00  0.00     0.000 C 
BRANCH  19  20
ATOM     20  C   UNL     1     119.323 174.379 129.155  1.00  0.00     0.006 C 
BRANCH  20  21
ATOM     21  C   UNL     1     120.185 173.547 128.201  1.00  0.00     0.053 C 
BRANCH  21  22
ATOM     22  C   UNL     1     119.773 172.108 128.238  1.00  0.00     0.041 C 
ATOM     23  O   UNL     1     119.138 171.657 129.230  1.00  0.00    -0.550 OA
ATOM     24  O   UNL     1     120.059 171.274 127.163  1.00  0.00    -0.550 OA
ENDBRANCH  21  22
ENDBRANCH  20  21
ENDBRANCH  19  20
ENDBRANCH  18  19
ENDBRANCH  17  18
ENDBRANCH  16  17
ENDBRANCH  15  16
ENDBRANCH  14  15
ENDBRANCH  13  14
ENDBRANCH   1  13
TORSDOF 20
ENDMDL
MODEL 8
REMARK VINA RESULT:    -5.200      2.345      5.315
REMARK INTER + INTRA:         -14.950
REMARK INTER:                 -10.982
REMARK INTRA:                  -3.968
REMARK UNBOUND:                -3.670
REMARK SMILES CCCCCCCCCCCCCCCCCCCCCC(=O)[O-]
REMARK SMILES IDX 12 1 11 2 10 3 9 4 8 5 7 6 6 7 5 8 4 9 3 10 2 11 1 12 13 13
REMARK SMILES IDX 14 14 15 15 16 16 17 17 18 18 19 19 20 20 21 21 22 22 23 23
REMARK SMILES IDX 24 24
REMARK H PARENT
REMARK Flexibility Score: inf
ROOT
ATOM      1  C   UNL     1     118.231 178.199 124.729  1.00  0.00     0.000 C 
ENDROOT
BRANCH   1   2
ATOM      2  C   UNL     1     118.280 179.167 125.926  1.00  0.00     0.000 C 
BRANCH   2   3
ATOM      3  C   UNL     1     116.928 179.412 126.627  1.00  0.00     0.000 C 
BRANCH   3   4
ATOM      4  C   UNL     1     115.681 179.092 125.779  1.00  0.00    -0.000 C 
BRANCH   4   5
ATOM      5  C   UNL     1     114.680 178.123 126.436  1.00  0.00    -0.000 C 
BRANCH   5   6
ATOM      6  C   UNL     1     115.354 177.151 127.421  1.00  0.00    -0.000 C 
BRANCH   6   7
ATOM      7  C   UNL     1     116.117 176.015 126.706  1.00  0.00    -0.000 C 
BRANCH   7   8
ATOM      8  C   UNL     1     117.338 175.497 127.490  1.00  0.00    -0.000 C 
BRANCH   8   9
ATOM      9  C   UNL     1     117.281 175.732 129.010  1.00  0.00    -0.000 C 
BRANCH   9  10
ATOM     10  C   UNL     1     118.599 176.213 129.648  1.00  0.00    -0.000 C 
BRANCH  10  11
ATOM     11  C   UNL     1     119.063 177.612 129.205  1.00  0.00    -0.003 C 
ATOM     12  C   UNL     1     120.560 177.838 129.412  1.00  0.00     0.004 C 
ENDBRANCH  10  11
ENDBRANCH   9  10
ENDBRANCH   8   9
ENDBRANCH   7   8
ENDBRANCH   6   7
ENDBRANCH   5   6
ENDBRANCH   4   5
ENDBRANCH   3   4
ENDBRANCH   2   3
ENDBRANCH   1   2
BRANCH   1  13
ATOM     13  C   UNL     1     119.602 177.581 124.408  1.00  0.00     0.000 C 
BRANCH  13  14
ATOM     14  C   UNL     1     120.553 177.594 125.615  1.00  0.00     0.000 C 
BRANCH  14  15
ATOM     15  C   UNL     1     120.826 176.191 126.177  1.00  0.00     0.000 C 
BRANCH  15  16
ATOM     16  C   UNL     1     120.240 175.113 125.253  1.00  0.00     0.000 C 
BRANCH  16  17
ATOM     17  C   UNL     1     120.246 173.711 125.886  1.00  0.00     0.000 C 
BRANCH  17  18
ATOM     18  C   UNL     1     120.384 173.730 127.423  1.00  0.00     0.000 C 
BRANCH  18  19
ATOM     19  C   UNL     1     120.096 172.356 128.046  1.00  0.00     0.000 C 
BRANCH  19  20
ATOM     20  C   UNL     1     118.637 172.251 128.505  1.00  0.00     0.006 C 
BRANCH  20  21
ATOM     21  C   UNL     1     117.931 171.077 127.822  1.00  0.00     0.053 C 
BRANCH  21  22
ATOM     22  C   UNL     1     117.538 171.441 126.424  1.00  0.00     0.041 C 
ATOM     23  O   UNL     1     116.685 172.347 126.221  1.00  0.00    -0.550 OA
ATOM     24  O   UNL     1     118.139 170.804 125.344  1.00  0.00    -0.550 OA
ENDBRANCH  21  22
ENDBRANCH  20  21
ENDBRANCH  19  20
ENDBRANCH  18  19
ENDBRANCH  17  18
ENDBRANCH  16  17
ENDBRANCH  15  16
ENDBRANCH  14  15
ENDBRANCH  13  14
ENDBRANCH   1  13
TORSDOF 20
ENDMDL
MODEL 9
REMARK VINA RESULT:    -5.178      1.434      4.430
REMARK INTER + INTRA:         -14.902
REMARK INTER:                 -11.298
REMARK INTRA:                  -3.604
REMARK UNBOUND:                -3.670
REMARK SMILES CCCCCCCCCCCCCCCCCCCCCC(=O)[O-]
REMARK SMILES IDX 12 1 11 2 10 3 9 4 8 5 7 6 6 7 5 8 4 9 3 10 2 11 1 12 13 13
REMARK SMILES IDX 14 14 15 15 16 16 17 17 18 18 19 19 20 20 21 21 22 22 23 23
REMARK SMILES IDX 24 24
REMARK H PARENT
REMARK Flexibility Score: inf
ROOT
ATOM      1  C   UNL     1     119.340 177.891 129.150  1.00  0.00     0.000 C 
ENDROOT
BRANCH   1   2
ATOM      2  C   UNL     1     120.010 177.998 127.767  1.00  0.00     0.000 C 
BRANCH   2   3
ATOM      3  C   UNL     1     121.495 177.581 127.725  1.00  0.00     0.000 C 
BRANCH   3   4
ATOM      4  C   UNL     1     122.343 178.283 126.645  1.00  0.00    -0.000 C 
BRANCH   4   5
ATOM      5  C   UNL     1     122.521 177.486 125.339  1.00  0.00    -0.000 C 
BRANCH   5   6
ATOM      6  C   UNL     1     122.093 176.014 125.478  1.00  0.00    -0.000 C 
BRANCH   6   7
ATOM      7  C   UNL     1     120.768 175.710 124.746  1.00  0.00    -0.000 C 
BRANCH   7   8
ATOM      8  C   UNL     1     119.927 174.606 125.416  1.00  0.00    -0.000 C 
BRANCH   8   9
ATOM      9  C   UNL     1     120.381 174.214 126.834  1.00  0.00    -0.000 C 
BRANCH   9  10
ATOM     10  C   UNL     1     119.546 173.107 127.506  1.00  0.00    -0.000 C 
BRANCH  10  11
ATOM     11  C   UNL     1     119.576 171.744 126.792  1.00  0.00    -0.003 C 
ATOM     12  C   UNL     1     118.310 171.467 125.982  1.00  0.00     0.004 C 
ENDBRANCH  10  11
ENDBRANCH   9  10
ENDBRANCH   8   9
ENDBRANCH   7   8
ENDBRANCH   6   7
ENDBRANCH   5   6
ENDBRANCH   4   5
ENDBRANCH   3   4
ENDBRANCH   2   3
ENDBRANCH   1   2
BRANCH   1  13
ATOM     13  C   UNL     1     120.214 177.154 130.179  1.00  0.00     0.000 C 
BRANCH  13  14
ATOM     14  C   UNL     1     119.760 175.704 130.409  1.00  0.00     0.000 C 
BRANCH  14  15
ATOM     15  C   UNL     1     118.343 175.608 130.994  1.00  0.00     0.000 C 
BRANCH  15  16
ATOM     16  C   UNL     1     117.402 174.884 130.020  1.00  0.00     0.000 C 
BRANCH  16  17
ATOM     17  C   UNL     1     116.067 175.620 129.813  1.00  0.00     0.000 C 
BRANCH  17  18
ATOM     18  C   UNL     1     115.984 176.377 128.470  1.00  0.00     0.000 C 
BRANCH  18  19
ATOM     19  C   UNL     1     116.925 175.781 127.413  1.00  0.00     0.000 C 
BRANCH  19  20
ATOM     20  C   UNL     1     116.415 176.066 125.995  1.00  0.00     0.006 C 
BRANCH  20  21
ATOM     21  C   UNL     1     117.155 177.255 125.375  1.00  0.00     0.053 C 
BRANCH  21  22
ATOM     22  C   UNL     1     116.414 178.530 125.635  1.00  0.00     0.041 C 
ATOM     23  O   UNL     1     115.272 178.713 125.133  1.00  0.00    -0.550 OA
ATOM     24  O   UNL     1     116.969 179.502 126.460  1.00  0.00    -0.550 OA
ENDBRANCH  21  22
ENDBRANCH  20  21
ENDBRANCH  19  20
ENDBRANCH  18  19
ENDBRANCH  17  18
ENDBRANCH  16  17
ENDBRANCH  15  16
ENDBRANCH  14  15
ENDBRANCH  13  14
ENDBRANCH   1  13
TORSDOF 20
ENDMDL
