MODEL 1
REMARK VINA RESULT:     0.439      0.000      0.000
REMARK INTER + INTRA:          -0.432
REMARK INTER:                   0.849
REMARK INTRA:                  -1.281
REMARK UNBOUND:                -1.281
REMARK SMILES CCCCCCCCCCCCCCCCCC(=O)[O-]
REMARK SMILES IDX 10 1 11 2 12 3 13 4 14 5 15 6 16 7 17 8 18 9 19 10 20 11
REMARK SMILES IDX 9 12 8 13 7 14 6 15 5 16 4 17 3 18 2 19 1 20
REMARK H PARENT
REMARK Flexibility Score: inf
ROOT
ATOM      1  C   UNL     1      -4.344  35.369  22.175  1.00  0.00     0.000 C 
ENDROOT
BRANCH   1   2
ATOM      2  C   UNL     1      -5.830  35.061  22.412  1.00  0.00     0.000 C 
BRANCH   2   3
ATOM      3  C   UNL     1      -6.069  34.155  23.634  1.00  0.00     0.000 C 
BRANCH   3   4
ATOM      4  C   UNL     1      -5.776  34.807  24.998  1.00  0.00     0.000 C 
BRANCH   4   5
ATOM      5  C   UNL     1      -6.124  36.305  25.033  1.00  0.00     0.000 C 
BRANCH   5   6
ATOM      6  C   UNL     1      -4.901  37.188  25.332  1.00  0.00     0.000 C 
BRANCH   6   7
ATOM      7  C   UNL     1      -4.985  38.566  24.655  1.00  0.00     0.006 C 
BRANCH   7   8
ATOM      8  C   UNL     1      -6.005  38.586  23.509  1.00  0.00     0.053 C 
BRANCH   8   9
ATOM      9  C   UNL     1      -5.434  39.197  22.265  1.00  0.00     0.041 C 
ATOM     10  O   UNL     1      -4.676  40.199  22.341  1.00  0.00    -0.550 OA
ATOM     11  O   UNL     1      -5.766  38.677  21.021  1.00  0.00    -0.550 OA
ENDBRANCH   8   9
ENDBRANCH   7   8
ENDBRANCH   6   7
ENDBRANCH   5   6
ENDBRANCH   4   5
ENDBRANCH   3   4
ENDBRANCH   2   3
ENDBRANCH   1   2
BRANCH   1  12
ATOM     12  C   UNL     1      -3.923  34.974  20.751  1.00  0.00     0.000 C 
BRANCH  12  13
ATOM     13  C   UNL     1      -4.879  35.513  19.673  1.00  0.00    -0.000 C 
BRANCH  13  14
ATOM     14  C   UNL     1      -4.921  34.691  18.369  1.00  0.00    -0.000 C 
BRANCH  14  15
ATOM     15  C   UNL     1      -3.659  34.796  17.491  1.00  0.00    -0.000 C 
BRANCH  15  16
ATOM     16  C   UNL     1      -3.914  35.250  16.040  1.00  0.00    -0.000 C 
BRANCH  16  17
ATOM     17  C   UNL     1      -2.665  35.748  15.286  1.00  0.00    -0.000 C 
BRANCH  17  18
ATOM     18  C   UNL     1      -2.953  36.535  13.992  1.00  0.00    -0.000 C 
BRANCH  18  19
ATOM     19  C   UNL     1      -4.335  37.208  13.938  1.00  0.00    -0.003 C 
ATOM     20  C   UNL     1      -4.326  38.632  14.494  1.00  0.00     0.004 C 
ENDBRANCH  18  19
ENDBRANCH  17  18
ENDBRANCH  16  17
ENDBRANCH  15  16
ENDBRANCH  14  15
ENDBRANCH  13  14
ENDBRANCH  12  13
ENDBRANCH   1  12
TORSDOF 16
ENDMDL
MODEL 2
REMARK VINA RESULT:     1.137      2.633      7.390
REMARK INTER + INTRA:           0.920
REMARK INTER:                   1.924
REMARK INTRA:                  -1.004
REMARK UNBOUND:                -1.281
REMARK SMILES CCCCCCCCCCCCCCCCCC(=O)[O-]
REMARK SMILES IDX 10 1 11 2 12 3 13 4 14 5 15 6 16 7 17 8 18 9 19 10 20 11
REMARK SMILES IDX 9 12 8 13 7 14 6 15 5 16 4 17 3 18 2 19 1 20
REMARK H PARENT
REMARK Flexibility Score: inf
ROOT
ATOM      1  C   UNL     1      -4.789  35.576  22.767  1.00  0.00     0.000 C 
ENDROOT
BRANCH   1   2
ATOM      2  C   UNL     1      -4.465  34.689  21.556  1.00  0.00     0.000 C 
BRANCH   2   3
ATOM      3  C   UNL     1      -4.962  35.282  20.225  1.00  0.00     0.000 C 
BRANCH   3   4
ATOM      4  C   UNL     1      -5.689  34.289  19.299  1.00  0.00     0.000 C 
BRANCH   4   5
ATOM      5  C   UNL     1      -5.204  34.363  17.842  1.00  0.00     0.000 C 
BRANCH   5   6
ATOM      6  C   UNL     1      -3.989  35.292  17.672  1.00  0.00     0.000 C 
BRANCH   6   7
ATOM      7  C   UNL     1      -3.330  35.157  16.289  1.00  0.00     0.006 C 
BRANCH   7   8
ATOM      8  C   UNL     1      -4.167  35.812  15.183  1.00  0.00     0.053 C 
BRANCH   8   9
ATOM      9  C   UNL     1      -3.377  36.822  14.409  1.00  0.00     0.041 C 
ATOM     10  O   UNL     1      -3.864  37.956  14.163  1.00  0.00    -0.550 OA
ATOM     11  O   UNL     1      -2.112  36.499  13.933  1.00  0.00    -0.550 OA
ENDBRANCH   8   9
ENDBRANCH   7   8
ENDBRANCH   6   7
ENDBRANCH   5   6
ENDBRANCH   4   5
ENDBRANCH   3   4
ENDBRANCH   2   3
ENDBRANCH   1   2
BRANCH   1  12
ATOM     12  C   UNL     1      -6.008  35.036  23.531  1.00  0.00     0.000 C 
BRANCH  12  13
ATOM     13  C   UNL     1      -5.910  35.263  25.050  1.00  0.00    -0.000 C 
BRANCH  13  14
ATOM     14  C   UNL     1      -6.125  36.720  25.506  1.00  0.00    -0.000 C 
BRANCH  14  15
ATOM     15  C   UNL     1      -4.836  37.546  25.684  1.00  0.00    -0.000 C 
BRANCH  15  16
ATOM     16  C   UNL     1      -4.761  38.826  24.828  1.00  0.00    -0.000 C 
BRANCH  16  17
ATOM     17  C   UNL     1      -5.709  38.851  23.613  1.00  0.00    -0.000 C 
BRANCH  17  18
ATOM     18  C   UNL     1      -5.435  39.974  22.593  1.00  0.00    -0.000 C 
BRANCH  18  19
ATOM     19  C   UNL     1      -6.006  39.724  21.186  1.00  0.00    -0.003 C 
ATOM     20  C   UNL     1      -5.494  38.428  20.558  1.00  0.00     0.004 C 
ENDBRANCH  18  19
ENDBRANCH  17  18
ENDBRANCH  16  17
ENDBRANCH  15  16
ENDBRANCH  14  15
ENDBRANCH  13  14
ENDBRANCH  12  13
ENDBRANCH   1  12
TORSDOF 16
ENDMDL
MODEL 3
REMARK VINA RESULT:     2.198      2.827      7.610
REMARK INTER + INTRA:           2.974
REMARK INTER:                   2.794
REMARK INTRA:                   0.180
REMARK UNBOUND:                -1.281
REMARK SMILES CCCCCCCCCCCCCCCCCC(=O)[O-]
REMARK SMILES IDX 10 1 11 2 12 3 13 4 14 5 15 6 16 7 17 8 18 9 19 10 20 11
REMARK SMILES IDX 9 12 8 13 7 14 6 15 5 16 4 17 3 18 2 19 1 20
REMARK H PARENT
REMARK Flexibility Score: inf
ROOT
ATOM      1  C   UNL     1      -5.238  39.721  21.423  1.00  0.00     0.000 C 
ENDROOT
BRANCH   1   2
ATOM      2  C   UNL     1      -5.970  38.767  20.468  1.00  0.00     0.000 C 
BRANCH   2   3
ATOM      3  C   UNL     1      -5.026  37.766  19.778  1.00  0.00     0.000 C 
BRANCH   3   4
ATOM      4  C   UNL     1      -5.459  36.291  19.870  1.00  0.00     0.000 C 
BRANCH   4   5
ATOM      5  C   UNL     1      -4.354  35.314  19.432  1.00  0.00     0.000 C 
BRANCH   5   6
ATOM      6  C   UNL     1      -4.600  34.739  18.026  1.00  0.00     0.000 C 
BRANCH   6   7
ATOM      7  C   UNL     1      -4.260  35.741  16.909  1.00  0.00     0.006 C 
BRANCH   7   8
ATOM      8  C   UNL     1      -3.326  35.134  15.854  1.00  0.00     0.053 C 
BRANCH   8   9
ATOM      9  C   UNL     1      -3.093  36.073  14.710  1.00  0.00     0.041 C 
ATOM     10  O   UNL     1      -4.065  36.650  14.155  1.00  0.00    -0.550 OA
ATOM     11  O   UNL     1      -1.805  36.286  14.236  1.00  0.00    -0.550 OA
ENDBRANCH   8   9
ENDBRANCH   7   8
ENDBRANCH   6   7
ENDBRANCH   5   6
ENDBRANCH   4   5
ENDBRANCH   3   4
ENDBRANCH   2   3
ENDBRANCH   1   2
BRANCH   1  12
ATOM     12  C   UNL     1      -5.915  39.743  22.803  1.00  0.00     0.000 C 
BRANCH  12  13
ATOM     13  C   UNL     1      -6.058  38.341  23.422  1.00  0.00    -0.000 C 
BRANCH  13  14
ATOM     14  C   UNL     1      -5.314  38.140  24.757  1.00  0.00    -0.000 C 
BRANCH  14  15
ATOM     15  C   UNL     1      -5.874  37.020  25.654  1.00  0.00    -0.000 C 
BRANCH  15  16
ATOM     16  C   UNL     1      -6.125  35.678  24.937  1.00  0.00    -0.000 C 
BRANCH  16  17
ATOM     17  C   UNL     1      -5.661  35.629  23.468  1.00  0.00    -0.000 C 
BRANCH  17  18
ATOM     18  C   UNL     1      -5.521  34.214  22.873  1.00  0.00    -0.000 C 
BRANCH  18  19
ATOM     19  C   UNL     1      -4.094  33.640  22.901  1.00  0.00    -0.003 C 
ATOM     20  C   UNL     1      -3.331  33.878  21.598  1.00  0.00     0.004 C 
ENDBRANCH  18  19
ENDBRANCH  17  18
ENDBRANCH  16  17
ENDBRANCH  15  16
ENDBRANCH  14  15
ENDBRANCH  13  14
ENDBRANCH  12  13
ENDBRANCH   1  12
TORSDOF 16
ENDMDL
MODEL 4
REMARK VINA RESULT:     2.629      2.769      8.249
REMARK INTER + INTRA:           3.807
REMARK INTER:                   2.579
REMARK INTRA:                   1.228
REMARK UNBOUND:                -1.281
REMARK SMILES CCCCCCCCCCCCCCCCCC(=O)[O-]
REMARK SMILES IDX 10 1 11 2 12 3 13 4 14 5 15 6 16 7 17 8 18 9 19 10 20 11
REMARK SMILES IDX 9 12 8 13 7 14 6 15 5 16 4 17 3 18 2 19 1 20
REMARK H PARENT
REMARK Flexibility Score: inf
ROOT
ATOM      1  C   UNL     1      -5.116  39.141  21.477  1.00  0.00     0.000 C 
ENDROOT
BRANCH   1   2
ATOM      2  C   UNL     1      -5.810  38.530  20.251  1.00  0.00     0.000 C 
BRANCH   2   3
ATOM      3  C   UNL     1      -4.967  37.440  19.564  1.00  0.00     0.000 C 
BRANCH   3   4
ATOM      4  C   UNL     1      -5.407  35.994  19.856  1.00  0.00     0.000 C 
BRANCH   4   5
ATOM      5  C   UNL     1      -4.372  34.950  19.403  1.00  0.00     0.000 C 
BRANCH   5   6
ATOM      6  C   UNL     1      -4.676  34.386  18.005  1.00  0.00     0.000 C 
BRANCH   6   7
ATOM      7  C   UNL     1      -4.476  35.427  16.890  1.00  0.00     0.006 C 
BRANCH   7   8
ATOM      8  C   UNL     1      -3.139  35.241  16.159  1.00  0.00     0.053 C 
BRANCH   8   9
ATOM      9  C   UNL     1      -3.051  36.097  14.933  1.00  0.00     0.041 C 
ATOM     10  O   UNL     1      -2.018  36.071  14.214  1.00  0.00    -0.550 OA
ATOM     11  O   UNL     1      -4.098  36.947  14.601  1.00  0.00    -0.550 OA
ENDBRANCH   8   9
ENDBRANCH   7   8
ENDBRANCH   6   7
ENDBRANCH   5   6
ENDBRANCH   4   5
ENDBRANCH   3   4
ENDBRANCH   2   3
ENDBRANCH   1   2
BRANCH   1  12
ATOM     12  C   UNL     1      -6.106  39.313  22.640  1.00  0.00     0.000 C 
BRANCH  12  13
ATOM     13  C   UNL     1      -6.009  38.184  23.680  1.00  0.00    -0.000 C 
BRANCH  13  14
ATOM     14  C   UNL     1      -6.125  36.758  23.106  1.00  0.00    -0.000 C 
BRANCH  14  15
ATOM     15  C   UNL     1      -5.697  35.631  24.066  1.00  0.00    -0.000 C 
BRANCH  15  16
ATOM     16  C   UNL     1      -5.933  35.926  25.561  1.00  0.00    -0.000 C 
BRANCH  16  17
ATOM     17  C   UNL     1      -5.676  37.386  25.983  1.00  0.00    -0.000 C 
BRANCH  17  18
ATOM     18  C   UNL     1      -4.204  37.839  25.907  1.00  0.00    -0.000 C 
BRANCH  18  19
ATOM     19  C   UNL     1      -3.226  37.006  26.754  1.00  0.00    -0.003 C 
ATOM     20  C   UNL     1      -1.919  37.741  27.049  1.00  0.00     0.004 C 
ENDBRANCH  18  19
ENDBRANCH  17  18
ENDBRANCH  16  17
ENDBRANCH  15  16
ENDBRANCH  14  15
ENDBRANCH  13  14
ENDBRANCH  12  13
ENDBRANCH   1  12
TORSDOF 16
ENDMDL
MODEL 5
REMARK VINA RESULT:     2.681      2.492      3.050
REMARK INTER + INTRA:           3.908
REMARK INTER:                   3.651
REMARK INTRA:                   0.257
REMARK UNBOUND:                -1.281
REMARK SMILES CCCCCCCCCCCCCCCCCC(=O)[O-]
REMARK SMILES IDX 10 1 11 2 12 3 13 4 14 5 15 6 16 7 17 8 18 9 19 10 20 11
REMARK SMILES IDX 9 12 8 13 7 14 6 15 5 16 4 17 3 18 2 19 1 20
REMARK H PARENT
REMARK Flexibility Score: inf
ROOT
ATOM      1  C   UNL     1      -5.811  36.895  21.618  1.00  0.00     0.000 C 
ENDROOT
BRANCH   1   2
ATOM      2  C   UNL     1      -5.701  35.388  21.888  1.00  0.00     0.000 C 
BRANCH   2   3
ATOM      3  C   UNL     1      -6.124  35.000  23.316  1.00  0.00     0.000 C 
BRANCH   3   4
ATOM      4  C   UNL     1      -5.279  35.627  24.441  1.00  0.00     0.000 C 
BRANCH   4   5
ATOM      5  C   UNL     1      -6.123  36.429  25.446  1.00  0.00     0.000 C 
BRANCH   5   6
ATOM      6  C   UNL     1      -5.708  37.909  25.515  1.00  0.00     0.000 C 
BRANCH   6   7
ATOM      7  C   UNL     1      -4.269  38.097  26.027  1.00  0.00     0.006 C 
BRANCH   7   8
ATOM      8  C   UNL     1      -3.549  36.758  26.234  1.00  0.00     0.053 C 
BRANCH   8   9
ATOM      9  C   UNL     1      -2.373  36.894  27.151  1.00  0.00     0.041 C 
ATOM     10  O   UNL     1      -1.652  37.926  27.111  1.00  0.00    -0.550 OA
ATOM     11  O   UNL     1      -2.054  35.866  28.029  1.00  0.00    -0.550 OA
ENDBRANCH   8   9
ENDBRANCH   7   8
ENDBRANCH   6   7
ENDBRANCH   5   6
ENDBRANCH   4   5
ENDBRANCH   3   4
ENDBRANCH   2   3
ENDBRANCH   1   2
BRANCH   1  12
ATOM     12  C   UNL     1      -5.503  37.214  20.147  1.00  0.00     0.000 C 
BRANCH  12  13
ATOM     13  C   UNL     1      -5.632  35.986  19.229  1.00  0.00    -0.000 C 
BRANCH  13  14
ATOM     14  C   UNL     1      -4.327  35.192  19.016  1.00  0.00    -0.000 C 
BRANCH  14  15
ATOM     15  C   UNL     1      -4.218  34.467  17.660  1.00  0.00    -0.000 C 
BRANCH  15  16
ATOM     16  C   UNL     1      -4.146  35.395  16.431  1.00  0.00    -0.000 C 
BRANCH  16  17
ATOM     17  C   UNL     1      -2.765  35.467  15.750  1.00  0.00    -0.000 C 
BRANCH  17  18
ATOM     18  C   UNL     1      -2.664  36.468  14.582  1.00  0.00    -0.000 C 
BRANCH  18  19
ATOM     19  C   UNL     1      -4.014  36.958  14.031  1.00  0.00    -0.003 C 
ATOM     20  C   UNL     1      -4.242  38.452  14.257  1.00  0.00     0.004 C 
ENDBRANCH  18  19
ENDBRANCH  17  18
ENDBRANCH  16  17
ENDBRANCH  15  16
ENDBRANCH  14  15
ENDBRANCH  13  14
ENDBRANCH  12  13
ENDBRANCH   1  12
TORSDOF 16
ENDMDL
MODEL 6
REMARK VINA RESULT:     2.931      2.446      7.629
REMARK INTER + INTRA:           4.392
REMARK INTER:                   5.360
REMARK INTRA:                  -0.968
REMARK UNBOUND:                -1.281
REMARK SMILES CCCCCCCCCCCCCCCCCC(=O)[O-]
REMARK SMILES IDX 10 1 11 2 12 3 13 4 14 5 15 6 16 7 17 8 18 9 19 10 20 11
REMARK SMILES IDX 9 12 8 13 7 14 6 15 5 16 4 17 3 18 2 19 1 20
REMARK H PARENT
REMARK Flexibility Score: inf
ROOT
ATOM      1  C   UNL     1      -6.123  35.656  21.699  1.00  0.00     0.000 C 
ENDROOT
BRANCH   1   2
ATOM      2  C   UNL     1      -5.980  35.168  20.250  1.00  0.00     0.000 C 
BRANCH   2   3
ATOM      3  C   UNL     1      -4.603  35.491  19.640  1.00  0.00     0.000 C 
BRANCH   3   4
ATOM      4  C   UNL     1      -4.290  34.770  18.316  1.00  0.00     0.000 C 
BRANCH   4   5
ATOM      5  C   UNL     1      -4.132  35.738  17.131  1.00  0.00     0.000 C 
BRANCH   5   6
ATOM      6  C   UNL     1      -3.505  35.064  15.899  1.00  0.00     0.000 C 
BRANCH   6   7
ATOM      7  C   UNL     1      -2.355  35.888  15.293  1.00  0.00     0.006 C 
BRANCH   7   8
ATOM      8  C   UNL     1      -2.772  36.597  13.998  1.00  0.00     0.053 C 
BRANCH   8   9
ATOM      9  C   UNL     1      -4.034  37.385  14.175  1.00  0.00     0.041 C 
ATOM     10  O   UNL     1      -3.991  38.561  14.622  1.00  0.00    -0.550 OA
ATOM     11  O   UNL     1      -5.261  36.808  13.875  1.00  0.00    -0.550 OA
ENDBRANCH   8   9
ENDBRANCH   7   8
ENDBRANCH   6   7
ENDBRANCH   5   6
ENDBRANCH   4   5
ENDBRANCH   3   4
ENDBRANCH   2   3
ENDBRANCH   1   2
BRANCH   1  12
ATOM     12  C   UNL     1      -4.907  35.240  22.541  1.00  0.00     0.000 C 
BRANCH  12  13
ATOM     13  C   UNL     1      -5.300  34.598  23.883  1.00  0.00    -0.000 C 
BRANCH  13  14
ATOM     14  C   UNL     1      -6.125  35.502  24.821  1.00  0.00    -0.000 C 
BRANCH  14  15
ATOM     15  C   UNL     1      -5.471  36.854  25.166  1.00  0.00    -0.000 C 
BRANCH  15  16
ATOM     16  C   UNL     1      -6.088  38.075  24.455  1.00  0.00    -0.000 C 
BRANCH  16  17
ATOM     17  C   UNL     1      -5.171  39.311  24.371  1.00  0.00    -0.000 C 
BRANCH  17  18
ATOM     18  C   UNL     1      -4.765  39.728  22.944  1.00  0.00    -0.000 C 
BRANCH  18  19
ATOM     19  C   UNL     1      -5.929  40.186  22.048  1.00  0.00    -0.003 C 
ATOM     20  C   UNL     1      -6.066  39.350  20.776  1.00  0.00     0.004 C 
ENDBRANCH  18  19
ENDBRANCH  17  18
ENDBRANCH  16  17
ENDBRANCH  15  16
ENDBRANCH  14  15
ENDBRANCH  13  14
ENDBRANCH  12  13
ENDBRANCH   1  12
TORSDOF 16
ENDMDL
MODEL 7
REMARK VINA RESULT:     3.353      3.825      4.814
REMARK INTER + INTRA:           5.209
REMARK INTER:                   5.950
REMARK INTRA:                  -0.742
REMARK UNBOUND:                -1.281
REMARK SMILES CCCCCCCCCCCCCCCCCC(=O)[O-]
REMARK SMILES IDX 10 1 11 2 12 3 13 4 14 5 15 6 16 7 17 8 18 9 19 10 20 11
REMARK SMILES IDX 9 12 8 13 7 14 6 15 5 16 4 17 3 18 2 19 1 20
REMARK H PARENT
REMARK Flexibility Score: inf
ROOT
ATOM      1  C   UNL     1      -5.562  34.639  23.826  1.00  0.00     0.000 C 
ENDROOT
BRANCH   1   2
ATOM      2  C   UNL     1      -6.089  35.444  25.023  1.00  0.00     0.000 C 
BRANCH   2   3
ATOM      3  C   UNL     1      -5.896  36.963  24.858  1.00  0.00     0.000 C 
BRANCH   3   4
ATOM      4  C   UNL     1      -4.954  37.617  25.886  1.00  0.00     0.000 C 
BRANCH   4   5
ATOM      5  C   UNL     1      -3.764  36.718  26.264  1.00  0.00     0.000 C 
BRANCH   5   6
ATOM      6  C   UNL     1      -2.658  37.487  27.006  1.00  0.00     0.000 C 
BRANCH   6   7
ATOM      7  C   UNL     1      -1.665  36.553  27.721  1.00  0.00     0.006 C 
BRANCH   7   8
ATOM      8  C   UNL     1      -2.300  35.205  28.085  1.00  0.00     0.053 C 
BRANCH   8   9
ATOM      9  C   UNL     1      -1.534  34.501  29.164  1.00  0.00     0.041 C 
ATOM     10  O   UNL     1      -2.088  34.232  30.262  1.00  0.00    -0.550 OA
ATOM     11  O   UNL     1      -0.200  34.171  28.967  1.00  0.00    -0.550 OA
ENDBRANCH   8   9
ENDBRANCH   7   8
ENDBRANCH   6   7
ENDBRANCH   5   6
ENDBRANCH   4   5
ENDBRANCH   3   4
ENDBRANCH   2   3
ENDBRANCH   1   2
BRANCH   1  12
ATOM     12  C   UNL     1      -6.098  35.208  22.503  1.00  0.00     0.000 C 
BRANCH  12  13
ATOM     13  C   UNL     1      -5.024  35.282  21.404  1.00  0.00    -0.000 C 
BRANCH  13  14
ATOM     14  C   UNL     1      -5.304  36.307  20.287  1.00  0.00    -0.000 C 
BRANCH  14  15
ATOM     15  C   UNL     1      -5.431  35.712  18.871  1.00  0.00    -0.000 C 
BRANCH  15  16
ATOM     16  C   UNL     1      -4.142  35.073  18.318  1.00  0.00    -0.000 C 
BRANCH  16  17
ATOM     17  C   UNL     1      -4.140  34.825  16.797  1.00  0.00    -0.000 C 
BRANCH  17  18
ATOM     18  C   UNL     1      -3.095  35.634  16.003  1.00  0.00    -0.000 C 
BRANCH  18  19
ATOM     19  C   UNL     1      -3.501  35.974  14.558  1.00  0.00    -0.003 C 
ATOM     20  C   UNL     1      -3.951  37.425  14.392  1.00  0.00     0.004 C 
ENDBRANCH  18  19
ENDBRANCH  17  18
ENDBRANCH  16  17
ENDBRANCH  15  16
ENDBRANCH  14  15
ENDBRANCH  13  14
ENDBRANCH  12  13
ENDBRANCH   1  12
TORSDOF 16
ENDMDL
