MODEL 1
REMARK VINA RESULT:    -5.154      0.000      0.000
REMARK INTER + INTRA:          -6.184
REMARK INTER:                  -6.057
REMARK INTRA:                  -0.127
REMARK UNBOUND:                -0.127
REMARK SMILES O=C([O-])C=Cc1ccc(O)c(O)c1
REMARK SMILES IDX 6 1 13 2 7 3 11 4 8 5 9 6 5 7 4 8 2 9 1 10 3 11 12 12 10 14
REMARK H PARENT 12 13 10 15
REMARK Flexibility Score: inf
ROOT
ATOM      1  C   UNL     1      21.014   0.244 -18.823  1.00  0.00    -0.022 A 
ATOM      2  C   UNL     1      21.467   1.032 -19.901  1.00  0.00     0.058 A 
ATOM      3  C   UNL     1      20.509  -1.040 -19.085  1.00  0.00     0.012 A 
ATOM      4  C   UNL     1      21.391   0.549 -21.216  1.00  0.00     0.157 A 
ATOM      5  C   UNL     1      20.433  -1.520 -20.395  1.00  0.00     0.051 A 
ATOM      6  C   UNL     1      20.869  -0.728 -21.463  1.00  0.00     0.157 A 
ENDROOT
BRANCH   1   7
ATOM      7  C   UNL     1      21.084   0.705 -17.414  1.00  0.00     0.010 C 
ATOM      8  C   UNL     1      22.226   1.038 -16.794  1.00  0.00     0.025 C 
BRANCH   8   9
ATOM      9  C   UNL     1      22.255   1.503 -15.397  1.00  0.00     0.064 C 
ATOM     10  O   UNL     1      21.257   1.360 -14.641  1.00  0.00    -0.545 OA
ATOM     11  O   UNL     1      23.403   2.107 -14.903  1.00  0.00    -0.545 OA
ENDBRANCH   8   9
ENDBRANCH   1   7
BRANCH   4  12
ATOM     12  O   UNL     1      21.836   1.328 -22.282  1.00  0.00    -0.504 OA
ATOM     13  H   UNL     1      21.187   1.760 -22.931  1.00  0.00     0.293 HD
ENDBRANCH   4  12
BRANCH   6  14
ATOM     14  O   UNL     1      20.793  -1.202 -22.772  1.00  0.00    -0.504 OA
ATOM     15  H   UNL     1      20.109  -1.898 -23.044  1.00  0.00     0.293 HD
ENDBRANCH   6  14
TORSDOF 4
ENDMDL
MODEL 2
REMARK VINA RESULT:    -5.107     17.751     19.614
REMARK INTER + INTRA:          -6.130
REMARK INTER:                  -6.006
REMARK INTRA:                  -0.124
REMARK UNBOUND:                -0.127
REMARK SMILES O=C([O-])C=Cc1ccc(O)c(O)c1
REMARK SMILES IDX 6 1 13 2 7 3 11 4 8 5 9 6 5 7 4 8 2 9 1 10 3 11 12 12 10 14
REMARK H PARENT 12 13 10 15
REMARK Flexibility Score: inf
ROOT
ATOM      1  C   UNL     1       7.908  -6.642  -7.473  1.00  0.00    -0.022 A 
ATOM      2  C   UNL     1       8.011  -5.520  -6.626  1.00  0.00     0.058 A 
ATOM      3  C   UNL     1       7.640  -7.898  -6.906  1.00  0.00     0.012 A 
ATOM      4  C   UNL     1       7.872  -5.662  -5.237  1.00  0.00     0.157 A 
ATOM      5  C   UNL     1       7.503  -8.040  -5.523  1.00  0.00     0.051 A 
ATOM      6  C   UNL     1       7.622  -6.925  -4.685  1.00  0.00     0.157 A 
ENDROOT
BRANCH   1   7
ATOM      7  C   UNL     1       8.035  -6.542  -8.949  1.00  0.00     0.010 C 
ATOM      8  C   UNL     1       8.246  -5.390  -9.603  1.00  0.00     0.025 C 
BRANCH   8   9
ATOM      9  C   UNL     1       8.380  -5.331 -11.067  1.00  0.00     0.064 C 
ATOM     10  O   UNL     1       9.137  -6.125 -11.686  1.00  0.00    -0.545 OA
ATOM     11  O   UNL     1       7.655  -4.385 -11.781  1.00  0.00    -0.545 OA
ENDBRANCH   8   9
ENDBRANCH   1   7
BRANCH   4  12
ATOM     12  O   UNL     1       7.977  -4.553  -4.400  1.00  0.00    -0.504 OA
ATOM     13  H   UNL     1       7.169  -4.177  -3.914  1.00  0.00     0.293 HD
ENDBRANCH   4  12
BRANCH   6  14
ATOM     14  O   UNL     1       7.487  -7.062  -3.304  1.00  0.00    -0.504 OA
ATOM     15  H   UNL     1       7.545  -6.262  -2.685  1.00  0.00     0.293 HD
ENDBRANCH   6  14
TORSDOF 4
ENDMDL
MODEL 3
REMARK VINA RESULT:    -5.084     16.358     18.263
REMARK INTER + INTRA:          -6.102
REMARK INTER:                  -5.976
REMARK INTRA:                  -0.126
REMARK UNBOUND:                -0.127
REMARK SMILES O=C([O-])C=Cc1ccc(O)c(O)c1
REMARK SMILES IDX 6 1 13 2 7 3 11 4 8 5 9 6 5 7 4 8 2 9 1 10 3 11 12 12 10 14
REMARK H PARENT 12 13 10 15
REMARK Flexibility Score: inf
ROOT
ATOM      1  C   UNL     1       9.237  -6.753  -8.295  1.00  0.00    -0.022 A 
ATOM      2  C   UNL     1      10.043  -5.938  -7.474  1.00  0.00     0.058 A 
ATOM      3  C   UNL     1       7.889  -6.943  -7.948  1.00  0.00     0.012 A 
ATOM      4  C   UNL     1       9.513  -5.348  -6.317  1.00  0.00     0.157 A 
ATOM      5  C   UNL     1       7.362  -6.357  -6.795  1.00  0.00     0.051 A 
ATOM      6  C   UNL     1       8.171  -5.561  -5.975  1.00  0.00     0.157 A 
ENDROOT
BRANCH   1   7
ATOM      7  C   UNL     1       9.747  -7.390  -9.535  1.00  0.00     0.010 C 
ATOM      8  C   UNL     1       9.637  -6.842 -10.754  1.00  0.00     0.025 C 
BRANCH   8   9
ATOM      9  C   UNL     1      10.166  -7.498 -11.961  1.00  0.00     0.064 C 
ATOM     10  O   UNL     1       9.404  -7.852 -12.899  1.00  0.00    -0.545 OA
ATOM     11  O   UNL     1      11.532  -7.728 -12.068  1.00  0.00    -0.545 OA
ENDBRANCH   8   9
ENDBRANCH   1   7
BRANCH   4  12
ATOM     12  O   UNL     1      10.311  -4.545  -5.504  1.00  0.00    -0.504 OA
ATOM     13  H   UNL     1      10.412  -3.551  -5.677  1.00  0.00     0.293 HD
ENDBRANCH   4  12
BRANCH   6  14
ATOM     14  O   UNL     1       7.650  -4.975  -4.823  1.00  0.00    -0.504 OA
ATOM     15  H   UNL     1       8.234  -4.771  -4.021  1.00  0.00     0.293 HD
ENDBRANCH   6  14
TORSDOF 4
ENDMDL
MODEL 4
REMARK VINA RESULT:    -5.028     16.812     18.763
REMARK INTER + INTRA:          -6.037
REMARK INTER:                  -5.890
REMARK INTRA:                  -0.147
REMARK UNBOUND:                -0.127
REMARK SMILES O=C([O-])C=Cc1ccc(O)c(O)c1
REMARK SMILES IDX 6 1 13 2 7 3 11 4 8 5 9 6 5 7 4 8 2 9 1 10 3 11 12 12 10 14
REMARK H PARENT 12 13 10 15
REMARK Flexibility Score: inf
ROOT
ATOM      1  C   UNL     1       8.827  -6.393  -8.245  1.00  0.00    -0.022 A 
ATOM      2  C   UNL     1       9.858  -5.745  -7.534  1.00  0.00     0.058 A 
ATOM      3  C   UNL     1       7.545  -6.457  -7.675  1.00  0.00     0.012 A 
ATOM      4  C   UNL     1       9.611  -5.194  -6.268  1.00  0.00     0.157 A 
ATOM      5  C   UNL     1       7.300  -5.910  -6.413  1.00  0.00     0.051 A 
ATOM      6  C   UNL     1       8.331  -5.281  -5.705  1.00  0.00     0.157 A 
ENDROOT
BRANCH   1   7
ATOM      7  C   UNL     1       9.034  -6.981  -9.592  1.00  0.00     0.010 C 
ATOM      8  C   UNL     1       8.090  -7.015 -10.544  1.00  0.00     0.025 C 
BRANCH   8   9
ATOM      9  C   UNL     1       8.336  -7.596 -11.874  1.00  0.00     0.064 C 
ATOM     10  O   UNL     1       9.420  -7.395 -12.484  1.00  0.00    -0.545 OA
ATOM     11  O   UNL     1       7.358  -8.383 -12.466  1.00  0.00    -0.545 OA
ENDBRANCH   8   9
ENDBRANCH   1   7
BRANCH   4  12
ATOM     12  O   UNL     1      10.630  -4.556  -5.565  1.00  0.00    -0.504 OA
ATOM     13  H   UNL     1      10.432  -3.823  -4.891  1.00  0.00     0.293 HD
ENDBRANCH   4  12
BRANCH   6  14
ATOM     14  O   UNL     1       8.091  -4.734  -4.445  1.00  0.00    -0.504 OA
ATOM     15  H   UNL     1       7.572  -3.872  -4.331  1.00  0.00     0.293 HD
ENDBRANCH   6  14
TORSDOF 4
ENDMDL
MODEL 5
REMARK VINA RESULT:    -4.967      2.493      3.342
REMARK INTER + INTRA:          -5.965
REMARK INTER:                  -5.841
REMARK INTRA:                  -0.125
REMARK UNBOUND:                -0.127
REMARK SMILES O=C([O-])C=Cc1ccc(O)c(O)c1
REMARK SMILES IDX 6 1 13 2 7 3 11 4 8 5 9 6 5 7 4 8 2 9 1 10 3 11 12 12 10 14
REMARK H PARENT 12 13 10 15
REMARK Flexibility Score: inf
ROOT
ATOM      1  C   UNL     1      20.537  -0.323 -19.208  1.00  0.00    -0.022 A 
ATOM      2  C   UNL     1      20.365  -1.066 -20.394  1.00  0.00     0.058 A 
ATOM      3  C   UNL     1      21.238   0.892 -19.264  1.00  0.00     0.012 A 
ATOM      4  C   UNL     1      20.906  -0.609 -21.605  1.00  0.00     0.157 A 
ATOM      5  C   UNL     1      21.777   1.347 -20.470  1.00  0.00     0.051 A 
ATOM      6  C   UNL     1      21.616   0.598 -21.641  1.00  0.00     0.157 A 
ENDROOT
BRANCH   1   7
ATOM      7  C   UNL     1      19.975  -0.759 -17.905  1.00  0.00     0.010 C 
ATOM      8  C   UNL     1      18.725  -0.483 -17.503  1.00  0.00     0.025 C 
BRANCH   8   9
ATOM      9  C   UNL     1      18.198  -0.943 -16.208  1.00  0.00     0.064 C 
ATOM     10  O   UNL     1      17.802  -0.123 -15.337  1.00  0.00    -0.545 OA
ATOM     11  O   UNL     1      18.132  -2.304 -15.943  1.00  0.00    -0.545 OA
ENDBRANCH   8   9
ENDBRANCH   1   7
BRANCH   4  12
ATOM     12  O   UNL     1      20.738  -1.344 -22.776  1.00  0.00    -0.504 OA
ATOM     13  H   UNL     1      20.608  -0.890 -23.674  1.00  0.00     0.293 HD
ENDBRANCH   4  12
BRANCH   6  14
ATOM     14  O   UNL     1      22.154   1.047 -22.847  1.00  0.00    -0.504 OA
ATOM     15  H   UNL     1      23.071   0.751 -23.161  1.00  0.00     0.293 HD
ENDBRANCH   6  14
TORSDOF 4
ENDMDL
MODEL 6
REMARK VINA RESULT:    -4.841      3.063      3.810
REMARK INTER + INTRA:          -5.816
REMARK INTER:                  -5.691
REMARK INTRA:                  -0.125
REMARK UNBOUND:                -0.127
REMARK SMILES O=C([O-])C=Cc1ccc(O)c(O)c1
REMARK SMILES IDX 6 1 13 2 7 3 11 4 8 5 9 6 5 7 4 8 2 9 1 10 3 11 12 12 10 14
REMARK H PARENT 12 13 10 15
REMARK Flexibility Score: inf
ROOT
ATOM      1  C   UNL     1      19.556  -0.601 -18.248  1.00  0.00    -0.022 A 
ATOM      2  C   UNL     1      20.710   0.161 -17.972  1.00  0.00     0.058 A 
ATOM      3  C   UNL     1      19.162  -0.776 -19.585  1.00  0.00     0.012 A 
ATOM      4  C   UNL     1      21.437   0.753 -19.015  1.00  0.00     0.157 A 
ATOM      5  C   UNL     1      19.886  -0.185 -20.623  1.00  0.00     0.051 A 
ATOM      6  C   UNL     1      21.022   0.584 -20.342  1.00  0.00     0.157 A 
ENDROOT
BRANCH   1   7
ATOM      7  C   UNL     1      18.760  -1.258 -17.182  1.00  0.00     0.010 C 
ATOM      8  C   UNL     1      18.039  -0.588 -16.270  1.00  0.00     0.025 C 
BRANCH   8   9
ATOM      9  C   UNL     1      17.251  -1.274 -15.233  1.00  0.00     0.064 C 
ATOM     10  O   UNL     1      16.185  -0.774 -14.785  1.00  0.00    -0.545 OA
ATOM     11  O   UNL     1      17.689  -2.497 -14.741  1.00  0.00    -0.545 OA
ENDBRANCH   8   9
ENDBRANCH   1   7
BRANCH   4  12
ATOM     12  O   UNL     1      22.576   1.509 -18.743  1.00  0.00    -0.504 OA
ATOM     13  H   UNL     1      23.434   1.385 -19.270  1.00  0.00     0.293 HD
ENDBRANCH   4  12
BRANCH   6  14
ATOM     14  O   UNL     1      21.746   1.177 -21.375  1.00  0.00    -0.504 OA
ATOM     15  H   UNL     1      21.469   2.066 -21.774  1.00  0.00     0.293 HD
ENDBRANCH   6  14
TORSDOF 4
ENDMDL
MODEL 7
REMARK VINA RESULT:    -4.822      1.577      5.583
REMARK INTER + INTRA:          -5.795
REMARK INTER:                  -5.668
REMARK INTRA:                  -0.127
REMARK UNBOUND:                -0.127
REMARK SMILES O=C([O-])C=Cc1ccc(O)c(O)c1
REMARK SMILES IDX 6 1 13 2 7 3 11 4 8 5 9 6 5 7 4 8 2 9 1 10 3 11 12 12 10 14
REMARK H PARENT 12 13 10 15
REMARK Flexibility Score: inf
ROOT
ATOM      1  C   UNL     1      20.258  -0.064 -19.046  1.00  0.00    -0.022 A 
ATOM      2  C   UNL     1      20.917   0.670 -18.038  1.00  0.00     0.058 A 
ATOM      3  C   UNL     1      19.045  -0.701 -18.739  1.00  0.00     0.012 A 
ATOM      4  C   UNL     1      20.379   0.742 -16.744  1.00  0.00     0.157 A 
ATOM      5  C   UNL     1      18.511  -0.630 -17.450  1.00  0.00     0.051 A 
ATOM      6  C   UNL     1      19.176   0.087 -16.449  1.00  0.00     0.157 A 
ENDROOT
BRANCH   1   7
ATOM      7  C   UNL     1      20.780  -0.161 -20.432  1.00  0.00     0.010 C 
ATOM      8  C   UNL     1      21.363   0.857 -21.082  1.00  0.00     0.025 C 
BRANCH   8   9
ATOM      9  C   UNL     1      21.880   0.720 -22.454  1.00  0.00     0.064 C 
ATOM     10  O   UNL     1      22.225   1.729 -23.125  1.00  0.00    -0.545 OA
ATOM     11  O   UNL     1      21.993  -0.544 -23.017  1.00  0.00    -0.545 OA
ENDBRANCH   8   9
ENDBRANCH   1   7
BRANCH   4  12
ATOM     12  O   UNL     1      21.031   1.465 -15.748  1.00  0.00    -0.504 OA
ATOM     13  H   UNL     1      20.854   2.454 -15.608  1.00  0.00     0.293 HD
ENDBRANCH   4  12
BRANCH   6  14
ATOM     14  O   UNL     1      18.647   0.159 -15.161  1.00  0.00    -0.504 OA
ATOM     15  H   UNL     1      17.663   0.002 -14.984  1.00  0.00     0.293 HD
ENDBRANCH   6  14
TORSDOF 4
ENDMDL
MODEL 8
REMARK VINA RESULT:    -4.766     16.700     17.785
REMARK INTER + INTRA:          -5.729
REMARK INTER:                  -5.589
REMARK INTRA:                  -0.140
REMARK UNBOUND:                -0.127
REMARK SMILES O=C([O-])C=Cc1ccc(O)c(O)c1
REMARK SMILES IDX 6 1 13 2 7 3 11 4 8 5 9 6 5 7 4 8 2 9 1 10 3 11 12 12 10 14
REMARK H PARENT 12 13 10 15
REMARK Flexibility Score: inf
ROOT
ATOM      1  C   UNL     1       8.159  -6.302  -9.756  1.00  0.00    -0.022 A 
ATOM      2  C   UNL     1       8.066  -7.360 -10.683  1.00  0.00     0.058 A 
ATOM      3  C   UNL     1       8.037  -4.982 -10.219  1.00  0.00     0.012 A 
ATOM      4  C   UNL     1       7.879  -7.096 -12.048  1.00  0.00     0.157 A 
ATOM      5  C   UNL     1       7.852  -4.719 -11.579  1.00  0.00     0.051 A 
ATOM      6  C   UNL     1       7.776  -5.773 -12.497  1.00  0.00     0.157 A 
ENDROOT
BRANCH   1   7
ATOM      7  C   UNL     1       8.344  -6.529  -8.301  1.00  0.00     0.010 C 
ATOM      8  C   UNL     1       7.619  -5.918  -7.352  1.00  0.00     0.025 C 
BRANCH   8   9
ATOM      9  C   UNL     1       7.823  -6.179  -5.918  1.00  0.00     0.064 C 
ATOM     10  O   UNL     1       8.260  -5.283  -5.148  1.00  0.00    -0.545 OA
ATOM     11  O   UNL     1       7.526  -7.434  -5.404  1.00  0.00    -0.545 OA
ENDBRANCH   8   9
ENDBRANCH   1   7
BRANCH   4  12
ATOM     12  O   UNL     1       7.790  -8.142 -12.964  1.00  0.00    -0.504 OA
ATOM     13  H   UNL     1       8.590  -8.434 -13.516  1.00  0.00     0.293 HD
ENDBRANCH   4  12
BRANCH   6  14
ATOM     14  O   UNL     1       7.594  -5.515 -13.855  1.00  0.00    -0.504 OA
ATOM     15  H   UNL     1       6.692  -5.637 -14.300  1.00  0.00     0.293 HD
ENDBRANCH   6  14
TORSDOF 4
ENDMDL
MODEL 9
REMARK VINA RESULT:    -4.755     15.714     17.166
REMARK INTER + INTRA:          -5.716
REMARK INTER:                  -5.588
REMARK INTRA:                  -0.127
REMARK UNBOUND:                -0.127
REMARK SMILES O=C([O-])C=Cc1ccc(O)c(O)c1
REMARK SMILES IDX 6 1 13 2 7 3 11 4 8 5 9 6 5 7 4 8 2 9 1 10 3 11 12 12 10 14
REMARK H PARENT 12 13 10 15
REMARK Flexibility Score: inf
ROOT
ATOM      1  C   UNL     1       8.594  -5.243 -10.632  1.00  0.00    -0.022 A 
ATOM      2  C   UNL     1       7.939  -4.982  -9.411  1.00  0.00     0.058 A 
ATOM      3  C   UNL     1       9.900  -5.759 -10.606  1.00  0.00     0.012 A 
ATOM      4  C   UNL     1       8.592  -5.213  -8.191  1.00  0.00     0.157 A 
ATOM      5  C   UNL     1      10.550  -5.987  -9.391  1.00  0.00     0.051 A 
ATOM      6  C   UNL     1       9.901  -5.712  -8.182  1.00  0.00     0.157 A 
ENDROOT
BRANCH   1   7
ATOM      7  C   UNL     1       7.942  -5.027 -11.948  1.00  0.00     0.010 C 
ATOM      8  C   UNL     1       7.869  -3.834 -12.557  1.00  0.00     0.025 C 
BRANCH   8   9
ATOM      9  C   UNL     1       7.225  -3.660 -13.869  1.00  0.00     0.064 C 
ATOM     10  O   UNL     1       7.128  -4.618 -14.681  1.00  0.00    -0.545 OA
ATOM     11  O   UNL     1       6.711  -2.417 -14.218  1.00  0.00    -0.545 OA
ENDBRANCH   8   9
ENDBRANCH   1   7
BRANCH   4  12
ATOM     12  O   UNL     1       7.947  -4.953  -6.984  1.00  0.00    -0.504 OA
ATOM     13  H   UNL     1       7.899  -5.648  -6.247  1.00  0.00     0.293 HD
ENDBRANCH   4  12
BRANCH   6  14
ATOM     14  O   UNL     1      10.547  -5.937  -6.967  1.00  0.00    -0.504 OA
ATOM     15  H   UNL     1      11.231  -6.676  -6.859  1.00  0.00     0.293 HD
ENDBRANCH   6  14
TORSDOF 4
ENDMDL
