MODEL 1
REMARK VINA RESULT:    -4.688      0.000      0.000
REMARK INTER + INTRA:          -5.497
REMARK INTER:                  -5.784
REMARK INTRA:                   0.288
REMARK UNBOUND:                 0.288
REMARK SMILES O=c1c(O)c(-c2cc(O)c(O)c(O)c2)oc2cc(O)cc(O)c12
REMARK SMILES IDX 5 1 3 2 2 3 1 4 23 5 21 6 20 7 18 8 17 9 16 10 15 11 6 12
REMARK SMILES IDX 7 13 8 14 14 15 10 16 12 17 9 18 11 20 13 22 4 24 22 26
REMARK SMILES IDX 19 28
REMARK H PARENT 9 19 11 21 13 23 4 25 22 27 19 29
REMARK Flexibility Score: inf
ROOT
ATOM      1  C   UNL     1       2.368  23.134   4.835  1.00  0.00     0.180 A 
ATOM      2  C   UNL     1       2.836  23.865   3.729  1.00  0.00     0.208 A 
ATOM      3  C   UNL     1       4.124  24.422   3.775  1.00  0.00     0.238 A 
ATOM      4  O   UNL     1       4.507  25.136   2.813  1.00  0.00    -0.285 OA
ATOM      5  C   UNL     1       4.951  24.192   4.902  1.00  0.00     0.111 A 
ATOM      6  C   UNL     1       6.290  24.670   5.037  1.00  0.00     0.134 A 
ATOM      7  C   UNL     1       6.975  24.472   6.243  1.00  0.00     0.093 A 
ATOM      8  C   UNL     1       6.396  23.761   7.293  1.00  0.00     0.123 A 
ATOM      9  C   UNL     1       5.108  23.243   7.151  1.00  0.00     0.094 A 
ATOM     10  C   UNL     1       4.385  23.456   5.976  1.00  0.00     0.146 A 
ATOM     11  O   UNL     1       3.154  22.964   5.890  1.00  0.00    -0.452 OA
ENDROOT
BRANCH   1  12
ATOM     12  C   UNL     1       1.017  22.531   4.866  1.00  0.00     0.029 A 
ATOM     13  C   UNL     1       0.361  22.371   6.095  1.00  0.00     0.062 A 
ATOM     14  C   UNL     1      -0.925  21.824   6.154  1.00  0.00     0.162 A 
ATOM     15  C   UNL     1       0.350  22.168   3.684  1.00  0.00     0.062 A 
ATOM     16  C   UNL     1      -1.580  21.442   4.971  1.00  0.00     0.200 A 
ATOM     17  C   UNL     1      -0.939  21.620   3.732  1.00  0.00     0.162 A 
BRANCH  14  18
ATOM     18  O   UNL     1      -1.536  21.668   7.398  1.00  0.00    -0.504 OA
ATOM     19  H   UNL     1      -2.019  20.816   7.658  1.00  0.00     0.293 HD
ENDBRANCH  14  18
BRANCH  16  20
ATOM     20  O   UNL     1      -2.861  20.894   5.038  1.00  0.00    -0.502 OA
ATOM     21  H   UNL     1      -3.436  20.964   5.870  1.00  0.00     0.293 HD
ENDBRANCH  16  20
BRANCH  17  22
ATOM     22  O   UNL     1      -1.589  21.258   2.553  1.00  0.00    -0.504 OA
ATOM     23  H   UNL     1      -1.472  21.788   1.697  1.00  0.00     0.293 HD
ENDBRANCH  17  22
ENDBRANCH   1  12
BRANCH   2  24
ATOM     24  O   UNL     1       2.033  24.016   2.594  1.00  0.00    -0.502 OA
ATOM     25  H   UNL     1       1.391  23.297   2.284  1.00  0.00     0.293 HD
ENDBRANCH   2  24
BRANCH   6  26
ATOM     26  O   UNL     1       6.997  25.316   4.019  1.00  0.00    -0.507 OA
ATOM     27  H   UNL     1       7.466  26.204   4.115  1.00  0.00     0.293 HD
ENDBRANCH   6  26
BRANCH   8  28
ATOM     28  O   UNL     1       7.114  23.569   8.470  1.00  0.00    -0.508 OA
ATOM     29  H   UNL     1       6.831  24.004   9.341  1.00  0.00     0.293 HD
ENDBRANCH   8  28
TORSDOF 7
ENDMDL
MODEL 2
REMARK VINA RESULT:    -4.594      1.851      6.733
REMARK INTER + INTRA:          -5.380
REMARK INTER:                  -5.271
REMARK INTRA:                  -0.109
REMARK UNBOUND:                 0.288
REMARK SMILES O=c1c(O)c(-c2cc(O)c(O)c(O)c2)oc2cc(O)cc(O)c12
REMARK SMILES IDX 5 1 3 2 2 3 1 4 23 5 21 6 20 7 18 8 17 9 16 10 15 11 6 12
REMARK SMILES IDX 7 13 8 14 14 15 10 16 12 17 9 18 11 20 13 22 4 24 22 26
REMARK SMILES IDX 19 28
REMARK H PARENT 9 19 11 21 13 23 4 25 22 27 19 29
REMARK Flexibility Score: inf
ROOT
ATOM      1  C   UNL     1       2.169  22.953   4.241  1.00  0.00     0.180 A 
ATOM      2  C   UNL     1       1.182  22.558   3.321  1.00  0.00     0.208 A 
ATOM      3  C   UNL     1       0.010  21.950   3.798  1.00  0.00     0.238 A 
ATOM      4  O   UNL     1      -0.835  21.532   2.965  1.00  0.00    -0.285 OA
ATOM      5  C   UNL     1      -0.186  21.795   5.192  1.00  0.00     0.111 A 
ATOM      6  C   UNL     1      -1.356  21.234   5.790  1.00  0.00     0.134 A 
ATOM      7  C   UNL     1      -1.393  21.033   7.176  1.00  0.00     0.093 A 
ATOM      8  C   UNL     1      -0.335  21.431   7.992  1.00  0.00     0.123 A 
ATOM      9  C   UNL     1       0.790  22.031   7.423  1.00  0.00     0.094 A 
ATOM     10  C   UNL     1       0.874  22.210   6.041  1.00  0.00     0.146 A 
ATOM     11  O   UNL     1       1.971  22.765   5.539  1.00  0.00    -0.452 OA
ENDROOT
BRANCH   1  12
ATOM     12  C   UNL     1       3.436  23.586   3.812  1.00  0.00     0.029 A 
ATOM     13  C   UNL     1       3.396  24.789   3.092  1.00  0.00     0.062 A 
ATOM     14  C   UNL     1       4.577  25.423   2.692  1.00  0.00     0.162 A 
ATOM     15  C   UNL     1       4.683  23.042   4.163  1.00  0.00     0.062 A 
ATOM     16  C   UNL     1       5.822  24.863   3.026  1.00  0.00     0.200 A 
ATOM     17  C   UNL     1       5.872  23.670   3.768  1.00  0.00     0.162 A 
BRANCH  14  18
ATOM     18  O   UNL     1       4.494  26.610   1.963  1.00  0.00    -0.504 OA
ATOM     19  H   UNL     1       4.357  27.508   2.411  1.00  0.00     0.293 HD
ENDBRANCH  14  18
BRANCH  16  20
ATOM     20  O   UNL     1       6.996  25.499   2.621  1.00  0.00    -0.502 OA
ATOM     21  H   UNL     1       6.995  26.429   2.218  1.00  0.00     0.293 HD
ENDBRANCH  16  20
BRANCH  17  22
ATOM     22  O   UNL     1       7.103  23.116   4.116  1.00  0.00    -0.504 OA
ATOM     23  H   UNL     1       7.171  22.322   4.742  1.00  0.00     0.293 HD
ENDBRANCH  17  22
ENDBRANCH   1  12
BRANCH   2  24
ATOM     24  O   UNL     1       1.361  22.789   1.954  1.00  0.00    -0.502 OA
ATOM     25  H   UNL     1       2.191  23.233   1.581  1.00  0.00     0.293 HD
ENDBRANCH   2  24
BRANCH   6  26
ATOM     26  O   UNL     1      -2.507  20.882   5.080  1.00  0.00    -0.507 OA
ATOM     27  H   UNL     1      -3.372  20.574   5.497  1.00  0.00     0.293 HD
ENDBRANCH   6  26
BRANCH   8  28
ATOM     28  O   UNL     1      -0.415  21.232   9.368  1.00  0.00    -0.508 OA
ATOM     29  H   UNL     1       0.238  20.629   9.855  1.00  0.00     0.293 HD
ENDBRANCH   8  28
TORSDOF 7
ENDMDL
MODEL 3
REMARK VINA RESULT:    -4.495      1.959      6.649
REMARK INTER + INTRA:          -5.258
REMARK INTER:                  -5.112
REMARK INTRA:                  -0.146
REMARK UNBOUND:                 0.288
REMARK SMILES O=c1c(O)c(-c2cc(O)c(O)c(O)c2)oc2cc(O)cc(O)c12
REMARK SMILES IDX 5 1 3 2 2 3 1 4 23 5 21 6 20 7 18 8 17 9 16 10 15 11 6 12
REMARK SMILES IDX 7 13 8 14 14 15 10 16 12 17 9 18 11 20 13 22 4 24 22 26
REMARK SMILES IDX 19 28
REMARK H PARENT 9 19 11 21 13 23 4 25 22 27 19 29
REMARK Flexibility Score: inf
ROOT
ATOM      1  C   UNL     1       2.133  22.955   4.214  1.00  0.00     0.180 A 
ATOM      2  C   UNL     1       1.128  22.578   3.306  1.00  0.00     0.208 A 
ATOM      3  C   UNL     1      -0.044  21.980   3.796  1.00  0.00     0.238 A 
ATOM      4  O   UNL     1      -0.906  21.578   2.973  1.00  0.00    -0.285 OA
ATOM      5  C   UNL     1      -0.223  21.819   5.192  1.00  0.00     0.111 A 
ATOM      6  C   UNL     1      -1.390  21.267   5.803  1.00  0.00     0.134 A 
ATOM      7  C   UNL     1      -1.410  21.058   7.188  1.00  0.00     0.093 A 
ATOM      8  C   UNL     1      -0.335  21.438   7.991  1.00  0.00     0.123 A 
ATOM      9  C   UNL     1       0.788  22.028   7.410  1.00  0.00     0.094 A 
ATOM     10  C   UNL     1       0.854  22.215   6.028  1.00  0.00     0.146 A 
ATOM     11  O   UNL     1       1.951  22.761   5.514  1.00  0.00    -0.452 OA
ENDROOT
BRANCH   1  12
ATOM     12  C   UNL     1       3.401  23.577   3.771  1.00  0.00     0.029 A 
ATOM     13  C   UNL     1       4.613  22.911   4.005  1.00  0.00     0.062 A 
ATOM     14  C   UNL     1       5.825  23.463   3.579  1.00  0.00     0.162 A 
ATOM     15  C   UNL     1       3.414  24.792   3.068  1.00  0.00     0.062 A 
ATOM     16  C   UNL     1       5.836  24.691   2.895  1.00  0.00     0.200 A 
ATOM     17  C   UNL     1       4.623  25.353   2.636  1.00  0.00     0.162 A 
BRANCH  14  18
ATOM     18  O   UNL     1       7.011  22.777   3.844  1.00  0.00    -0.504 OA
ATOM     19  H   UNL     1       7.228  21.888   3.410  1.00  0.00     0.293 HD
ENDBRANCH  14  18
BRANCH  16  20
ATOM     20  O   UNL     1       7.050  25.237   2.476  1.00  0.00    -0.502 OA
ATOM     21  H   UNL     1       7.162  26.228   2.295  1.00  0.00     0.293 HD
ENDBRANCH  16  20
BRANCH  17  22
ATOM     22  O   UNL     1       4.625  26.564   1.944  1.00  0.00    -0.504 OA
ATOM     23  H   UNL     1       4.815  27.443   2.412  1.00  0.00     0.293 HD
ENDBRANCH  17  22
ENDBRANCH   1  12
BRANCH   2  24
ATOM     24  O   UNL     1       1.290  22.816   1.938  1.00  0.00    -0.502 OA
ATOM     25  H   UNL     1       1.103  23.717   1.517  1.00  0.00     0.293 HD
ENDBRANCH   2  24
BRANCH   6  26
ATOM     26  O   UNL     1      -2.555  20.934   5.107  1.00  0.00    -0.507 OA
ATOM     27  H   UNL     1      -3.320  20.397   5.485  1.00  0.00     0.293 HD
ENDBRANCH   6  26
BRANCH   8  28
ATOM     28  O   UNL     1      -0.398  21.230   9.366  1.00  0.00    -0.508 OA
ATOM     29  H   UNL     1      -0.234  21.985  10.024  1.00  0.00     0.293 HD
ENDBRANCH   8  28
TORSDOF 7
ENDMDL
MODEL 4
REMARK VINA RESULT:    -4.198      1.160      2.807
REMARK INTER + INTRA:          -4.892
REMARK INTER:                  -5.291
REMARK INTRA:                   0.398
REMARK UNBOUND:                 0.288
REMARK SMILES O=c1c(O)c(-c2cc(O)c(O)c(O)c2)oc2cc(O)cc(O)c12
REMARK SMILES IDX 5 1 3 2 2 3 1 4 23 5 21 6 20 7 18 8 17 9 16 10 15 11 6 12
REMARK SMILES IDX 7 13 8 14 14 15 10 16 12 17 9 18 11 20 13 22 4 24 22 26
REMARK SMILES IDX 19 28
REMARK H PARENT 9 19 11 21 13 23 4 25 22 27 19 29
REMARK Flexibility Score: inf
ROOT
ATOM      1  C   UNL     1       2.359  22.578   5.558  1.00  0.00     0.180 A 
ATOM      2  C   UNL     1       3.078  22.260   6.723  1.00  0.00     0.208 A 
ATOM      3  C   UNL     1       4.398  22.719   6.856  1.00  0.00     0.238 A 
ATOM      4  O   UNL     1       5.059  22.368   7.867  1.00  0.00    -0.285 OA
ATOM      5  C   UNL     1       4.965  23.537   5.849  1.00  0.00     0.111 A 
ATOM      6  C   UNL     1       6.279  24.096   5.899  1.00  0.00     0.134 A 
ATOM      7  C   UNL     1       6.771  24.802   4.795  1.00  0.00     0.093 A 
ATOM      8  C   UNL     1       5.978  25.026   3.670  1.00  0.00     0.123 A 
ATOM      9  C   UNL     1       4.674  24.532   3.632  1.00  0.00     0.094 A 
ATOM     10  C   UNL     1       4.167  23.791   4.702  1.00  0.00     0.146 A 
ATOM     11  O   UNL     1       2.928  23.320   4.616  1.00  0.00    -0.452 OA
ENDROOT
BRANCH   1  12
ATOM     12  C   UNL     1       0.969  22.119   5.340  1.00  0.00     0.029 A 
ATOM     13  C   UNL     1       0.182  21.758   6.443  1.00  0.00     0.062 A 
ATOM     14  C   UNL     1      -1.142  21.341   6.271  1.00  0.00     0.162 A 
ATOM     15  C   UNL     1       0.399  22.094   4.057  1.00  0.00     0.062 A 
ATOM     16  C   UNL     1      -1.702  21.296   4.983  1.00  0.00     0.200 A 
ATOM     17  C   UNL     1      -0.927  21.679   3.874  1.00  0.00     0.162 A 
BRANCH  14  18
ATOM     18  O   UNL     1      -1.887  20.975   7.393  1.00  0.00    -0.504 OA
ATOM     19  H   UNL     1      -1.496  20.990   8.327  1.00  0.00     0.293 HD
ENDBRANCH  14  18
BRANCH  16  20
ATOM     20  O   UNL     1      -3.022  20.876   4.818  1.00  0.00    -0.502 OA
ATOM     21  H   UNL     1      -3.587  20.552   5.595  1.00  0.00     0.293 HD
ENDBRANCH  16  20
BRANCH  17  22
ATOM     22  O   UNL     1      -1.481  21.651   2.594  1.00  0.00    -0.504 OA
ATOM     23  H   UNL     1      -2.430  21.334   2.432  1.00  0.00     0.293 HD
ENDBRANCH  17  22
ENDBRANCH   1  12
BRANCH   2  24
ATOM     24  O   UNL     1       2.475  21.515   7.741  1.00  0.00    -0.502 OA
ATOM     25  H   UNL     1       2.459  20.503   7.738  1.00  0.00     0.293 HD
ENDBRANCH   2  24
BRANCH   6  26
ATOM     26  O   UNL     1       7.124  24.008   7.008  1.00  0.00    -0.507 OA
ATOM     27  H   UNL     1       7.559  24.794   7.467  1.00  0.00     0.293 HD
ENDBRANCH   6  26
BRANCH   8  28
ATOM     28  O   UNL     1       6.496  25.749   2.598  1.00  0.00    -0.508 OA
ATOM     29  H   UNL     1       7.039  25.300   1.869  1.00  0.00     0.293 HD
ENDBRANCH   8  28
TORSDOF 7
ENDMDL
MODEL 5
REMARK VINA RESULT:    -4.135      1.973      7.410
REMARK INTER + INTRA:          -4.814
REMARK INTER:                  -4.617
REMARK INTRA:                  -0.197
REMARK UNBOUND:                 0.288
REMARK SMILES O=c1c(O)c(-c2cc(O)c(O)c(O)c2)oc2cc(O)cc(O)c12
REMARK SMILES IDX 5 1 3 2 2 3 1 4 23 5 21 6 20 7 18 8 17 9 16 10 15 11 6 12
REMARK SMILES IDX 7 13 8 14 14 15 10 16 12 17 9 18 11 20 13 22 4 24 22 26
REMARK SMILES IDX 19 28
REMARK H PARENT 9 19 11 21 13 23 4 25 22 27 19 29
REMARK Flexibility Score: inf
ROOT
ATOM      1  C   UNL     1       2.197  22.949   4.300  1.00  0.00     0.180 A 
ATOM      2  C   UNL     1       1.942  22.810   5.675  1.00  0.00     0.208 A 
ATOM      3  C   UNL     1       0.708  22.287   6.090  1.00  0.00     0.238 A 
ATOM      4  O   UNL     1       0.458  22.235   7.322  1.00  0.00    -0.285 OA
ATOM      5  C   UNL     1      -0.235  21.855   5.125  1.00  0.00     0.111 A 
ATOM      6  C   UNL     1      -1.500  21.267   5.432  1.00  0.00     0.134 A 
ATOM      7  C   UNL     1      -2.396  20.977   4.395  1.00  0.00     0.093 A 
ATOM      8  C   UNL     1      -2.050  21.192   3.061  1.00  0.00     0.123 A 
ATOM      9  C   UNL     1      -0.795  21.716   2.748  1.00  0.00     0.094 A 
ATOM     10  C   UNL     1       0.105  22.051   3.761  1.00  0.00     0.146 A 
ATOM     11  O   UNL     1       1.281  22.566   3.419  1.00  0.00    -0.452 OA
ENDROOT
BRANCH   1  12
ATOM     12  C   UNL     1       3.469  23.506   3.787  1.00  0.00     0.029 A 
ATOM     13  C   UNL     1       3.464  24.746   3.131  1.00  0.00     0.062 A 
ATOM     14  C   UNL     1       4.653  25.307   2.655  1.00  0.00     0.162 A 
ATOM     15  C   UNL     1       4.693  22.848   3.995  1.00  0.00     0.062 A 
ATOM     16  C   UNL     1       5.873  24.635   2.845  1.00  0.00     0.200 A 
ATOM     17  C   UNL     1       5.890  23.403   3.522  1.00  0.00     0.162 A 
BRANCH  14  18
ATOM     18  O   UNL     1       4.604  26.535   1.994  1.00  0.00    -0.504 OA
ATOM     19  H   UNL     1       5.307  27.251   2.134  1.00  0.00     0.293 HD
ENDBRANCH  14  18
BRANCH  16  20
ATOM     20  O   UNL     1       7.054  25.200   2.364  1.00  0.00    -0.502 OA
ATOM     21  H   UNL     1       7.181  25.437   1.387  1.00  0.00     0.293 HD
ENDBRANCH  16  20
BRANCH  17  22
ATOM     22  O   UNL     1       7.098  22.738   3.728  1.00  0.00    -0.504 OA
ATOM     23  H   UNL     1       7.424  22.506   4.659  1.00  0.00     0.293 HD
ENDBRANCH  17  22
ENDBRANCH   1  12
BRANCH   2  24
ATOM     24  O   UNL     1       2.916  23.170   6.611  1.00  0.00    -0.502 OA
ATOM     25  H   UNL     1       2.708  23.289   7.595  1.00  0.00     0.293 HD
ENDBRANCH   2  24
BRANCH   6  26
ATOM     26  O   UNL     1      -1.913  20.928   6.723  1.00  0.00    -0.507 OA
ATOM     27  H   UNL     1      -1.296  20.699   7.486  1.00  0.00     0.293 HD
ENDBRANCH   6  26
BRANCH   8  28
ATOM     28  O   UNL     1      -2.960  20.875   2.056  1.00  0.00    -0.508 OA
ATOM     29  H   UNL     1      -3.829  21.386   1.947  1.00  0.00     0.293 HD
ENDBRANCH   8  28
TORSDOF 7
ENDMDL
MODEL 6
REMARK VINA RESULT:    -4.046      0.870      1.938
REMARK INTER + INTRA:          -4.704
REMARK INTER:                  -5.186
REMARK INTRA:                   0.482
REMARK UNBOUND:                 0.288
REMARK SMILES O=c1c(O)c(-c2cc(O)c(O)c(O)c2)oc2cc(O)cc(O)c12
REMARK SMILES IDX 5 1 3 2 2 3 1 4 23 5 21 6 20 7 18 8 17 9 16 10 15 11 6 12
REMARK SMILES IDX 7 13 8 14 14 15 10 16 12 17 9 18 11 20 13 22 4 24 22 26
REMARK SMILES IDX 19 28
REMARK H PARENT 9 19 11 21 13 23 4 25 22 27 19 29
REMARK Flexibility Score: inf
ROOT
ATOM      1  C   UNL     1       1.781  23.212   4.220  1.00  0.00     0.180 A 
ATOM      2  C   UNL     1       2.243  23.968   3.129  1.00  0.00     0.208 A 
ATOM      3  C   UNL     1       3.536  24.513   3.176  1.00  0.00     0.238 A 
ATOM      4  O   UNL     1       3.914  25.249   2.230  1.00  0.00    -0.285 OA
ATOM      5  C   UNL     1       4.372  24.248   4.288  1.00  0.00     0.111 A 
ATOM      6  C   UNL     1       5.717  24.712   4.422  1.00  0.00     0.134 A 
ATOM      7  C   UNL     1       6.412  24.477   5.615  1.00  0.00     0.093 A 
ATOM      8  C   UNL     1       5.838  23.743   6.652  1.00  0.00     0.123 A 
ATOM      9  C   UNL     1       4.544  23.239   6.510  1.00  0.00     0.094 A 
ATOM     10  C   UNL     1       3.811  23.488   5.349  1.00  0.00     0.146 A 
ATOM     11  O   UNL     1       2.576  23.008   5.263  1.00  0.00    -0.452 OA
ENDROOT
BRANCH   1  12
ATOM     12  C   UNL     1       0.425  22.617   4.249  1.00  0.00     0.029 A 
ATOM     13  C   UNL     1      -0.336  22.580   3.072  1.00  0.00     0.062 A 
ATOM     14  C   UNL     1      -1.611  22.006   3.063  1.00  0.00     0.162 A 
ATOM     15  C   UNL     1      -0.094  22.034   5.417  1.00  0.00     0.062 A 
ATOM     16  C   UNL     1      -2.136  21.443   4.239  1.00  0.00     0.200 A 
ATOM     17  C   UNL     1      -1.370  21.455   5.418  1.00  0.00     0.162 A 
BRANCH  14  18
ATOM     18  O   UNL     1      -2.343  22.003   1.875  1.00  0.00    -0.504 OA
ATOM     19  H   UNL     1      -3.338  22.193   1.855  1.00  0.00     0.293 HD
ENDBRANCH  14  18
BRANCH  16  20
ATOM     20  O   UNL     1      -3.410  20.875   4.224  1.00  0.00    -0.502 OA
ATOM     21  H   UNL     1      -4.112  21.103   4.920  1.00  0.00     0.293 HD
ENDBRANCH  16  20
BRANCH  17  22
ATOM     22  O   UNL     1      -1.878  20.885   6.585  1.00  0.00    -0.504 OA
ATOM     23  H   UNL     1      -1.898  21.396   7.460  1.00  0.00     0.293 HD
ENDBRANCH  17  22
ENDBRANCH   1  12
BRANCH   2  24
ATOM     24  O   UNL     1       1.430  24.153   2.007  1.00  0.00    -0.502 OA
ATOM     25  H   UNL     1       0.419  24.174   2.065  1.00  0.00     0.293 HD
ENDBRANCH   2  24
BRANCH   6  26
ATOM     26  O   UNL     1       6.418  25.379   3.414  1.00  0.00    -0.507 OA
ATOM     27  H   UNL     1       6.198  25.338   2.432  1.00  0.00     0.293 HD
ENDBRANCH   6  26
BRANCH   8  28
ATOM     28  O   UNL     1       6.566  23.515   7.817  1.00  0.00    -0.508 OA
ATOM     29  H   UNL     1       7.530  23.201   7.787  1.00  0.00     0.293 HD
ENDBRANCH   8  28
TORSDOF 7
ENDMDL
MODEL 7
REMARK VINA RESULT:    -3.469      2.127      6.602
REMARK INTER + INTRA:          -3.992
REMARK INTER:                  -3.797
REMARK INTRA:                  -0.195
REMARK UNBOUND:                 0.288
REMARK SMILES O=c1c(O)c(-c2cc(O)c(O)c(O)c2)oc2cc(O)cc(O)c12
REMARK SMILES IDX 5 1 3 2 2 3 1 4 23 5 21 6 20 7 18 8 17 9 16 10 15 11 6 12
REMARK SMILES IDX 7 13 8 14 14 15 10 16 12 17 9 18 11 20 13 22 4 24 22 26
REMARK SMILES IDX 19 28
REMARK H PARENT 9 19 11 21 13 23 4 25 22 27 19 29
REMARK Flexibility Score: inf
ROOT
ATOM      1  C   UNL     1       2.425  22.670   4.448  1.00  0.00     0.180 A 
ATOM      2  C   UNL     1       2.394  23.781   3.588  1.00  0.00     0.208 A 
ATOM      3  C   UNL     1       1.186  24.122   2.958  1.00  0.00     0.238 A 
ATOM      4  O   UNL     1       1.184  25.072   2.133  1.00  0.00    -0.285 OA
ATOM      5  C   UNL     1       0.011  23.384   3.240  1.00  0.00     0.111 A 
ATOM      6  C   UNL     1      -1.278  23.668   2.694  1.00  0.00     0.134 A 
ATOM      7  C   UNL     1      -2.346  22.803   2.961  1.00  0.00     0.093 A 
ATOM      8  C   UNL     1      -2.191  21.703   3.803  1.00  0.00     0.123 A 
ATOM      9  C   UNL     1      -0.949  21.447   4.386  1.00  0.00     0.094 A 
ATOM     10  C   UNL     1       0.145  22.269   4.109  1.00  0.00     0.146 A 
ATOM     11  O   UNL     1       1.315  21.977   4.667  1.00  0.00    -0.452 OA
ENDROOT
BRANCH   1  12
ATOM     12  C   UNL     1       3.663  22.241   5.136  1.00  0.00     0.029 A 
ATOM     13  C   UNL     1       3.695  22.202   6.538  1.00  0.00     0.062 A 
ATOM     14  C   UNL     1       4.843  21.780   7.215  1.00  0.00     0.162 A 
ATOM     15  C   UNL     1       4.790  21.813   4.415  1.00  0.00     0.062 A 
ATOM     16  C   UNL     1       5.977  21.374   6.491  1.00  0.00     0.200 A 
ATOM     17  C   UNL     1       5.945  21.387   5.085  1.00  0.00     0.162 A 
BRANCH  14  18
ATOM     18  O   UNL     1       4.840  21.772   8.611  1.00  0.00    -0.504 OA
ATOM     19  H   UNL     1       5.511  21.236   9.148  1.00  0.00     0.293 HD
ENDBRANCH  14  18
BRANCH  16  20
ATOM     20  O   UNL     1       7.120  20.958   7.174  1.00  0.00    -0.502 OA
ATOM     21  H   UNL     1       7.169  20.944   8.186  1.00  0.00     0.293 HD
ENDBRANCH  16  20
BRANCH  17  22
ATOM     22  O   UNL     1       7.061  20.970   4.359  1.00  0.00    -0.504 OA
ATOM     23  H   UNL     1       7.862  20.548   4.813  1.00  0.00     0.293 HD
ENDBRANCH  17  22
ENDBRANCH   1  12
BRANCH   2  24
ATOM     24  O   UNL     1       3.547  24.544   3.382  1.00  0.00    -0.502 OA
ATOM     25  H   UNL     1       3.983  24.637   2.473  1.00  0.00     0.293 HD
ENDBRANCH   2  24
BRANCH   6  26
ATOM     26  O   UNL     1      -1.566  24.789   1.911  1.00  0.00    -0.507 OA
ATOM     27  H   UNL     1      -1.023  25.097   1.120  1.00  0.00     0.293 HD
ENDBRANCH   6  26
BRANCH   8  28
ATOM     28  O   UNL     1      -3.281  20.875   4.060  1.00  0.00    -0.508 OA
ATOM     29  H   UNL     1      -3.686  20.292   3.336  1.00  0.00     0.293 HD
ENDBRANCH   8  28
TORSDOF 7
ENDMDL
