MODEL 1
REMARK VINA RESULT:    -4.128      0.000      0.000
REMARK INTER + INTRA:          -5.311
REMARK INTER:                  -4.973
REMARK INTRA:                  -0.339
REMARK UNBOUND:                -0.339
REMARK SMILES NC(=O)C[C@@H]([NH3+])C(=O)[O-]
REMARK SMILES IDX 4 1 5 2 6 3 7 7 8 8 9 9 2 10 3 11 1 12
REMARK H PARENT 6 4 6 5 6 6 1 13 1 14
REMARK Flexibility Score: inf
ROOT
ATOM      1  C   UNL     1      55.529  -1.193  18.823  1.00  0.00     0.171 C 
ENDROOT
BRANCH   1   2
ATOM      2  C   UNL     1      57.031  -1.171  19.169  1.00  0.00     0.237 C 
BRANCH   2   3
ATOM      3  N   UNL     1      57.400  -2.290  20.046  1.00  0.00    -0.350 N 
ATOM      4  H   UNL     1      56.562  -2.654  20.555  1.00  0.00     0.345 HD
ATOM      5  H   UNL     1      58.116  -1.980  20.741  1.00  0.00     0.345 HD
ATOM      6  H   UNL     1      57.819  -3.063  19.479  1.00  0.00     0.345 HD
ENDBRANCH   2   3
BRANCH   2   7
ATOM      7  C   UNL     1      57.848  -1.210  17.904  1.00  0.00     0.100 C 
ATOM      8  O   UNL     1      58.238  -0.141  17.363  1.00  0.00    -0.544 OA
ATOM      9  O   UNL     1      58.192  -2.429  17.337  1.00  0.00    -0.544 OA
ENDBRANCH   2   7
ENDBRANCH   1   2
BRANCH   1  10
ATOM     10  C   UNL     1      54.900  -2.512  19.164  1.00  0.00     0.223 C 
ATOM     11  O   UNL     1      55.117  -3.517  18.435  1.00  0.00    -0.275 OA
ATOM     12  N   UNL     1      54.032  -2.631  20.291  1.00  0.00    -0.369 N 
ATOM     13  H   UNL     1      53.822  -1.805  20.893  1.00  0.00     0.159 HD
ATOM     14  H   UNL     1      53.588  -3.549  20.519  1.00  0.00     0.159 HD
ENDBRANCH   1  10
TORSDOF 4
ENDMDL
MODEL 2
REMARK VINA RESULT:    -4.044     16.835     17.672
REMARK INTER + INTRA:          -5.210
REMARK INTER:                  -4.877
REMARK INTRA:                  -0.333
REMARK UNBOUND:                -0.339
REMARK SMILES NC(=O)C[C@@H]([NH3+])C(=O)[O-]
REMARK SMILES IDX 4 1 5 2 6 3 7 7 8 8 9 9 2 10 3 11 1 12
REMARK H PARENT 6 4 6 5 6 6 1 13 1 14
REMARK Flexibility Score: inf
ROOT
ATOM      1  C   UNL     1      49.662  13.062  16.934  1.00  0.00     0.171 C 
ENDROOT
BRANCH   1   2
ATOM      2  C   UNL     1      49.159  13.224  15.485  1.00  0.00     0.237 C 
BRANCH   2   3
ATOM      3  N   UNL     1      47.995  14.117  15.414  1.00  0.00    -0.350 N 
ATOM      4  H   UNL     1      48.282  15.079  15.120  1.00  0.00     0.345 HD
ATOM      5  H   UNL     1      47.527  14.170  16.348  1.00  0.00     0.345 HD
ATOM      6  H   UNL     1      47.300  13.743  14.729  1.00  0.00     0.345 HD
ENDBRANCH   2   3
BRANCH   2   7
ATOM      7  C   UNL     1      50.270  13.746  14.613  1.00  0.00     0.100 C 
ATOM      8  O   UNL     1      50.969  12.954  13.927  1.00  0.00    -0.544 OA
ATOM      9  O   UNL     1      50.518  15.111  14.547  1.00  0.00    -0.544 OA
ENDBRANCH   2   7
ENDBRANCH   1   2
BRANCH   1  10
ATOM     10  C   UNL     1      49.106  14.124  17.836  1.00  0.00     0.223 C 
ATOM     11  O   UNL     1      49.566  15.296  17.780  1.00  0.00    -0.275 OA
ATOM     12  N   UNL     1      48.083  13.810  18.780  1.00  0.00    -0.369 N 
ATOM     13  H   UNL     1      47.706  12.840  18.857  1.00  0.00     0.159 HD
ATOM     14  H   UNL     1      47.706  14.551  19.414  1.00  0.00     0.159 HD
ENDBRANCH   1  10
TORSDOF 4
ENDMDL
MODEL 3
REMARK VINA RESULT:    -3.937     17.171     17.933
REMARK INTER + INTRA:          -5.081
REMARK INTER:                  -4.831
REMARK INTRA:                  -0.250
REMARK UNBOUND:                -0.339
REMARK SMILES NC(=O)C[C@@H]([NH3+])C(=O)[O-]
REMARK SMILES IDX 4 1 5 2 6 3 7 7 8 8 9 9 2 10 3 11 1 12
REMARK H PARENT 6 4 6 5 6 6 1 13 1 14
REMARK Flexibility Score: inf
ROOT
ATOM      1  C   UNL     1      49.522  14.222  17.668  1.00  0.00     0.171 C 
ENDROOT
BRANCH   1   2
ATOM      2  C   UNL     1      49.208  13.906  16.191  1.00  0.00     0.237 C 
BRANCH   2   3
ATOM      3  N   UNL     1      47.794  13.555  16.004  1.00  0.00    -0.350 N 
ATOM      4  H   UNL     1      47.171  14.287  16.416  1.00  0.00     0.345 HD
ATOM      5  H   UNL     1      47.590  12.635  16.459  1.00  0.00     0.345 HD
ATOM      6  H   UNL     1      47.583  13.460  14.984  1.00  0.00     0.345 HD
ENDBRANCH   2   3
BRANCH   2   7
ATOM      7  C   UNL     1      49.570  15.085  15.328  1.00  0.00     0.100 C 
ATOM      8  O   UNL     1      48.858  16.124  15.335  1.00  0.00    -0.544 OA
ATOM      9  O   UNL     1      50.706  15.040  14.531  1.00  0.00    -0.544 OA
ENDBRANCH   2   7
ENDBRANCH   1   2
BRANCH   1  10
ATOM     10  C   UNL     1      48.680  13.403  18.601  1.00  0.00     0.223 C 
ATOM     11  O   UNL     1      48.835  12.153  18.651  1.00  0.00    -0.275 OA
ATOM     12  N   UNL     1      47.682  14.024  19.411  1.00  0.00    -0.369 N 
ATOM     13  H   UNL     1      47.523  15.055  19.367  1.00  0.00     0.159 HD
ATOM     14  H   UNL     1      47.090  13.449  20.052  1.00  0.00     0.159 HD
ENDBRANCH   1  10
TORSDOF 4
ENDMDL
MODEL 4
REMARK VINA RESULT:    -3.856     16.886     17.625
REMARK INTER + INTRA:          -4.983
REMARK INTER:                  -4.696
REMARK INTRA:                  -0.288
REMARK UNBOUND:                -0.339
REMARK SMILES NC(=O)C[C@@H]([NH3+])C(=O)[O-]
REMARK SMILES IDX 4 1 5 2 6 3 7 7 8 8 9 9 2 10 3 11 1 12
REMARK H PARENT 6 4 6 5 6 6 1 13 1 14
REMARK Flexibility Score: inf
ROOT
ATOM      1  C   UNL     1      49.321  13.321  17.685  1.00  0.00     0.171 C 
ENDROOT
BRANCH   1   2
ATOM      2  C   UNL     1      48.830  13.814  16.309  1.00  0.00     0.237 C 
BRANCH   2   3
ATOM      3  N   UNL     1      48.912  15.277  16.199  1.00  0.00    -0.350 N 
ATOM      4  H   UNL     1      48.846  15.579  15.199  1.00  0.00     0.345 HD
ATOM      5  H   UNL     1      49.816  15.616  16.601  1.00  0.00     0.345 HD
ATOM      6  H   UNL     1      48.135  15.719  16.742  1.00  0.00     0.345 HD
ENDBRANCH   2   3
BRANCH   2   7
ATOM      7  C   UNL     1      49.635  13.164  15.215  1.00  0.00     0.100 C 
ATOM      8  O   UNL     1      50.447  13.842  14.531  1.00  0.00    -0.544 OA
ATOM      9  O   UNL     1      49.500  11.805  14.967  1.00  0.00    -0.544 OA
ENDBRANCH   2   7
ENDBRANCH   1   2
BRANCH   1  10
ATOM     10  C   UNL     1      49.029  14.318  18.768  1.00  0.00     0.223 C 
ATOM     11  O   UNL     1      49.891  15.187  19.067  1.00  0.00    -0.275 OA
ATOM     12  N   UNL     1      47.795  14.268  19.485  1.00  0.00    -0.369 N 
ATOM     13  H   UNL     1      47.079  13.541  19.267  1.00  0.00     0.159 HD
ATOM     14  H   UNL     1      47.601  14.957  20.246  1.00  0.00     0.159 HD
ENDBRANCH   1  10
TORSDOF 4
ENDMDL
MODEL 5
REMARK VINA RESULT:    -3.727     16.887     17.692
REMARK INTER + INTRA:          -4.829
REMARK INTER:                  -4.343
REMARK INTRA:                  -0.486
REMARK UNBOUND:                -0.339
REMARK SMILES NC(=O)C[C@@H]([NH3+])C(=O)[O-]
REMARK SMILES IDX 4 1 5 2 6 3 7 7 8 8 9 9 2 10 3 11 1 12
REMARK H PARENT 6 4 6 5 6 6 1 13 1 14
REMARK Flexibility Score: inf
ROOT
ATOM      1  C   UNL     1      48.491  13.780  16.260  1.00  0.00     0.171 C 
ENDROOT
BRANCH   1   2
ATOM      2  C   UNL     1      49.037  13.746  17.702  1.00  0.00     0.237 C 
BRANCH   2   3
ATOM      3  N   UNL     1      50.081  12.724  17.860  1.00  0.00    -0.350 N 
ATOM      4  H   UNL     1      49.733  11.924  18.437  1.00  0.00     0.345 HD
ATOM      5  H   UNL     1      50.922  13.141  18.321  1.00  0.00     0.345 HD
ATOM      6  H   UNL     1      50.375  12.368  16.921  1.00  0.00     0.345 HD
ENDBRANCH   2   3
BRANCH   2   7
ATOM      7  C   UNL     1      49.574  15.102  18.077  1.00  0.00     0.100 C 
ATOM      8  O   UNL     1      49.900  15.352  19.268  1.00  0.00    -0.544 OA
ATOM      9  O   UNL     1      49.730  16.080  17.104  1.00  0.00    -0.544 OA
ENDBRANCH   2   7
ENDBRANCH   1   2
BRANCH   1  10
ATOM     10  C   UNL     1      49.490  13.246  15.276  1.00  0.00     0.223 C 
ATOM     11  O   UNL     1      49.536  12.009  15.039  1.00  0.00    -0.275 OA
ATOM     12  N   UNL     1      50.412  14.124  14.631  1.00  0.00    -0.369 N 
ATOM     13  H   UNL     1      50.406  15.148  14.832  1.00  0.00     0.159 HD
ATOM     14  H   UNL     1      51.114  13.746  13.954  1.00  0.00     0.159 HD
ENDBRANCH   1  10
TORSDOF 4
ENDMDL
MODEL 6
REMARK VINA RESULT:    -3.623     17.266     17.994
REMARK INTER + INTRA:          -4.703
REMARK INTER:                  -4.228
REMARK INTRA:                  -0.475
REMARK UNBOUND:                -0.339
REMARK SMILES NC(=O)C[C@@H]([NH3+])C(=O)[O-]
REMARK SMILES IDX 4 1 5 2 6 3 7 7 8 8 9 9 2 10 3 11 1 12
REMARK H PARENT 6 4 6 5 6 6 1 13 1 14
REMARK Flexibility Score: inf
ROOT
ATOM      1  C   UNL     1      48.492  13.844  16.150  1.00  0.00     0.171 C 
ENDROOT
BRANCH   1   2
ATOM      2  C   UNL     1      49.038  15.206  15.675  1.00  0.00     0.237 C 
BRANCH   2   3
ATOM      3  N   UNL     1      49.352  16.086  16.808  1.00  0.00    -0.350 N 
ATOM      4  H   UNL     1      48.550  16.724  17.017  1.00  0.00     0.345 HD
ATOM      5  H   UNL     1      50.199  16.660  16.591  1.00  0.00     0.345 HD
ATOM      6  H   UNL     1      49.564  15.513  17.657  1.00  0.00     0.345 HD
ENDBRANCH   2   3
BRANCH   2   7
ATOM      7  C   UNL     1      50.261  14.997  14.822  1.00  0.00     0.100 C 
ATOM      8  O   UNL     1      50.883  15.984  14.346  1.00  0.00    -0.544 OA
ATOM      9  O   UNL     1      50.722  13.712  14.572  1.00  0.00    -0.544 OA
ENDBRANCH   2   7
ENDBRANCH   1   2
BRANCH   1  10
ATOM     10  C   UNL     1      49.022  13.477  17.506  1.00  0.00     0.223 C 
ATOM     11  O   UNL     1      48.447  13.910  18.540  1.00  0.00    -0.275 OA
ATOM     12  N   UNL     1      50.192  12.668  17.632  1.00  0.00    -0.369 N 
ATOM     13  H   UNL     1      50.695  12.320  16.787  1.00  0.00     0.159 HD
ATOM     14  H   UNL     1      50.563  12.424  18.578  1.00  0.00     0.159 HD
ENDBRANCH   1  10
TORSDOF 4
ENDMDL
MODEL 7
REMARK VINA RESULT:    -3.622      6.499      7.355
REMARK INTER + INTRA:          -4.702
REMARK INTER:                  -4.618
REMARK INTRA:                  -0.085
REMARK UNBOUND:                -0.339
REMARK SMILES NC(=O)C[C@@H]([NH3+])C(=O)[O-]
REMARK SMILES IDX 4 1 5 2 6 3 7 7 8 8 9 9 2 10 3 11 1 12
REMARK H PARENT 6 4 6 5 6 6 1 13 1 14
REMARK Flexibility Score: inf
ROOT
ATOM      1  C   UNL     1      50.985   2.323  20.792  1.00  0.00     0.171 C 
ENDROOT
BRANCH   1   2
ATOM      2  C   UNL     1      51.841   1.447  21.729  1.00  0.00     0.237 C 
BRANCH   2   3
ATOM      3  N   UNL     1      52.230   2.177  22.943  1.00  0.00    -0.350 N 
ATOM      4  H   UNL     1      52.244   1.539  23.772  1.00  0.00     0.345 HD
ATOM      5  H   UNL     1      51.557   2.958  23.122  1.00  0.00     0.345 HD
ATOM      6  H   UNL     1      53.180   2.597  22.817  1.00  0.00     0.345 HD
ENDBRANCH   2   3
BRANCH   2   7
ATOM      7  C   UNL     1      51.084   0.197  22.093  1.00  0.00     0.100 C 
ATOM      8  O   UNL     1      49.848   0.245  22.328  1.00  0.00    -0.544 OA
ATOM      9  O   UNL     1      51.746  -1.022  22.153  1.00  0.00    -0.544 OA
ENDBRANCH   2   7
ENDBRANCH   1   2
BRANCH   1  10
ATOM     10  C   UNL     1      51.730   2.692  19.543  1.00  0.00     0.223 C 
ATOM     11  O   UNL     1      51.550   3.824  19.018  1.00  0.00    -0.275 OA
ATOM     12  N   UNL     1      52.617   1.759  18.925  1.00  0.00    -0.369 N 
ATOM     13  H   UNL     1      52.761   0.809  19.332  1.00  0.00     0.159 HD
ATOM     14  H   UNL     1      53.125   2.016  18.050  1.00  0.00     0.159 HD
ENDBRANCH   1  10
TORSDOF 4
ENDMDL
MODEL 8
REMARK VINA RESULT:    -3.576      1.867      3.987
REMARK INTER + INTRA:          -4.647
REMARK INTER:                  -4.338
REMARK INTRA:                  -0.309
REMARK UNBOUND:                -0.339
REMARK SMILES NC(=O)C[C@@H]([NH3+])C(=O)[O-]
REMARK SMILES IDX 4 1 5 2 6 3 7 7 8 8 9 9 2 10 3 11 1 12
REMARK H PARENT 6 4 6 5 6 6 1 13 1 14
REMARK Flexibility Score: inf
ROOT
ATOM      1  C   UNL     1      55.469  -1.662  18.760  1.00  0.00     0.171 C 
ENDROOT
BRANCH   1   2
ATOM      2  C   UNL     1      54.444  -2.815  18.773  1.00  0.00     0.237 C 
BRANCH   2   3
ATOM      3  N   UNL     1      55.106  -4.125  18.714  1.00  0.00    -0.350 N 
ATOM      4  H   UNL     1      54.922  -4.673  19.586  1.00  0.00     0.345 HD
ATOM      5  H   UNL     1      56.138  -4.000  18.598  1.00  0.00     0.345 HD
ATOM      6  H   UNL     1      54.755  -4.664  17.890  1.00  0.00     0.345 HD
ENDBRANCH   2   3
BRANCH   2   7
ATOM      7  C   UNL     1      53.585  -2.720  20.006  1.00  0.00     0.100 C 
ATOM      8  O   UNL     1      53.381  -1.606  20.558  1.00  0.00    -0.544 OA
ATOM      9  O   UNL     1      52.995  -3.863  20.531  1.00  0.00    -0.544 OA
ENDBRANCH   2   7
ENDBRANCH   1   2
BRANCH   1  10
ATOM     10  C   UNL     1      56.869  -2.161  18.965  1.00  0.00     0.223 C 
ATOM     11  O   UNL     1      57.491  -2.691  18.006  1.00  0.00    -0.275 OA
ATOM     12  N   UNL     1      57.489  -2.072  20.247  1.00  0.00    -0.369 N 
ATOM     13  H   UNL     1      56.981  -1.658  21.059  1.00  0.00     0.159 HD
ATOM     14  H   UNL     1      58.460  -2.431  20.389  1.00  0.00     0.159 HD
ENDBRANCH   1  10
TORSDOF 4
ENDMDL
MODEL 9
REMARK VINA RESULT:    -3.502     13.216     14.130
REMARK INTER + INTRA:          -4.557
REMARK INTER:                  -4.354
REMARK INTRA:                  -0.203
REMARK UNBOUND:                -0.339
REMARK SMILES NC(=O)C[C@@H]([NH3+])C(=O)[O-]
REMARK SMILES IDX 4 1 5 2 6 3 7 7 8 8 9 9 2 10 3 11 1 12
REMARK H PARENT 6 4 6 5 6 6 1 13 1 14
REMARK Flexibility Score: inf
ROOT
ATOM      1  C   UNL     1      48.991   8.228  20.203  1.00  0.00     0.171 C 
ENDROOT
BRANCH   1   2
ATOM      2  C   UNL     1      47.711   8.859  19.619  1.00  0.00     0.237 C 
BRANCH   2   3
ATOM      3  N   UNL     1      46.582   7.919  19.654  1.00  0.00    -0.350 N 
ATOM      4  H   UNL     1      46.866   6.983  19.284  1.00  0.00     0.345 HD
ATOM      5  H   UNL     1      45.791   8.289  19.079  1.00  0.00     0.345 HD
ATOM      6  H   UNL     1      46.240   7.811  20.636  1.00  0.00     0.345 HD
ENDBRANCH   2   3
BRANCH   2   7
ATOM      7  C   UNL     1      47.368  10.114  20.377  1.00  0.00     0.100 C 
ATOM      8  O   UNL     1      47.699  11.242  19.926  1.00  0.00    -0.544 OA
ATOM      9  O   UNL     1      46.666  10.033  21.572  1.00  0.00    -0.544 OA
ENDBRANCH   2   7
ENDBRANCH   1   2
BRANCH   1  10
ATOM     10  C   UNL     1      50.194   8.532  19.359  1.00  0.00     0.223 C 
ATOM     11  O   UNL     1      51.118   7.680  19.256  1.00  0.00    -0.275 OA
ATOM     12  N   UNL     1      50.316   9.791  18.698  1.00  0.00    -0.369 N 
ATOM     13  H   UNL     1      49.573  10.517  18.790  1.00  0.00     0.159 HD
ATOM     14  H   UNL     1      51.161  10.003  18.120  1.00  0.00     0.159 HD
ENDBRANCH   1  10
TORSDOF 4
ENDMDL
