MODEL 1
REMARK VINA RESULT:    -5.486      0.000      0.000
REMARK INTER + INTRA:          -6.125
REMARK INTER:                  -5.967
REMARK INTRA:                  -0.158
REMARK UNBOUND:                -0.158
REMARK SMILES CC(=O)[C@H]1CC[C@H]2[C@H]3CC=C4C[C@H](O)CC[C@@]4(C)[C@@H]3CC[C@@]12C
REMARK SMILES IDX 4 1 5 2 6 3 7 4 22 5 21 6 20 7 19 8 8 9 9 10 10 11 11 12
REMARK SMILES IDX 17 13 16 14 15 15 13 16 12 17 18 18 23 19 2 20 1 21 3 22
REMARK SMILES IDX 14 23
REMARK H PARENT 14 24
REMARK Flexibility Score: inf
ROOT
ATOM      1  C   UNL     1     104.431 116.026 106.428  1.00  0.00     0.062 C 
ATOM      2  C   UNL     1     105.084 117.411 106.516  1.00  0.00     0.012 C 
ATOM      3  C   UNL     1     106.593 117.169 106.572  1.00  0.00     0.005 C 
ATOM      4  C   UNL     1     106.800 115.647 106.455  1.00  0.00    -0.001 C 
ATOM      5  C   UNL     1     105.485 115.031 106.975  1.00  0.00    -0.020 C 
ATOM      6  C   UNL     1     105.482 114.989 108.533  1.00  0.00     0.008 C 
ATOM      7  C   UNL     1     106.727 114.320 109.116  1.00  0.00     0.005 C 
ATOM      8  C   UNL     1     108.026 115.033 108.666  1.00  0.00     0.003 C 
ATOM      9  C   UNL     1     108.095 115.081 107.120  1.00  0.00     0.000 C 
ATOM     10  C   UNL     1     109.334 115.865 106.660  1.00  0.00     0.031 C 
ATOM     11  C   UNL     1     110.588 115.459 107.372  1.00  0.00    -0.027 C 
ATOM     12  C   UNL     1     110.600 114.950 108.622  1.00  0.00    -0.065 C 
ATOM     13  C   UNL     1     109.332 114.401 109.299  1.00  0.00    -0.008 C 
ATOM     14  C   UNL     1     109.381 114.769 110.817  1.00  0.00     0.014 C 
ATOM     15  C   UNL     1     110.721 114.442 111.493  1.00  0.00     0.033 C 
ATOM     16  C   UNL     1     111.881 115.144 110.773  1.00  0.00     0.118 C 
ATOM     17  C   UNL     1     111.944 114.736 109.296  1.00  0.00     0.063 C 
ATOM     18  C   UNL     1     109.347 112.854 109.145  1.00  0.00     0.016 C 
ATOM     19  C   UNL     1     105.245 113.621 106.386  1.00  0.00     0.012 C 
ENDROOT
BRANCH   1  20
ATOM     20  C   UNL     1     103.065 115.953 107.090  1.00  0.00     0.133 C 
ATOM     21  C   UNL     1     102.617 117.017 108.049  1.00  0.00     0.088 C 
ATOM     22  O   UNL     1     102.310 115.023 106.853  1.00  0.00    -0.300 OA
ENDBRANCH   1  20
BRANCH  16  23
ATOM     23  O   UNL     1     113.101 114.872 111.417  1.00  0.00    -0.393 OA
ATOM     24  H   UNL     1     113.832 115.053 110.768  1.00  0.00     0.210 HD
ENDBRANCH  16  23
TORSDOF 2
ENDMDL
MODEL 2
REMARK VINA RESULT:    -5.338      5.358      8.454
REMARK INTER + INTRA:          -5.964
REMARK INTER:                  -5.824
REMARK INTRA:                  -0.140
REMARK UNBOUND:                -0.158
REMARK SMILES CC(=O)[C@H]1CC[C@H]2[C@H]3CC=C4C[C@H](O)CC[C@@]4(C)[C@@H]3CC[C@@]12C
REMARK SMILES IDX 4 1 5 2 6 3 7 4 22 5 21 6 20 7 19 8 8 9 9 10 10 11 11 12
REMARK SMILES IDX 17 13 16 14 15 15 13 16 12 17 18 18 23 19 2 20 1 21 3 22
REMARK SMILES IDX 14 23
REMARK H PARENT 14 24
REMARK Flexibility Score: inf
ROOT
ATOM      1  C   UNL     1     103.266 115.298 105.914  1.00  0.00     0.062 C 
ATOM      2  C   UNL     1     104.434 116.264 105.678  1.00  0.00     0.012 C 
ATOM      3  C   UNL     1     104.532 116.454 104.163  1.00  0.00     0.005 C 
ATOM      4  C   UNL     1     103.380 115.643 103.542  1.00  0.00    -0.001 C 
ATOM      5  C   UNL     1     103.074 114.540 104.576  1.00  0.00    -0.020 C 
ATOM      6  C   UNL     1     104.085 113.363 104.432  1.00  0.00     0.008 C 
ATOM      7  C   UNL     1     104.183 112.830 103.002  1.00  0.00     0.005 C 
ATOM      8  C   UNL     1     104.604 113.938 102.004  1.00  0.00     0.003 C 
ATOM      9  C   UNL     1     103.615 115.127 102.086  1.00  0.00     0.000 C 
ATOM     10  C   UNL     1     104.071 116.271 101.167  1.00  0.00     0.031 C 
ATOM     11  C   UNL     1     104.449 115.809  99.793  1.00  0.00    -0.027 C 
ATOM     12  C   UNL     1     104.917 114.572  99.528  1.00  0.00    -0.065 C 
ATOM     13  C   UNL     1     104.772 113.407 100.522  1.00  0.00    -0.008 C 
ATOM     14  C   UNL     1     106.062 112.528 100.449  1.00  0.00     0.014 C 
ATOM     15  C   UNL     1     106.486 112.165  99.018  1.00  0.00     0.033 C 
ATOM     16  C   UNL     1     106.696 113.429  98.174  1.00  0.00     0.118 C 
ATOM     17  C   UNL     1     105.422 114.281  98.126  1.00  0.00     0.063 C 
ATOM     18  C   UNL     1     103.547 112.558 100.081  1.00  0.00     0.016 C 
ATOM     19  C   UNL     1     101.617 114.033 104.454  1.00  0.00     0.012 C 
ENDROOT
BRANCH   1  20
ATOM     20  C   UNL     1     103.443 114.417 107.140  1.00  0.00     0.133 C 
ATOM     21  C   UNL     1     104.807 114.148 107.704  1.00  0.00     0.088 C 
ATOM     22  O   UNL     1     102.473 113.910 107.683  1.00  0.00    -0.300 OA
ENDBRANCH   1  20
BRANCH  16  23
ATOM     23  O   UNL     1     107.119 113.094  96.875  1.00  0.00    -0.393 OA
ATOM     24  H   UNL     1     106.351 112.672  96.407  1.00  0.00     0.210 HD
ENDBRANCH  16  23
TORSDOF 2
ENDMDL
MODEL 3
REMARK VINA RESULT:    -5.213     13.650     15.841
REMARK INTER + INTRA:          -5.828
REMARK INTER:                  -5.686
REMARK INTRA:                  -0.142
REMARK UNBOUND:                -0.158
REMARK SMILES CC(=O)[C@H]1CC[C@H]2[C@H]3CC=C4C[C@H](O)CC[C@@]4(C)[C@@H]3CC[C@@]12C
REMARK SMILES IDX 4 1 5 2 6 3 7 4 22 5 21 6 20 7 19 8 8 9 9 10 10 11 11 12
REMARK SMILES IDX 17 13 16 14 15 15 13 16 12 17 18 18 23 19 2 20 1 21 3 22
REMARK SMILES IDX 14 23
REMARK H PARENT 14 24
REMARK Flexibility Score: inf
ROOT
ATOM      1  C   UNL     1      98.788 101.266 113.839  1.00  0.00     0.062 C 
ATOM      2  C   UNL     1     100.022 101.736 113.059  1.00  0.00     0.012 C 
ATOM      3  C   UNL     1     100.416 103.088 113.658  1.00  0.00     0.005 C 
ATOM      4  C   UNL     1      99.440 103.355 114.820  1.00  0.00    -0.001 C 
ATOM      5  C   UNL     1      98.177 102.543 114.467  1.00  0.00    -0.020 C 
ATOM      6  C   UNL     1      97.296 103.323 113.444  1.00  0.00     0.008 C 
ATOM      7  C   UNL     1      96.983 104.751 113.892  1.00  0.00     0.005 C 
ATOM      8  C   UNL     1      98.273 105.575 114.127  1.00  0.00     0.003 C 
ATOM      9  C   UNL     1      99.178 104.858 115.158  1.00  0.00     0.000 C 
ATOM     10  C   UNL     1     100.502 105.618 115.335  1.00  0.00     0.031 C 
ATOM     11  C   UNL     1     100.315 107.093 115.521  1.00  0.00    -0.027 C 
ATOM     12  C   UNL     1      99.265 107.777 115.023  1.00  0.00    -0.065 C 
ATOM     13  C   UNL     1      97.985 107.078 114.535  1.00  0.00    -0.008 C 
ATOM     14  C   UNL     1      97.448 107.841 113.281  1.00  0.00     0.014 C 
ATOM     15  C   UNL     1      97.375 109.365 113.467  1.00  0.00     0.033 C 
ATOM     16  C   UNL     1      98.748 109.935 113.847  1.00  0.00     0.118 C 
ATOM     17  C   UNL     1      99.277 109.291 115.135  1.00  0.00     0.063 C 
ATOM     18  C   UNL     1      96.934 107.164 115.677  1.00  0.00     0.016 C 
ATOM     19  C   UNL     1      97.362 102.180 115.731  1.00  0.00     0.012 C 
ENDROOT
BRANCH   1  20
ATOM     20  C   UNL     1      97.827 100.427 113.010  1.00  0.00     0.133 C 
ATOM     21  C   UNL     1      98.013 100.282 111.529  1.00  0.00     0.088 C 
ATOM     22  O   UNL     1      96.884  99.860 113.541  1.00  0.00    -0.300 OA
ENDBRANCH   1  20
BRANCH  16  23
ATOM     23  O   UNL     1      98.684 111.334 113.981  1.00  0.00    -0.393 OA
ATOM     24  H   UNL     1      98.487 111.538 114.933  1.00  0.00     0.210 HD
ENDBRANCH  16  23
TORSDOF 2
ENDMDL
MODEL 4
REMARK VINA RESULT:    -5.158      4.703      7.479
REMARK INTER + INTRA:          -5.768
REMARK INTER:                  -5.736
REMARK INTRA:                  -0.032
REMARK UNBOUND:                -0.158
REMARK SMILES CC(=O)[C@H]1CC[C@H]2[C@H]3CC=C4C[C@H](O)CC[C@@]4(C)[C@@H]3CC[C@@]12C
REMARK SMILES IDX 4 1 5 2 6 3 7 4 22 5 21 6 20 7 19 8 8 9 9 10 10 11 11 12
REMARK SMILES IDX 17 13 16 14 15 15 13 16 12 17 18 18 23 19 2 20 1 21 3 22
REMARK SMILES IDX 14 23
REMARK H PARENT 14 24
REMARK Flexibility Score: inf
ROOT
ATOM      1  C   UNL     1     104.703 113.009  99.802  1.00  0.00     0.062 C 
ATOM      2  C   UNL     1     106.001 112.482 100.427  1.00  0.00     0.012 C 
ATOM      3  C   UNL     1     105.755 112.420 101.935  1.00  0.00     0.005 C 
ATOM      4  C   UNL     1     104.294 112.853 102.161  1.00  0.00    -0.001 C 
ATOM      5  C   UNL     1     103.955 113.740 100.945  1.00  0.00    -0.020 C 
ATOM      6  C   UNL     1     104.500 115.185 101.157  1.00  0.00     0.008 C 
ATOM      7  C   UNL     1     104.061 115.801 102.486  1.00  0.00     0.005 C 
ATOM      8  C   UNL     1     104.517 114.944 103.694  1.00  0.00     0.003 C 
ATOM      9  C   UNL     1     103.981 113.499 103.549  1.00  0.00     0.000 C 
ATOM     10  C   UNL     1     104.500 112.615 104.694  1.00  0.00     0.031 C 
ATOM     11  C   UNL     1     104.354 113.250 106.042  1.00  0.00    -0.027 C 
ATOM     12  C   UNL     1     104.350 114.585 106.239  1.00  0.00    -0.065 C 
ATOM     13  C   UNL     1     104.130 115.584 105.089  1.00  0.00    -0.008 C 
ATOM     14  C   UNL     1     105.038 116.832 105.336  1.00  0.00     0.014 C 
ATOM     15  C   UNL     1     104.949 117.392 106.764  1.00  0.00     0.033 C 
ATOM     16  C   UNL     1     105.297 116.311 107.797  1.00  0.00     0.118 C 
ATOM     17  C   UNL     1     104.364 115.101 107.666  1.00  0.00     0.063 C 
ATOM     18  C   UNL     1     102.638 116.020 105.120  1.00  0.00     0.016 C 
ATOM     19  C   UNL     1     102.435 113.760 100.662  1.00  0.00     0.012 C 
ENDROOT
BRANCH   1  20
ATOM     20  C   UNL     1     104.923 113.830  98.542  1.00  0.00     0.133 C 
ATOM     21  C   UNL     1     106.297 114.000  97.964  1.00  0.00     0.088 C 
ATOM     22  O   UNL     1     103.981 114.367  97.980  1.00  0.00    -0.300 OA
ENDBRANCH   1  20
BRANCH  16  23
ATOM     23  O   UNL     1     105.250 116.837 109.100  1.00  0.00    -0.393 OA
ATOM     24  H   UNL     1     106.185 116.932 109.422  1.00  0.00     0.210 HD
ENDBRANCH  16  23
TORSDOF 2
ENDMDL
MODEL 5
REMARK VINA RESULT:    -5.142      3.392      7.705
REMARK INTER + INTRA:          -5.751
REMARK INTER:                  -5.704
REMARK INTRA:                  -0.047
REMARK UNBOUND:                -0.158
REMARK SMILES CC(=O)[C@H]1CC[C@H]2[C@H]3CC=C4C[C@H](O)CC[C@@]4(C)[C@@H]3CC[C@@]12C
REMARK SMILES IDX 4 1 5 2 6 3 7 4 22 5 21 6 20 7 19 8 8 9 9 10 10 11 11 12
REMARK SMILES IDX 17 13 16 14 15 15 13 16 12 17 18 18 23 19 2 20 1 21 3 22
REMARK SMILES IDX 14 23
REMARK H PARENT 14 24
REMARK Flexibility Score: inf
ROOT
ATOM      1  C   UNL     1     106.838 115.577 108.244  1.00  0.00     0.062 C 
ATOM      2  C   UNL     1     107.853 115.563 107.094  1.00  0.00     0.012 C 
ATOM      3  C   UNL     1     107.045 115.752 105.809  1.00  0.00     0.005 C 
ATOM      4  C   UNL     1     105.576 115.934 106.235  1.00  0.00    -0.001 C 
ATOM      5  C   UNL     1     105.472 115.225 107.602  1.00  0.00    -0.020 C 
ATOM      6  C   UNL     1     105.308 113.687 107.407  1.00  0.00     0.008 C 
ATOM      7  C   UNL     1     104.165 113.324 106.458  1.00  0.00     0.005 C 
ATOM      8  C   UNL     1     104.358 113.958 105.058  1.00  0.00     0.003 C 
ATOM      9  C   UNL     1     104.502 115.494 105.189  1.00  0.00     0.000 C 
ATOM     10  C   UNL     1     104.784 116.128 103.817  1.00  0.00     0.031 C 
ATOM     11  C   UNL     1     103.869 115.631 102.739  1.00  0.00    -0.027 C 
ATOM     12  C   UNL     1     103.295 114.411 102.756  1.00  0.00    -0.065 C 
ATOM     13  C   UNL     1     103.222 113.554 104.032  1.00  0.00    -0.008 C 
ATOM     14  C   UNL     1     103.417 112.055 103.635  1.00  0.00     0.014 C 
ATOM     15  C   UNL     1     102.546 111.607 102.452  1.00  0.00     0.033 C 
ATOM     16  C   UNL     1     102.804 112.486 101.220  1.00  0.00     0.118 C 
ATOM     17  C   UNL     1     102.525 113.963 101.526  1.00  0.00     0.063 C 
ATOM     18  C   UNL     1     101.807 113.741 104.648  1.00  0.00     0.016 C 
ATOM     19  C   UNL     1     104.317 115.800 108.455  1.00  0.00     0.012 C 
ENDROOT
BRANCH   1  20
ATOM     20  C   UNL     1     107.243 114.708 109.424  1.00  0.00     0.133 C 
ATOM     21  C   UNL     1     108.551 113.974 109.426  1.00  0.00     0.088 C 
ATOM     22  O   UNL     1     106.504 114.593 110.390  1.00  0.00    -0.300 OA
ENDBRANCH   1  20
BRANCH  16  23
ATOM     23  O   UNL     1     102.031 112.050 100.129  1.00  0.00    -0.393 OA
ATOM     24  H   UNL     1     101.435 112.799  99.863  1.00  0.00     0.210 HD
ENDBRANCH  16  23
TORSDOF 2
ENDMDL
MODEL 6
REMARK VINA RESULT:    -5.058      3.507      5.942
REMARK INTER + INTRA:          -5.659
REMARK INTER:                  -5.599
REMARK INTRA:                  -0.060
REMARK UNBOUND:                -0.158
REMARK SMILES CC(=O)[C@H]1CC[C@H]2[C@H]3CC=C4C[C@H](O)CC[C@@]4(C)[C@@H]3CC[C@@]12C
REMARK SMILES IDX 4 1 5 2 6 3 7 4 22 5 21 6 20 7 19 8 8 9 9 10 10 11 11 12
REMARK SMILES IDX 17 13 16 14 15 15 13 16 12 17 18 18 23 19 2 20 1 21 3 22
REMARK SMILES IDX 14 23
REMARK H PARENT 14 24
REMARK Flexibility Score: inf
ROOT
ATOM      1  C   UNL     1     102.830 113.322 102.214  1.00  0.00     0.062 C 
ATOM      2  C   UNL     1     101.885 112.760 103.283  1.00  0.00     0.012 C 
ATOM      3  C   UNL     1     101.930 113.745 104.453  1.00  0.00     0.005 C 
ATOM      4  C   UNL     1     102.855 114.899 104.021  1.00  0.00    -0.001 C 
ATOM      5  C   UNL     1     103.791 114.278 102.965  1.00  0.00    -0.020 C 
ATOM      6  C   UNL     1     104.952 113.500 103.655  1.00  0.00     0.008 C 
ATOM      7  C   UNL     1     105.698 114.338 104.695  1.00  0.00     0.005 C 
ATOM      8  C   UNL     1     104.748 114.852 105.806  1.00  0.00     0.003 C 
ATOM      9  C   UNL     1     103.585 115.656 105.177  1.00  0.00     0.000 C 
ATOM     10  C   UNL     1     102.586 116.096 106.259  1.00  0.00     0.031 C 
ATOM     11  C   UNL     1     103.246 116.703 107.459  1.00  0.00    -0.027 C 
ATOM     12  C   UNL     1     104.498 116.392 107.855  1.00  0.00    -0.065 C 
ATOM     13  C   UNL     1     105.498 115.674 106.932  1.00  0.00    -0.008 C 
ATOM     14  C   UNL     1     106.346 114.684 107.793  1.00  0.00     0.014 C 
ATOM     15  C   UNL     1     106.917 115.308 109.076  1.00  0.00     0.033 C 
ATOM     16  C   UNL     1     105.794 115.889 109.946  1.00  0.00     0.118 C 
ATOM     17  C   UNL     1     104.990 116.947 109.180  1.00  0.00     0.063 C 
ATOM     18  C   UNL     1     106.434 116.753 106.318  1.00  0.00     0.016 C 
ATOM     19  C   UNL     1     104.345 115.349 101.995  1.00  0.00     0.012 C 
ENDROOT
BRANCH   1  20
ATOM     20  C   UNL     1     103.507 112.250 101.374  1.00  0.00     0.133 C 
ATOM     21  C   UNL     1     104.219 112.604 100.102  1.00  0.00     0.088 C 
ATOM     22  O   UNL     1     103.478 111.080 101.724  1.00  0.00    -0.300 OA
ENDBRANCH   1  20
BRANCH  16  23
ATOM     23  O   UNL     1     106.316 116.427 111.136  1.00  0.00    -0.393 OA
ATOM     24  H   UNL     1     107.219 116.788 110.933  1.00  0.00     0.210 HD
ENDBRANCH  16  23
TORSDOF 2
ENDMDL
MODEL 7
REMARK VINA RESULT:    -5.044      8.910     10.376
REMARK INTER + INTRA:          -5.644
REMARK INTER:                  -5.488
REMARK INTRA:                  -0.156
REMARK UNBOUND:                -0.158
REMARK SMILES CC(=O)[C@H]1CC[C@H]2[C@H]3CC=C4C[C@H](O)CC[C@@]4(C)[C@@H]3CC[C@@]12C
REMARK SMILES IDX 4 1 5 2 6 3 7 4 22 5 21 6 20 7 19 8 8 9 9 10 10 11 11 12
REMARK SMILES IDX 17 13 16 14 15 15 13 16 12 17 18 18 23 19 2 20 1 21 3 22
REMARK SMILES IDX 14 23
REMARK H PARENT 14 24
REMARK Flexibility Score: inf
ROOT
ATOM      1  C   UNL     1      98.946 112.020 102.529  1.00  0.00     0.062 C 
ATOM      2  C   UNL     1      99.259 110.722 101.774  1.00  0.00     0.012 C 
ATOM      3  C   UNL     1     100.777 110.696 101.581  1.00  0.00     0.005 C 
ATOM      4  C   UNL     1     101.332 111.950 102.283  1.00  0.00    -0.001 C 
ATOM      5  C   UNL     1     100.159 112.952 102.281  1.00  0.00    -0.020 C 
ATOM      6  C   UNL     1     100.058 113.671 100.901  1.00  0.00     0.008 C 
ATOM      7  C   UNL     1     101.380 114.298 100.457  1.00  0.00     0.005 C 
ATOM      8  C   UNL     1     102.511 113.244 100.358  1.00  0.00     0.003 C 
ATOM      9  C   UNL     1     102.673 112.513 101.713  1.00  0.00     0.000 C 
ATOM     10  C   UNL     1     103.730 111.403 101.604  1.00  0.00     0.031 C 
ATOM     11  C   UNL     1     104.991 111.853 100.933  1.00  0.00    -0.027 C 
ATOM     12  C   UNL     1     105.034 112.845 100.020  1.00  0.00    -0.065 C 
ATOM     13  C   UNL     1     103.881 113.849  99.842  1.00  0.00    -0.008 C 
ATOM     14  C   UNL     1     103.740 114.180  98.322  1.00  0.00     0.014 C 
ATOM     15  C   UNL     1     105.070 114.528  97.636  1.00  0.00     0.033 C 
ATOM     16  C   UNL     1     106.086 113.391  97.806  1.00  0.00     0.118 C 
ATOM     17  C   UNL     1     106.341 113.094  99.289  1.00  0.00     0.063 C 
ATOM     18  C   UNL     1     104.256 115.143 100.617  1.00  0.00     0.016 C 
ATOM     19  C   UNL     1     100.287 113.980 103.430  1.00  0.00     0.012 C 
ENDROOT
BRANCH   1  20
ATOM     20  C   UNL     1      97.590 112.614 102.183  1.00  0.00     0.133 C 
ATOM     21  C   UNL     1      96.828 112.143 100.979  1.00  0.00     0.088 C 
ATOM     22  O   UNL     1      97.101 113.488 102.882  1.00  0.00    -0.300 OA
ENDBRANCH   1  20
BRANCH  16  23
ATOM     23  O   UNL     1     107.290 113.699  97.147  1.00  0.00    -0.393 OA
ATOM     24  H   UNL     1     107.166 113.497  96.182  1.00  0.00     0.210 HD
ENDBRANCH  16  23
TORSDOF 2
ENDMDL
MODEL 8
REMARK VINA RESULT:    -4.989     12.564     14.710
REMARK INTER + INTRA:          -5.584
REMARK INTER:                  -5.426
REMARK INTRA:                  -0.158
REMARK UNBOUND:                -0.158
REMARK SMILES CC(=O)[C@H]1CC[C@H]2[C@H]3CC=C4C[C@H](O)CC[C@@]4(C)[C@@H]3CC[C@@]12C
REMARK SMILES IDX 4 1 5 2 6 3 7 4 22 5 21 6 20 7 19 8 8 9 9 10 10 11 11 12
REMARK SMILES IDX 17 13 16 14 15 15 13 16 12 17 18 18 23 19 2 20 1 21 3 22
REMARK SMILES IDX 14 23
REMARK H PARENT 14 24
REMARK Flexibility Score: inf
ROOT
ATOM      1  C   UNL     1      98.181 110.472 114.844  1.00  0.00     0.062 C 
ATOM      2  C   UNL     1      98.091 110.401 113.314  1.00  0.00     0.012 C 
ATOM      3  C   UNL     1      97.541 109.013 112.982  1.00  0.00     0.005 C 
ATOM      4  C   UNL     1      97.260 108.317 114.328  1.00  0.00    -0.001 C 
ATOM      5  C   UNL     1      98.214 109.001 115.330  1.00  0.00    -0.020 C 
ATOM      6  C   UNL     1      99.644 108.392 115.223  1.00  0.00     0.008 C 
ATOM      7  C   UNL     1      99.654 106.867 115.335  1.00  0.00     0.005 C 
ATOM      8  C   UNL     1      98.778 106.205 114.242  1.00  0.00     0.003 C 
ATOM      9  C   UNL     1      97.333 106.756 114.318  1.00  0.00     0.000 C 
ATOM     10  C   UNL     1      96.475 106.176 113.183  1.00  0.00     0.031 C 
ATOM     11  C   UNL     1      96.617 104.693 113.035  1.00  0.00    -0.027 C 
ATOM     12  C   UNL     1      97.729 104.014 113.384  1.00  0.00    -0.065 C 
ATOM     13  C   UNL     1      98.812 104.623 114.292  1.00  0.00    -0.008 C 
ATOM     14  C   UNL     1     100.211 104.138 113.791  1.00  0.00     0.014 C 
ATOM     15  C   UNL     1     100.290 102.624 113.541  1.00  0.00     0.033 C 
ATOM     16  C   UNL     1      99.219 102.180 112.535  1.00  0.00     0.118 C 
ATOM     17  C   UNL     1      97.813 102.540 113.029  1.00  0.00     0.063 C 
ATOM     18  C   UNL     1      98.572 104.095 115.734  1.00  0.00     0.016 C 
ATOM     19  C   UNL     1      97.680 108.905 116.779  1.00  0.00     0.012 C 
ENDROOT
BRANCH   1  20
ATOM     20  C   UNL     1      99.318 111.347 115.347  1.00  0.00     0.133 C 
ATOM     21  C   UNL     1     100.449 111.735 114.441  1.00  0.00     0.088 C 
ATOM     22  O   UNL     1      99.328 111.745 116.502  1.00  0.00    -0.300 OA
ENDBRANCH   1  20
BRANCH  16  23
ATOM     23  O   UNL     1      99.319 100.800 112.282  1.00  0.00    -0.393 OA
ATOM     24  H   UNL     1      98.805 100.607 111.454  1.00  0.00     0.210 HD
ENDBRANCH  16  23
TORSDOF 2
ENDMDL
MODEL 9
REMARK VINA RESULT:    -4.796      4.409      8.252
REMARK INTER + INTRA:          -5.374
REMARK INTER:                  -5.215
REMARK INTRA:                  -0.159
REMARK UNBOUND:                -0.158
REMARK SMILES CC(=O)[C@H]1CC[C@H]2[C@H]3CC=C4C[C@H](O)CC[C@@]4(C)[C@@H]3CC[C@@]12C
REMARK SMILES IDX 4 1 5 2 6 3 7 4 22 5 21 6 20 7 19 8 8 9 9 10 10 11 11 12
REMARK SMILES IDX 17 13 16 14 15 15 13 16 12 17 18 18 23 19 2 20 1 21 3 22
REMARK SMILES IDX 14 23
REMARK H PARENT 14 24
REMARK Flexibility Score: inf
ROOT
ATOM      1  C   UNL     1     103.710 115.468 107.984  1.00  0.00     0.062 C 
ATOM      2  C   UNL     1     102.384 116.084 107.521  1.00  0.00     0.012 C 
ATOM      3  C   UNL     1     101.939 115.272 106.303  1.00  0.00     0.005 C 
ATOM      4  C   UNL     1     102.982 114.155 106.112  1.00  0.00    -0.001 C 
ATOM      5  C   UNL     1     104.271 114.708 106.756  1.00  0.00    -0.020 C 
ATOM      6  C   UNL     1     105.003 115.669 105.770  1.00  0.00     0.008 C 
ATOM      7  C   UNL     1     105.242 115.045 104.395  1.00  0.00     0.005 C 
ATOM      8  C   UNL     1     103.916 114.605 103.726  1.00  0.00     0.003 C 
ATOM      9  C   UNL     1     103.156 113.625 104.653  1.00  0.00     0.000 C 
ATOM     10  C   UNL     1     101.797 113.250 104.042  1.00  0.00     0.031 C 
ATOM     11  C   UNL     1     101.885 112.869 102.596  1.00  0.00    -0.027 C 
ATOM     12  C   UNL     1     102.836 113.337 101.761  1.00  0.00    -0.065 C 
ATOM     13  C   UNL     1     104.122 114.009 102.273  1.00  0.00    -0.008 C 
ATOM     14  C   UNL     1     104.494 115.175 101.302  1.00  0.00     0.014 C 
ATOM     15  C   UNL     1     104.466 114.780  99.817  1.00  0.00     0.033 C 
ATOM     16  C   UNL     1     103.089 114.226  99.426  1.00  0.00     0.118 C 
ATOM     17  C   UNL     1     102.718 113.009 100.283  1.00  0.00     0.063 C 
ATOM     18  C   UNL     1     105.253 112.942 102.252  1.00  0.00     0.016 C 
ATOM     19  C   UNL     1     105.211 113.569 107.216  1.00  0.00     0.012 C 
ENDROOT
BRANCH   1  20
ATOM     20  C   UNL     1     104.661 116.472 108.615  1.00  0.00     0.133 C 
ATOM     21  C   UNL     1     104.452 117.947 108.436  1.00  0.00     0.088 C 
ATOM     22  O   UNL     1     105.615 116.092 109.277  1.00  0.00    -0.300 OA
ENDBRANCH   1  20
BRANCH  16  23
ATOM     23  O   UNL     1     103.056 113.900  98.059  1.00  0.00    -0.393 OA
ATOM     24  H   UNL     1     102.125 113.636  97.833  1.00  0.00     0.210 HD
ENDBRANCH  16  23
TORSDOF 2
ENDMDL
