MODEL 1
REMARK VINA RESULT:    -3.442      0.000      0.000
REMARK INTER + INTRA:          -7.639
REMARK INTER:                  -5.253
REMARK INTRA:                  -2.386
REMARK UNBOUND:                -2.386
REMARK SMILES CC(=O)CCC=C(C)CCC=C(C)CCC=C(C)C
REMARK SMILES IDX 10 1 11 2 12 3 13 4 14 5 15 6 16 7 18 8 17 9 19 10 9 11 7 12
REMARK SMILES IDX 6 13 8 14 5 15 4 16 2 17 3 18 1 19
REMARK H PARENT
REMARK Flexibility Score: inf
ROOT
ATOM      1  C   UNL     1      20.131  41.859  93.968  1.00  0.00     0.032 C 
ENDROOT
BRANCH   1   2
ATOM      2  C   UNL     1      20.246  42.530  92.620  1.00  0.00    -0.028 C 
ATOM      3  C   UNL     1      21.150  42.207  91.668  1.00  0.00    -0.077 C 
ATOM      4  C   UNL     1      21.078  42.927  90.346  1.00  0.00     0.039 C 
BRANCH   3   5
ATOM      5  C   UNL     1      22.249  41.181  91.885  1.00  0.00     0.034 C 
BRANCH   5   6
ATOM      6  C   UNL     1      22.580  40.414  90.597  1.00  0.00     0.032 C 
BRANCH   6   7
ATOM      7  C   UNL     1      21.496  39.416  90.259  1.00  0.00    -0.028 C 
ATOM      8  C   UNL     1      19.780  38.308  88.895  1.00  0.00     0.039 C 
ATOM      9  C   UNL     1      20.891  39.313  89.055  1.00  0.00    -0.080 C 
ATOM     10  C   UNL     1      21.292  40.171  87.878  1.00  0.00     0.039 C 
ENDBRANCH   6   7
ENDBRANCH   5   6
ENDBRANCH   3   5
ENDBRANCH   1   2
BRANCH   1  11
ATOM     11  C   UNL     1      18.983  40.838  93.998  1.00  0.00     0.034 C 
BRANCH  11  12
ATOM     12  C   UNL     1      19.444  39.456  93.568  1.00  0.00    -0.077 C 
ATOM     13  C   UNL     1      18.883  38.780  92.539  1.00  0.00    -0.028 C 
ATOM     14  C   UNL     1      20.604  38.820  94.291  1.00  0.00     0.039 C 
BRANCH  13  15
ATOM     15  C   UNL     1      17.673  39.238  91.759  1.00  0.00     0.035 C 
BRANCH  15  16
ATOM     16  C   UNL     1      16.401  38.510  92.214  1.00  0.00     0.079 C 
BRANCH  16  17
ATOM     17  C   UNL     1      15.569  38.060  91.041  1.00  0.00     0.130 C 
ATOM     18  O   UNL     1      14.368  38.285  91.033  1.00  0.00    -0.300 OA
ATOM     19  C   UNL     1      16.186  37.337  89.880  1.00  0.00     0.087 C 
ENDBRANCH  16  17
ENDBRANCH  15  16
ENDBRANCH  13  15
ENDBRANCH  11  12
ENDBRANCH   1  11
TORSDOF 9
ENDMDL
MODEL 2
REMARK VINA RESULT:    -3.429      1.492      2.914
REMARK INTER + INTRA:          -7.619
REMARK INTER:                  -4.953
REMARK INTRA:                  -2.666
REMARK UNBOUND:                -2.386
REMARK SMILES CC(=O)CCC=C(C)CCC=C(C)CCC=C(C)C
REMARK SMILES IDX 10 1 11 2 12 3 13 4 14 5 15 6 16 7 18 8 17 9 19 10 9 11 7 12
REMARK SMILES IDX 6 13 8 14 5 15 4 16 2 17 3 18 1 19
REMARK H PARENT
REMARK Flexibility Score: inf
ROOT
ATOM      1  C   UNL     1      17.908  39.403  94.022  1.00  0.00     0.032 C 
ENDROOT
BRANCH   1   2
ATOM      2  C   UNL     1      18.488  40.757  94.353  1.00  0.00    -0.028 C 
ATOM      3  C   UNL     1      19.808  41.042  94.411  1.00  0.00    -0.077 C 
ATOM      4  C   UNL     1      20.217  42.468  94.682  1.00  0.00     0.039 C 
BRANCH   3   5
ATOM      5  C   UNL     1      20.889  39.989  94.249  1.00  0.00     0.034 C 
BRANCH   5   6
ATOM      6  C   UNL     1      21.787  40.268  93.036  1.00  0.00     0.032 C 
BRANCH   6   7
ATOM      7  C   UNL     1      21.280  39.555  91.803  1.00  0.00    -0.028 C 
ATOM      8  C   UNL     1      20.099  39.280  89.667  1.00  0.00     0.039 C 
ATOM      9  C   UNL     1      20.592  40.143  90.800  1.00  0.00    -0.080 C 
ATOM     10  C   UNL     1      20.304  41.625  90.783  1.00  0.00     0.039 C 
ENDBRANCH   6   7
ENDBRANCH   5   6
ENDBRANCH   3   5
ENDBRANCH   1   2
BRANCH   1  11
ATOM     11  C   UNL     1      17.590  39.273  92.524  1.00  0.00     0.034 C 
BRANCH  11  12
ATOM     12  C   UNL     1      17.644  37.827  92.058  1.00  0.00    -0.077 C 
ATOM     13  C   UNL     1      16.768  37.308  91.168  1.00  0.00    -0.028 C 
ATOM     14  C   UNL     1      18.744  36.938  92.579  1.00  0.00     0.039 C 
BRANCH  13  15
ATOM     15  C   UNL     1      15.570  38.036  90.605  1.00  0.00     0.035 C 
BRANCH  15  16
ATOM     16  C   UNL     1      14.255  37.447  91.132  1.00  0.00     0.079 C 
BRANCH  16  17
ATOM     17  C   UNL     1      13.566  38.392  92.083  1.00  0.00     0.130 C 
ATOM     18  O   UNL     1      12.591  39.023  91.704  1.00  0.00    -0.300 OA
ATOM     19  C   UNL     1      14.056  38.576  93.489  1.00  0.00     0.087 C 
ENDBRANCH  16  17
ENDBRANCH  15  16
ENDBRANCH  13  15
ENDBRANCH  11  12
ENDBRANCH   1  11
TORSDOF 9
ENDMDL
MODEL 3
REMARK VINA RESULT:    -3.414      1.542      3.770
REMARK INTER + INTRA:          -7.597
REMARK INTER:                  -5.097
REMARK INTRA:                  -2.500
REMARK UNBOUND:                -2.386
REMARK SMILES CC(=O)CCC=C(C)CCC=C(C)CCC=C(C)C
REMARK SMILES IDX 10 1 11 2 12 3 13 4 14 5 15 6 16 7 18 8 17 9 19 10 9 11 7 12
REMARK SMILES IDX 6 13 8 14 5 15 4 16 2 17 3 18 1 19
REMARK H PARENT
REMARK Flexibility Score: inf
ROOT
ATOM      1  C   UNL     1      21.794  39.966  88.049  1.00  0.00     0.032 C 
ENDROOT
BRANCH   1   2
ATOM      2  C   UNL     1      21.638  41.466  88.119  1.00  0.00    -0.028 C 
ATOM      3  C   UNL     1      21.983  42.233  89.177  1.00  0.00    -0.077 C 
ATOM      4  C   UNL     1      21.832  43.728  89.051  1.00  0.00     0.039 C 
BRANCH   3   5
ATOM      5  C   UNL     1      22.481  41.655  90.490  1.00  0.00     0.034 C 
BRANCH   5   6
ATOM      6  C   UNL     1      21.551  42.004  91.660  1.00  0.00     0.032 C 
BRANCH   6   7
ATOM      7  C   UNL     1      20.202  41.341  91.506  1.00  0.00    -0.028 C 
ATOM      8  C   UNL     1      18.485  39.604  91.770  1.00  0.00     0.039 C 
ATOM      9  C   UNL     1      19.850  40.167  92.075  1.00  0.00    -0.080 C 
ATOM     10  C   UNL     1      20.777  39.409  92.995  1.00  0.00     0.039 C 
ENDBRANCH   6   7
ENDBRANCH   5   6
ENDBRANCH   3   5
ENDBRANCH   1   2
BRANCH   1  11
ATOM     11  C   UNL     1      20.509  39.241  88.480  1.00  0.00     0.034 C 
BRANCH  11  12
ATOM     12  C   UNL     1      20.810  37.991  89.289  1.00  0.00    -0.077 C 
ATOM     13  C   UNL     1      19.926  36.977  89.432  1.00  0.00    -0.028 C 
ATOM     14  C   UNL     1      22.166  37.851  89.931  1.00  0.00     0.039 C 
BRANCH  13  15
ATOM     15  C   UNL     1      18.505  36.986  88.918  1.00  0.00     0.035 C 
BRANCH  15  16
ATOM     16  C   UNL     1      17.507  36.602  90.018  1.00  0.00     0.079 C 
BRANCH  16  17
ATOM     17  C   UNL     1      16.112  37.069  89.688  1.00  0.00     0.130 C 
ATOM     18  O   UNL     1      15.646  36.843  88.582  1.00  0.00    -0.300 OA
ATOM     19  C   UNL     1      15.283  37.813  90.693  1.00  0.00     0.087 C 
ENDBRANCH  16  17
ENDBRANCH  15  16
ENDBRANCH  13  15
ENDBRANCH  11  12
ENDBRANCH   1  11
TORSDOF 9
ENDMDL
MODEL 4
REMARK VINA RESULT:    -3.377      1.430      2.947
REMARK INTER + INTRA:          -7.540
REMARK INTER:                  -5.078
REMARK INTRA:                  -2.461
REMARK UNBOUND:                -2.386
REMARK SMILES CC(=O)CCC=C(C)CCC=C(C)CCC=C(C)C
REMARK SMILES IDX 10 1 11 2 12 3 13 4 14 5 15 6 16 7 18 8 17 9 19 10 9 11 7 12
REMARK SMILES IDX 6 13 8 14 5 15 4 16 2 17 3 18 1 19
REMARK H PARENT
REMARK Flexibility Score: inf
ROOT
ATOM      1  C   UNL     1      19.778  39.100  91.526  1.00  0.00     0.032 C 
ENDROOT
BRANCH   1   2
ATOM      2  C   UNL     1      19.755  40.518  92.044  1.00  0.00    -0.028 C 
ATOM      3  C   UNL     1      20.851  41.271  92.291  1.00  0.00    -0.077 C 
ATOM      4  C   UNL     1      20.649  42.698  92.734  1.00  0.00     0.039 C 
BRANCH   3   5
ATOM      5  C   UNL     1      22.266  40.734  92.174  1.00  0.00     0.034 C 
BRANCH   5   6
ATOM      6  C   UNL     1      23.028  41.371  91.004  1.00  0.00     0.032 C 
BRANCH   6   7
ATOM      7  C   UNL     1      22.610  40.768  89.683  1.00  0.00    -0.028 C 
ATOM      8  C   UNL     1      21.510  40.652  87.490  1.00  0.00     0.039 C 
ATOM      9  C   UNL     1      21.907  41.415  88.727  1.00  0.00    -0.080 C 
ATOM     10  C   UNL     1      21.508  42.864  88.866  1.00  0.00     0.039 C 
ENDBRANCH   6   7
ENDBRANCH   5   6
ENDBRANCH   3   5
ENDBRANCH   1   2
BRANCH   1  11
ATOM     11  C   UNL     1      19.419  39.036  90.033  1.00  0.00     0.034 C 
BRANCH  11  12
ATOM     12  C   UNL     1      19.709  37.666  89.441  1.00  0.00    -0.077 C 
ATOM     13  C   UNL     1      18.737  36.831  89.008  1.00  0.00    -0.028 C 
ATOM     14  C   UNL     1      21.143  37.230  89.292  1.00  0.00     0.039 C 
BRANCH  13  15
ATOM     15  C   UNL     1      17.253  37.081  89.149  1.00  0.00     0.035 C 
BRANCH  15  16
ATOM     16  C   UNL     1      16.743  36.671  90.536  1.00  0.00     0.079 C 
BRANCH  16  17
ATOM     17  C   UNL     1      15.943  37.774  91.181  1.00  0.00     0.130 C 
ATOM     18  O   UNL     1      14.936  38.191  90.628  1.00  0.00    -0.300 OA
ATOM     19  C   UNL     1      16.360  38.375  92.491  1.00  0.00     0.087 C 
ENDBRANCH  16  17
ENDBRANCH  15  16
ENDBRANCH  13  15
ENDBRANCH  11  12
ENDBRANCH   1  11
TORSDOF 9
ENDMDL
MODEL 5
REMARK VINA RESULT:    -3.358      1.974      3.705
REMARK INTER + INTRA:          -7.511
REMARK INTER:                  -5.006
REMARK INTRA:                  -2.505
REMARK UNBOUND:                -2.386
REMARK SMILES CC(=O)CCC=C(C)CCC=C(C)CCC=C(C)C
REMARK SMILES IDX 10 1 11 2 12 3 13 4 14 5 15 6 16 7 18 8 17 9 19 10 9 11 7 12
REMARK SMILES IDX 6 13 8 14 5 15 4 16 2 17 3 18 1 19
REMARK H PARENT
REMARK Flexibility Score: inf
ROOT
ATOM      1  C   UNL     1      21.942  42.694  90.102  1.00  0.00     0.032 C 
ENDROOT
BRANCH   1   2
ATOM      2  C   UNL     1      21.523  42.143  88.761  1.00  0.00    -0.028 C 
ATOM      3  C   UNL     1      21.872  40.929  88.277  1.00  0.00    -0.077 C 
ATOM      4  C   UNL     1      21.302  40.503  86.948  1.00  0.00     0.039 C 
BRANCH   3   5
ATOM      5  C   UNL     1      22.834  39.999  88.994  1.00  0.00     0.034 C 
BRANCH   5   6
ATOM      6  C   UNL     1      22.185  38.648  89.328  1.00  0.00     0.032 C 
BRANCH   6   7
ATOM      7  C   UNL     1      21.069  38.808  90.334  1.00  0.00    -0.028 C 
ATOM      8  C   UNL     1      18.767  38.778  91.191  1.00  0.00     0.039 C 
ATOM      9  C   UNL     1      19.774  38.498  90.105  1.00  0.00    -0.080 C 
ATOM     10  C   UNL     1      19.311  37.889  88.804  1.00  0.00     0.039 C 
ENDBRANCH   6   7
ENDBRANCH   5   6
ENDBRANCH   3   5
ENDBRANCH   1   2
BRANCH   1  11
ATOM     11  C   UNL     1      20.945  42.316  91.208  1.00  0.00     0.034 C 
BRANCH  11  12
ATOM     12  C   UNL     1      21.633  41.639  92.382  1.00  0.00    -0.077 C 
ATOM     13  C   UNL     1      20.963  41.195  93.471  1.00  0.00    -0.028 C 
ATOM     14  C   UNL     1      23.122  41.416  92.321  1.00  0.00     0.039 C 
BRANCH  13  15
ATOM     15  C   UNL     1      19.488  41.400  93.725  1.00  0.00     0.035 C 
BRANCH  15  16
ATOM     16  C   UNL     1      19.042  40.722  95.027  1.00  0.00     0.079 C 
BRANCH  16  17
ATOM     17  C   UNL     1      18.006  39.657  94.770  1.00  0.00     0.130 C 
ATOM     18  O   UNL     1      16.919  39.972  94.309  1.00  0.00    -0.300 OA
ATOM     19  C   UNL     1      18.281  38.214  95.073  1.00  0.00     0.087 C 
ENDBRANCH  16  17
ENDBRANCH  15  16
ENDBRANCH  13  15
ENDBRANCH  11  12
ENDBRANCH   1  11
TORSDOF 9
ENDMDL
MODEL 6
REMARK VINA RESULT:    -3.352      1.613      3.692
REMARK INTER + INTRA:          -7.503
REMARK INTER:                  -4.997
REMARK INTRA:                  -2.506
REMARK UNBOUND:                -2.386
REMARK SMILES CC(=O)CCC=C(C)CCC=C(C)CCC=C(C)C
REMARK SMILES IDX 10 1 11 2 12 3 13 4 14 5 15 6 16 7 18 8 17 9 19 10 9 11 7 12
REMARK SMILES IDX 6 13 8 14 5 15 4 16 2 17 3 18 1 19
REMARK H PARENT
REMARK Flexibility Score: inf
ROOT
ATOM      1  C   UNL     1      19.782  38.025  93.041  1.00  0.00     0.032 C 
ENDROOT
BRANCH   1   2
ATOM      2  C   UNL     1      19.612  37.661  91.585  1.00  0.00    -0.028 C 
ATOM      3  C   UNL     1      19.351  38.539  90.591  1.00  0.00    -0.077 C 
ATOM      4  C   UNL     1      19.287  38.016  89.179  1.00  0.00     0.039 C 
BRANCH   3   5
ATOM      5  C   UNL     1      19.089  40.014  90.839  1.00  0.00     0.034 C 
BRANCH   5   6
ATOM      6  C   UNL     1      20.362  40.858  90.685  1.00  0.00     0.032 C 
BRANCH   6   7
ATOM      7  C   UNL     1      20.373  42.016  91.656  1.00  0.00    -0.028 C 
ATOM      8  C   UNL     1      20.889  43.235  93.725  1.00  0.00     0.039 C 
ATOM      9  C   UNL     1      21.029  42.026  92.838  1.00  0.00    -0.080 C 
ATOM     10  C   UNL     1      21.888  40.869  93.290  1.00  0.00     0.039 C 
ENDBRANCH   6   7
ENDBRANCH   5   6
ENDBRANCH   3   5
ENDBRANCH   1   2
BRANCH   1  11
ATOM     11  C   UNL     1      18.494  37.780  93.842  1.00  0.00     0.034 C 
BRANCH  11  12
ATOM     12  C   UNL     1      17.629  39.027  93.915  1.00  0.00    -0.077 C 
ATOM     13  C   UNL     1      16.373  39.081  93.417  1.00  0.00    -0.028 C 
ATOM     14  C   UNL     1      18.175  40.249  94.608  1.00  0.00     0.039 C 
BRANCH  13  15
ATOM     15  C   UNL     1      15.702  37.977  92.633  1.00  0.00     0.035 C 
BRANCH  15  16
ATOM     16  C   UNL     1      15.781  38.231  91.122  1.00  0.00     0.079 C 
BRANCH  16  17
ATOM     17  C   UNL     1      15.299  37.040  90.333  1.00  0.00     0.130 C 
ATOM     18  O   UNL     1      14.492  36.273  90.833  1.00  0.00    -0.300 OA
ATOM     19  C   UNL     1      15.796  36.775  88.943  1.00  0.00     0.087 C 
ENDBRANCH  16  17
ENDBRANCH  15  16
ENDBRANCH  13  15
ENDBRANCH  11  12
ENDBRANCH   1  11
TORSDOF 9
ENDMDL
MODEL 7
REMARK VINA RESULT:    -3.345      2.553      6.515
REMARK INTER + INTRA:          -7.491
REMARK INTER:                  -4.873
REMARK INTRA:                  -2.619
REMARK UNBOUND:                -2.386
REMARK SMILES CC(=O)CCC=C(C)CCC=C(C)CCC=C(C)C
REMARK SMILES IDX 10 1 11 2 12 3 13 4 14 5 15 6 16 7 18 8 17 9 19 10 9 11 7 12
REMARK SMILES IDX 6 13 8 14 5 15 4 16 2 17 3 18 1 19
REMARK H PARENT
REMARK Flexibility Score: inf
ROOT
ATOM      1  C   UNL     1      16.550  37.493  90.647  1.00  0.00     0.032 C 
ENDROOT
BRANCH   1   2
ATOM      2  C   UNL     1      15.152  38.059  90.732  1.00  0.00    -0.028 C 
ATOM      3  C   UNL     1      14.356  38.000  91.823  1.00  0.00    -0.077 C 
ATOM      4  C   UNL     1      13.014  38.685  91.763  1.00  0.00     0.039 C 
BRANCH   3   5
ATOM      5  C   UNL     1      14.739  37.249  93.086  1.00  0.00     0.034 C 
BRANCH   5   6
ATOM      6  C   UNL     1      14.715  38.156  94.324  1.00  0.00     0.032 C 
BRANCH   6   7
ATOM      7  C   UNL     1      15.770  39.234  94.235  1.00  0.00    -0.028 C 
ATOM      8  C   UNL     1      17.900  40.366  94.700  1.00  0.00     0.039 C 
ATOM      9  C   UNL     1      16.982  39.178  94.830  1.00  0.00    -0.080 C 
ATOM     10  C   UNL     1      17.436  37.972  95.617  1.00  0.00     0.039 C 
ENDBRANCH   6   7
ENDBRANCH   5   6
ENDBRANCH   3   5
ENDBRANCH   1   2
BRANCH   1  11
ATOM     11  C   UNL     1      17.601  38.501  91.137  1.00  0.00     0.034 C 
BRANCH  11  12
ATOM     12  C   UNL     1      18.700  37.825  91.941  1.00  0.00    -0.077 C 
ATOM     13  C   UNL     1      19.837  38.457  92.308  1.00  0.00    -0.028 C 
ATOM     14  C   UNL     1      18.501  36.398  92.384  1.00  0.00     0.039 C 
BRANCH  13  15
ATOM     15  C   UNL     1      20.226  39.856  91.890  1.00  0.00     0.035 C 
BRANCH  15  16
ATOM     16  C   UNL     1      21.454  39.848  90.971  1.00  0.00     0.079 C 
BRANCH  16  17
ATOM     17  C   UNL     1      21.080  40.148  89.542  1.00  0.00     0.130 C 
ATOM     18  O   UNL     1      21.349  41.240  89.065  1.00  0.00    -0.300 OA
ATOM     19  C   UNL     1      20.377  39.131  88.691  1.00  0.00     0.087 C 
ENDBRANCH  16  17
ENDBRANCH  15  16
ENDBRANCH  13  15
ENDBRANCH  11  12
ENDBRANCH   1  11
TORSDOF 9
ENDMDL
MODEL 8
REMARK VINA RESULT:    -3.322      1.581      2.167
REMARK INTER + INTRA:          -7.457
REMARK INTER:                  -4.926
REMARK INTRA:                  -2.531
REMARK UNBOUND:                -2.386
REMARK SMILES CC(=O)CCC=C(C)CCC=C(C)CCC=C(C)C
REMARK SMILES IDX 10 1 11 2 12 3 13 4 14 5 15 6 16 7 18 8 17 9 19 10 9 11 7 12
REMARK SMILES IDX 6 13 8 14 5 15 4 16 2 17 3 18 1 19
REMARK H PARENT
REMARK Flexibility Score: inf
ROOT
ATOM      1  C   UNL     1      20.192  41.764  95.311  1.00  0.00     0.032 C 
ENDROOT
BRANCH   1   2
ATOM      2  C   UNL     1      20.705  43.059  94.730  1.00  0.00    -0.028 C 
ATOM      3  C   UNL     1      21.851  43.193  94.025  1.00  0.00    -0.077 C 
ATOM      4  C   UNL     1      22.178  44.547  93.448  1.00  0.00     0.039 C 
BRANCH   3   5
ATOM      5  C   UNL     1      22.833  42.053  93.819  1.00  0.00     0.034 C 
BRANCH   5   6
ATOM      6  C   UNL     1      22.996  41.695  92.335  1.00  0.00     0.032 C 
BRANCH   6   7
ATOM      7  C   UNL     1      21.838  40.858  91.842  1.00  0.00    -0.028 C 
ATOM      8  C   UNL     1      19.746  40.356  90.658  1.00  0.00     0.039 C 
ATOM      9  C   UNL     1      20.871  41.296  91.005  1.00  0.00    -0.080 C 
ATOM     10  C   UNL     1      20.885  42.687  90.418  1.00  0.00     0.039 C 
ENDBRANCH   6   7
ENDBRANCH   5   6
ENDBRANCH   3   5
ENDBRANCH   1   2
BRANCH   1  11
ATOM     11  C   UNL     1      19.141  41.109  94.402  1.00  0.00     0.034 C 
BRANCH  11  12
ATOM     12  C   UNL     1      19.320  39.602  94.325  1.00  0.00    -0.077 C 
ATOM     13  C   UNL     1      18.370  38.773  93.836  1.00  0.00    -0.028 C 
ATOM     14  C   UNL     1      20.627  39.003  94.776  1.00  0.00     0.039 C 
BRANCH  13  15
ATOM     15  C   UNL     1      16.983  39.197  93.411  1.00  0.00     0.035 C 
BRANCH  15  16
ATOM     16  C   UNL     1      16.687  38.785  91.963  1.00  0.00     0.079 C 
BRANCH  16  17
ATOM     17  C   UNL     1      15.325  38.152  91.834  1.00  0.00     0.130 C 
ATOM     18  O   UNL     1      14.757  38.160  90.753  1.00  0.00    -0.300 OA
ATOM     19  C   UNL     1      14.649  37.514  93.012  1.00  0.00     0.087 C 
ENDBRANCH  16  17
ENDBRANCH  15  16
ENDBRANCH  13  15
ENDBRANCH  11  12
ENDBRANCH   1  11
TORSDOF 9
ENDMDL
MODEL 9
REMARK VINA RESULT:    -3.305      2.168      5.858
REMARK INTER + INTRA:          -7.431
REMARK INTER:                  -5.093
REMARK INTRA:                  -2.338
REMARK UNBOUND:                -2.386
REMARK SMILES CC(=O)CCC=C(C)CCC=C(C)CCC=C(C)C
REMARK SMILES IDX 10 1 11 2 12 3 13 4 14 5 15 6 16 7 18 8 17 9 19 10 9 11 7 12
REMARK SMILES IDX 6 13 8 14 5 15 4 16 2 17 3 18 1 19
REMARK H PARENT
REMARK Flexibility Score: inf
ROOT
ATOM      1  C   UNL     1      19.965  39.154  89.535  1.00  0.00     0.032 C 
ENDROOT
BRANCH   1   2
ATOM      2  C   UNL     1      19.326  39.758  90.763  1.00  0.00    -0.028 C 
ATOM      3  C   UNL     1      19.086  39.096  91.917  1.00  0.00    -0.077 C 
ATOM      4  C   UNL     1      18.509  39.870  93.075  1.00  0.00     0.039 C 
BRANCH   3   5
ATOM      5  C   UNL     1      19.340  37.608  92.085  1.00  0.00     0.034 C 
BRANCH   5   6
ATOM      6  C   UNL     1      18.035  36.800  92.092  1.00  0.00     0.032 C 
BRANCH   6   7
ATOM      7  C   UNL     1      17.517  36.582  90.689  1.00  0.00    -0.028 C 
ATOM      8  C   UNL     1      15.995  36.802  88.774  1.00  0.00     0.039 C 
ATOM      9  C   UNL     1      16.419  37.174  90.171  1.00  0.00    -0.080 C 
ATOM     10  C   UNL     1      15.610  38.186  90.947  1.00  0.00     0.039 C 
ENDBRANCH   6   7
ENDBRANCH   5   6
ENDBRANCH   3   5
ENDBRANCH   1   2
BRANCH   1  11
ATOM     11  C   UNL     1      21.435  39.578  89.395  1.00  0.00     0.034 C 
BRANCH  11  12
ATOM     12  C   UNL     1      21.609  40.680  88.363  1.00  0.00    -0.077 C 
ATOM     13  C   UNL     1      22.109  41.900  88.667  1.00  0.00    -0.028 C 
ATOM     14  C   UNL     1      21.246  40.395  86.929  1.00  0.00     0.039 C 
BRANCH  13  15
ATOM     15  C   UNL     1      22.454  42.373  90.060  1.00  0.00     0.035 C 
BRANCH  15  16
ATOM     16  C   UNL     1      21.232  42.971  90.769  1.00  0.00     0.079 C 
BRANCH  16  17
ATOM     17  C   UNL     1      21.124  42.484  92.192  1.00  0.00     0.130 C 
ATOM     18  O   UNL     1      20.286  42.973  92.934  1.00  0.00    -0.300 OA
ATOM     19  C   UNL     1      22.029  41.409  92.718  1.00  0.00     0.087 C 
ENDBRANCH  16  17
ENDBRANCH  15  16
ENDBRANCH  13  15
ENDBRANCH  11  12
ENDBRANCH   1  11
TORSDOF 9
ENDMDL
