MODEL 1
REMARK VINA RESULT:    -5.065      0.000      0.000
REMARK INTER + INTRA:          -5.758
REMARK INTER:                  -5.509
REMARK INTRA:                  -0.249
REMARK UNBOUND:                -0.249
REMARK SMILES O=C([O-])c1ccccc1O
REMARK SMILES IDX 4 1 9 2 5 3 8 4 6 5 7 6 2 7 1 8 3 9 10 10
REMARK H PARENT 10 11
REMARK Flexibility Score: inf
ROOT
ATOM      1  C   UNL     1     -34.724  -2.564  -9.711  1.00  0.00     0.039 A 
ATOM      2  C   UNL     1     -33.531  -2.761 -10.455  1.00  0.00     0.124 A 
ATOM      3  C   UNL     1     -35.869  -3.308 -10.051  1.00  0.00     0.014 A 
ATOM      4  C   UNL     1     -33.499  -3.731 -11.465  1.00  0.00     0.047 A 
ATOM      5  C   UNL     1     -35.825  -4.256 -11.075  1.00  0.00     0.001 A 
ATOM      6  C   UNL     1     -34.639  -4.474 -11.774  1.00  0.00     0.004 A 
ENDROOT
BRANCH   1   7
ATOM      7  C   UNL     1     -34.809  -1.631  -8.565  1.00  0.00     0.075 C 
ATOM      8  O   UNL     1     -33.876  -1.552  -7.723  1.00  0.00    -0.545 OA
ATOM      9  O   UNL     1     -35.960  -0.875  -8.369  1.00  0.00    -0.545 OA
ENDBRANCH   1   7
BRANCH   2  10
ATOM     10  O   UNL     1     -32.378  -2.001 -10.249  1.00  0.00    -0.507 OA
ATOM     11  H   UNL     1     -31.846  -2.016  -9.390  1.00  0.00     0.293 HD
ENDBRANCH   2  10
TORSDOF 2
ENDMDL
MODEL 2
REMARK VINA RESULT:    -5.004      1.448      2.501
REMARK INTER + INTRA:          -5.691
REMARK INTER:                  -5.442
REMARK INTRA:                  -0.250
REMARK UNBOUND:                -0.249
REMARK SMILES O=C([O-])c1ccccc1O
REMARK SMILES IDX 4 1 9 2 5 3 8 4 6 5 7 6 2 7 1 8 3 9 10 10
REMARK H PARENT 10 11
REMARK Flexibility Score: inf
ROOT
ATOM      1  C   UNL     1     -34.745  -2.182  -9.262  1.00  0.00     0.039 A 
ATOM      2  C   UNL     1     -35.480  -3.199  -9.926  1.00  0.00     0.124 A 
ATOM      3  C   UNL     1     -33.399  -1.973  -9.616  1.00  0.00     0.014 A 
ATOM      4  C   UNL     1     -34.874  -3.928 -10.957  1.00  0.00     0.047 A 
ATOM      5  C   UNL     1     -32.804  -2.724 -10.632  1.00  0.00     0.001 A 
ATOM      6  C   UNL     1     -33.543  -3.694 -11.308  1.00  0.00     0.004 A 
ENDROOT
BRANCH   1   7
ATOM      7  C   UNL     1     -35.344  -1.302  -8.233  1.00  0.00     0.075 C 
ATOM      8  O   UNL     1     -36.523  -0.878  -8.350  1.00  0.00    -0.545 OA
ATOM      9  O   UNL     1     -34.579  -0.879  -7.151  1.00  0.00    -0.545 OA
ENDBRANCH   1   7
BRANCH   2  10
ATOM     10  O   UNL     1     -36.788  -3.537  -9.575  1.00  0.00    -0.507 OA
ATOM     11  H   UNL     1     -37.017  -4.200  -8.847  1.00  0.00     0.293 HD
ENDBRANCH   2  10
TORSDOF 2
ENDMDL
MODEL 3
REMARK VINA RESULT:    -4.986      1.686      2.538
REMARK INTER + INTRA:          -5.672
REMARK INTER:                  -5.427
REMARK INTRA:                  -0.245
REMARK UNBOUND:                -0.249
REMARK SMILES O=C([O-])c1ccccc1O
REMARK SMILES IDX 4 1 9 2 5 3 8 4 6 5 7 6 2 7 1 8 3 9 10 10
REMARK H PARENT 10 11
REMARK Flexibility Score: inf
ROOT
ATOM      1  C   UNL     1     -35.230  -2.758  -9.533  1.00  0.00     0.039 A 
ATOM      2  C   UNL     1     -35.713  -3.788 -10.382  1.00  0.00     0.124 A 
ATOM      3  C   UNL     1     -33.915  -2.290  -9.711  1.00  0.00     0.014 A 
ATOM      4  C   UNL     1     -34.899  -4.270 -11.415  1.00  0.00     0.047 A 
ATOM      5  C   UNL     1     -33.110  -2.797 -10.733  1.00  0.00     0.001 A 
ATOM      6  C   UNL     1     -33.605  -3.779 -11.590  1.00  0.00     0.004 A 
ENDROOT
BRANCH   1   7
ATOM      7  C   UNL     1     -36.063  -2.128  -8.483  1.00  0.00     0.075 C 
ATOM      8  O   UNL     1     -36.113  -0.876  -8.363  1.00  0.00    -0.545 OA
ATOM      9  O   UNL     1     -36.748  -2.921  -7.570  1.00  0.00    -0.545 OA
ENDBRANCH   1   7
BRANCH   2  10
ATOM     10  O   UNL     1     -36.968  -4.377 -10.216  1.00  0.00    -0.507 OA
ATOM     11  H   UNL     1     -37.676  -4.395 -10.937  1.00  0.00     0.293 HD
ENDBRANCH   2  10
TORSDOF 2
ENDMDL
MODEL 4
REMARK VINA RESULT:    -4.844      1.760      2.919
REMARK INTER + INTRA:          -5.517
REMARK INTER:                  -5.267
REMARK INTRA:                  -0.250
REMARK UNBOUND:                -0.249
REMARK SMILES O=C([O-])c1ccccc1O
REMARK SMILES IDX 4 1 9 2 5 3 8 4 6 5 7 6 2 7 1 8 3 9 10 10
REMARK H PARENT 10 11
REMARK Flexibility Score: inf
ROOT
ATOM      1  C   UNL     1     -35.469  -3.159  -9.904  1.00  0.00     0.039 A 
ATOM      2  C   UNL     1     -34.709  -2.221  -9.158  1.00  0.00     0.124 A 
ATOM      3  C   UNL     1     -34.883  -3.770 -11.028  1.00  0.00     0.014 A 
ATOM      4  C   UNL     1     -33.378  -1.970  -9.515  1.00  0.00     0.047 A 
ATOM      5  C   UNL     1     -33.561  -3.491 -11.382  1.00  0.00     0.001 A 
ATOM      6  C   UNL     1     -32.806  -2.600 -10.621  1.00  0.00     0.004 A 
ENDROOT
BRANCH   1   7
ATOM      7  C   UNL     1     -36.847  -3.552  -9.533  1.00  0.00     0.075 C 
ATOM      8  O   UNL     1     -37.707  -3.810 -10.416  1.00  0.00    -0.545 OA
ATOM      9  O   UNL     1     -37.227  -3.573  -8.196  1.00  0.00    -0.545 OA
ENDBRANCH   1   7
BRANCH   2  10
ATOM     10  O   UNL     1     -35.241  -1.499  -8.088  1.00  0.00    -0.507 OA
ATOM     11  H   UNL     1     -35.254  -1.839  -7.137  1.00  0.00     0.293 HD
ENDBRANCH   2  10
TORSDOF 2
ENDMDL
MODEL 5
REMARK VINA RESULT:    -4.816      2.331      3.121
REMARK INTER + INTRA:          -5.486
REMARK INTER:                  -5.257
REMARK INTRA:                  -0.230
REMARK UNBOUND:                -0.249
REMARK SMILES O=C([O-])c1ccccc1O
REMARK SMILES IDX 4 1 9 2 5 3 8 4 6 5 7 6 2 7 1 8 3 9 10 10
REMARK H PARENT 10 11
REMARK Flexibility Score: inf
ROOT
ATOM      1  C   UNL     1     -35.540  -3.371 -10.047  1.00  0.00     0.039 A 
ATOM      2  C   UNL     1     -34.696  -3.909 -11.053  1.00  0.00     0.124 A 
ATOM      3  C   UNL     1     -35.028  -2.381  -9.187  1.00  0.00     0.014 A 
ATOM      4  C   UNL     1     -33.399  -3.404 -11.211  1.00  0.00     0.047 A 
ATOM      5  C   UNL     1     -33.725  -1.904  -9.345  1.00  0.00     0.001 A 
ATOM      6  C   UNL     1     -32.915  -2.407 -10.362  1.00  0.00     0.004 A 
ENDROOT
BRANCH   1   7
ATOM      7  C   UNL     1     -36.952  -3.782  -9.880  1.00  0.00     0.075 C 
ATOM      8  O   UNL     1     -37.353  -4.901 -10.294  1.00  0.00    -0.545 OA
ATOM      9  O   UNL     1     -37.871  -2.900  -9.323  1.00  0.00    -0.545 OA
ENDBRANCH   1   7
BRANCH   2  10
ATOM     10  O   UNL     1     -35.089  -4.958 -11.887  1.00  0.00    -0.507 OA
ATOM     11  H   UNL     1     -34.685  -5.128 -12.797  1.00  0.00     0.293 HD
ENDBRANCH   2  10
TORSDOF 2
ENDMDL
MODEL 6
REMARK VINA RESULT:    -4.740      1.790      3.444
REMARK INTER + INTRA:          -5.405
REMARK INTER:                  -5.151
REMARK INTRA:                  -0.253
REMARK UNBOUND:                -0.249
REMARK SMILES O=C([O-])c1ccccc1O
REMARK SMILES IDX 4 1 9 2 5 3 8 4 6 5 7 6 2 7 1 8 3 9 10 10
REMARK H PARENT 10 11
REMARK Flexibility Score: inf
ROOT
ATOM      1  C   UNL     1     -34.667  -3.063 -10.280  1.00  0.00     0.039 A 
ATOM      2  C   UNL     1     -33.692  -2.248  -9.648  1.00  0.00     0.124 A 
ATOM      3  C   UNL     1     -35.929  -3.207  -9.675  1.00  0.00     0.014 A 
ATOM      4  C   UNL     1     -34.024  -1.555  -8.476  1.00  0.00     0.047 A 
ATOM      5  C   UNL     1     -36.236  -2.527  -8.495  1.00  0.00     0.001 A 
ATOM      6  C   UNL     1     -35.288  -1.694  -7.902  1.00  0.00     0.004 A 
ENDROOT
BRANCH   1   7
ATOM      7  C   UNL     1     -34.426  -3.747 -11.570  1.00  0.00     0.075 C 
ATOM      8  O   UNL     1     -34.820  -4.928 -11.760  1.00  0.00    -0.545 OA
ATOM      9  O   UNL     1     -33.696  -3.112 -12.568  1.00  0.00    -0.545 OA
ENDBRANCH   1   7
BRANCH   2  10
ATOM     10  O   UNL     1     -32.386  -2.124 -10.126  1.00  0.00    -0.507 OA
ATOM     11  H   UNL     1     -31.570  -2.403  -9.599  1.00  0.00     0.293 HD
ENDBRANCH   2  10
TORSDOF 2
ENDMDL
MODEL 7
REMARK VINA RESULT:    -4.529      1.134      2.793
REMARK INTER + INTRA:          -5.174
REMARK INTER:                  -4.959
REMARK INTRA:                  -0.216
REMARK UNBOUND:                -0.249
REMARK SMILES O=C([O-])c1ccccc1O
REMARK SMILES IDX 4 1 9 2 5 3 8 4 6 5 7 6 2 7 1 8 3 9 10 10
REMARK H PARENT 10 11
REMARK Flexibility Score: inf
ROOT
ATOM      1  C   UNL     1     -35.051  -2.801  -9.545  1.00  0.00     0.039 A 
ATOM      2  C   UNL     1     -36.297  -2.852  -8.867  1.00  0.00     0.124 A 
ATOM      3  C   UNL     1     -34.858  -3.618 -10.674  1.00  0.00     0.014 A 
ATOM      4  C   UNL     1     -37.325  -3.661  -9.368  1.00  0.00     0.047 A 
ATOM      5  C   UNL     1     -35.886  -4.435 -11.148  1.00  0.00     0.001 A 
ATOM      6  C   UNL     1     -37.121  -4.449 -10.501  1.00  0.00     0.004 A 
ENDROOT
BRANCH   1   7
ATOM      7  C   UNL     1     -33.951  -1.898  -9.137  1.00  0.00     0.075 C 
ATOM      8  O   UNL     1     -34.120  -1.044  -8.227  1.00  0.00    -0.545 OA
ATOM      9  O   UNL     1     -32.733  -1.940  -9.806  1.00  0.00    -0.545 OA
ENDBRANCH   1   7
BRANCH   2  10
ATOM     10  O   UNL     1     -36.542  -2.149  -7.685  1.00  0.00    -0.507 OA
ATOM     11  H   UNL     1     -36.397  -2.537  -6.764  1.00  0.00     0.293 HD
ENDBRANCH   2  10
TORSDOF 2
ENDMDL
MODEL 8
REMARK VINA RESULT:    -4.527      1.186      3.033
REMARK INTER + INTRA:          -5.172
REMARK INTER:                  -4.927
REMARK INTRA:                  -0.246
REMARK UNBOUND:                -0.249
REMARK SMILES O=C([O-])c1ccccc1O
REMARK SMILES IDX 4 1 9 2 5 3 8 4 6 5 7 6 2 7 1 8 3 9 10 10
REMARK H PARENT 10 11
REMARK Flexibility Score: inf
ROOT
ATOM      1  C   UNL     1     -34.704  -2.726  -9.981  1.00  0.00     0.039 A 
ATOM      2  C   UNL     1     -35.034  -2.079  -8.762  1.00  0.00     0.124 A 
ATOM      3  C   UNL     1     -35.587  -3.693 -10.499  1.00  0.00     0.014 A 
ATOM      4  C   UNL     1     -36.254  -2.367  -8.135  1.00  0.00     0.047 A 
ATOM      5  C   UNL     1     -36.788  -3.982  -9.849  1.00  0.00     0.001 A 
ATOM      6  C   UNL     1     -37.126  -3.313  -8.674  1.00  0.00     0.004 A 
ENDROOT
BRANCH   1   7
ATOM      7  C   UNL     1     -33.483  -2.406 -10.755  1.00  0.00     0.075 C 
ATOM      8  O   UNL     1     -32.355  -2.373 -10.197  1.00  0.00    -0.545 OA
ATOM      9  O   UNL     1     -33.581  -2.068 -12.100  1.00  0.00    -0.545 OA
ENDBRANCH   1   7
BRANCH   2  10
ATOM     10  O   UNL     1     -34.175  -1.179  -8.128  1.00  0.00    -0.507 OA
ATOM     11  H   UNL     1     -34.423  -0.666  -7.294  1.00  0.00     0.293 HD
ENDBRANCH   2  10
TORSDOF 2
ENDMDL
