MODEL 1
REMARK VINA RESULT:    -4.007      0.000      0.000
REMARK INTER + INTRA:          -5.325
REMARK INTER:                  -5.178
REMARK INTRA:                  -0.147
REMARK UNBOUND:                -0.147
REMARK SMILES CCCCCCC(=O)[O-]
REMARK SMILES IDX 5 1 6 2 7 3 8 4 9 5 4 6 3 7 2 8 1 9
REMARK H PARENT
REMARK Flexibility Score: inf
ROOT
ATOM      1  C   UNL     1      -9.551  25.272 -27.352  1.00  0.00     0.006 C 
ENDROOT
BRANCH   1   2
ATOM      2  C   UNL     1      -8.254  25.712 -28.041  1.00  0.00     0.053 C 
BRANCH   2   3
ATOM      3  C   UNL     1      -7.687  26.920 -27.364  1.00  0.00     0.041 C 
ATOM      4  O   UNL     1      -6.490  27.257 -27.567  1.00  0.00    -0.550 OA
ATOM      5  O   UNL     1      -8.464  27.646 -26.471  1.00  0.00    -0.550 OA
ENDBRANCH   2   3
ENDBRANCH   1   2
BRANCH   1   6
ATOM      6  C   UNL     1      -9.340  24.119 -26.354  1.00  0.00     0.000 C 
BRANCH   6   7
ATOM      7  C   UNL     1     -10.607  23.310 -26.018  1.00  0.00    -0.000 C 
BRANCH   7   8
ATOM      8  C   UNL     1     -10.407  22.352 -24.835  1.00  0.00    -0.003 C 
ATOM      9  C   UNL     1      -9.284  22.835 -23.921  1.00  0.00     0.004 C 
ENDBRANCH   7   8
ENDBRANCH   6   7
ENDBRANCH   1   6
TORSDOF 5
ENDMDL
MODEL 2
REMARK VINA RESULT:    -3.943      8.411      9.228
REMARK INTER + INTRA:          -5.243
REMARK INTER:                  -4.855
REMARK INTRA:                  -0.388
REMARK UNBOUND:                -0.147
REMARK SMILES CCCCCCC(=O)[O-]
REMARK SMILES IDX 5 1 6 2 7 3 8 4 9 5 4 6 3 7 2 8 1 9
REMARK H PARENT
REMARK Flexibility Score: inf
ROOT
ATOM      1  C   UNL     1      -4.570  26.628 -20.129  1.00  0.00     0.006 C 
ENDROOT
BRANCH   1   2
ATOM      2  C   UNL     1      -3.391  27.509 -20.562  1.00  0.00     0.053 C 
BRANCH   2   3
ATOM      3  C   UNL     1      -2.873  28.295 -19.398  1.00  0.00     0.041 C 
ATOM      4  O   UNL     1      -2.764  27.754 -18.266  1.00  0.00    -0.550 OA
ATOM      5  O   UNL     1      -2.556  29.638 -19.552  1.00  0.00    -0.550 OA
ENDBRANCH   2   3
ENDBRANCH   1   2
BRANCH   1   6
ATOM      6  C   UNL     1      -5.916  27.374 -20.147  1.00  0.00     0.000 C 
BRANCH   6   7
ATOM      7  C   UNL     1      -6.327  28.007 -18.804  1.00  0.00    -0.000 C 
BRANCH   7   8
ATOM      8  C   UNL     1      -6.525  29.527 -18.896  1.00  0.00    -0.003 C 
ATOM      9  C   UNL     1      -6.276  30.028 -20.315  1.00  0.00     0.004 C 
ENDBRANCH   7   8
ENDBRANCH   6   7
ENDBRANCH   1   6
TORSDOF 5
ENDMDL
MODEL 3
REMARK VINA RESULT:    -3.930      8.347      9.108
REMARK INTER + INTRA:          -5.225
REMARK INTER:                  -4.756
REMARK INTRA:                  -0.470
REMARK UNBOUND:                -0.147
REMARK SMILES CCCCCCC(=O)[O-]
REMARK SMILES IDX 5 1 6 2 7 3 8 4 9 5 4 6 3 7 2 8 1 9
REMARK H PARENT
REMARK Flexibility Score: inf
ROOT
ATOM      1  C   UNL     1      -4.203  28.705 -21.609  1.00  0.00     0.006 C 
ENDROOT
BRANCH   1   2
ATOM      2  C   UNL     1      -3.299  27.793 -20.771  1.00  0.00     0.053 C 
BRANCH   2   3
ATOM      3  C   UNL     1      -2.858  28.497 -19.526  1.00  0.00     0.041 C 
ATOM      4  O   UNL     1      -2.856  27.890 -18.422  1.00  0.00    -0.550 OA
ATOM      5  O   UNL     1      -2.498  29.837 -19.574  1.00  0.00    -0.550 OA
ENDBRANCH   2   3
ENDBRANCH   1   2
BRANCH   1   6
ATOM      6  C   UNL     1      -5.691  28.584 -21.235  1.00  0.00     0.000 C 
BRANCH   6   7
ATOM      7  C   UNL     1      -6.290  29.822 -20.542  1.00  0.00    -0.000 C 
BRANCH   7   8
ATOM      8  C   UNL     1      -6.373  29.671 -19.015  1.00  0.00    -0.003 C 
ATOM      9  C   UNL     1      -6.478  28.202 -18.614  1.00  0.00     0.004 C 
ENDBRANCH   7   8
ENDBRANCH   6   7
ENDBRANCH   1   6
TORSDOF 5
ENDMDL
MODEL 4
REMARK VINA RESULT:    -3.869      8.088      9.180
REMARK INTER + INTRA:          -5.147
REMARK INTER:                  -4.822
REMARK INTRA:                  -0.324
REMARK UNBOUND:                -0.147
REMARK SMILES CCCCCCC(=O)[O-]
REMARK SMILES IDX 5 1 6 2 7 3 8 4 9 5 4 6 3 7 2 8 1 9
REMARK H PARENT
REMARK Flexibility Score: inf
ROOT
ATOM      1  C   UNL     1      -5.922  27.538 -20.246  1.00  0.00     0.006 C 
ENDROOT
BRANCH   1   2
ATOM      2  C   UNL     1      -6.425  28.103 -18.912  1.00  0.00     0.053 C 
BRANCH   2   3
ATOM      3  C   UNL     1      -6.480  29.597 -18.966  1.00  0.00     0.041 C 
ATOM      4  O   UNL     1      -6.765  30.258 -17.932  1.00  0.00    -0.550 OA
ATOM      5  O   UNL     1      -6.264  30.259 -20.168  1.00  0.00    -0.550 OA
ENDBRANCH   2   3
ENDBRANCH   1   2
BRANCH   1   6
ATOM      6  C   UNL     1      -5.000  26.318 -20.072  1.00  0.00     0.000 C 
BRANCH   6   7
ATOM      7  C   UNL     1      -3.492  26.634 -20.097  1.00  0.00    -0.000 C 
BRANCH   7   8
ATOM      8  C   UNL     1      -3.190  28.065 -20.564  1.00  0.00    -0.003 C 
ATOM      9  C   UNL     1      -2.554  28.884 -19.444  1.00  0.00     0.004 C 
ENDBRANCH   7   8
ENDBRANCH   6   7
ENDBRANCH   1   6
TORSDOF 5
ENDMDL
MODEL 5
REMARK VINA RESULT:    -3.769      8.081      8.889
REMARK INTER + INTRA:          -5.018
REMARK INTER:                  -4.742
REMARK INTRA:                  -0.276
REMARK UNBOUND:                -0.147
REMARK SMILES CCCCCCC(=O)[O-]
REMARK SMILES IDX 5 1 6 2 7 3 8 4 9 5 4 6 3 7 2 8 1 9
REMARK H PARENT
REMARK Flexibility Score: inf
ROOT
ATOM      1  C   UNL     1      -6.228  29.562 -20.754  1.00  0.00     0.006 C 
ENDROOT
BRANCH   1   2
ATOM      2  C   UNL     1      -5.735  29.890 -19.340  1.00  0.00     0.053 C 
BRANCH   2   3
ATOM      3  C   UNL     1      -6.685  30.826 -18.660  1.00  0.00     0.041 C 
ATOM      4  O   UNL     1      -6.965  31.936 -19.185  1.00  0.00    -0.550 OA
ATOM      5  O   UNL     1      -7.222  30.495 -17.423  1.00  0.00    -0.550 OA
ENDBRANCH   2   3
ENDBRANCH   1   2
BRANCH   1   6
ATOM      6  C   UNL     1      -5.961  28.101 -21.159  1.00  0.00     0.000 C 
BRANCH   6   7
ATOM      7  C   UNL     1      -5.902  27.102 -19.988  1.00  0.00    -0.000 C 
BRANCH   7   8
ATOM      8  C   UNL     1      -4.694  26.157 -20.069  1.00  0.00    -0.003 C 
ATOM      9  C   UNL     1      -3.389  26.941 -20.167  1.00  0.00     0.004 C 
ENDBRANCH   7   8
ENDBRANCH   6   7
ENDBRANCH   1   6
TORSDOF 5
ENDMDL
MODEL 6
REMARK VINA RESULT:    -3.742      4.329      6.038
REMARK INTER + INTRA:          -4.983
REMARK INTER:                  -4.774
REMARK INTRA:                  -0.209
REMARK UNBOUND:                -0.147
REMARK SMILES CCCCCCC(=O)[O-]
REMARK SMILES IDX 5 1 6 2 7 3 8 4 9 5 4 6 3 7 2 8 1 9
REMARK H PARENT
REMARK Flexibility Score: inf
ROOT
ATOM      1  C   UNL     1      -8.788  22.875 -22.828  1.00  0.00     0.006 C 
ENDROOT
BRANCH   1   2
ATOM      2  C   UNL     1     -10.032  22.948 -21.934  1.00  0.00     0.053 C 
BRANCH   2   3
ATOM      3  C   UNL     1      -9.695  22.535 -20.536  1.00  0.00     0.041 C 
ATOM      4  O   UNL     1      -8.503  22.580 -20.131  1.00  0.00    -0.550 OA
ATOM      5  O   UNL     1     -10.689  22.051 -19.695  1.00  0.00    -0.550 OA
ENDBRANCH   2   3
ENDBRANCH   1   2
BRANCH   1   6
ATOM      6  C   UNL     1      -9.121  22.535 -24.292  1.00  0.00     0.000 C 
BRANCH   6   7
ATOM      7  C   UNL     1     -10.605  22.686 -24.674  1.00  0.00    -0.000 C 
BRANCH   7   8
ATOM      8  C   UNL     1     -10.804  23.302 -26.067  1.00  0.00    -0.003 C 
ATOM      9  C   UNL     1      -9.586  24.122 -26.483  1.00  0.00     0.004 C 
ENDBRANCH   7   8
ENDBRANCH   6   7
ENDBRANCH   1   6
TORSDOF 5
ENDMDL
MODEL 7
REMARK VINA RESULT:    -3.741      8.141      9.080
REMARK INTER + INTRA:          -4.981
REMARK INTER:                  -4.695
REMARK INTRA:                  -0.286
REMARK UNBOUND:                -0.147
REMARK SMILES CCCCCCC(=O)[O-]
REMARK SMILES IDX 5 1 6 2 7 3 8 4 9 5 4 6 3 7 2 8 1 9
REMARK H PARENT
REMARK Flexibility Score: inf
ROOT
ATOM      1  C   UNL     1      -5.899  28.333 -21.281  1.00  0.00     0.006 C 
ENDROOT
BRANCH   1   2
ATOM      2  C   UNL     1      -5.813  27.392 -20.073  1.00  0.00     0.053 C 
BRANCH   2   3
ATOM      3  C   UNL     1      -4.481  26.710 -20.036  1.00  0.00     0.041 C 
ATOM      4  O   UNL     1      -4.392  25.479 -20.286  1.00  0.00    -0.550 OA
ATOM      5  O   UNL     1      -3.345  27.423 -19.676  1.00  0.00    -0.550 OA
ENDBRANCH   2   3
ENDBRANCH   1   2
BRANCH   1   6
ATOM      6  C   UNL     1      -6.297  29.769 -20.895  1.00  0.00     0.000 C 
BRANCH   6   7
ATOM      7  C   UNL     1      -5.700  30.275 -19.569  1.00  0.00    -0.000 C 
BRANCH   7   8
ATOM      8  C   UNL     1      -6.712  31.059 -18.719  1.00  0.00    -0.003 C 
ATOM      9  C   UNL     1      -7.135  30.257 -17.492  1.00  0.00     0.004 C 
ENDBRANCH   7   8
ENDBRANCH   6   7
ENDBRANCH   1   6
TORSDOF 5
ENDMDL
MODEL 8
REMARK VINA RESULT:    -3.701      8.098      9.526
REMARK INTER + INTRA:          -4.930
REMARK INTER:                  -4.490
REMARK INTRA:                  -0.439
REMARK UNBOUND:                -0.147
REMARK SMILES CCCCCCC(=O)[O-]
REMARK SMILES IDX 5 1 6 2 7 3 8 4 9 5 4 6 3 7 2 8 1 9
REMARK H PARENT
REMARK Flexibility Score: inf
ROOT
ATOM      1  C   UNL     1      -3.271  27.513 -20.466  1.00  0.00     0.006 C 
ENDROOT
BRANCH   1   2
ATOM      2  C   UNL     1      -4.485  26.640 -20.125  1.00  0.00     0.053 C 
BRANCH   2   3
ATOM      3  C   UNL     1      -5.740  27.455 -20.161  1.00  0.00     0.041 C 
ATOM      4  O   UNL     1      -6.376  27.685 -19.098  1.00  0.00    -0.550 OA
ATOM      5  O   UNL     1      -6.234  27.919 -21.373  1.00  0.00    -0.550 OA
ENDBRANCH   2   3
ENDBRANCH   1   2
BRANCH   1   6
ATOM      6  C   UNL     1      -2.870  28.458 -19.319  1.00  0.00     0.000 C 
BRANCH   6   7
ATOM      7  C   UNL     1      -2.569  29.907 -19.746  1.00  0.00    -0.000 C 
BRANCH   7   8
ATOM      8  C   UNL     1      -3.539  30.427 -20.817  1.00  0.00    -0.003 C 
ATOM      9  C   UNL     1      -4.773  31.058 -20.180  1.00  0.00     0.004 C 
ENDBRANCH   7   8
ENDBRANCH   6   7
ENDBRANCH   1   6
TORSDOF 5
ENDMDL
MODEL 9
REMARK VINA RESULT:    -3.686      8.260      9.351
REMARK INTER + INTRA:          -4.910
REMARK INTER:                  -4.472
REMARK INTRA:                  -0.438
REMARK UNBOUND:                -0.147
REMARK SMILES CCCCCCC(=O)[O-]
REMARK SMILES IDX 5 1 6 2 7 3 8 4 9 5 4 6 3 7 2 8 1 9
REMARK H PARENT
REMARK Flexibility Score: inf
ROOT
ATOM      1  C   UNL     1      -5.836  28.867 -21.377  1.00  0.00     0.006 C 
ENDROOT
BRANCH   1   2
ATOM      2  C   UNL     1      -6.335  30.049 -20.537  1.00  0.00     0.053 C 
BRANCH   2   3
ATOM      3  C   UNL     1      -6.488  29.643 -19.104  1.00  0.00     0.041 C 
ATOM      4  O   UNL     1      -6.447  28.426 -18.782  1.00  0.00    -0.550 OA
ATOM      5  O   UNL     1      -6.726  30.604 -18.131  1.00  0.00    -0.550 OA
ENDBRANCH   2   3
ENDBRANCH   1   2
BRANCH   1   6
ATOM      6  C   UNL     1      -4.317  28.904 -21.622  1.00  0.00     0.000 C 
BRANCH   6   7
ATOM      7  C   UNL     1      -3.494  27.933 -20.755  1.00  0.00    -0.000 C 
BRANCH   7   8
ATOM      8  C   UNL     1      -2.815  28.625 -19.564  1.00  0.00    -0.003 C 
ATOM      9  C   UNL     1      -2.653  30.121 -19.818  1.00  0.00     0.004 C 
ENDBRANCH   7   8
ENDBRANCH   6   7
ENDBRANCH   1   6
TORSDOF 5
ENDMDL
