MODEL 1
REMARK VINA RESULT:    -4.233      0.000      0.000
REMARK INTER + INTRA:          -5.925
REMARK INTER:                  -5.718
REMARK INTRA:                  -0.207
REMARK UNBOUND:                -0.207
REMARK SMILES CCCCCCCC(=O)[O-]
REMARK SMILES IDX 5 1 6 2 7 3 8 4 9 5 10 6 4 7 3 8 2 9 1 10
REMARK H PARENT
REMARK Flexibility Score: inf
ROOT
ATOM      1  C   UNL     1       3.872  11.176   9.464  1.00  0.00     0.000 C 
ENDROOT
BRANCH   1   2
ATOM      2  C   UNL     1       4.877  11.889   8.545  1.00  0.00     0.006 C 
BRANCH   2   3
ATOM      3  C   UNL     1       5.110  11.137   7.228  1.00  0.00     0.053 C 
BRANCH   3   4
ATOM      4  C   UNL     1       6.539  10.705   7.119  1.00  0.00     0.041 C 
ATOM      5  O   UNL     1       7.291  10.745   8.128  1.00  0.00    -0.550 OA
ATOM      6  O   UNL     1       7.052  10.305   5.892  1.00  0.00    -0.550 OA
ENDBRANCH   3   4
ENDBRANCH   2   3
ENDBRANCH   1   2
BRANCH   1   7
ATOM      7  C   UNL     1       2.472  11.071   8.841  1.00  0.00     0.000 C 
BRANCH   7   8
ATOM      8  C   UNL     1       1.390  11.479   9.853  1.00  0.00    -0.000 C 
BRANCH   8   9
ATOM      9  C   UNL     1       0.923  12.930   9.666  1.00  0.00    -0.003 C 
ATOM     10  C   UNL     1      -0.412  13.031   8.929  1.00  0.00     0.004 C 
ENDBRANCH   8   9
ENDBRANCH   7   8
ENDBRANCH   1   7
TORSDOF 6
ENDMDL
MODEL 2
REMARK VINA RESULT:    -4.198      3.183      6.152
REMARK INTER + INTRA:          -5.877
REMARK INTER:                  -5.572
REMARK INTRA:                  -0.305
REMARK UNBOUND:                -0.207
REMARK SMILES CCCCCCCC(=O)[O-]
REMARK SMILES IDX 5 1 6 2 7 3 8 4 9 5 10 6 4 7 3 8 2 9 1 10
REMARK H PARENT
REMARK Flexibility Score: inf
ROOT
ATOM      1  C   UNL     1       5.446  10.886   5.216  1.00  0.00     0.000 C 
ENDROOT
BRANCH   1   2
ATOM      2  C   UNL     1       5.995  10.888   6.652  1.00  0.00     0.006 C 
BRANCH   2   3
ATOM      3  C   UNL     1       4.916  11.209   7.695  1.00  0.00     0.053 C 
BRANCH   3   4
ATOM      4  C   UNL     1       3.906  10.106   7.757  1.00  0.00     0.041 C 
ATOM      5  O   UNL     1       2.679  10.362   7.633  1.00  0.00    -0.550 OA
ATOM      6  O   UNL     1       4.316   8.801   8.000  1.00  0.00    -0.550 OA
ENDBRANCH   3   4
ENDBRANCH   2   3
ENDBRANCH   1   2
BRANCH   1   7
ATOM      7  C   UNL     1       6.064  11.989   4.344  1.00  0.00     0.000 C 
BRANCH   7   8
ATOM      8  C   UNL     1       7.379  12.497   4.955  1.00  0.00    -0.000 C 
BRANCH   8   9
ATOM      9  C   UNL     1       8.618  11.920   4.254  1.00  0.00    -0.003 C 
ATOM     10  C   UNL     1       8.995  12.691   2.990  1.00  0.00     0.004 C 
ENDBRANCH   8   9
ENDBRANCH   7   8
ENDBRANCH   1   7
TORSDOF 6
ENDMDL
MODEL 3
REMARK VINA RESULT:    -4.185      3.443      5.811
REMARK INTER + INTRA:          -5.860
REMARK INTER:                  -5.392
REMARK INTRA:                  -0.468
REMARK UNBOUND:                -0.207
REMARK SMILES CCCCCCCC(=O)[O-]
REMARK SMILES IDX 5 1 6 2 7 3 8 4 9 5 10 6 4 7 3 8 2 9 1 10
REMARK H PARENT
REMARK Flexibility Score: inf
ROOT
ATOM      1  C   UNL     1       5.341  10.918   5.547  1.00  0.00     0.000 C 
ENDROOT
BRANCH   1   2
ATOM      2  C   UNL     1       5.644  11.561   6.910  1.00  0.00     0.006 C 
BRANCH   2   3
ATOM      3  C   UNL     1       6.025  10.527   7.979  1.00  0.00     0.053 C 
BRANCH   3   4
ATOM      4  C   UNL     1       4.796   9.949   8.607  1.00  0.00     0.041 C 
ATOM      5  O   UNL     1       4.262  10.518   9.595  1.00  0.00    -0.550 OA
ATOM      6  O   UNL     1       4.269   8.754   8.132  1.00  0.00    -0.550 OA
ENDBRANCH   3   4
ENDBRANCH   2   3
ENDBRANCH   1   2
BRANCH   1   7
ATOM      7  C   UNL     1       5.938  11.709   4.374  1.00  0.00     0.000 C 
BRANCH   7   8
ATOM      8  C   UNL     1       7.152  12.533   4.831  1.00  0.00    -0.000 C 
BRANCH   8   9
ATOM      9  C   UNL     1       8.488  11.871   4.460  1.00  0.00    -0.003 C 
ATOM     10  C   UNL     1       9.098  11.080   5.617  1.00  0.00     0.004 C 
ENDBRANCH   8   9
ENDBRANCH   7   8
ENDBRANCH   1   7
TORSDOF 6
ENDMDL
MODEL 4
REMARK VINA RESULT:    -4.179      3.455      6.139
REMARK INTER + INTRA:          -5.852
REMARK INTER:                  -5.425
REMARK INTRA:                  -0.427
REMARK UNBOUND:                -0.207
REMARK SMILES CCCCCCCC(=O)[O-]
REMARK SMILES IDX 5 1 6 2 7 3 8 4 9 5 10 6 4 7 3 8 2 9 1 10
REMARK H PARENT
REMARK Flexibility Score: inf
ROOT
ATOM      1  C   UNL     1       6.040  11.943   4.344  1.00  0.00     0.000 C 
ENDROOT
BRANCH   1   2
ATOM      2  C   UNL     1       5.220  10.852   5.053  1.00  0.00     0.006 C 
BRANCH   2   3
ATOM      3  C   UNL     1       5.342  10.922   6.581  1.00  0.00     0.053 C 
BRANCH   3   4
ATOM      4  C   UNL     1       4.300  10.064   7.227  1.00  0.00     0.041 C 
ATOM      5  O   UNL     1       3.084  10.386   7.160  1.00  0.00    -0.550 OA
ATOM      6  O   UNL     1       4.675   8.936   7.945  1.00  0.00    -0.550 OA
ENDBRANCH   3   4
ENDBRANCH   2   3
ENDBRANCH   1   2
BRANCH   1   7
ATOM      7  C   UNL     1       7.212  12.449   5.195  1.00  0.00     0.000 C 
BRANCH   7   8
ATOM      8  C   UNL     1       8.539  11.837   4.719  1.00  0.00    -0.000 C 
BRANCH   8   9
ATOM      9  C   UNL     1       9.271  11.073   5.834  1.00  0.00    -0.003 C 
ATOM     10  C   UNL     1       8.943  11.606   7.229  1.00  0.00     0.004 C 
ENDBRANCH   8   9
ENDBRANCH   7   8
ENDBRANCH   1   7
TORSDOF 6
ENDMDL
MODEL 5
REMARK VINA RESULT:    -4.177      1.151      1.752
REMARK INTER + INTRA:          -5.850
REMARK INTER:                  -5.586
REMARK INTRA:                  -0.264
REMARK UNBOUND:                -0.207
REMARK SMILES CCCCCCCC(=O)[O-]
REMARK SMILES IDX 5 1 6 2 7 3 8 4 9 5 10 6 4 7 3 8 2 9 1 10
REMARK H PARENT
REMARK Flexibility Score: inf
ROOT
ATOM      1  C   UNL     1       4.861  11.788   8.386  1.00  0.00     0.000 C 
ENDROOT
BRANCH   1   2
ATOM      2  C   UNL     1       4.759  10.468   7.603  1.00  0.00     0.006 C 
BRANCH   2   3
ATOM      3  C   UNL     1       4.566  10.689   6.096  1.00  0.00     0.053 C 
BRANCH   3   4
ATOM      4  C   UNL     1       5.888  10.911   5.429  1.00  0.00     0.041 C 
ATOM      5  O   UNL     1       6.930  10.382   5.897  1.00  0.00    -0.550 OA
ATOM      6  O   UNL     1       5.975  11.743   4.320  1.00  0.00    -0.550 OA
ENDBRANCH   3   4
ENDBRANCH   2   3
ENDBRANCH   1   2
BRANCH   1   7
ATOM      7  C   UNL     1       3.539  12.177   9.063  1.00  0.00     0.000 C 
BRANCH   7   8
ATOM      8  C   UNL     1       2.605  10.962   9.180  1.00  0.00    -0.000 C 
BRANCH   8   9
ATOM      9  C   UNL     1       1.314  11.282   9.949  1.00  0.00    -0.003 C 
ATOM     10  C   UNL     1       0.666  12.591   9.499  1.00  0.00     0.004 C 
ENDBRANCH   8   9
ENDBRANCH   7   8
ENDBRANCH   1   7
TORSDOF 6
ENDMDL
MODEL 6
REMARK VINA RESULT:    -4.172      3.183      5.762
REMARK INTER + INTRA:          -5.843
REMARK INTER:                  -5.447
REMARK INTRA:                  -0.396
REMARK UNBOUND:                -0.207
REMARK SMILES CCCCCCCC(=O)[O-]
REMARK SMILES IDX 5 1 6 2 7 3 8 4 9 5 10 6 4 7 3 8 2 9 1 10
REMARK H PARENT
REMARK Flexibility Score: inf
ROOT
ATOM      1  C   UNL     1       6.811  10.631   6.356  1.00  0.00     0.000 C 
ENDROOT
BRANCH   1   2
ATOM      2  C   UNL     1       6.341  10.858   7.802  1.00  0.00     0.006 C 
BRANCH   2   3
ATOM      3  C   UNL     1       4.825  11.070   7.904  1.00  0.00     0.053 C 
BRANCH   3   4
ATOM      4  C   UNL     1       4.182   9.912   8.600  1.00  0.00     0.041 C 
ATOM      5  O   UNL     1       4.197   8.769   8.074  1.00  0.00    -0.550 OA
ATOM      6  O   UNL     1       3.523  10.106   9.808  1.00  0.00    -0.550 OA
ENDBRANCH   3   4
ENDBRANCH   2   3
ENDBRANCH   1   2
BRANCH   1   7
ATOM      7  C   UNL     1       5.729  10.974   5.322  1.00  0.00     0.000 C 
BRANCH   7   8
ATOM      8  C   UNL     1       6.220  12.063   4.355  1.00  0.00    -0.000 C 
BRANCH   8   9
ATOM      9  C   UNL     1       7.664  12.502   4.645  1.00  0.00    -0.003 C 
ATOM     10  C   UNL     1       8.602  12.266   3.462  1.00  0.00     0.004 C 
ENDBRANCH   8   9
ENDBRANCH   7   8
ENDBRANCH   1   7
TORSDOF 6
ENDMDL
MODEL 7
REMARK VINA RESULT:    -4.106      3.322      5.531
REMARK INTER + INTRA:          -5.753
REMARK INTER:                  -5.538
REMARK INTRA:                  -0.215
REMARK UNBOUND:                -0.207
REMARK SMILES CCCCCCCC(=O)[O-]
REMARK SMILES IDX 5 1 6 2 7 3 8 4 9 5 10 6 4 7 3 8 2 9 1 10
REMARK H PARENT
REMARK Flexibility Score: inf
ROOT
ATOM      1  C   UNL     1       4.364   9.576   8.007  1.00  0.00     0.000 C 
ENDROOT
BRANCH   1   2
ATOM      2  C   UNL     1       3.805  10.136   9.326  1.00  0.00     0.006 C 
BRANCH   2   3
ATOM      3  C   UNL     1       3.070  11.470   9.136  1.00  0.00     0.053 C 
BRANCH   3   4
ATOM      4  C   UNL     1       1.603  11.294   9.377  1.00  0.00     0.041 C 
ATOM      5  O   UNL     1       0.802  11.253   8.407  1.00  0.00    -0.550 OA
ATOM      6  O   UNL     1       1.116  11.227  10.677  1.00  0.00    -0.550 OA
ENDBRANCH   3   4
ENDBRANCH   2   3
ENDBRANCH   1   2
BRANCH   1   7
ATOM      7  C   UNL     1       4.138  10.523   6.820  1.00  0.00     0.000 C 
BRANCH   7   8
ATOM      8  C   UNL     1       5.456  11.185   6.387  1.00  0.00    -0.000 C 
BRANCH   8   9
ATOM      9  C   UNL     1       5.604  11.265   4.860  1.00  0.00    -0.003 C 
ATOM     10  C   UNL     1       6.819  12.083   4.427  1.00  0.00     0.004 C 
ENDBRANCH   8   9
ENDBRANCH   7   8
ENDBRANCH   1   7
TORSDOF 6
ENDMDL
MODEL 8
REMARK VINA RESULT:    -4.048      3.148      4.499
REMARK INTER + INTRA:          -5.676
REMARK INTER:                  -5.337
REMARK INTRA:                  -0.338
REMARK UNBOUND:                -0.207
REMARK SMILES CCCCCCCC(=O)[O-]
REMARK SMILES IDX 5 1 6 2 7 3 8 4 9 5 10 6 4 7 3 8 2 9 1 10
REMARK H PARENT
REMARK Flexibility Score: inf
ROOT
ATOM      1  C   UNL     1       5.897  10.996   5.592  1.00  0.00     0.000 C 
ENDROOT
BRANCH   1   2
ATOM      2  C   UNL     1       6.119  11.866   4.343  1.00  0.00     0.006 C 
BRANCH   2   3
ATOM      3  C   UNL     1       7.230  12.907   4.539  1.00  0.00     0.053 C 
BRANCH   3   4
ATOM      4  C   UNL     1       8.548  12.348   4.102  1.00  0.00     0.041 C 
ATOM      5  O   UNL     1       8.939  12.501   2.915  1.00  0.00    -0.550 OA
ATOM      6  O   UNL     1       9.323  11.616   4.994  1.00  0.00    -0.550 OA
ENDBRANCH   3   4
ENDBRANCH   2   3
ENDBRANCH   1   2
BRANCH   1   7
ATOM      7  C   UNL     1       6.027  11.792   6.899  1.00  0.00     0.000 C 
BRANCH   7   8
ATOM      8  C   UNL     1       4.905  11.419   7.880  1.00  0.00    -0.000 C 
BRANCH   8   9
ATOM      9  C   UNL     1       3.999  10.300   7.345  1.00  0.00    -0.003 C 
ATOM     10  C   UNL     1       4.152   8.993   8.122  1.00  0.00     0.004 C 
ENDBRANCH   8   9
ENDBRANCH   7   8
ENDBRANCH   1   7
TORSDOF 6
ENDMDL
MODEL 9
REMARK VINA RESULT:    -4.003      3.206      5.505
REMARK INTER + INTRA:          -5.614
REMARK INTER:                  -5.130
REMARK INTRA:                  -0.484
REMARK UNBOUND:                -0.207
REMARK SMILES CCCCCCCC(=O)[O-]
REMARK SMILES IDX 5 1 6 2 7 3 8 4 9 5 10 6 4 7 3 8 2 9 1 10
REMARK H PARENT
REMARK Flexibility Score: inf
ROOT
ATOM      1  C   UNL     1       7.436  10.813   7.874  1.00  0.00     0.000 C 
ENDROOT
BRANCH   1   2
ATOM      2  C   UNL     1       6.279  11.753   8.250  1.00  0.00     0.006 C 
BRANCH   2   3
ATOM      3  C   UNL     1       4.912  11.210   7.811  1.00  0.00     0.053 C 
BRANCH   3   4
ATOM      4  C   UNL     1       4.479  10.098   8.715  1.00  0.00     0.041 C 
ATOM      5  O   UNL     1       4.439   8.914   8.289  1.00  0.00    -0.550 OA
ATOM      6  O   UNL     1       4.072  10.377  10.014  1.00  0.00    -0.550 OA
ENDBRANCH   3   4
ENDBRANCH   2   3
ENDBRANCH   1   2
BRANCH   1   7
ATOM      7  C   UNL     1       8.407  11.444   6.866  1.00  0.00     0.000 C 
BRANCH   7   8
ATOM      8  C   UNL     1       8.137  10.921   5.446  1.00  0.00    -0.000 C 
BRANCH   8   9
ATOM      9  C   UNL     1       7.588  12.009   4.510  1.00  0.00    -0.003 C 
ATOM     10  C   UNL     1       6.072  11.930   4.337  1.00  0.00     0.004 C 
ENDBRANCH   8   9
ENDBRANCH   7   8
ENDBRANCH   1   7
TORSDOF 6
ENDMDL
