MODEL 1
REMARK VINA RESULT:    38.950      0.000      0.000
REMARK INTER + INTRA:          46.972
REMARK INTER:                  46.920
REMARK INTRA:                   0.052
REMARK UNBOUND:                 0.052
REMARK SMILES O=c1c(O)c(-c2ccc(O)c(O)c2)oc2cc(O)cc(O)c12
REMARK SMILES IDX 5 1 3 2 2 3 1 4 22 5 20 6 19 7 17 8 16 9 15 10 14 11 6 12
REMARK SMILES IDX 7 13 8 14 9 15 13 16 11 17 10 18 12 20 4 22 21 24 18 26
REMARK H PARENT 10 19 12 21 4 23 21 25 18 27
REMARK Flexibility Score: inf
ROOT
ATOM      1  C   UNL     1      31.143  11.637  -1.479  1.00  0.00     0.180 A 
ATOM      2  C   UNL     1      29.846  11.636  -0.935  1.00  0.00     0.208 A 
ATOM      3  C   UNL     1      29.359  10.460  -0.341  1.00  0.00     0.238 A 
ATOM      4  O   UNL     1      28.219  10.481   0.193  1.00  0.00    -0.285 OA
ATOM      5  C   UNL     1      30.167   9.298  -0.313  1.00  0.00     0.111 A 
ATOM      6  C   UNL     1      29.760   8.041   0.227  1.00  0.00     0.134 A 
ATOM      7  C   UNL     1      30.688   6.996   0.319  1.00  0.00     0.093 A 
ATOM      8  C   UNL     1      31.989   7.142  -0.169  1.00  0.00     0.123 A 
ATOM      9  C   UNL     1      32.377   8.346  -0.752  1.00  0.00     0.094 A 
ATOM     10  C   UNL     1      31.485   9.418  -0.826  1.00  0.00     0.146 A 
ATOM     11  O   UNL     1      31.900  10.551  -1.379  1.00  0.00    -0.452 OA
ENDROOT
BRANCH   1  12
ATOM     12  C   UNL     1      31.716  12.831  -2.144  1.00  0.00     0.025 A 
ATOM     13  C   UNL     1      33.052  13.182  -1.899  1.00  0.00     0.016 A 
ATOM     14  C   UNL     1      33.619  14.291  -2.531  1.00  0.00     0.051 A 
ATOM     15  C   UNL     1      32.867  15.056  -3.429  1.00  0.00     0.157 A 
ATOM     16  C   UNL     1      30.966  13.588  -3.063  1.00  0.00     0.062 A 
ATOM     17  C   UNL     1      31.535  14.700  -3.701  1.00  0.00     0.158 A 
BRANCH  15  18
ATOM     18  O   UNL     1      33.459  16.158  -4.043  1.00  0.00    -0.504 OA
ATOM     19  H   UNL     1      32.918  16.845  -4.553  1.00  0.00     0.293 HD
ENDBRANCH  15  18
BRANCH  17  20
ATOM     20  O   UNL     1      30.785  15.449  -4.604  1.00  0.00    -0.504 OA
ATOM     21  H   UNL     1      30.716  15.190  -5.582  1.00  0.00     0.293 HD
ENDBRANCH  17  20
ENDBRANCH   1  12
BRANCH   2  22
ATOM     22  O   UNL     1      29.075  12.801  -0.954  1.00  0.00    -0.502 OA
ATOM     23  H   UNL     1      28.501  13.060  -1.748  1.00  0.00     0.293 HD
ENDBRANCH   2  22
BRANCH   6  24
ATOM     24  O   UNL     1      28.460   7.761   0.657  1.00  0.00    -0.507 OA
ATOM     25  H   UNL     1      27.760   7.290   0.103  1.00  0.00     0.293 HD
ENDBRANCH   6  24
BRANCH   8  26
ATOM     26  O   UNL     1      32.900   6.093  -0.088  1.00  0.00    -0.508 OA
ATOM     27  H   UNL     1      32.887   5.327  -0.753  1.00  0.00     0.293 HD
ENDBRANCH   8  26
TORSDOF 6
ENDMDL
MODEL 2
REMARK VINA RESULT:    41.356      1.848      7.062
REMARK INTER + INTRA:          49.870
REMARK INTER:                  49.961
REMARK INTRA:                  -0.091
REMARK UNBOUND:                 0.052
REMARK SMILES O=c1c(O)c(-c2ccc(O)c(O)c2)oc2cc(O)cc(O)c12
REMARK SMILES IDX 5 1 3 2 2 3 1 4 22 5 20 6 19 7 17 8 16 9 15 10 14 11 6 12
REMARK SMILES IDX 7 13 8 14 9 15 13 16 11 17 10 18 12 20 4 22 21 24 18 26
REMARK H PARENT 10 19 12 21 4 23 21 25 18 27
REMARK Flexibility Score: inf
ROOT
ATOM      1  C   UNL     1      31.098  11.252  -0.838  1.00  0.00     0.180 A 
ATOM      2  C   UNL     1      32.120  11.621   0.054  1.00  0.00     0.208 A 
ATOM      3  C   UNL     1      32.915  12.738  -0.247  1.00  0.00     0.238 A 
ATOM      4  O   UNL     1      33.792  13.097   0.581  1.00  0.00    -0.285 OA
ATOM      5  C   UNL     1      32.689  13.462  -1.444  1.00  0.00     0.111 A 
ATOM      6  C   UNL     1      33.460  14.586  -1.868  1.00  0.00     0.134 A 
ATOM      7  C   UNL     1      33.066  15.304  -3.004  1.00  0.00     0.093 A 
ATOM      8  C   UNL     1      31.967  14.900  -3.766  1.00  0.00     0.123 A 
ATOM      9  C   UNL     1      31.244  13.770  -3.393  1.00  0.00     0.094 A 
ATOM     10  C   UNL     1      31.592  13.054  -2.245  1.00  0.00     0.146 A 
ATOM     11  O   UNL     1      30.869  11.989  -1.919  1.00  0.00    -0.452 OA
ENDROOT
BRANCH   1  12
ATOM     12  C   UNL     1      30.234  10.071  -0.602  1.00  0.00     0.025 A 
ATOM     13  C   UNL     1      30.241   9.015  -1.525  1.00  0.00     0.016 A 
ATOM     14  C   UNL     1      29.451   7.883  -1.312  1.00  0.00     0.051 A 
ATOM     15  C   UNL     1      28.655   7.782  -0.166  1.00  0.00     0.157 A 
ATOM     16  C   UNL     1      29.450   9.959   0.561  1.00  0.00     0.062 A 
ATOM     17  C   UNL     1      28.657   8.822   0.778  1.00  0.00     0.158 A 
BRANCH  15  18
ATOM     18  O   UNL     1      27.875   6.641   0.019  1.00  0.00    -0.504 OA
ATOM     19  H   UNL     1      28.284   5.720   0.120  1.00  0.00     0.293 HD
ENDBRANCH  15  18
BRANCH  17  20
ATOM     20  O   UNL     1      27.878   8.721   1.928  1.00  0.00    -0.504 OA
ATOM     21  H   UNL     1      27.895   7.892   2.511  1.00  0.00     0.293 HD
ENDBRANCH  17  20
ENDBRANCH   1  12
BRANCH   2  22
ATOM     22  O   UNL     1      32.310  10.906   1.239  1.00  0.00    -0.502 OA
ATOM     23  H   UNL     1      33.229  10.739   1.632  1.00  0.00     0.293 HD
ENDBRANCH   2  22
BRANCH   6  24
ATOM     24  O   UNL     1      34.628  15.016  -1.232  1.00  0.00    -0.507 OA
ATOM     25  H   UNL     1      35.039  14.574  -0.423  1.00  0.00     0.293 HD
ENDBRANCH   6  24
BRANCH   8  26
ATOM     26  O   UNL     1      31.591  15.611  -4.903  1.00  0.00    -0.508 OA
ATOM     27  H   UNL     1      31.917  15.346  -5.826  1.00  0.00     0.293 HD
ENDBRANCH   8  26
TORSDOF 6
ENDMDL
