MODEL 1
REMARK VINA RESULT:     0.738      0.000      0.000
REMARK INTER + INTRA:           0.760
REMARK INTER:                   0.760
REMARK INTRA:                   0.000
REMARK UNBOUND:                 0.000
REMARK SMILES Nc1ncnc2nc[nH]c12
REMARK SMILES IDX 8 1 7 2 6 3 5 4 4 5 3 6 2 7 10 8 9 9 1 11
REMARK H PARENT 9 10 1 12 1 13
REMARK Flexibility Score: inf
ROOT
ATOM      1  C   UNL     1      37.401 -10.971 -20.871  1.00  0.00     0.199 A 
ATOM      2  N   UNL     1      37.908 -11.790 -21.831  1.00  0.00    -0.217 NA
ATOM      3  C   UNL     1      37.637 -13.010 -21.339  1.00  0.00     0.182 A 
ATOM      4  N   UNL     1      37.936 -14.199 -21.914  1.00  0.00    -0.215 NA
ATOM      5  C   UNL     1      37.577 -15.344 -21.256  1.00  0.00     0.226 A 
ATOM      6  N   UNL     1      36.932 -15.277 -20.047  1.00  0.00    -0.217 NA
ATOM      7  C   UNL     1      36.629 -14.078 -19.466  1.00  0.00     0.152 A 
ATOM      8  C   UNL     1      37.001 -12.924 -20.147  1.00  0.00     0.127 A 
ATOM      9  N   UNL     1      36.840 -11.634 -19.828  1.00  0.00    -0.340 N 
ATOM     10  H   UNL     1      36.390 -11.223 -18.981  1.00  0.00     0.168 HD
ENDROOT
BRANCH   7  11
ATOM     11  N   UNL     1      35.957 -14.035 -18.206  1.00  0.00    -0.382 N 
ATOM     12  H   UNL     1      36.288 -13.385 -17.459  1.00  0.00     0.158 HD
ATOM     13  H   UNL     1      35.132 -14.642 -18.009  1.00  0.00     0.158 HD
ENDBRANCH   7  11
TORSDOF 1
ENDMDL
MODEL 2
REMARK VINA RESULT:     0.778      0.912      2.429
REMARK INTER + INTRA:           0.801
REMARK INTER:                   0.801
REMARK INTRA:                   0.000
REMARK UNBOUND:                 0.000
REMARK SMILES Nc1ncnc2nc[nH]c12
REMARK SMILES IDX 8 1 7 2 6 3 5 4 4 5 3 6 2 7 10 8 9 9 1 11
REMARK H PARENT 9 10 1 12 1 13
REMARK Flexibility Score: inf
ROOT
ATOM      1  C   UNL     1      37.794 -11.529 -21.497  1.00  0.00     0.199 A 
ATOM      2  N   UNL     1      37.068 -11.445 -20.349  1.00  0.00    -0.217 NA
ATOM      3  C   UNL     1      36.881 -12.738 -20.035  1.00  0.00     0.182 A 
ATOM      4  N   UNL     1      36.208 -13.218 -18.962  1.00  0.00    -0.215 NA
ATOM      5  C   UNL     1      36.123 -14.575 -18.809  1.00  0.00     0.226 A 
ATOM      6  N   UNL     1      36.707 -15.416 -19.723  1.00  0.00    -0.217 NA
ATOM      7  C   UNL     1      37.386 -14.932 -20.804  1.00  0.00     0.152 A 
ATOM      8  C   UNL     1      37.463 -13.550 -20.946  1.00  0.00     0.127 A 
ATOM      9  N   UNL     1      38.052 -12.803 -21.888  1.00  0.00    -0.340 N 
ATOM     10  H   UNL     1      38.585 -13.114 -22.729  1.00  0.00     0.168 HD
ENDROOT
BRANCH   7  11
ATOM     11  N   UNL     1      37.986 -15.828 -21.742  1.00  0.00    -0.382 N 
ATOM     12  H   UNL     1      38.831 -16.378 -21.472  1.00  0.00     0.158 HD
ATOM     13  H   UNL     1      37.597 -15.949 -22.702  1.00  0.00     0.158 HD
ENDBRANCH   7  11
TORSDOF 1
ENDMDL
MODEL 3
REMARK VINA RESULT:     1.742      0.762      2.889
REMARK INTER + INTRA:           1.793
REMARK INTER:                   1.793
REMARK INTRA:                   0.000
REMARK UNBOUND:                 0.000
REMARK SMILES Nc1ncnc2nc[nH]c12
REMARK SMILES IDX 8 1 7 2 6 3 5 4 4 5 3 6 2 7 10 8 9 9 1 11
REMARK H PARENT 9 10 1 12 1 13
REMARK Flexibility Score: inf
ROOT
ATOM      1  C   UNL     1      37.622 -16.080 -21.475  1.00  0.00     0.199 A 
ATOM      2  N   UNL     1      38.024 -15.039 -22.252  1.00  0.00    -0.217 NA
ATOM      3  C   UNL     1      37.670 -13.976 -21.511  1.00  0.00     0.182 A 
ATOM      4  N   UNL     1      37.848 -12.672 -21.832  1.00  0.00    -0.215 NA
ATOM      5  C   UNL     1      37.419 -11.724 -20.942  1.00  0.00     0.226 A 
ATOM      6  N   UNL     1      36.825 -12.096 -19.763  1.00  0.00    -0.217 NA
ATOM      7  C   UNL     1      36.645 -13.411 -19.439  1.00  0.00     0.152 A 
ATOM      8  C   UNL     1      37.087 -14.362 -20.353  1.00  0.00     0.127 A 
ATOM      9  N   UNL     1      37.045 -15.700 -20.308  1.00  0.00    -0.340 N 
ATOM     10  H   UNL     1      36.662 -16.315 -19.557  1.00  0.00     0.168 HD
ENDROOT
BRANCH   7  11
ATOM     11  N   UNL     1      36.024 -13.773 -18.204  1.00  0.00    -0.382 N 
ATOM     12  H   UNL     1      35.191 -14.403 -18.203  1.00  0.00     0.158 HD
ATOM     13  H   UNL     1      36.385 -13.421 -17.291  1.00  0.00     0.158 HD
ENDBRANCH   7  11
TORSDOF 1
ENDMDL
MODEL 4
REMARK VINA RESULT:     2.362      1.034      3.268
REMARK INTER + INTRA:           2.431
REMARK INTER:                   2.431
REMARK INTRA:                   0.000
REMARK UNBOUND:                 0.000
REMARK SMILES Nc1ncnc2nc[nH]c12
REMARK SMILES IDX 8 1 7 2 6 3 5 4 4 5 3 6 2 7 10 8 9 9 1 11
REMARK H PARENT 9 10 1 12 1 13
REMARK Flexibility Score: inf
ROOT
ATOM      1  C   UNL     1      35.974 -14.557 -18.371  1.00  0.00     0.199 A 
ATOM      2  N   UNL     1      36.108 -13.239 -18.677  1.00  0.00    -0.217 NA
ATOM      3  C   UNL     1      36.784 -13.282 -19.837  1.00  0.00     0.182 A 
ATOM      4  N   UNL     1      37.181 -12.222 -20.581  1.00  0.00    -0.215 NA
ATOM      5  C   UNL     1      37.863 -12.468 -21.741  1.00  0.00     0.226 A 
ATOM      6  N   UNL     1      38.133 -13.756 -22.131  1.00  0.00    -0.217 NA
ATOM      7  C   UNL     1      37.732 -14.825 -21.381  1.00  0.00     0.152 A 
ATOM      8  C   UNL     1      37.039 -14.559 -20.204  1.00  0.00     0.127 A 
ATOM      9  N   UNL     1      36.533 -15.390 -19.285  1.00  0.00    -0.340 N 
ATOM     10  H   UNL     1      36.556 -16.433 -19.265  1.00  0.00     0.168 HD
ENDROOT
BRANCH   7  11
ATOM     11  N   UNL     1      38.024 -16.157 -21.808  1.00  0.00    -0.382 N 
ATOM     12  H   UNL     1      38.999 -16.417 -22.077  1.00  0.00     0.158 HD
ATOM     13  H   UNL     1      37.281 -16.887 -21.857  1.00  0.00     0.158 HD
ENDBRANCH   7  11
TORSDOF 1
ENDMDL
MODEL 5
REMARK VINA RESULT:     2.502      1.045      3.499
REMARK INTER + INTRA:           2.575
REMARK INTER:                   2.575
REMARK INTRA:                   0.000
REMARK UNBOUND:                 0.000
REMARK SMILES Nc1ncnc2nc[nH]c12
REMARK SMILES IDX 8 1 7 2 6 3 5 4 4 5 3 6 2 7 10 8 9 9 1 11
REMARK H PARENT 9 10 1 12 1 13
REMARK Flexibility Score: inf
ROOT
ATOM      1  C   UNL     1      37.892 -15.834 -21.948  1.00  0.00     0.199 A 
ATOM      2  N   UNL     1      37.224 -16.213 -20.825  1.00  0.00    -0.217 NA
ATOM      3  C   UNL     1      36.976 -15.035 -20.229  1.00  0.00     0.182 A 
ATOM      4  N   UNL     1      36.325 -14.844 -19.057  1.00  0.00    -0.215 NA
ATOM      5  C   UNL     1      36.168 -13.561 -18.607  1.00  0.00     0.226 A 
ATOM      6  N   UNL     1      36.663 -12.506 -19.331  1.00  0.00    -0.217 NA
ATOM      7  C   UNL     1      37.320 -12.698 -20.513  1.00  0.00     0.152 A 
ATOM      8  C   UNL     1      37.471 -14.008 -20.957  1.00  0.00     0.127 A 
ATOM      9  N   UNL     1      38.059 -14.492 -22.057  1.00  0.00    -0.340 N 
ATOM     10  H   UNL     1      38.537 -13.971 -22.825  1.00  0.00     0.168 HD
ENDROOT
BRANCH   7  11
ATOM     11  N   UNL     1      37.826 -11.582 -21.249  1.00  0.00    -0.382 N 
ATOM     12  H   UNL     1      38.054 -11.685 -22.263  1.00  0.00     0.158 HD
ATOM     13  H   UNL     1      37.975 -10.655 -20.795  1.00  0.00     0.158 HD
ENDBRANCH   7  11
TORSDOF 1
ENDMDL
MODEL 6
REMARK VINA RESULT:     2.752     12.580     13.583
REMARK INTER + INTRA:           2.832
REMARK INTER:                   2.832
REMARK INTRA:                   0.000
REMARK UNBOUND:                 0.000
REMARK SMILES Nc1ncnc2nc[nH]c12
REMARK SMILES IDX 8 1 7 2 6 3 5 4 4 5 3 6 2 7 10 8 9 9 1 11
REMARK H PARENT 9 10 1 12 1 13
REMARK Flexibility Score: inf
ROOT
ATOM      1  C   UNL     1      41.053  -4.990  -9.993  1.00  0.00     0.199 A 
ATOM      2  N   UNL     1      41.137  -5.585  -8.772  1.00  0.00    -0.217 NA
ATOM      3  C   UNL     1      41.861  -6.684  -9.040  1.00  0.00     0.182 A 
ATOM      4  N   UNL     1      42.236  -7.639  -8.156  1.00  0.00    -0.215 NA
ATOM      5  C   UNL     1      42.977  -8.692  -8.619  1.00  0.00     0.226 A 
ATOM      6  N   UNL     1      43.322  -8.770  -9.945  1.00  0.00    -0.217 NA
ATOM      7  C   UNL     1      42.944  -7.807 -10.837  1.00  0.00     0.152 A 
ATOM      8  C   UNL     1      42.192  -6.742 -10.350  1.00  0.00     0.127 A 
ATOM      9  N   UNL     1      41.688  -5.673 -10.979  1.00  0.00    -0.340 N 
ATOM     10  H   UNL     1      41.760  -5.414 -11.987  1.00  0.00     0.168 HD
ENDROOT
BRANCH   7  11
ATOM     11  N   UNL     1      43.317  -7.909 -12.213  1.00  0.00    -0.382 N 
ATOM     12  H   UNL     1      42.987  -7.193 -12.898  1.00  0.00     0.158 HD
ATOM     13  H   UNL     1      43.918  -8.690 -12.556  1.00  0.00     0.158 HD
ENDBRANCH   7  11
TORSDOF 1
ENDMDL
MODEL 7
REMARK VINA RESULT:     2.865      0.891      2.957
REMARK INTER + INTRA:           2.948
REMARK INTER:                   2.948
REMARK INTRA:                   0.000
REMARK UNBOUND:                 0.000
REMARK SMILES Nc1ncnc2nc[nH]c12
REMARK SMILES IDX 8 1 7 2 6 3 5 4 4 5 3 6 2 7 10 8 9 9 1 11
REMARK H PARENT 9 10 1 12 1 13
REMARK Flexibility Score: inf
ROOT
ATOM      1  C   UNL     1      36.141 -14.653 -18.821  1.00  0.00     0.199 A 
ATOM      2  N   UNL     1      36.752 -15.337 -19.826  1.00  0.00    -0.217 NA
ATOM      3  C   UNL     1      37.206 -14.346 -20.612  1.00  0.00     0.182 A 
ATOM      4  N   UNL     1      37.897 -14.484 -21.768  1.00  0.00    -0.215 NA
ATOM      5  C   UNL     1      38.277 -13.349 -22.432  1.00  0.00     0.226 A 
ATOM      6  N   UNL     1      37.960 -12.112 -21.932  1.00  0.00    -0.217 NA
ATOM      7  C   UNL     1      37.262 -11.972 -20.766  1.00  0.00     0.152 A 
ATOM      8  C   UNL     1      36.883 -13.135 -20.102  1.00  0.00     0.127 A 
ATOM      9  N   UNL     1      36.204 -13.305 -18.961  1.00  0.00    -0.340 N 
ATOM     10  H   UNL     1      35.812 -12.580 -18.321  1.00  0.00     0.168 HD
ENDROOT
BRANCH   7  11
ATOM     11  N   UNL     1      36.944 -10.672 -20.265  1.00  0.00    -0.382 N 
ATOM     12  H   UNL     1      37.291 -10.374 -19.326  1.00  0.00     0.158 HD
ATOM     13  H   UNL     1      36.366 -10.003 -20.819  1.00  0.00     0.158 HD
ENDBRANCH   7  11
TORSDOF 1
ENDMDL
MODEL 8
REMARK VINA RESULT:     2.872     12.572     13.448
REMARK INTER + INTRA:           2.956
REMARK INTER:                   2.956
REMARK INTRA:                   0.000
REMARK UNBOUND:                 0.000
REMARK SMILES Nc1ncnc2nc[nH]c12
REMARK SMILES IDX 8 1 7 2 6 3 5 4 4 5 3 6 2 7 10 8 9 9 1 11
REMARK H PARENT 9 10 1 12 1 13
REMARK Flexibility Score: inf
ROOT
ATOM      1  C   UNL     1      41.028  -4.989  -9.140  1.00  0.00     0.199 A 
ATOM      2  N   UNL     1      41.443  -4.987 -10.435  1.00  0.00    -0.217 NA
ATOM      3  C   UNL     1      42.059  -6.176 -10.540  1.00  0.00     0.182 A 
ATOM      4  N   UNL     1      42.661  -6.680 -11.643  1.00  0.00    -0.215 NA
ATOM      5  C   UNL     1      43.239  -7.917 -11.555  1.00  0.00     0.226 A 
ATOM      6  N   UNL     1      43.206  -8.618 -10.376  1.00  0.00    -0.217 NA
ATOM      7  C   UNL     1      42.599  -8.111  -9.263  1.00  0.00     0.152 A 
ATOM      8  C   UNL     1      42.015  -6.852  -9.368  1.00  0.00     0.127 A 
ATOM      9  N   UNL     1      41.363  -6.115  -8.461  1.00  0.00    -0.340 N 
ATOM     10  H   UNL     1      41.155  -6.343  -7.464  1.00  0.00     0.168 HD
ENDROOT
BRANCH   7  11
ATOM     11  N   UNL     1      42.576  -8.860  -8.046  1.00  0.00    -0.382 N 
ATOM     12  H   UNL     1      43.095  -9.764  -7.980  1.00  0.00     0.158 HD
ATOM     13  H   UNL     1      42.049  -8.524  -7.211  1.00  0.00     0.158 HD
ENDBRANCH   7  11
TORSDOF 1
ENDMDL
MODEL 9
REMARK VINA RESULT:     2.978      0.980      3.842
REMARK INTER + INTRA:           3.065
REMARK INTER:                   3.065
REMARK INTRA:                   0.000
REMARK UNBOUND:                 0.000
REMARK SMILES Nc1ncnc2nc[nH]c12
REMARK SMILES IDX 8 1 7 2 6 3 5 4 4 5 3 6 2 7 10 8 9 9 1 11
REMARK H PARENT 9 10 1 12 1 13
REMARK Flexibility Score: inf
ROOT
ATOM      1  C   UNL     1      37.145 -15.735 -20.431  1.00  0.00     0.199 A 
ATOM      2  N   UNL     1      36.583 -14.914 -19.503  1.00  0.00    -0.217 NA
ATOM      3  C   UNL     1      36.861 -13.695 -19.995  1.00  0.00     0.182 A 
ATOM      4  N   UNL     1      36.520 -12.505 -19.445  1.00  0.00    -0.215 NA
ATOM      5  C   UNL     1      36.894 -11.362 -20.097  1.00  0.00     0.226 A 
ATOM      6  N   UNL     1      37.596 -11.431 -21.274  1.00  0.00    -0.217 NA
ATOM      7  C   UNL     1      37.940 -12.630 -21.829  1.00  0.00     0.152 A 
ATOM      8  C   UNL     1      37.552 -13.784 -21.154  1.00  0.00     0.127 A 
ATOM      9  N   UNL     1      37.746 -15.074 -21.453  1.00  0.00    -0.340 N 
ATOM     10  H   UNL     1      38.239 -15.487 -22.274  1.00  0.00     0.168 HD
ENDROOT
BRANCH   7  11
ATOM     11  N   UNL     1      38.671 -12.676 -23.056  1.00  0.00    -0.382 N 
ATOM     12  H   UNL     1      39.504 -12.061 -23.191  1.00  0.00     0.158 HD
ATOM     13  H   UNL     1      38.392 -13.317 -23.831  1.00  0.00     0.158 HD
ENDBRANCH   7  11
TORSDOF 1
ENDMDL
