MODEL 1
REMARK VINA RESULT:    -7.555      0.000      0.000
REMARK INTER + INTRA:          -9.711
REMARK INTER:                  -9.322
REMARK INTRA:                  -0.389
REMARK UNBOUND:                -0.389
REMARK SMILES O=C1c2c(O)cc(O)cc2O[C@@H](c2cc(O)c(O)c(O)c2)[C@@H]1O
REMARK SMILES IDX 12 1 22 2 2 3 1 4 3 5 4 6 6 7 7 8 9 9 10 10 11 11 13 12
REMARK SMILES IDX 14 13 15 14 21 15 17 16 19 17 16 18 18 20 20 22 23 24 5 26
REMARK SMILES IDX 8 28
REMARK H PARENT 16 19 18 21 20 23 23 25 5 27 8 29
REMARK Flexibility Score: inf
ROOT
ATOM      1  C   UNL     1     131.352 134.664 150.811  1.00  0.00     0.240 C 
ATOM      2  C   UNL     1     132.244 133.547 150.232  1.00  0.00     0.231 C 
ATOM      3  C   UNL     1     131.589 132.972 149.001  1.00  0.00     0.202 C 
ATOM      4  O   UNL     1     132.275 132.763 147.965  1.00  0.00    -0.291 OA
ATOM      5  C   UNL     1     130.127 132.712 149.030  1.00  0.00     0.105 A 
ATOM      6  C   UNL     1     129.455 131.851 148.122  1.00  0.00     0.133 A 
ATOM      7  C   UNL     1     128.061 131.729 148.189  1.00  0.00     0.093 A 
ATOM      8  C   UNL     1     127.331 132.394 149.175  1.00  0.00     0.123 A 
ATOM      9  C   UNL     1     127.994 133.202 150.103  1.00  0.00     0.093 A 
ATOM     10  C   UNL     1     129.379 133.371 150.029  1.00  0.00     0.138 A 
ATOM     11  O   UNL     1     130.008 134.200 150.968  1.00  0.00    -0.481 OA
ENDROOT
BRANCH   1  12
ATOM     12  C   UNL     1     131.884 135.148 152.140  1.00  0.00     0.003 A 
ATOM     13  C   UNL     1     132.313 136.475 152.295  1.00  0.00     0.058 A 
ATOM     14  C   UNL     1     132.779 136.933 153.535  1.00  0.00     0.161 A 
ATOM     15  C   UNL     1     131.905 134.287 153.249  1.00  0.00     0.058 A 
ATOM     16  C   UNL     1     132.811 136.061 154.637  1.00  0.00     0.200 A 
ATOM     17  C   UNL     1     132.369 134.735 154.490  1.00  0.00     0.161 A 
BRANCH  14  18
ATOM     18  O   UNL     1     133.209 138.252 153.675  1.00  0.00    -0.504 OA
ATOM     19  H   UNL     1     132.828 138.863 154.388  1.00  0.00     0.293 HD
ENDBRANCH  14  18
BRANCH  16  20
ATOM     20  O   UNL     1     133.273 136.499 155.879  1.00  0.00    -0.502 OA
ATOM     21  H   UNL     1     132.870 137.298 156.353  1.00  0.00     0.293 HD
ENDBRANCH  16  20
BRANCH  17  22
ATOM     22  O   UNL     1     132.382 133.847 155.565  1.00  0.00    -0.504 OA
ATOM     23  H   UNL     1     133.162 133.227 155.742  1.00  0.00     0.293 HD
ENDBRANCH  17  22
ENDBRANCH   1  12
BRANCH   2  24
ATOM     24  O   UNL     1     133.539 134.024 149.952  1.00  0.00    -0.381 OA
ATOM     25  H   UNL     1     134.157 133.246 149.968  1.00  0.00     0.211 HD
ENDBRANCH   2  24
BRANCH   6  26
ATOM     26  O   UNL     1     130.120 131.076 147.168  1.00  0.00    -0.507 OA
ATOM     27  H   UNL     1     130.502 131.442 146.309  1.00  0.00     0.293 HD
ENDBRANCH   6  26
BRANCH   8  28
ATOM     28  O   UNL     1     125.948 132.238 149.229  1.00  0.00    -0.508 OA
ATOM     29  H   UNL     1     125.465 132.093 150.109  1.00  0.00     0.293 HD
ENDBRANCH   8  28
TORSDOF 7
ENDMDL
MODEL 2
REMARK VINA RESULT:    -7.309      2.266      3.348
REMARK INTER + INTRA:          -9.408
REMARK INTER:                  -9.062
REMARK INTRA:                  -0.346
REMARK UNBOUND:                -0.389
REMARK SMILES O=C1c2c(O)cc(O)cc2O[C@@H](c2cc(O)c(O)c(O)c2)[C@@H]1O
REMARK SMILES IDX 12 1 22 2 2 3 1 4 3 5 4 6 6 7 7 8 9 9 10 10 11 11 13 12
REMARK SMILES IDX 14 13 15 14 21 15 17 16 19 17 16 18 18 20 20 22 23 24 5 26
REMARK SMILES IDX 8 28
REMARK H PARENT 16 19 18 21 20 23 23 25 5 27 8 29
REMARK Flexibility Score: inf
ROOT
ATOM      1  C   UNL     1     131.466 134.607 152.847  1.00  0.00     0.240 C 
ATOM      2  C   UNL     1     131.109 133.425 153.771  1.00  0.00     0.231 C 
ATOM      3  C   UNL     1     130.985 132.168 152.949  1.00  0.00     0.202 C 
ATOM      4  O   UNL     1     131.517 131.099 153.353  1.00  0.00    -0.291 OA
ATOM      5  C   UNL     1     130.272 132.236 151.648  1.00  0.00     0.105 A 
ATOM      6  C   UNL     1     129.758 131.103 150.962  1.00  0.00     0.133 A 
ATOM      7  C   UNL     1     129.164 131.268 149.705  1.00  0.00     0.093 A 
ATOM      8  C   UNL     1     129.015 132.537 149.144  1.00  0.00     0.123 A 
ATOM      9  C   UNL     1     129.474 133.660 149.837  1.00  0.00     0.093 A 
ATOM     10  C   UNL     1     130.106 133.516 151.075  1.00  0.00     0.138 A 
ATOM     11  O   UNL     1     130.566 134.663 151.736  1.00  0.00    -0.481 OA
ENDROOT
BRANCH   1  12
ATOM     12  C   UNL     1     131.429 135.916 153.600  1.00  0.00     0.003 A 
ATOM     13  C   UNL     1     130.352 136.221 154.447  1.00  0.00     0.058 A 
ATOM     14  C   UNL     1     130.331 137.422 155.169  1.00  0.00     0.161 A 
ATOM     15  C   UNL     1     132.500 136.819 153.500  1.00  0.00     0.058 A 
ATOM     16  C   UNL     1     131.400 138.328 155.053  1.00  0.00     0.200 A 
ATOM     17  C   UNL     1     132.488 138.020 154.217  1.00  0.00     0.161 A 
BRANCH  14  18
ATOM     18  O   UNL     1     129.253 137.718 156.001  1.00  0.00    -0.504 OA
ATOM     19  H   UNL     1     128.295 137.603 155.691  1.00  0.00     0.293 HD
ENDBRANCH  14  18
BRANCH  16  20
ATOM     20  O   UNL     1     131.396 139.529 155.763  1.00  0.00    -0.502 OA
ATOM     21  H   UNL     1     130.946 139.620 156.666  1.00  0.00     0.293 HD
ENDBRANCH  16  20
BRANCH  17  22
ATOM     22  O   UNL     1     133.566 138.894 154.086  1.00  0.00    -0.504 OA
ATOM     23  H   UNL     1     134.010 139.070 153.193  1.00  0.00     0.293 HD
ENDBRANCH  17  22
ENDBRANCH   1  12
BRANCH   2  24
ATOM     24  O   UNL     1     132.060 133.278 154.798  1.00  0.00    -0.381 OA
ATOM     25  H   UNL     1     131.741 132.559 155.404  1.00  0.00     0.211 HD
ENDBRANCH   2  24
BRANCH   6  26
ATOM     26  O   UNL     1     129.780 129.812 151.496  1.00  0.00    -0.507 OA
ATOM     27  H   UNL     1     129.178 129.498 152.243  1.00  0.00     0.293 HD
ENDBRANCH   6  26
BRANCH   8  28
ATOM     28  O   UNL     1     128.403 132.672 147.900  1.00  0.00    -0.508 OA
ATOM     29  H   UNL     1     128.495 131.960 147.185  1.00  0.00     0.293 HD
ENDBRANCH   8  28
TORSDOF 7
ENDMDL
MODEL 3
REMARK VINA RESULT:    -7.300      2.375      7.146
REMARK INTER + INTRA:          -9.396
REMARK INTER:                  -9.023
REMARK INTRA:                  -0.373
REMARK UNBOUND:                -0.389
REMARK SMILES O=C1c2c(O)cc(O)cc2O[C@@H](c2cc(O)c(O)c(O)c2)[C@@H]1O
REMARK SMILES IDX 12 1 22 2 2 3 1 4 3 5 4 6 6 7 7 8 9 9 10 10 11 11 13 12
REMARK SMILES IDX 14 13 15 14 21 15 17 16 19 17 16 18 18 20 20 22 23 24 5 26
REMARK SMILES IDX 8 28
REMARK H PARENT 16 19 18 21 20 23 23 25 5 27 8 29
REMARK Flexibility Score: inf
ROOT
ATOM      1  C   UNL     1     130.784 132.415 151.338  1.00  0.00     0.240 C 
ATOM      2  C   UNL     1     130.543 133.837 151.886  1.00  0.00     0.231 C 
ATOM      3  C   UNL     1     131.219 133.976 153.227  1.00  0.00     0.202 C 
ATOM      4  O   UNL     1     131.894 135.009 153.483  1.00  0.00    -0.291 OA
ATOM      5  C   UNL     1     131.109 132.859 154.199  1.00  0.00     0.105 A 
ATOM      6  C   UNL     1     131.357 132.989 155.591  1.00  0.00     0.133 A 
ATOM      7  C   UNL     1     131.296 131.856 156.412  1.00  0.00     0.093 A 
ATOM      8  C   UNL     1     130.934 130.613 155.891  1.00  0.00     0.123 A 
ATOM      9  C   UNL     1     130.640 130.490 154.530  1.00  0.00     0.093 A 
ATOM     10  C   UNL     1     130.735 131.598 153.685  1.00  0.00     0.138 A 
ATOM     11  O   UNL     1     130.446 131.435 152.323  1.00  0.00    -0.481 OA
ENDROOT
BRANCH   1  12
ATOM     12  C   UNL     1     129.982 132.175 150.081  1.00  0.00     0.003 A 
ATOM     13  C   UNL     1     130.598 131.662 148.929  1.00  0.00     0.058 A 
ATOM     14  C   UNL     1     129.848 131.411 147.771  1.00  0.00     0.161 A 
ATOM     15  C   UNL     1     128.598 132.413 150.070  1.00  0.00     0.058 A 
ATOM     16  C   UNL     1     128.466 131.666 147.763  1.00  0.00     0.200 A 
ATOM     17  C   UNL     1     127.842 132.166 148.919  1.00  0.00     0.161 A 
BRANCH  14  18
ATOM     18  O   UNL     1     130.473 130.909 146.630  1.00  0.00    -0.504 OA
ATOM     19  H   UNL     1     131.272 131.372 146.214  1.00  0.00     0.293 HD
ENDBRANCH  14  18
BRANCH  16  20
ATOM     20  O   UNL     1     127.705 131.424 146.619  1.00  0.00    -0.502 OA
ATOM     21  H   UNL     1     128.046 130.854 145.854  1.00  0.00     0.293 HD
ENDBRANCH  16  20
BRANCH  17  22
ATOM     22  O   UNL     1     126.472 132.423 148.945  1.00  0.00    -0.504 OA
ATOM     23  H   UNL     1     126.075 133.170 149.501  1.00  0.00     0.293 HD
ENDBRANCH  17  22
ENDBRANCH   1  12
BRANCH   2  24
ATOM     24  O   UNL     1     130.991 134.814 150.978  1.00  0.00    -0.381 OA
ATOM     25  H   UNL     1     130.300 134.908 150.271  1.00  0.00     0.211 HD
ENDBRANCH   2  24
BRANCH   6  26
ATOM     26  O   UNL     1     131.630 134.213 156.208  1.00  0.00    -0.507 OA
ATOM     27  H   UNL     1     131.104 135.059 156.044  1.00  0.00     0.293 HD
ENDBRANCH   6  26
BRANCH   8  28
ATOM     28  O   UNL     1     130.863 129.508 156.736  1.00  0.00    -0.508 OA
ATOM     29  H   UNL     1     131.417 128.677 156.568  1.00  0.00     0.293 HD
ENDBRANCH   8  28
TORSDOF 7
ENDMDL
MODEL 4
REMARK VINA RESULT:    -7.296      2.289      3.135
REMARK INTER + INTRA:          -9.391
REMARK INTER:                  -9.029
REMARK INTRA:                  -0.362
REMARK UNBOUND:                -0.389
REMARK SMILES O=C1c2c(O)cc(O)cc2O[C@@H](c2cc(O)c(O)c(O)c2)[C@@H]1O
REMARK SMILES IDX 12 1 22 2 2 3 1 4 3 5 4 6 6 7 7 8 9 9 10 10 11 11 13 12
REMARK SMILES IDX 14 13 15 14 21 15 17 16 19 17 16 18 18 20 20 22 23 24 5 26
REMARK SMILES IDX 8 28
REMARK H PARENT 16 19 18 21 20 23 23 25 5 27 8 29
REMARK Flexibility Score: inf
ROOT
ATOM      1  C   UNL     1     131.465 134.570 152.896  1.00  0.00     0.240 C 
ATOM      2  C   UNL     1     131.081 133.393 153.816  1.00  0.00     0.231 C 
ATOM      3  C   UNL     1     130.944 132.138 152.991  1.00  0.00     0.202 C 
ATOM      4  O   UNL     1     131.456 131.061 153.399  1.00  0.00    -0.291 OA
ATOM      5  C   UNL     1     130.244 132.219 151.684  1.00  0.00     0.105 A 
ATOM      6  C   UNL     1     129.719 131.095 150.993  1.00  0.00     0.133 A 
ATOM      7  C   UNL     1     129.139 131.270 149.730  1.00  0.00     0.093 A 
ATOM      8  C   UNL     1     129.016 132.542 149.169  1.00  0.00     0.123 A 
ATOM      9  C   UNL     1     129.486 133.657 149.868  1.00  0.00     0.093 A 
ATOM     10  C   UNL     1     130.105 133.502 151.111  1.00  0.00     0.138 A 
ATOM     11  O   UNL     1     130.576 134.641 151.777  1.00  0.00    -0.481 OA
ENDROOT
BRANCH   1  12
ATOM     12  C   UNL     1     131.443 135.878 153.650  1.00  0.00     0.003 A 
ATOM     13  C   UNL     1     132.514 136.779 153.547  1.00  0.00     0.058 A 
ATOM     14  C   UNL     1     132.482 138.006 154.223  1.00  0.00     0.161 A 
ATOM     15  C   UNL     1     130.324 136.230 154.422  1.00  0.00     0.058 A 
ATOM     16  C   UNL     1     131.365 138.345 155.006  1.00  0.00     0.200 A 
ATOM     17  C   UNL     1     130.283 137.452 155.101  1.00  0.00     0.161 A 
BRANCH  14  18
ATOM     18  O   UNL     1     133.555 138.890 154.119  1.00  0.00    -0.504 OA
ATOM     19  H   UNL     1     133.930 139.167 153.220  1.00  0.00     0.293 HD
ENDBRANCH  14  18
BRANCH  16  20
ATOM     20  O   UNL     1     131.315 139.562 155.688  1.00  0.00    -0.502 OA
ATOM     21  H   UNL     1     131.085 139.619 156.672  1.00  0.00     0.293 HD
ENDBRANCH  16  20
BRANCH  17  22
ATOM     22  O   UNL     1     129.157 137.762 155.864  1.00  0.00    -0.504 OA
ATOM     23  H   UNL     1     128.217 137.599 155.526  1.00  0.00     0.293 HD
ENDBRANCH  17  22
ENDBRANCH   1  12
BRANCH   2  24
ATOM     24  O   UNL     1     132.021 133.230 154.852  1.00  0.00    -0.381 OA
ATOM     25  H   UNL     1     132.829 133.754 154.611  1.00  0.00     0.211 HD
ENDBRANCH   2  24
BRANCH   6  26
ATOM     26  O   UNL     1     129.715 129.803 151.525  1.00  0.00    -0.507 OA
ATOM     27  H   UNL     1     130.028 128.984 151.025  1.00  0.00     0.293 HD
ENDBRANCH   6  26
BRANCH   8  28
ATOM     28  O   UNL     1     128.417 132.687 147.920  1.00  0.00    -0.508 OA
ATOM     29  H   UNL     1     128.812 132.260 147.090  1.00  0.00     0.293 HD
ENDBRANCH   8  28
TORSDOF 7
ENDMDL
MODEL 5
REMARK VINA RESULT:    -7.273      1.488      7.313
REMARK INTER + INTRA:          -9.363
REMARK INTER:                  -9.013
REMARK INTRA:                  -0.351
REMARK UNBOUND:                -0.389
REMARK SMILES O=C1c2c(O)cc(O)cc2O[C@@H](c2cc(O)c(O)c(O)c2)[C@@H]1O
REMARK SMILES IDX 12 1 22 2 2 3 1 4 3 5 4 6 6 7 7 8 9 9 10 10 11 11 13 12
REMARK SMILES IDX 14 13 15 14 21 15 17 16 19 17 16 18 18 20 20 22 23 24 5 26
REMARK SMILES IDX 8 28
REMARK H PARENT 16 19 18 21 20 23 23 25 5 27 8 29
REMARK Flexibility Score: inf
ROOT
ATOM      1  C   UNL     1     130.800 134.270 152.328  1.00  0.00     0.240 C 
ATOM      2  C   UNL     1     131.324 133.386 153.478  1.00  0.00     0.231 C 
ATOM      3  C   UNL     1     131.404 134.206 154.741  1.00  0.00     0.202 C 
ATOM      4  O   UNL     1     130.976 133.728 155.826  1.00  0.00    -0.291 OA
ATOM      5  C   UNL     1     131.945 135.586 154.661  1.00  0.00     0.105 A 
ATOM      6  C   UNL     1     132.422 136.320 155.780  1.00  0.00     0.133 A 
ATOM      7  C   UNL     1     132.847 137.643 155.607  1.00  0.00     0.093 A 
ATOM      8  C   UNL     1     132.865 138.230 154.341  1.00  0.00     0.123 A 
ATOM      9  C   UNL     1     132.445 137.495 153.229  1.00  0.00     0.093 A 
ATOM     10  C   UNL     1     131.978 136.187 153.384  1.00  0.00     0.138 A 
ATOM     11  O   UNL     1     131.552 135.484 152.249  1.00  0.00    -0.481 OA
ENDROOT
BRANCH   1  12
ATOM     12  C   UNL     1     130.869 133.539 151.008  1.00  0.00     0.003 A 
ATOM     13  C   UNL     1     129.710 132.995 150.432  1.00  0.00     0.058 A 
ATOM     14  C   UNL     1     129.768 132.342 149.194  1.00  0.00     0.161 A 
ATOM     15  C   UNL     1     132.087 133.442 150.316  1.00  0.00     0.058 A 
ATOM     16  C   UNL     1     130.994 132.236 148.514  1.00  0.00     0.200 A 
ATOM     17  C   UNL     1     132.155 132.792 149.080  1.00  0.00     0.161 A 
BRANCH  14  18
ATOM     18  O   UNL     1     128.611 131.799 148.636  1.00  0.00    -0.504 OA
ATOM     19  H   UNL     1     128.077 131.082 149.112  1.00  0.00     0.293 HD
ENDBRANCH  14  18
BRANCH  16  20
ATOM     20  O   UNL     1     131.071 131.588 147.281  1.00  0.00    -0.502 OA
ATOM     21  H   UNL     1     130.460 131.825 146.508  1.00  0.00     0.293 HD
ENDBRANCH  16  20
BRANCH  17  22
ATOM     22  O   UNL     1     133.384 132.709 148.427  1.00  0.00    -0.504 OA
ATOM     23  H   UNL     1     134.153 132.163 148.796  1.00  0.00     0.293 HD
ENDBRANCH  17  22
ENDBRANCH   1  12
BRANCH   2  24
ATOM     24  O   UNL     1     130.516 132.247 153.652  1.00  0.00    -0.381 OA
ATOM     25  H   UNL     1     131.117 131.462 153.745  1.00  0.00     0.211 HD
ENDBRANCH   2  24
BRANCH   6  26
ATOM     26  O   UNL     1     132.527 135.776 157.062  1.00  0.00    -0.507 OA
ATOM     27  H   UNL     1     133.392 135.704 157.577  1.00  0.00     0.293 HD
ENDBRANCH   6  26
BRANCH   8  28
ATOM     28  O   UNL     1     133.311 139.541 154.198  1.00  0.00    -0.508 OA
ATOM     29  H   UNL     1     134.210 139.753 153.779  1.00  0.00     0.293 HD
ENDBRANCH   8  28
TORSDOF 7
ENDMDL
MODEL 6
REMARK VINA RESULT:    -7.264      3.324      4.551
REMARK INTER + INTRA:          -9.352
REMARK INTER:                  -9.335
REMARK INTRA:                  -0.018
REMARK UNBOUND:                -0.389
REMARK SMILES O=C1c2c(O)cc(O)cc2O[C@@H](c2cc(O)c(O)c(O)c2)[C@@H]1O
REMARK SMILES IDX 12 1 22 2 2 3 1 4 3 5 4 6 6 7 7 8 9 9 10 10 11 11 13 12
REMARK SMILES IDX 14 13 15 14 21 15 17 16 19 17 16 18 18 20 20 22 23 24 5 26
REMARK SMILES IDX 8 28
REMARK H PARENT 16 19 18 21 20 23 23 25 5 27 8 29
REMARK Flexibility Score: inf
ROOT
ATOM      1  C   UNL     1     131.270 135.818 153.477  1.00  0.00     0.240 C 
ATOM      2  C   UNL     1     132.312 135.462 152.398  1.00  0.00     0.231 C 
ATOM      3  C   UNL     1     132.030 134.078 151.869  1.00  0.00     0.202 C 
ATOM      4  O   UNL     1     132.058 133.864 150.627  1.00  0.00    -0.291 OA
ATOM      5  C   UNL     1     131.674 133.006 152.833  1.00  0.00     0.105 A 
ATOM      6  C   UNL     1     131.751 131.618 152.543  1.00  0.00     0.133 A 
ATOM      7  C   UNL     1     131.324 130.688 153.499  1.00  0.00     0.093 A 
ATOM      8  C   UNL     1     130.883 131.105 154.755  1.00  0.00     0.123 A 
ATOM      9  C   UNL     1     130.853 132.467 155.064  1.00  0.00     0.093 A 
ATOM     10  C   UNL     1     131.235 133.415 154.111  1.00  0.00     0.138 A 
ATOM     11  O   UNL     1     131.180 134.774 154.451  1.00  0.00    -0.481 OA
ENDROOT
BRANCH   1  12
ATOM     12  C   UNL     1     131.617 137.122 154.157  1.00  0.00     0.003 A 
ATOM     13  C   UNL     1     130.684 137.764 154.987  1.00  0.00     0.058 A 
ATOM     14  C   UNL     1     131.015 138.958 155.641  1.00  0.00     0.161 A 
ATOM     15  C   UNL     1     132.897 137.678 154.007  1.00  0.00     0.058 A 
ATOM     16  C   UNL     1     132.294 139.517 155.474  1.00  0.00     0.200 A 
ATOM     17  C   UNL     1     133.236 138.870 154.656  1.00  0.00     0.161 A 
BRANCH  14  18
ATOM     18  O   UNL     1     130.078 139.590 156.457  1.00  0.00    -0.504 OA
ATOM     19  H   UNL     1     129.727 140.517 156.245  1.00  0.00     0.293 HD
ENDBRANCH  14  18
BRANCH  16  20
ATOM     20  O   UNL     1     132.641 140.706 156.117  1.00  0.00    -0.502 OA
ATOM     21  H   UNL     1     133.537 140.832 156.571  1.00  0.00     0.293 HD
ENDBRANCH  16  20
BRANCH  17  22
ATOM     22  O   UNL     1     134.515 139.395 154.476  1.00  0.00    -0.504 OA
ATOM     23  H   UNL     1     134.886 139.605 153.557  1.00  0.00     0.293 HD
ENDBRANCH  17  22
ENDBRANCH   1  12
BRANCH   2  24
ATOM     24  O   UNL     1     132.321 136.418 151.365  1.00  0.00    -0.381 OA
ATOM     25  H   UNL     1     132.035 135.962 150.530  1.00  0.00     0.211 HD
ENDBRANCH   2  24
BRANCH   6  26
ATOM     26  O   UNL     1     132.271 131.115 151.347  1.00  0.00    -0.507 OA
ATOM     27  H   UNL     1     133.132 130.592 151.280  1.00  0.00     0.293 HD
ENDBRANCH   6  26
BRANCH   8  28
ATOM     28  O   UNL     1     130.482 130.156 155.693  1.00  0.00    -0.508 OA
ATOM     29  H   UNL     1     130.212 130.421 156.633  1.00  0.00     0.293 HD
ENDBRANCH   8  28
TORSDOF 7
ENDMDL
MODEL 7
REMARK VINA RESULT:    -7.259      2.400      7.166
REMARK INTER + INTRA:          -9.346
REMARK INTER:                  -8.983
REMARK INTRA:                  -0.363
REMARK UNBOUND:                -0.389
REMARK SMILES O=C1c2c(O)cc(O)cc2O[C@@H](c2cc(O)c(O)c(O)c2)[C@@H]1O
REMARK SMILES IDX 12 1 22 2 2 3 1 4 3 5 4 6 6 7 7 8 9 9 10 10 11 11 13 12
REMARK SMILES IDX 14 13 15 14 21 15 17 16 19 17 16 18 18 20 20 22 23 24 5 26
REMARK SMILES IDX 8 28
REMARK H PARENT 16 19 18 21 20 23 23 25 5 27 8 29
REMARK Flexibility Score: inf
ROOT
ATOM      1  C   UNL     1     130.751 132.345 151.330  1.00  0.00     0.240 C 
ATOM      2  C   UNL     1     130.509 133.769 151.870  1.00  0.00     0.231 C 
ATOM      3  C   UNL     1     131.190 133.919 153.207  1.00  0.00     0.202 C 
ATOM      4  O   UNL     1     131.864 134.955 153.454  1.00  0.00    -0.291 OA
ATOM      5  C   UNL     1     131.086 132.808 154.187  1.00  0.00     0.105 A 
ATOM      6  C   UNL     1     131.339 132.948 155.578  1.00  0.00     0.133 A 
ATOM      7  C   UNL     1     131.283 131.820 156.406  1.00  0.00     0.093 A 
ATOM      8  C   UNL     1     130.922 130.573 155.894  1.00  0.00     0.123 A 
ATOM      9  C   UNL     1     130.623 130.440 154.536  1.00  0.00     0.093 A 
ATOM     10  C   UNL     1     130.712 131.543 153.683  1.00  0.00     0.138 A 
ATOM     11  O   UNL     1     130.418 131.371 152.323  1.00  0.00    -0.481 OA
ENDROOT
BRANCH   1  12
ATOM     12  C   UNL     1     129.944 132.095 150.078  1.00  0.00     0.003 A 
ATOM     13  C   UNL     1     128.570 132.384 150.045  1.00  0.00     0.058 A 
ATOM     14  C   UNL     1     127.827 132.180 148.875  1.00  0.00     0.161 A 
ATOM     15  C   UNL     1     130.571 131.617 148.917  1.00  0.00     0.058 A 
ATOM     16  C   UNL     1     128.459 131.688 147.720  1.00  0.00     0.200 A 
ATOM     17  C   UNL     1     129.837 131.410 147.744  1.00  0.00     0.161 A 
BRANCH  14  18
ATOM     18  O   UNL     1     126.462 132.465 148.857  1.00  0.00    -0.504 OA
ATOM     19  H   UNL     1     126.073 133.235 149.387  1.00  0.00     0.293 HD
ENDBRANCH  14  18
BRANCH  16  20
ATOM     20  O   UNL     1     127.734 131.477 146.547  1.00  0.00    -0.502 OA
ATOM     21  H   UNL     1     126.757 131.212 146.557  1.00  0.00     0.293 HD
ENDBRANCH  16  20
BRANCH  17  22
ATOM     22  O   UNL     1     130.494 130.927 146.613  1.00  0.00    -0.504 OA
ATOM     23  H   UNL     1     131.368 131.324 146.289  1.00  0.00     0.293 HD
ENDBRANCH  17  22
ENDBRANCH   1  12
BRANCH   2  24
ATOM     24  O   UNL     1     130.951 134.742 150.953  1.00  0.00    -0.381 OA
ATOM     25  H   UNL     1     130.638 135.627 151.278  1.00  0.00     0.211 HD
ENDBRANCH   2  24
BRANCH   6  26
ATOM     26  O   UNL     1     131.612 134.176 156.185  1.00  0.00    -0.507 OA
ATOM     27  H   UNL     1     131.955 134.987 155.692  1.00  0.00     0.293 HD
ENDBRANCH   6  26
BRANCH   8  28
ATOM     28  O   UNL     1     130.857 129.473 156.746  1.00  0.00    -0.508 OA
ATOM     29  H   UNL     1     131.545 129.326 157.476  1.00  0.00     0.293 HD
ENDBRANCH   8  28
TORSDOF 7
ENDMDL
MODEL 8
REMARK VINA RESULT:    -7.147      1.652      3.825
REMARK INTER + INTRA:          -9.208
REMARK INTER:                  -8.824
REMARK INTRA:                  -0.384
REMARK UNBOUND:                -0.389
REMARK SMILES O=C1c2c(O)cc(O)cc2O[C@@H](c2cc(O)c(O)c(O)c2)[C@@H]1O
REMARK SMILES IDX 12 1 22 2 2 3 1 4 3 5 4 6 6 7 7 8 9 9 10 10 11 11 13 12
REMARK SMILES IDX 14 13 15 14 21 15 17 16 19 17 16 18 18 20 20 22 23 24 5 26
REMARK SMILES IDX 8 28
REMARK H PARENT 16 19 18 21 20 23 23 25 5 27 8 29
REMARK Flexibility Score: inf
ROOT
ATOM      1  C   UNL     1     129.767 132.761 150.499  1.00  0.00     0.240 C 
ATOM      2  C   UNL     1     128.540 133.573 150.035  1.00  0.00     0.231 C 
ATOM      3  C   UNL     1     127.690 132.718 149.129  1.00  0.00     0.202 C 
ATOM      4  O   UNL     1     126.440 132.696 149.280  1.00  0.00    -0.291 OA
ATOM      5  C   UNL     1     128.363 131.879 148.104  1.00  0.00     0.105 A 
ATOM      6  C   UNL     1     127.708 131.333 146.968  1.00  0.00     0.133 A 
ATOM      7  C   UNL     1     128.417 130.495 146.099  1.00  0.00     0.093 A 
ATOM      8  C   UNL     1     129.774 130.240 146.299  1.00  0.00     0.123 A 
ATOM      9  C   UNL     1     130.436 130.816 147.387  1.00  0.00     0.093 A 
ATOM     10  C   UNL     1     129.739 131.622 148.290  1.00  0.00     0.138 A 
ATOM     11  O   UNL     1     130.431 132.172 149.378  1.00  0.00    -0.481 OA
ENDROOT
BRANCH   1  12
ATOM     12  C   UNL     1     130.734 133.632 151.266  1.00  0.00     0.003 A 
ATOM     13  C   UNL     1     131.112 133.296 152.576  1.00  0.00     0.058 A 
ATOM     14  C   UNL     1     132.032 134.087 153.278  1.00  0.00     0.161 A 
ATOM     15  C   UNL     1     131.306 134.760 150.656  1.00  0.00     0.058 A 
ATOM     16  C   UNL     1     132.589 135.223 152.666  1.00  0.00     0.200 A 
ATOM     17  C   UNL     1     132.225 135.555 151.350  1.00  0.00     0.161 A 
BRANCH  14  18
ATOM     18  O   UNL     1     132.393 133.747 154.581  1.00  0.00    -0.504 OA
ATOM     19  H   UNL     1     133.297 133.341 154.793  1.00  0.00     0.293 HD
ENDBRANCH  14  18
BRANCH  16  20
ATOM     20  O   UNL     1     133.505 136.023 153.350  1.00  0.00    -0.502 OA
ATOM     21  H   UNL     1     133.216 136.815 153.911  1.00  0.00     0.293 HD
ENDBRANCH  16  20
BRANCH  17  22
ATOM     22  O   UNL     1     132.766 136.672 150.712  1.00  0.00    -0.504 OA
ATOM     23  H   UNL     1     133.650 136.635 150.220  1.00  0.00     0.293 HD
ENDBRANCH  17  22
ENDBRANCH   1  12
BRANCH   2  24
ATOM     24  O   UNL     1     127.803 134.053 151.133  1.00  0.00    -0.381 OA
ATOM     25  H   UNL     1     127.865 135.044 151.128  1.00  0.00     0.211 HD
ENDBRANCH   2  24
BRANCH   6  26
ATOM     26  O   UNL     1     126.379 131.617 146.643  1.00  0.00    -0.507 OA
ATOM     27  H   UNL     1     125.904 132.471 146.896  1.00  0.00     0.293 HD
ENDBRANCH   6  26
BRANCH   8  28
ATOM     28  O   UNL     1     130.458 129.418 145.407  1.00  0.00    -0.508 OA
ATOM     29  H   UNL     1     130.573 128.426 145.581  1.00  0.00     0.293 HD
ENDBRANCH   8  28
TORSDOF 7
ENDMDL
MODEL 9
REMARK VINA RESULT:    -7.121      3.455      7.722
REMARK INTER + INTRA:          -9.176
REMARK INTER:                  -8.957
REMARK INTRA:                  -0.219
REMARK UNBOUND:                -0.389
REMARK SMILES O=C1c2c(O)cc(O)cc2O[C@@H](c2cc(O)c(O)c(O)c2)[C@@H]1O
REMARK SMILES IDX 12 1 22 2 2 3 1 4 3 5 4 6 6 7 7 8 9 9 10 10 11 11 13 12
REMARK SMILES IDX 14 13 15 14 21 15 17 16 19 17 16 18 18 20 20 22 23 24 5 26
REMARK SMILES IDX 8 28
REMARK H PARENT 16 19 18 21 20 23 23 25 5 27 8 29
REMARK Flexibility Score: inf
ROOT
ATOM      1  C   UNL     1     131.293 135.457 153.632  1.00  0.00     0.240 C 
ATOM      2  C   UNL     1     130.203 135.927 154.618  1.00  0.00     0.231 C 
ATOM      3  C   UNL     1     130.327 137.416 154.826  1.00  0.00     0.202 C 
ATOM      4  O   UNL     1     129.294 138.138 154.807  1.00  0.00    -0.291 OA
ATOM      5  C   UNL     1     131.681 138.000 154.999  1.00  0.00     0.105 A 
ATOM      6  C   UNL     1     131.928 139.280 155.563  1.00  0.00     0.133 A 
ATOM      7  C   UNL     1     133.239 139.769 155.616  1.00  0.00     0.093 A 
ATOM      8  C   UNL     1     134.312 138.991 155.179  1.00  0.00     0.123 A 
ATOM      9  C   UNL     1     134.079 137.711 154.670  1.00  0.00     0.093 A 
ATOM     10  C   UNL     1     132.775 137.219 154.569  1.00  0.00     0.138 A 
ATOM     11  O   UNL     1     132.577 135.936 154.041  1.00  0.00    -0.481 OA
ENDROOT
BRANCH   1  12
ATOM     12  C   UNL     1     131.318 133.950 153.529  1.00  0.00     0.003 A 
ATOM     13  C   UNL     1     131.742 133.323 152.347  1.00  0.00     0.058 A 
ATOM     14  C   UNL     1     131.794 131.925 152.261  1.00  0.00     0.161 A 
ATOM     15  C   UNL     1     130.965 133.160 154.635  1.00  0.00     0.058 A 
ATOM     16  C   UNL     1     131.425 131.141 153.367  1.00  0.00     0.200 A 
ATOM     17  C   UNL     1     131.013 131.765 154.558  1.00  0.00     0.161 A 
BRANCH  14  18
ATOM     18  O   UNL     1     132.211 131.314 151.079  1.00  0.00    -0.504 OA
ATOM     19  H   UNL     1     132.533 131.855 150.286  1.00  0.00     0.293 HD
ENDBRANCH  14  18
BRANCH  16  20
ATOM     20  O   UNL     1     131.468 129.748 153.299  1.00  0.00    -0.502 OA
ATOM     21  H   UNL     1     131.706 129.257 152.445  1.00  0.00     0.293 HD
ENDBRANCH  16  20
BRANCH  17  22
ATOM     22  O   UNL     1     130.647 131.015 155.675  1.00  0.00    -0.504 OA
ATOM     23  H   UNL     1     130.794 130.014 155.722  1.00  0.00     0.293 HD
ENDBRANCH  17  22
ENDBRANCH   1  12
BRANCH   2  24
ATOM     24  O   UNL     1     128.919 135.574 154.163  1.00  0.00    -0.381 OA
ATOM     25  H   UNL     1     129.031 134.991 153.366  1.00  0.00     0.211 HD
ENDBRANCH   2  24
BRANCH   6  26
ATOM     26  O   UNL     1     130.923 140.081 156.111  1.00  0.00    -0.507 OA
ATOM     27  H   UNL     1     130.195 140.524 155.571  1.00  0.00     0.293 HD
ENDBRANCH   6  26
BRANCH   8  28
ATOM     28  O   UNL     1     135.607 139.497 155.262  1.00  0.00    -0.508 OA
ATOM     29  H   UNL     1     136.141 139.448 156.122  1.00  0.00     0.293 HD
ENDBRANCH   8  28
TORSDOF 7
ENDMDL
