MODEL 1
REMARK VINA RESULT:    -4.999      0.000      0.000
REMARK INTER + INTRA:          -5.481
REMARK INTER:                  -5.437
REMARK INTRA:                  -0.044
REMARK UNBOUND:                -0.044
REMARK SMILES COc1cc2ccc(=O)oc2cc1O
REMARK SMILES IDX 3 1 13 2 12 3 11 4 5 5 4 6 6 7 7 8 8 9 9 10 10 11 2 12 1 13
REMARK SMILES IDX 14 14
REMARK H PARENT 14 15
REMARK Flexibility Score: inf
ROOT
ATOM      1  C   UNL     1     -45.061 -12.978  -1.115  1.00  0.00     0.161 A 
ATOM      2  C   UNL     1     -45.648 -14.035  -1.838  1.00  0.00     0.161 A 
ATOM      3  C   UNL     1     -44.848 -14.915  -2.574  1.00  0.00     0.098 A 
ATOM      4  C   UNL     1     -43.461 -14.757  -2.601  1.00  0.00     0.142 A 
ATOM      5  C   UNL     1     -42.862 -13.701  -1.881  1.00  0.00     0.022 A 
ATOM      6  C   UNL     1     -43.659 -12.818  -1.141  1.00  0.00     0.062 A 
ATOM      7  C   UNL     1     -41.471 -13.568  -1.927  1.00  0.00     0.019 A 
ATOM      8  C   UNL     1     -40.720 -14.474  -2.677  1.00  0.00     0.094 A 
ATOM      9  C   UNL     1     -41.383 -15.495  -3.365  1.00  0.00     0.336 A 
ATOM     10  O   UNL     1     -40.724 -16.323  -4.048  1.00  0.00    -0.246 OA
ATOM     11  O   UNL     1     -42.709 -15.599  -3.305  1.00  0.00    -0.423 OA
ENDROOT
BRANCH   1  12
ATOM     12  O   UNL     1     -45.892 -12.112  -0.385  1.00  0.00    -0.493 OA
ATOM     13  C   UNL     1     -45.496 -10.839   0.112  1.00  0.00     0.278 C 
ENDBRANCH   1  12
BRANCH   2  14
ATOM     14  O   UNL     1     -47.030 -14.226  -1.835  1.00  0.00    -0.504 OA
ATOM     15  H   UNL     1     -47.562 -14.331  -2.690  1.00  0.00     0.293 HD
ENDBRANCH   2  14
TORSDOF 2
ENDMDL
MODEL 2
REMARK VINA RESULT:    -4.769      2.215      5.063
REMARK INTER + INTRA:          -5.231
REMARK INTER:                  -5.169
REMARK INTRA:                  -0.062
REMARK UNBOUND:                -0.044
REMARK SMILES COc1cc2ccc(=O)oc2cc1O
REMARK SMILES IDX 3 1 13 2 12 3 11 4 5 5 4 6 6 7 7 8 8 9 9 10 10 11 2 12 1 13
REMARK SMILES IDX 14 14
REMARK H PARENT 14 15
REMARK Flexibility Score: inf
ROOT
ATOM      1  C   UNL     1     -42.465 -14.852  -2.403  1.00  0.00     0.161 A 
ATOM      2  C   UNL     1     -43.460 -13.954  -2.837  1.00  0.00     0.161 A 
ATOM      3  C   UNL     1     -44.499 -13.584  -1.977  1.00  0.00     0.098 A 
ATOM      4  C   UNL     1     -44.561 -14.099  -0.680  1.00  0.00     0.142 A 
ATOM      5  C   UNL     1     -43.571 -15.000  -0.236  1.00  0.00     0.022 A 
ATOM      6  C   UNL     1     -42.528 -15.373  -1.094  1.00  0.00     0.062 A 
ATOM      7  C   UNL     1     -43.661 -15.499   1.068  1.00  0.00     0.019 A 
ATOM      8  C   UNL     1     -44.718 -15.096   1.884  1.00  0.00     0.094 A 
ATOM      9  C   UNL     1     -45.663 -14.201   1.375  1.00  0.00     0.336 A 
ATOM     10  O   UNL     1     -46.625 -13.825   2.095  1.00  0.00    -0.246 OA
ATOM     11  O   UNL     1     -45.554 -13.741   0.131  1.00  0.00    -0.423 OA
ENDROOT
BRANCH   1  12
ATOM     12  O   UNL     1     -41.436 -15.204  -3.292  1.00  0.00    -0.493 OA
ATOM     13  C   UNL     1     -41.446 -16.358  -4.125  1.00  0.00     0.278 C 
ENDBRANCH   1  12
BRANCH   2  14
ATOM     14  O   UNL     1     -43.431 -13.418  -4.125  1.00  0.00    -0.504 OA
ATOM     15  H   UNL     1     -43.716 -13.950  -4.938  1.00  0.00     0.293 HD
ENDBRANCH   2  14
TORSDOF 2
ENDMDL
MODEL 3
REMARK VINA RESULT:    -4.655      1.356      4.910
REMARK INTER + INTRA:          -5.107
REMARK INTER:                  -5.047
REMARK INTRA:                  -0.060
REMARK UNBOUND:                -0.044
REMARK SMILES COc1cc2ccc(=O)oc2cc1O
REMARK SMILES IDX 3 1 13 2 12 3 11 4 5 5 4 6 6 7 7 8 8 9 9 10 10 11 2 12 1 13
REMARK SMILES IDX 14 14
REMARK H PARENT 14 15
REMARK Flexibility Score: inf
ROOT
ATOM      1  C   UNL     1     -43.713 -14.288  -3.040  1.00  0.00     0.161 A 
ATOM      2  C   UNL     1     -45.016 -14.739  -2.754  1.00  0.00     0.161 A 
ATOM      3  C   UNL     1     -45.820 -14.042  -1.845  1.00  0.00     0.098 A 
ATOM      4  C   UNL     1     -45.339 -12.893  -1.212  1.00  0.00     0.142 A 
ATOM      5  C   UNL     1     -44.035 -12.434  -1.491  1.00  0.00     0.022 A 
ATOM      6  C   UNL     1     -43.227 -13.128  -2.401  1.00  0.00     0.062 A 
ATOM      7  C   UNL     1     -43.581 -11.281  -0.841  1.00  0.00     0.019 A 
ATOM      8  C   UNL     1     -44.424 -10.625   0.057  1.00  0.00     0.094 A 
ATOM      9  C   UNL     1     -45.704 -11.139   0.283  1.00  0.00     0.336 A 
ATOM     10  O   UNL     1     -46.480 -10.562   1.090  1.00  0.00    -0.246 OA
ATOM     11  O   UNL     1     -46.111 -12.238  -0.348  1.00  0.00    -0.423 OA
ENDROOT
BRANCH   1  12
ATOM     12  O   UNL     1     -42.933 -15.011  -3.958  1.00  0.00    -0.493 OA
ATOM     13  C   UNL     1     -42.013 -16.038  -3.604  1.00  0.00     0.278 C 
ENDBRANCH   1  12
BRANCH   2  14
ATOM     14  O   UNL     1     -45.532 -15.881  -3.367  1.00  0.00    -0.504 OA
ATOM     15  H   UNL     1     -45.844 -16.685  -2.835  1.00  0.00     0.293 HD
ENDBRANCH   2  14
TORSDOF 2
ENDMDL
MODEL 4
REMARK VINA RESULT:    -4.520      9.223      9.744
REMARK INTER + INTRA:          -4.960
REMARK INTER:                  -4.901
REMARK INTRA:                  -0.060
REMARK UNBOUND:                -0.044
REMARK SMILES COc1cc2ccc(=O)oc2cc1O
REMARK SMILES IDX 3 1 13 2 12 3 11 4 5 5 4 6 6 7 7 8 8 9 9 10 10 11 2 12 1 13
REMARK SMILES IDX 14 14
REMARK H PARENT 14 15
REMARK Flexibility Score: inf
ROOT
ATOM      1  C   UNL     1     -43.417 -14.799   6.966  1.00  0.00     0.161 A 
ATOM      2  C   UNL     1     -44.700 -15.000   7.512  1.00  0.00     0.161 A 
ATOM      3  C   UNL     1     -45.288 -16.269   7.481  1.00  0.00     0.098 A 
ATOM      4  C   UNL     1     -44.611 -17.349   6.910  1.00  0.00     0.142 A 
ATOM      5  C   UNL     1     -43.326 -17.159   6.360  1.00  0.00     0.022 A 
ATOM      6  C   UNL     1     -42.733 -15.890   6.389  1.00  0.00     0.062 A 
ATOM      7  C   UNL     1     -42.674 -18.259   5.795  1.00  0.00     0.019 A 
ATOM      8  C   UNL     1     -43.306 -19.503   5.791  1.00  0.00     0.094 A 
ATOM      9  C   UNL     1     -44.581 -19.616   6.354  1.00  0.00     0.336 A 
ATOM     10  O   UNL     1     -45.169 -20.729   6.360  1.00  0.00    -0.246 OA
ATOM     11  O   UNL     1     -45.180 -18.552   6.886  1.00  0.00    -0.423 OA
ENDROOT
BRANCH   1  12
ATOM     12  O   UNL     1     -42.855 -13.513   7.013  1.00  0.00    -0.493 OA
ATOM     13  C   UNL     1     -41.682 -13.169   7.743  1.00  0.00     0.278 C 
ENDBRANCH   1  12
BRANCH   2  14
ATOM     14  O   UNL     1     -45.407 -13.946   8.091  1.00  0.00    -0.504 OA
ATOM     15  H   UNL     1     -45.260 -13.661   9.052  1.00  0.00     0.293 HD
ENDBRANCH   2  14
TORSDOF 2
ENDMDL
MODEL 5
REMARK VINA RESULT:    -4.506      3.046      3.627
REMARK INTER + INTRA:          -4.944
REMARK INTER:                  -4.909
REMARK INTRA:                  -0.036
REMARK UNBOUND:                -0.044
REMARK SMILES COc1cc2ccc(=O)oc2cc1O
REMARK SMILES IDX 3 1 13 2 12 3 11 4 5 5 4 6 6 7 7 8 8 9 9 10 10 11 2 12 1 13
REMARK SMILES IDX 14 14
REMARK H PARENT 14 15
REMARK Flexibility Score: inf
ROOT
ATOM      1  C   UNL     1     -44.774 -15.019   1.906  1.00  0.00     0.161 A 
ATOM      2  C   UNL     1     -45.824 -14.236   1.386  1.00  0.00     0.161 A 
ATOM      3  C   UNL     1     -45.817 -13.852   0.041  1.00  0.00     0.098 A 
ATOM      4  C   UNL     1     -44.772 -14.239  -0.800  1.00  0.00     0.142 A 
ATOM      5  C   UNL     1     -43.715 -15.022  -0.290  1.00  0.00     0.022 A 
ATOM      6  C   UNL     1     -43.718 -15.410   1.056  1.00  0.00     0.062 A 
ATOM      7  C   UNL     1     -42.683 -15.394  -1.157  1.00  0.00     0.019 A 
ATOM      8  C   UNL     1     -42.726 -14.984  -2.490  1.00  0.00     0.094 A 
ATOM      9  C   UNL     1     -43.805 -14.208  -2.925  1.00  0.00     0.336 A 
ATOM     10  O   UNL     1     -43.863 -13.827  -4.123  1.00  0.00    -0.246 OA
ATOM     11  O   UNL     1     -44.775 -13.868  -2.079  1.00  0.00    -0.423 OA
ENDROOT
BRANCH   1  12
ATOM     12  O   UNL     1     -44.811 -15.388   3.261  1.00  0.00    -0.493 OA
ATOM     13  C   UNL     1     -45.485 -16.533   3.769  1.00  0.00     0.278 C 
ENDBRANCH   1  12
BRANCH   2  14
ATOM     14  O   UNL     1     -46.886 -13.831   2.195  1.00  0.00    -0.504 OA
ATOM     15  H   UNL     1     -46.746 -13.482   3.135  1.00  0.00     0.293 HD
ENDBRANCH   2  14
TORSDOF 2
ENDMDL
MODEL 6
REMARK VINA RESULT:    -4.460      1.932      4.590
REMARK INTER + INTRA:          -4.895
REMARK INTER:                  -4.845
REMARK INTRA:                  -0.049
REMARK UNBOUND:                -0.044
REMARK SMILES COc1cc2ccc(=O)oc2cc1O
REMARK SMILES IDX 3 1 13 2 12 3 11 4 5 5 4 6 6 7 7 8 8 9 9 10 10 11 2 12 1 13
REMARK SMILES IDX 14 14
REMARK H PARENT 14 15
REMARK Flexibility Score: inf
ROOT
ATOM      1  C   UNL     1     -41.384 -14.567  -1.160  1.00  0.00     0.161 A 
ATOM      2  C   UNL     1     -41.251 -15.007  -2.492  1.00  0.00     0.161 A 
ATOM      3  C   UNL     1     -42.373 -15.081  -3.325  1.00  0.00     0.098 A 
ATOM      4  C   UNL     1     -43.635 -14.721  -2.846  1.00  0.00     0.142 A 
ATOM      5  C   UNL     1     -43.779 -14.280  -1.514  1.00  0.00     0.022 A 
ATOM      6  C   UNL     1     -42.659 -14.203  -0.676  1.00  0.00     0.062 A 
ATOM      7  C   UNL     1     -45.055 -13.927  -1.063  1.00  0.00     0.019 A 
ATOM      8  C   UNL     1     -46.140 -14.020  -1.936  1.00  0.00     0.094 A 
ATOM      9  C   UNL     1     -45.921 -14.466  -3.243  1.00  0.00     0.336 A 
ATOM     10  O   UNL     1     -46.886 -14.557  -4.046  1.00  0.00    -0.246 OA
ATOM     11  O   UNL     1     -44.696 -14.796  -3.646  1.00  0.00    -0.423 OA
ENDROOT
BRANCH   1  12
ATOM     12  O   UNL     1     -40.238 -14.504  -0.351  1.00  0.00    -0.493 OA
ATOM     13  C   UNL     1     -40.179 -14.940   1.003  1.00  0.00     0.278 C 
ENDBRANCH   1  12
BRANCH   2  14
ATOM     14  O   UNL     1     -40.008 -15.375  -3.007  1.00  0.00    -0.504 OA
ATOM     15  H   UNL     1     -39.761 -16.340  -3.185  1.00  0.00     0.293 HD
ENDBRANCH   2  14
TORSDOF 2
ENDMDL
MODEL 7
REMARK VINA RESULT:    -4.437      1.944      4.735
REMARK INTER + INTRA:          -4.870
REMARK INTER:                  -4.825
REMARK INTRA:                  -0.045
REMARK UNBOUND:                -0.044
REMARK SMILES COc1cc2ccc(=O)oc2cc1O
REMARK SMILES IDX 3 1 13 2 12 3 11 4 5 5 4 6 6 7 7 8 8 9 9 10 10 11 2 12 1 13
REMARK SMILES IDX 14 14
REMARK H PARENT 14 15
REMARK Flexibility Score: inf
ROOT
ATOM      1  C   UNL     1     -44.406 -14.150  -1.863  1.00  0.00     0.161 A 
ATOM      2  C   UNL     1     -45.633 -13.726  -1.317  1.00  0.00     0.161 A 
ATOM      3  C   UNL     1     -45.695 -12.562  -0.542  1.00  0.00     0.098 A 
ATOM      4  C   UNL     1     -44.543 -11.810  -0.302  1.00  0.00     0.142 A 
ATOM      5  C   UNL     1     -43.309 -12.225  -0.844  1.00  0.00     0.022 A 
ATOM      6  C   UNL     1     -43.242 -13.390  -1.621  1.00  0.00     0.062 A 
ATOM      7  C   UNL     1     -42.174 -11.451  -0.586  1.00  0.00     0.019 A 
ATOM      8  C   UNL     1     -42.292 -10.300   0.193  1.00  0.00     0.094 A 
ATOM      9  C   UNL     1     -43.548  -9.950   0.697  1.00  0.00     0.336 A 
ATOM     10  O   UNL     1     -43.676  -8.915   1.402  1.00  0.00    -0.246 OA
ATOM     11  O   UNL     1     -44.613 -10.705   0.436  1.00  0.00    -0.423 OA
ENDROOT
BRANCH   1  12
ATOM     12  O   UNL     1     -44.378 -15.322  -2.636  1.00  0.00    -0.493 OA
ATOM     13  C   UNL     1     -43.228 -16.140  -2.823  1.00  0.00     0.278 C 
ENDBRANCH   1  12
BRANCH   2  14
ATOM     14  O   UNL     1     -46.805 -14.450  -1.534  1.00  0.00    -0.504 OA
ATOM     15  H   UNL     1     -47.204 -15.056  -0.828  1.00  0.00     0.293 HD
ENDBRANCH   2  14
TORSDOF 2
ENDMDL
MODEL 8
REMARK VINA RESULT:    -4.359      3.056      3.869
REMARK INTER + INTRA:          -4.785
REMARK INTER:                  -4.738
REMARK INTRA:                  -0.048
REMARK UNBOUND:                -0.044
REMARK SMILES COc1cc2ccc(=O)oc2cc1O
REMARK SMILES IDX 3 1 13 2 12 3 11 4 5 5 4 6 6 7 7 8 8 9 9 10 10 11 2 12 1 13
REMARK SMILES IDX 14 14
REMARK H PARENT 14 15
REMARK Flexibility Score: inf
ROOT
ATOM      1  C   UNL     1     -45.209 -14.746   1.990  1.00  0.00     0.161 A 
ATOM      2  C   UNL     1     -43.935 -15.332   1.859  1.00  0.00     0.161 A 
ATOM      3  C   UNL     1     -43.323 -15.416   0.604  1.00  0.00     0.098 A 
ATOM      4  C   UNL     1     -43.967 -14.921  -0.532  1.00  0.00     0.142 A 
ATOM      5  C   UNL     1     -45.244 -14.333  -0.413  1.00  0.00     0.022 A 
ATOM      6  C   UNL     1     -45.860 -14.246   0.842  1.00  0.00     0.062 A 
ATOM      7  C   UNL     1     -45.864 -13.847  -1.568  1.00  0.00     0.019 A 
ATOM      8  C   UNL     1     -45.209 -13.956  -2.795  1.00  0.00     0.094 A 
ATOM      9  C   UNL     1     -43.944 -14.552  -2.836  1.00  0.00     0.336 A 
ATOM     10  O   UNL     1     -43.336 -14.661  -3.934  1.00  0.00    -0.246 OA
ATOM     11  O   UNL     1     -43.376 -15.007  -1.722  1.00  0.00    -0.423 OA
ENDROOT
BRANCH   1  12
ATOM     12  O   UNL     1     -45.795 -14.677   3.264  1.00  0.00    -0.493 OA
ATOM     13  C   UNL     1     -46.574 -13.583   3.738  1.00  0.00     0.278 C 
ENDBRANCH   1  12
BRANCH   2  14
ATOM     14  O   UNL     1     -43.259 -15.837   2.971  1.00  0.00    -0.504 OA
ATOM     15  H   UNL     1     -43.662 -16.545   3.571  1.00  0.00     0.293 HD
ENDBRANCH   2  14
TORSDOF 2
ENDMDL
MODEL 9
REMARK VINA RESULT:    -4.281     10.394     10.999
REMARK INTER + INTRA:          -4.701
REMARK INTER:                  -4.643
REMARK INTRA:                  -0.058
REMARK UNBOUND:                -0.044
REMARK SMILES COc1cc2ccc(=O)oc2cc1O
REMARK SMILES IDX 3 1 13 2 12 3 11 4 5 5 4 6 6 7 7 8 8 9 9 10 10 11 2 12 1 13
REMARK SMILES IDX 14 14
REMARK H PARENT 14 15
REMARK Flexibility Score: inf
ROOT
ATOM      1  C   UNL     1     -47.492 -17.925   8.231  1.00  0.00     0.161 A 
ATOM      2  C   UNL     1     -46.163 -17.526   8.479  1.00  0.00     0.161 A 
ATOM      3  C   UNL     1     -45.104 -18.158   7.818  1.00  0.00     0.098 A 
ATOM      4  C   UNL     1     -45.351 -19.189   6.909  1.00  0.00     0.142 A 
ATOM      5  C   UNL     1     -46.678 -19.596   6.654  1.00  0.00     0.022 A 
ATOM      6  C   UNL     1     -47.742 -18.966   7.313  1.00  0.00     0.062 A 
ATOM      7  C   UNL     1     -46.893 -20.630   5.739  1.00  0.00     0.019 A 
ATOM      8  C   UNL     1     -45.800 -21.226   5.108  1.00  0.00     0.094 A 
ATOM      9  C   UNL     1     -44.513 -20.770   5.411  1.00  0.00     0.336 A 
ATOM     10  O   UNL     1     -43.514 -21.294   4.853  1.00  0.00    -0.246 OA
ATOM     11  O   UNL     1     -44.336 -19.783   6.286  1.00  0.00    -0.423 OA
ENDROOT
BRANCH   1  12
ATOM     12  O   UNL     1     -48.533 -17.270   8.911  1.00  0.00    -0.493 OA
ATOM     13  C   UNL     1     -49.582 -16.546   8.278  1.00  0.00     0.278 C 
ENDBRANCH   1  12
BRANCH   2  14
ATOM     14  O   UNL     1     -45.877 -16.501   9.380  1.00  0.00    -0.504 OA
ATOM     15  H   UNL     1     -45.042 -16.503   9.953  1.00  0.00     0.293 HD
ENDBRANCH   2  14
TORSDOF 2
ENDMDL
