MODEL 1
REMARK VINA RESULT:    -4.462      0.000      0.000
REMARK INTER + INTRA:          -5.633
REMARK INTER:                  -5.245
REMARK INTRA:                  -0.388
REMARK UNBOUND:                -0.388
REMARK SMILES CCCC[C@@H]1OC(=O)C2=C1CCC=C2
REMARK SMILES IDX 3 1 2 2 1 3 4 4 5 5 10 6 6 7 9 8 11 9 7 10 14 11 12 12 8 13
REMARK SMILES IDX 13 14
REMARK H PARENT
REMARK Flexibility Score: inf
ROOT
ATOM      1  C   UNL     1     -11.659  81.815 -11.343  1.00  0.00     0.004 C 
ENDROOT
BRANCH   1   2
ATOM      2  C   UNL     1     -12.015  81.806 -12.840  1.00  0.00    -0.003 C 
ATOM      3  C   UNL     1     -13.522  81.826 -13.095  1.00  0.00     0.004 C 
ENDBRANCH   1   2
BRANCH   1   4
ATOM      4  C   UNL     1     -12.806  81.422 -10.394  1.00  0.00     0.050 C 
BRANCH   4   5
ATOM      5  C   UNL     1     -13.179  82.532  -9.396  1.00  0.00     0.204 C 
ATOM      6  C   UNL     1     -12.019  83.471  -9.155  1.00  0.00    -0.015 C 
ATOM      7  O   UNL     1     -14.177  83.395  -9.948  1.00  0.00    -0.454 OA
ATOM      8  C   UNL     1     -12.337  84.707  -9.503  1.00  0.00     0.062 C 
ATOM      9  C   UNL     1     -10.781  83.187  -8.347  1.00  0.00     0.040 C 
ATOM     10  C   UNL     1     -13.682  84.685 -10.012  1.00  0.00     0.338 C 
ATOM     11  C   UNL     1     -11.462  85.858  -9.244  1.00  0.00     0.011 C 
ATOM     12  C   UNL     1      -9.679  84.233  -8.639  1.00  0.00     0.032 C 
ATOM     13  O   UNL     1     -14.332  85.676 -10.437  1.00  0.00    -0.246 OA
ATOM     14  C   UNL     1     -10.228  85.640  -8.770  1.00  0.00    -0.026 C 
ENDBRANCH   4   5
ENDBRANCH   1   4
TORSDOF 3
ENDMDL
MODEL 2
REMARK VINA RESULT:    -4.374      2.054      2.896
REMARK INTER + INTRA:          -5.530
REMARK INTER:                  -5.221
REMARK INTRA:                  -0.309
REMARK UNBOUND:                -0.388
REMARK SMILES CCCC[C@@H]1OC(=O)C2=C1CCC=C2
REMARK SMILES IDX 3 1 2 2 1 3 4 4 5 5 10 6 6 7 9 8 11 9 7 10 14 11 12 12 8 13
REMARK SMILES IDX 13 14
REMARK H PARENT
REMARK Flexibility Score: inf
ROOT
ATOM      1  C   UNL     1     -11.619  81.855 -11.030  1.00  0.00     0.004 C 
ENDROOT
BRANCH   1   2
ATOM      2  C   UNL     1     -11.780  81.777 -12.558  1.00  0.00    -0.003 C 
ATOM      3  C   UNL     1     -13.241  81.787 -13.006  1.00  0.00     0.004 C 
ENDBRANCH   1   2
BRANCH   1   4
ATOM      4  C   UNL     1     -12.889  81.538 -10.220  1.00  0.00     0.050 C 
BRANCH   4   5
ATOM      5  C   UNL     1     -12.989  82.334  -8.907  1.00  0.00     0.204 C 
ATOM      6  C   UNL     1     -13.496  83.738  -9.149  1.00  0.00    -0.015 C 
ATOM      7  O   UNL     1     -13.991  81.776  -8.052  1.00  0.00    -0.454 OA
ATOM      8  C   UNL     1     -14.625  83.947  -8.492  1.00  0.00     0.062 C 
ATOM      9  C   UNL     1     -12.731  84.880  -9.761  1.00  0.00     0.040 C 
ATOM     10  C   UNL     1     -14.962  82.730  -7.803  1.00  0.00     0.338 C 
ATOM     11  C   UNL     1     -15.271  85.263  -8.418  1.00  0.00     0.011 C 
ATOM     12  C   UNL     1     -13.687  86.023 -10.178  1.00  0.00     0.032 C 
ATOM     13  O   UNL     1     -15.968  82.546  -7.068  1.00  0.00    -0.246 OA
ATOM     14  C   UNL     1     -14.786  86.266  -9.163  1.00  0.00    -0.026 C 
ENDBRANCH   4   5
ENDBRANCH   1   4
TORSDOF 3
ENDMDL
MODEL 3
REMARK VINA RESULT:    -4.192      8.012      9.174
REMARK INTER + INTRA:          -5.316
REMARK INTER:                  -5.030
REMARK INTRA:                  -0.286
REMARK UNBOUND:                -0.388
REMARK SMILES CCCC[C@@H]1OC(=O)C2=C1CCC=C2
REMARK SMILES IDX 3 1 2 2 1 3 4 4 5 5 10 6 6 7 9 8 11 9 7 10 14 11 12 12 8 13
REMARK SMILES IDX 13 14
REMARK H PARENT
REMARK Flexibility Score: inf
ROOT
ATOM      1  C   UNL     1      -4.717  82.919  -9.107  1.00  0.00     0.004 C 
ENDROOT
BRANCH   1   2
ATOM      2  C   UNL     1      -3.604  82.071  -9.746  1.00  0.00    -0.003 C 
ATOM      3  C   UNL     1      -2.720  81.370  -8.715  1.00  0.00     0.004 C 
ENDBRANCH   1   2
BRANCH   1   4
ATOM      4  C   UNL     1      -4.236  83.986  -8.106  1.00  0.00     0.050 C 
BRANCH   4   5
ATOM      5  C   UNL     1      -3.492  85.155  -8.773  1.00  0.00     0.204 C 
ATOM      6  C   UNL     1      -4.437  86.280  -9.131  1.00  0.00    -0.015 C 
ATOM      7  O   UNL     1      -2.593  85.777  -7.850  1.00  0.00    -0.454 OA
ATOM      8  C   UNL     1      -4.095  87.395  -8.507  1.00  0.00     0.062 C 
ATOM      9  C   UNL     1      -5.434  86.296 -10.259  1.00  0.00     0.040 C 
ATOM     10  C   UNL     1      -2.947  87.105  -7.691  1.00  0.00     0.338 C 
ATOM     11  C   UNL     1      -4.740  88.687  -8.774  1.00  0.00     0.011 C 
ATOM     12  C   UNL     1      -6.455  87.443 -10.076  1.00  0.00     0.032 C 
ATOM     13  O   UNL     1      -2.334  87.920  -6.953  1.00  0.00    -0.246 OA
ATOM     14  C   UNL     1      -5.815  88.721  -9.572  1.00  0.00    -0.026 C 
ENDBRANCH   4   5
ENDBRANCH   1   4
TORSDOF 3
ENDMDL
MODEL 4
REMARK VINA RESULT:    -4.011     10.565     12.105
REMARK INTER + INTRA:          -5.103
REMARK INTER:                  -4.421
REMARK INTRA:                  -0.683
REMARK UNBOUND:                -0.388
REMARK SMILES CCCC[C@@H]1OC(=O)C2=C1CCC=C2
REMARK SMILES IDX 3 1 2 2 1 3 4 4 5 5 10 6 6 7 9 8 11 9 7 10 14 11 12 12 8 13
REMARK SMILES IDX 13 14
REMARK H PARENT
REMARK Flexibility Score: inf
ROOT
ATOM      1  C   UNL     1      -4.032  91.010 -13.879  1.00  0.00     0.004 C 
ENDROOT
BRANCH   1   2
ATOM      2  C   UNL     1      -4.162  91.956 -12.673  1.00  0.00    -0.003 C 
ATOM      3  C   UNL     1      -4.476  93.397 -13.074  1.00  0.00     0.004 C 
ENDBRANCH   1   2
BRANCH   1   4
ATOM      4  C   UNL     1      -5.120  89.926 -13.981  1.00  0.00     0.050 C 
BRANCH   4   5
ATOM      5  C   UNL     1      -6.047  90.106 -15.196  1.00  0.00     0.204 C 
ATOM      6  C   UNL     1      -6.843  91.388 -15.100  1.00  0.00    -0.015 C 
ATOM      7  O   UNL     1      -5.285  90.293 -16.392  1.00  0.00    -0.454 OA
ATOM      8  C   UNL     1      -6.578  92.181 -16.126  1.00  0.00     0.062 C 
ATOM      9  C   UNL     1      -8.012  91.659 -14.192  1.00  0.00     0.040 C 
ATOM     10  C   UNL     1      -5.598  91.521 -16.946  1.00  0.00     0.338 C 
ATOM     11  C   UNL     1      -7.311  93.428 -16.378  1.00  0.00     0.011 C 
ATOM     12  C   UNL     1      -8.313  93.174 -14.116  1.00  0.00     0.032 C 
ATOM     13  O   UNL     1      -5.103  91.966 -18.015  1.00  0.00    -0.246 OA
ATOM     14  C   UNL     1      -8.183  93.864 -15.460  1.00  0.00    -0.026 C 
ENDBRANCH   4   5
ENDBRANCH   1   4
TORSDOF 3
ENDMDL
MODEL 5
REMARK VINA RESULT:    -3.972      6.148      8.129
REMARK INTER + INTRA:          -5.058
REMARK INTER:                  -4.488
REMARK INTRA:                  -0.569
REMARK UNBOUND:                -0.388
REMARK SMILES CCCC[C@@H]1OC(=O)C2=C1CCC=C2
REMARK SMILES IDX 3 1 2 2 1 3 4 4 5 5 10 6 6 7 9 8 11 9 7 10 14 11 12 12 8 13
REMARK SMILES IDX 13 14
REMARK H PARENT
REMARK Flexibility Score: inf
ROOT
ATOM      1  C   UNL     1      -7.040  83.990  -8.027  1.00  0.00     0.004 C 
ENDROOT
BRANCH   1   2
ATOM      2  C   UNL     1      -8.100  85.067  -7.738  1.00  0.00    -0.003 C 
ATOM      3  C   UNL     1      -8.782  85.589  -9.002  1.00  0.00     0.004 C 
ENDBRANCH   1   2
BRANCH   1   4
ATOM      4  C   UNL     1      -6.889  83.602  -9.509  1.00  0.00     0.050 C 
BRANCH   4   5
ATOM      5  C   UNL     1      -5.484  83.881 -10.072  1.00  0.00     0.204 C 
ATOM      6  C   UNL     1      -4.889  85.137  -9.478  1.00  0.00    -0.015 C 
ATOM      7  O   UNL     1      -4.563  82.866  -9.661  1.00  0.00    -0.454 OA
ATOM      8  C   UNL     1      -3.764  84.864  -8.837  1.00  0.00     0.062 C 
ATOM      9  C   UNL     1      -5.277  86.557  -9.794  1.00  0.00     0.040 C 
ATOM     10  C   UNL     1      -3.541  83.446  -8.929  1.00  0.00     0.338 C 
ATOM     11  C   UNL     1      -2.889  85.906  -8.286  1.00  0.00     0.011 C 
ATOM     12  C   UNL     1      -4.717  87.531  -8.732  1.00  0.00     0.032 C 
ATOM     13  O   UNL     1      -2.567  82.814  -8.444  1.00  0.00    -0.246 OA
ATOM     14  C   UNL     1      -3.309  87.178  -8.298  1.00  0.00    -0.026 C 
ENDBRANCH   4   5
ENDBRANCH   1   4
TORSDOF 3
ENDMDL
MODEL 6
REMARK VINA RESULT:    -3.944      6.748      8.439
REMARK INTER + INTRA:          -5.024
REMARK INTER:                  -4.659
REMARK INTRA:                  -0.365
REMARK UNBOUND:                -0.388
REMARK SMILES CCCC[C@@H]1OC(=O)C2=C1CCC=C2
REMARK SMILES IDX 3 1 2 2 1 3 4 4 5 5 10 6 6 7 9 8 11 9 7 10 14 11 12 12 8 13
REMARK SMILES IDX 13 14
REMARK H PARENT
REMARK Flexibility Score: inf
ROOT
ATOM      1  C   UNL     1      -3.425  81.734  -9.277  1.00  0.00     0.004 C 
ENDROOT
BRANCH   1   2
ATOM      2  C   UNL     1      -2.641  81.935  -7.968  1.00  0.00    -0.003 C 
ATOM      3  C   UNL     1      -3.039  80.943  -6.875  1.00  0.00     0.004 C 
ENDBRANCH   1   2
BRANCH   1   4
ATOM      4  C   UNL     1      -3.896  83.030  -9.963  1.00  0.00     0.050 C 
BRANCH   4   5
ATOM      5  C   UNL     1      -4.859  83.862  -9.099  1.00  0.00     0.204 C 
ATOM      6  C   UNL     1      -4.282  85.222  -8.780  1.00  0.00    -0.015 C 
ATOM      7  O   UNL     1      -6.046  84.183  -9.829  1.00  0.00    -0.454 OA
ATOM      8  C   UNL     1      -5.060  86.183  -9.251  1.00  0.00     0.062 C 
ATOM      9  C   UNL     1      -3.175  85.528  -7.806  1.00  0.00     0.040 C 
ATOM     10  C   UNL     1      -6.169  85.558  -9.920  1.00  0.00     0.338 C 
ATOM     11  C   UNL     1      -4.831  87.605  -8.965  1.00  0.00     0.011 C 
ATOM     12  C   UNL     1      -2.621  86.954  -8.030  1.00  0.00     0.032 C 
ATOM     13  O   UNL     1      -7.122  86.151 -10.490  1.00  0.00    -0.246 OA
ATOM     14  C   UNL     1      -3.710  87.965  -8.326  1.00  0.00    -0.026 C 
ENDBRANCH   4   5
ENDBRANCH   1   4
TORSDOF 3
ENDMDL
MODEL 7
REMARK VINA RESULT:    -3.934      7.078      9.189
REMARK INTER + INTRA:          -5.012
REMARK INTER:                  -4.536
REMARK INTRA:                  -0.477
REMARK UNBOUND:                -0.388
REMARK SMILES CCCC[C@@H]1OC(=O)C2=C1CCC=C2
REMARK SMILES IDX 3 1 2 2 1 3 4 4 5 5 10 6 6 7 9 8 11 9 7 10 14 11 12 12 8 13
REMARK SMILES IDX 13 14
REMARK H PARENT
REMARK Flexibility Score: inf
ROOT
ATOM      1  C   UNL     1      -7.304  86.868 -10.110  1.00  0.00     0.004 C 
ENDROOT
BRANCH   1   2
ATOM      2  C   UNL     1      -6.589  87.932 -10.962  1.00  0.00    -0.003 C 
ATOM      3  C   UNL     1      -6.784  89.352 -10.433  1.00  0.00     0.004 C 
ENDBRANCH   1   2
BRANCH   1   4
ATOM      4  C   UNL     1      -6.402  86.104  -9.124  1.00  0.00     0.050 C 
BRANCH   4   5
ATOM      5  C   UNL     1      -4.945  85.981  -9.601  1.00  0.00     0.204 C 
ATOM      6  C   UNL     1      -3.988  86.637  -8.632  1.00  0.00    -0.015 C 
ATOM      7  O   UNL     1      -4.521  84.614  -9.590  1.00  0.00    -0.454 OA
ATOM      8  C   UNL     1      -3.123  85.755  -8.158  1.00  0.00     0.062 C 
ATOM      9  C   UNL     1      -3.778  88.115  -8.433  1.00  0.00     0.040 C 
ATOM     10  C   UNL     1      -3.441  84.477  -8.736  1.00  0.00     0.338 C 
ATOM     11  C   UNL     1      -1.984  86.133  -7.311  1.00  0.00     0.011 C 
ATOM     12  C   UNL     1      -3.009  88.390  -7.119  1.00  0.00     0.032 C 
ATOM     13  O   UNL     1      -2.834  83.395  -8.526  1.00  0.00    -0.246 OA
ATOM     14  C   UNL     1      -1.892  87.396  -6.875  1.00  0.00    -0.026 C 
ENDBRANCH   4   5
ENDBRANCH   1   4
TORSDOF 3
ENDMDL
MODEL 8
REMARK VINA RESULT:    -3.916      9.924     12.362
REMARK INTER + INTRA:          -4.992
REMARK INTER:                  -4.680
REMARK INTRA:                  -0.311
REMARK UNBOUND:                -0.388
REMARK SMILES CCCC[C@@H]1OC(=O)C2=C1CCC=C2
REMARK SMILES IDX 3 1 2 2 1 3 4 4 5 5 10 6 6 7 9 8 11 9 7 10 14 11 12 12 8 13
REMARK SMILES IDX 13 14
REMARK H PARENT
REMARK Flexibility Score: inf
ROOT
ATOM      1  C   UNL     1      -3.766  94.176 -11.744  1.00  0.00     0.004 C 
ENDROOT
BRANCH   1   2
ATOM      2  C   UNL     1      -4.422  93.803 -10.403  1.00  0.00    -0.003 C 
ATOM      3  C   UNL     1      -3.754  94.474  -9.203  1.00  0.00     0.004 C 
ENDBRANCH   1   2
BRANCH   1   4
ATOM      4  C   UNL     1      -4.458  93.602 -12.993  1.00  0.00     0.050 C 
BRANCH   4   5
ATOM      5  C   UNL     1      -4.060  92.146 -13.295  1.00  0.00     0.204 C 
ATOM      6  C   UNL     1      -5.266  91.233 -13.302  1.00  0.00    -0.015 C 
ATOM      7  O   UNL     1      -3.561  92.024 -14.630  1.00  0.00    -0.454 OA
ATOM      8  C   UNL     1      -5.408  90.655 -14.483  1.00  0.00     0.062 C 
ATOM      9  C   UNL     1      -6.040  90.753 -12.104  1.00  0.00     0.040 C 
ATOM     10  C   UNL     1      -4.357  91.140 -15.337  1.00  0.00     0.338 C 
ATOM     11  C   UNL     1      -6.402  89.605 -14.741  1.00  0.00     0.011 C 
ATOM     12  C   UNL     1      -7.401  90.154 -12.531  1.00  0.00     0.032 C 
ATOM     13  O   UNL     1      -4.163  90.811 -16.536  1.00  0.00    -0.246 OA
ATOM     14  C   UNL     1      -7.303  89.319 -13.791  1.00  0.00    -0.026 C 
ENDBRANCH   4   5
ENDBRANCH   1   4
TORSDOF 3
ENDMDL
MODEL 9
REMARK VINA RESULT:    -3.905      7.122      8.528
REMARK INTER + INTRA:          -4.978
REMARK INTER:                  -4.539
REMARK INTRA:                  -0.438
REMARK UNBOUND:                -0.388
REMARK SMILES CCCC[C@@H]1OC(=O)C2=C1CCC=C2
REMARK SMILES IDX 3 1 2 2 1 3 4 4 5 5 10 6 6 7 9 8 11 9 7 10 14 11 12 12 8 13
REMARK SMILES IDX 13 14
REMARK H PARENT
REMARK Flexibility Score: inf
ROOT
ATOM      1  C   UNL     1      -5.364  83.384 -10.064  1.00  0.00     0.004 C 
ENDROOT
BRANCH   1   2
ATOM      2  C   UNL     1      -4.108  82.608  -9.631  1.00  0.00    -0.003 C 
ATOM      3  C   UNL     1      -4.106  82.255  -8.144  1.00  0.00     0.004 C 
ENDBRANCH   1   2
BRANCH   1   4
ATOM      4  C   UNL     1      -5.188  84.910 -10.166  1.00  0.00     0.050 C 
BRANCH   4   5
ATOM      5  C   UNL     1      -5.491  85.648  -8.851  1.00  0.00     0.204 C 
ATOM      6  C   UNL     1      -4.254  86.314  -8.292  1.00  0.00    -0.015 C 
ATOM      7  O   UNL     1      -6.371  86.752  -9.080  1.00  0.00    -0.454 OA
ATOM      8  C   UNL     1      -4.429  87.621  -8.198  1.00  0.00     0.062 C 
ATOM      9  C   UNL     1      -3.089  85.636  -7.622  1.00  0.00     0.040 C 
ATOM     10  C   UNL     1      -5.745  87.924  -8.693  1.00  0.00     0.338 C 
ATOM     11  C   UNL     1      -3.454  88.510  -7.553  1.00  0.00     0.011 C 
ATOM     12  C   UNL     1      -1.875  86.589  -7.528  1.00  0.00     0.032 C 
ATOM     13  O   UNL     1      -6.271  89.065  -8.756  1.00  0.00    -0.246 OA
ATOM     14  C   UNL     1      -2.272  88.008  -7.172  1.00  0.00    -0.026 C 
ENDBRANCH   4   5
ENDBRANCH   1   4
TORSDOF 3
ENDMDL
