MODEL 1
REMARK VINA RESULT:    -5.278      0.000      0.000
REMARK INTER + INTRA:          -9.463
REMARK INTER:                  -8.209
REMARK INTRA:                  -1.254
REMARK UNBOUND:                -1.254
REMARK SMILES COc1cc(CNC(=O)CCCCC=CC(C)C)ccc1O
REMARK SMILES IDX 11 1 12 2 13 3 14 4 15 5 16 6 17 7 18 8 10 9 8 10 9 11 7 12
REMARK SMILES IDX 6 14 5 15 4 16 19 17 3 18 20 19 21 20 2 21 1 22 22 23
REMARK H PARENT 7 13 22 24
REMARK Flexibility Score: inf
ROOT
ATOM      1  C   UNL     1     139.623 138.053 138.269  1.00  0.00     0.010 C 
ENDROOT
BRANCH   1   2
ATOM      2  C   UNL     1     138.136 138.381 138.081  1.00  0.00     0.005 C 
BRANCH   2   3
ATOM      3  C   UNL     1     137.780 139.777 138.611  1.00  0.00     0.027 C 
BRANCH   3   4
ATOM      4  C   UNL     1     137.462 139.771 140.087  1.00  0.00    -0.031 C 
ATOM      5  C   UNL     1     138.306 140.152 141.068  1.00  0.00    -0.028 C 
BRANCH   5   6
ATOM      6  C   UNL     1     139.722 140.645 140.864  1.00  0.00     0.005 C 
ATOM      7  C   UNL     1     139.886 142.019 141.519  1.00  0.00     0.012 C 
ATOM      8  C   UNL     1     140.709 139.643 141.468  1.00  0.00     0.012 C 
ENDBRANCH   5   6
ENDBRANCH   3   4
ENDBRANCH   2   3
ENDBRANCH   1   2
BRANCH   1   9
ATOM      9  C   UNL     1     140.294 137.756 136.922  1.00  0.00     0.100 C 
BRANCH   9  10
ATOM     10  C   UNL     1     140.795 139.024 136.301  1.00  0.00     0.220 C 
ATOM     11  O   UNL     1     141.169 139.971 137.044  1.00  0.00    -0.275 OA
ATOM     12  N   UNL     1     140.796 139.178 134.874  1.00  0.00    -0.352 N 
ATOM     13  H   UNL     1     140.511 138.369 134.270  1.00  0.00     0.163 HD
BRANCH  12  14
ATOM     14  C   UNL     1     141.093 140.451 134.223  1.00  0.00     0.151 C 
BRANCH  14  15
ATOM     15  C   UNL     1     139.821 141.226 134.009  1.00  0.00    -0.025 A 
ATOM     16  C   UNL     1     138.762 140.652 133.285  1.00  0.00     0.056 A 
ATOM     17  C   UNL     1     139.663 142.503 134.565  1.00  0.00     0.009 A 
ATOM     18  C   UNL     1     137.554 141.355 133.100  1.00  0.00     0.160 A 
ATOM     19  C   UNL     1     138.467 143.202 134.389  1.00  0.00     0.050 A 
ATOM     20  C   UNL     1     137.414 142.637 133.662  1.00  0.00     0.157 A 
BRANCH  18  21
ATOM     21  O   UNL     1     136.485 140.813 132.368  1.00  0.00    -0.493 OA
ATOM     22  C   UNL     1     135.443 140.021 132.927  1.00  0.00     0.278 C 
ENDBRANCH  18  21
BRANCH  20  23
ATOM     23  O   UNL     1     136.235 143.367 133.508  1.00  0.00    -0.504 OA
ATOM     24  H   UNL     1     135.381 142.946 133.163  1.00  0.00     0.293 HD
ENDBRANCH  20  23
ENDBRANCH  14  15
ENDBRANCH  12  14
ENDBRANCH   9  10
ENDBRANCH   1   9
TORSDOF 10
ENDMDL
MODEL 2
REMARK VINA RESULT:    -5.228      1.965      2.701
REMARK INTER + INTRA:          -9.385
REMARK INTER:                  -7.933
REMARK INTRA:                  -1.452
REMARK UNBOUND:                -1.254
REMARK SMILES COc1cc(CNC(=O)CCCCC=CC(C)C)ccc1O
REMARK SMILES IDX 11 1 12 2 13 3 14 4 15 5 16 6 17 7 18 8 10 9 8 10 9 11 7 12
REMARK SMILES IDX 6 14 5 15 4 16 19 17 3 18 20 19 21 20 2 21 1 22 22 23
REMARK H PARENT 7 13 22 24
REMARK Flexibility Score: inf
ROOT
ATOM      1  C   UNL     1     137.843 139.136 138.201  1.00  0.00     0.010 C 
ENDROOT
BRANCH   1   2
ATOM      2  C   UNL     1     138.581 140.381 137.690  1.00  0.00     0.005 C 
BRANCH   2   3
ATOM      3  C   UNL     1     139.914 140.603 138.419  1.00  0.00     0.027 C 
BRANCH   3   4
ATOM      4  C   UNL     1     139.723 141.005 139.862  1.00  0.00    -0.031 C 
ATOM      5  C   UNL     1     139.950 140.210 140.929  1.00  0.00    -0.028 C 
BRANCH   5   6
ATOM      6  C   UNL     1     140.427 138.776 140.868  1.00  0.00     0.005 C 
ATOM      7  C   UNL     1     141.862 138.690 141.395  1.00  0.00     0.012 C 
ATOM      8  C   UNL     1     139.498 137.888 141.699  1.00  0.00     0.012 C 
ENDBRANCH   5   6
ENDBRANCH   3   4
ENDBRANCH   2   3
ENDBRANCH   1   2
BRANCH   1   9
ATOM      9  C   UNL     1     138.523 137.854 137.707  1.00  0.00     0.100 C 
BRANCH   9  10
ATOM     10  C   UNL     1     138.495 137.795 136.210  1.00  0.00     0.220 C 
ATOM     11  O   UNL     1     139.581 137.722 135.574  1.00  0.00    -0.275 OA
ATOM     12  N   UNL     1     137.246 137.877 135.507  1.00  0.00    -0.352 N 
ATOM     13  H   UNL     1     136.351 137.905 136.053  1.00  0.00     0.163 HD
BRANCH  12  14
ATOM     14  C   UNL     1     137.171 138.013 134.055  1.00  0.00     0.151 C 
BRANCH  14  15
ATOM     15  C   UNL     1     136.855 139.438 133.690  1.00  0.00    -0.025 A 
ATOM     16  C   UNL     1     135.612 139.757 133.117  1.00  0.00     0.056 A 
ATOM     17  C   UNL     1     137.773 140.463 133.959  1.00  0.00     0.009 A 
ATOM     18  C   UNL     1     135.291 141.092 132.796  1.00  0.00     0.160 A 
ATOM     19  C   UNL     1     137.459 141.787 133.647  1.00  0.00     0.050 A 
ATOM     20  C   UNL     1     136.226 142.107 133.068  1.00  0.00     0.157 A 
BRANCH  18  21
ATOM     21  O   UNL     1     134.063 141.438 132.207  1.00  0.00    -0.493 OA
ATOM     22  C   UNL     1     132.790 141.184 132.788  1.00  0.00     0.278 C 
ENDBRANCH  18  21
BRANCH  20  23
ATOM     23  O   UNL     1     135.949 143.441 132.771  1.00  0.00    -0.504 OA
ATOM     24  H   UNL     1     135.631 143.736 131.856  1.00  0.00     0.293 HD
ENDBRANCH  20  23
ENDBRANCH  14  15
ENDBRANCH  12  14
ENDBRANCH   9  10
ENDBRANCH   1   9
TORSDOF 10
ENDMDL
MODEL 3
REMARK VINA RESULT:    -5.191      2.020      3.278
REMARK INTER + INTRA:          -9.328
REMARK INTER:                  -7.798
REMARK INTRA:                  -1.530
REMARK UNBOUND:                -1.254
REMARK SMILES COc1cc(CNC(=O)CCCCC=CC(C)C)ccc1O
REMARK SMILES IDX 11 1 12 2 13 3 14 4 15 5 16 6 17 7 18 8 10 9 8 10 9 11 7 12
REMARK SMILES IDX 6 14 5 15 4 16 19 17 3 18 20 19 21 20 2 21 1 22 22 23
REMARK H PARENT 7 13 22 24
REMARK Flexibility Score: inf
ROOT
ATOM      1  C   UNL     1     140.472 138.444 135.805  1.00  0.00     0.010 C 
ENDROOT
BRANCH   1   2
ATOM      2  C   UNL     1     140.366 139.925 136.193  1.00  0.00     0.005 C 
BRANCH   2   3
ATOM      3  C   UNL     1     140.995 140.210 137.564  1.00  0.00     0.027 C 
BRANCH   3   4
ATOM      4  C   UNL     1     139.983 140.698 138.573  1.00  0.00    -0.031 C 
ATOM      5  C   UNL     1     139.588 140.022 139.670  1.00  0.00    -0.028 C 
BRANCH   5   6
ATOM      6  C   UNL     1     140.083 138.652 140.081  1.00  0.00     0.005 C 
ATOM      7  C   UNL     1     141.145 138.796 141.174  1.00  0.00     0.012 C 
ATOM      8  C   UNL     1     138.907 137.809 140.585  1.00  0.00     0.012 C 
ENDBRANCH   5   6
ENDBRANCH   3   4
ENDBRANCH   2   3
ENDBRANCH   1   2
BRANCH   1   9
ATOM      9  C   UNL     1     139.476 137.594 136.603  1.00  0.00     0.100 C 
BRANCH   9  10
ATOM     10  C   UNL     1     138.082 138.107 136.404  1.00  0.00     0.220 C 
ATOM     11  O   UNL     1     137.384 138.404 137.411  1.00  0.00    -0.275 OA
ATOM     12  N   UNL     1     137.529 138.203 135.083  1.00  0.00    -0.352 N 
ATOM     13  H   UNL     1     138.134 137.982 134.255  1.00  0.00     0.163 HD
BRANCH  12  14
ATOM     14  C   UNL     1     136.123 138.514 134.842  1.00  0.00     0.151 C 
BRANCH  14  15
ATOM     15  C   UNL     1     136.005 139.837 134.135  1.00  0.00    -0.025 A 
ATOM     16  C   UNL     1     137.147 140.630 133.934  1.00  0.00     0.056 A 
ATOM     17  C   UNL     1     134.769 140.267 133.630  1.00  0.00     0.009 A 
ATOM     18  C   UNL     1     137.057 141.858 133.248  1.00  0.00     0.160 A 
ATOM     19  C   UNL     1     134.675 141.480 132.945  1.00  0.00     0.050 A 
ATOM     20  C   UNL     1     135.808 142.277 132.751  1.00  0.00     0.157 A 
BRANCH  18  21
ATOM     21  O   UNL     1     138.178 142.680 133.047  1.00  0.00    -0.493 OA
ATOM     22  C   UNL     1     139.473 142.207 132.697  1.00  0.00     0.278 C 
ENDBRANCH  18  21
BRANCH  20  23
ATOM     23  O   UNL     1     135.673 143.482 132.063  1.00  0.00    -0.504 OA
ATOM     24  H   UNL     1     135.353 143.523 131.102  1.00  0.00     0.293 HD
ENDBRANCH  20  23
ENDBRANCH  14  15
ENDBRANCH  12  14
ENDBRANCH   9  10
ENDBRANCH   1   9
TORSDOF 10
ENDMDL
MODEL 4
REMARK VINA RESULT:    -5.177      3.003      5.236
REMARK INTER + INTRA:          -9.306
REMARK INTER:                  -7.633
REMARK INTRA:                  -1.673
REMARK UNBOUND:                -1.254
REMARK SMILES COc1cc(CNC(=O)CCCCC=CC(C)C)ccc1O
REMARK SMILES IDX 11 1 12 2 13 3 14 4 15 5 16 6 17 7 18 8 10 9 8 10 9 11 7 12
REMARK SMILES IDX 6 14 5 15 4 16 19 17 3 18 20 19 21 20 2 21 1 22 22 23
REMARK H PARENT 7 13 22 24
REMARK Flexibility Score: inf
ROOT
ATOM      1  C   UNL     1     138.778 141.530 135.916  1.00  0.00     0.010 C 
ENDROOT
BRANCH   1   2
ATOM      2  C   UNL     1     140.191 140.938 135.840  1.00  0.00     0.005 C 
BRANCH   2   3
ATOM      3  C   UNL     1     140.697 140.469 137.211  1.00  0.00     0.027 C 
BRANCH   3   4
ATOM      4  C   UNL     1     140.885 138.972 137.277  1.00  0.00    -0.031 C 
ATOM      5  C   UNL     1     140.518 138.185 138.309  1.00  0.00    -0.028 C 
BRANCH   5   6
ATOM      6  C   UNL     1     139.860 138.662 139.585  1.00  0.00     0.005 C 
ATOM      7  C   UNL     1     138.811 137.641 140.034  1.00  0.00     0.012 C 
ATOM      8  C   UNL     1     140.921 138.853 140.672  1.00  0.00     0.012 C 
ENDBRANCH   5   6
ENDBRANCH   3   4
ENDBRANCH   2   3
ENDBRANCH   1   2
BRANCH   1   9
ATOM      9  C   UNL     1     137.897 140.727 136.880  1.00  0.00     0.100 C 
BRANCH   9  10
ATOM     10  C   UNL     1     137.475 139.437 136.246  1.00  0.00     0.220 C 
ATOM     11  O   UNL     1     137.183 138.454 136.979  1.00  0.00    -0.275 OA
ATOM     12  N   UNL     1     137.457 139.308 134.817  1.00  0.00    -0.352 N 
ATOM     13  H   UNL     1     137.671 140.144 134.222  1.00  0.00     0.163 HD
BRANCH  12  14
ATOM     14  C   UNL     1     137.237 138.027 134.149  1.00  0.00     0.151 C 
BRANCH  14  15
ATOM     15  C   UNL     1     138.549 137.317 133.958  1.00  0.00    -0.025 A 
ATOM     16  C   UNL     1     139.704 138.050 133.634  1.00  0.00     0.056 A 
ATOM     17  C   UNL     1     138.644 135.931 134.148  1.00  0.00     0.009 A 
ATOM     18  C   UNL     1     140.946 137.402 133.480  1.00  0.00     0.160 A 
ATOM     19  C   UNL     1     139.873 135.284 134.001  1.00  0.00     0.050 A 
ATOM     20  C   UNL     1     141.022 136.009 133.669  1.00  0.00     0.157 A 
BRANCH  18  21
ATOM     21  O   UNL     1     142.113 138.106 133.140  1.00  0.00    -0.493 OA
ATOM     22  C   UNL     1     142.876 138.891 134.048  1.00  0.00     0.278 C 
ENDBRANCH  18  21
BRANCH  20  23
ATOM     23  O   UNL     1     142.231 135.328 133.532  1.00  0.00    -0.504 OA
ATOM     24  H   UNL     1     142.839 135.142 134.320  1.00  0.00     0.293 HD
ENDBRANCH  20  23
ENDBRANCH  14  15
ENDBRANCH  12  14
ENDBRANCH   9  10
ENDBRANCH   1   9
TORSDOF 10
ENDMDL
MODEL 5
REMARK VINA RESULT:    -5.159      3.209      5.189
REMARK INTER + INTRA:          -9.279
REMARK INTER:                  -8.101
REMARK INTRA:                  -1.177
REMARK UNBOUND:                -1.254
REMARK SMILES COc1cc(CNC(=O)CCCCC=CC(C)C)ccc1O
REMARK SMILES IDX 11 1 12 2 13 3 14 4 15 5 16 6 17 7 18 8 10 9 8 10 9 11 7 12
REMARK SMILES IDX 6 14 5 15 4 16 19 17 3 18 20 19 21 20 2 21 1 22 22 23
REMARK H PARENT 7 13 22 24
REMARK Flexibility Score: inf
ROOT
ATOM      1  C   UNL     1     137.843 139.938 137.121  1.00  0.00     0.010 C 
ENDROOT
BRANCH   1   2
ATOM      2  C   UNL     1     137.857 138.499 137.654  1.00  0.00     0.005 C 
BRANCH   2   3
ATOM      3  C   UNL     1     139.115 138.200 138.482  1.00  0.00     0.027 C 
BRANCH   3   4
ATOM      4  C   UNL     1     138.789 137.613 139.835  1.00  0.00    -0.031 C 
ATOM      5  C   UNL     1     138.306 138.303 140.888  1.00  0.00    -0.028 C 
BRANCH   5   6
ATOM      6  C   UNL     1     138.011 139.787 140.904  1.00  0.00     0.005 C 
ATOM      7  C   UNL     1     136.593 140.023 141.431  1.00  0.00     0.012 C 
ATOM      8  C   UNL     1     139.036 140.506 141.785  1.00  0.00     0.012 C 
ENDBRANCH   5   6
ENDBRANCH   3   4
ENDBRANCH   2   3
ENDBRANCH   1   2
BRANCH   1   9
ATOM      9  C   UNL     1     139.162 140.653 137.439  1.00  0.00     0.100 C 
BRANCH   9  10
ATOM     10  C   UNL     1     139.904 140.960 136.173  1.00  0.00     0.220 C 
ATOM     11  O   UNL     1     139.400 141.762 135.341  1.00  0.00    -0.275 OA
ATOM     12  N   UNL     1     141.148 140.304 135.888  1.00  0.00    -0.352 N 
ATOM     13  H   UNL     1     141.568 139.665 136.606  1.00  0.00     0.163 HD
BRANCH  12  14
ATOM     14  C   UNL     1     141.817 140.420 134.595  1.00  0.00     0.151 C 
BRANCH  14  15
ATOM     15  C   UNL     1     142.042 139.053 134.010  1.00  0.00    -0.025 A 
ATOM     16  C   UNL     1     143.318 138.687 133.549  1.00  0.00     0.056 A 
ATOM     17  C   UNL     1     140.998 138.118 133.961  1.00  0.00     0.009 A 
ATOM     18  C   UNL     1     143.551 137.399 133.025  1.00  0.00     0.160 A 
ATOM     19  C   UNL     1     141.223 136.839 133.447  1.00  0.00     0.050 A 
ATOM     20  C   UNL     1     142.490 136.475 132.979  1.00  0.00     0.157 A 
BRANCH  18  21
ATOM     21  O   UNL     1     144.811 137.011 132.542  1.00  0.00    -0.493 OA
ATOM     22  C   UNL     1     145.218 137.104 131.182  1.00  0.00     0.278 C 
ENDBRANCH  18  21
BRANCH  20  23
ATOM     23  O   UNL     1     142.676 135.189 132.473  1.00  0.00    -0.504 OA
ATOM     24  H   UNL     1     142.630 134.987 131.481  1.00  0.00     0.293 HD
ENDBRANCH  20  23
ENDBRANCH  14  15
ENDBRANCH  12  14
ENDBRANCH   9  10
ENDBRANCH   1   9
TORSDOF 10
ENDMDL
MODEL 6
REMARK VINA RESULT:    -5.130      2.318      6.537
REMARK INTER + INTRA:          -9.232
REMARK INTER:                  -7.127
REMARK INTRA:                  -2.105
REMARK UNBOUND:                -1.254
REMARK SMILES COc1cc(CNC(=O)CCCCC=CC(C)C)ccc1O
REMARK SMILES IDX 11 1 12 2 13 3 14 4 15 5 16 6 17 7 18 8 10 9 8 10 9 11 7 12
REMARK SMILES IDX 6 14 5 15 4 16 19 17 3 18 20 19 21 20 2 21 1 22 22 23
REMARK H PARENT 7 13 22 24
REMARK Flexibility Score: inf
ROOT
ATOM      1  C   UNL     1     136.500 140.722 132.722  1.00  0.00     0.010 C 
ENDROOT
BRANCH   1   2
ATOM      2  C   UNL     1     135.286 140.305 133.563  1.00  0.00     0.005 C 
BRANCH   2   3
ATOM      3  C   UNL     1     135.572 139.060 134.415  1.00  0.00     0.027 C 
BRANCH   3   4
ATOM      4  C   UNL     1     136.103 137.909 133.595  1.00  0.00    -0.031 C 
ATOM      5  C   UNL     1     137.358 137.420 133.660  1.00  0.00    -0.028 C 
BRANCH   5   6
ATOM      6  C   UNL     1     138.458 137.941 134.559  1.00  0.00     0.005 C 
ATOM      7  C   UNL     1     139.101 136.774 135.313  1.00  0.00     0.012 C 
ATOM      8  C   UNL     1     139.504 138.679 133.719  1.00  0.00     0.012 C 
ENDBRANCH   5   6
ENDBRANCH   3   4
ENDBRANCH   2   3
ENDBRANCH   1   2
BRANCH   1   9
ATOM      9  C   UNL     1     136.942 142.150 133.066  1.00  0.00     0.100 C 
BRANCH   9  10
ATOM     10  C   UNL     1     138.194 142.121 133.890  1.00  0.00     0.220 C 
ATOM     11  O   UNL     1     139.309 142.288 133.327  1.00  0.00    -0.275 OA
ATOM     12  N   UNL     1     138.124 141.850 135.298  1.00  0.00    -0.352 N 
ATOM     13  H   UNL     1     137.187 141.746 135.756  1.00  0.00     0.163 HD
BRANCH  12  14
ATOM     14  C   UNL     1     139.316 141.625 136.112  1.00  0.00     0.151 C 
BRANCH  14  15
ATOM     15  C   UNL     1     139.042 140.558 137.137  1.00  0.00    -0.025 A 
ATOM     16  C   UNL     1     140.063 140.143 138.009  1.00  0.00     0.056 A 
ATOM     17  C   UNL     1     137.760 140.004 137.263  1.00  0.00     0.009 A 
ATOM     18  C   UNL     1     139.813 139.164 138.993  1.00  0.00     0.160 A 
ATOM     19  C   UNL     1     137.506 139.037 138.239  1.00  0.00     0.050 A 
ATOM     20  C   UNL     1     138.522 138.615 139.102  1.00  0.00     0.157 A 
BRANCH  18  21
ATOM     21  O   UNL     1     140.818 138.718 139.866  1.00  0.00    -0.493 OA
ATOM     22  C   UNL     1     141.035 139.230 141.175  1.00  0.00     0.278 C 
ENDBRANCH  18  21
BRANCH  20  23
ATOM     23  O   UNL     1     138.229 137.648 140.063  1.00  0.00    -0.504 OA
ATOM     24  H   UNL     1     137.920 136.716 139.815  1.00  0.00     0.293 HD
ENDBRANCH  20  23
ENDBRANCH  14  15
ENDBRANCH  12  14
ENDBRANCH   9  10
ENDBRANCH   1   9
TORSDOF 10
ENDMDL
MODEL 7
REMARK VINA RESULT:    -5.127      2.234      6.378
REMARK INTER + INTRA:          -9.228
REMARK INTER:                  -6.914
REMARK INTRA:                  -2.315
REMARK UNBOUND:                -1.254
REMARK SMILES COc1cc(CNC(=O)CCCCC=CC(C)C)ccc1O
REMARK SMILES IDX 11 1 12 2 13 3 14 4 15 5 16 6 17 7 18 8 10 9 8 10 9 11 7 12
REMARK SMILES IDX 6 14 5 15 4 16 19 17 3 18 20 19 21 20 2 21 1 22 22 23
REMARK H PARENT 7 13 22 24
REMARK Flexibility Score: inf
ROOT
ATOM      1  C   UNL     1     142.575 141.251 133.617  1.00  0.00     0.010 C 
ENDROOT
BRANCH   1   2
ATOM      2  C   UNL     1     142.715 139.922 132.863  1.00  0.00     0.005 C 
BRANCH   2   3
ATOM      3  C   UNL     1     142.818 138.723 133.817  1.00  0.00     0.027 C 
BRANCH   3   4
ATOM      4  C   UNL     1     141.976 138.899 135.057  1.00  0.00    -0.031 C 
ATOM      5  C   UNL     1     140.748 138.374 135.247  1.00  0.00    -0.028 C 
BRANCH   5   6
ATOM      6  C   UNL     1     139.995 137.522 134.248  1.00  0.00     0.005 C 
ATOM      7  C   UNL     1     139.171 136.467 134.991  1.00  0.00     0.012 C 
ATOM      8  C   UNL     1     139.084 138.411 133.396  1.00  0.00     0.012 C 
ENDBRANCH   5   6
ENDBRANCH   3   4
ENDBRANCH   2   3
ENDBRANCH   1   2
BRANCH   1   9
ATOM      9  C   UNL     1     141.571 142.175 132.918  1.00  0.00     0.100 C 
BRANCH   9  10
ATOM     10  C   UNL     1     140.202 141.989 133.499  1.00  0.00     0.220 C 
ATOM     11  O   UNL     1     139.210 141.897 132.726  1.00  0.00    -0.275 OA
ATOM     12  N   UNL     1     140.018 141.971 134.922  1.00  0.00    -0.352 N 
ATOM     13  H   UNL     1     140.857 142.017 135.549  1.00  0.00     0.163 HD
BRANCH  12  14
ATOM     14  C   UNL     1     138.696 141.982 135.542  1.00  0.00     0.151 C 
BRANCH  14  15
ATOM     15  C   UNL     1     138.591 140.865 136.545  1.00  0.00    -0.025 A 
ATOM     16  C   UNL     1     139.454 140.835 137.654  1.00  0.00     0.056 A 
ATOM     17  C   UNL     1     137.608 139.875 136.410  1.00  0.00     0.009 A 
ATOM     18  C   UNL     1     139.350 139.811 138.617  1.00  0.00     0.160 A 
ATOM     19  C   UNL     1     137.497 138.861 137.363  1.00  0.00     0.050 A 
ATOM     20  C   UNL     1     138.360 138.823 138.464  1.00  0.00     0.157 A 
BRANCH  18  21
ATOM     21  O   UNL     1     140.209 139.746 139.727  1.00  0.00    -0.493 OA
ATOM     22  C   UNL     1     140.008 140.453 140.945  1.00  0.00     0.278 C 
ENDBRANCH  18  21
BRANCH  20  23
ATOM     23  O   UNL     1     138.217 137.794 139.394  1.00  0.00    -0.504 OA
ATOM     24  H   UNL     1     138.998 137.446 139.939  1.00  0.00     0.293 HD
ENDBRANCH  20  23
ENDBRANCH  14  15
ENDBRANCH  12  14
ENDBRANCH   9  10
ENDBRANCH   1   9
TORSDOF 10
ENDMDL
MODEL 8
REMARK VINA RESULT:    -5.111      2.454      3.766
REMARK INTER + INTRA:          -9.204
REMARK INTER:                  -7.662
REMARK INTRA:                  -1.542
REMARK UNBOUND:                -1.254
REMARK SMILES COc1cc(CNC(=O)CCCCC=CC(C)C)ccc1O
REMARK SMILES IDX 11 1 12 2 13 3 14 4 15 5 16 6 17 7 18 8 10 9 8 10 9 11 7 12
REMARK SMILES IDX 6 14 5 15 4 16 19 17 3 18 20 19 21 20 2 21 1 22 22 23
REMARK H PARENT 7 13 22 24
REMARK Flexibility Score: inf
ROOT
ATOM      1  C   UNL     1     137.645 139.926 137.134  1.00  0.00     0.010 C 
ENDROOT
BRANCH   1   2
ATOM      2  C   UNL     1     138.975 140.582 137.532  1.00  0.00     0.005 C 
BRANCH   2   3
ATOM      3  C   UNL     1     139.066 140.835 139.043  1.00  0.00     0.027 C 
BRANCH   3   4
ATOM      4  C   UNL     1     140.116 139.981 139.710  1.00  0.00    -0.031 C 
ATOM      5  C   UNL     1     139.868 138.929 140.517  1.00  0.00    -0.028 C 
BRANCH   5   6
ATOM      6  C   UNL     1     138.494 138.424 140.902  1.00  0.00     0.005 C 
ATOM      7  C   UNL     1     138.564 136.925 141.205  1.00  0.00     0.012 C 
ATOM      8  C   UNL     1     137.986 139.194 142.125  1.00  0.00     0.012 C 
ENDBRANCH   5   6
ENDBRANCH   3   4
ENDBRANCH   2   3
ENDBRANCH   1   2
BRANCH   1   9
ATOM      9  C   UNL     1     137.700 138.407 137.340  1.00  0.00     0.100 C 
BRANCH   9  10
ATOM     10  C   UNL     1     138.906 137.834 136.660  1.00  0.00     0.220 C 
ATOM     11  O   UNL     1     139.843 137.361 137.358  1.00  0.00    -0.275 OA
ATOM     12  N   UNL     1     139.015 137.875 135.229  1.00  0.00    -0.352 N 
ATOM     13  H   UNL     1     138.213 138.243 134.663  1.00  0.00     0.163 HD
BRANCH  12  14
ATOM     14  C   UNL     1     140.241 137.506 134.526  1.00  0.00     0.151 C 
BRANCH  14  15
ATOM     15  C   UNL     1     141.011 138.744 134.154  1.00  0.00    -0.025 A 
ATOM     16  C   UNL     1     140.372 139.995 134.155  1.00  0.00     0.056 A 
ATOM     17  C   UNL     1     142.377 138.669 133.848  1.00  0.00     0.009 A 
ATOM     18  C   UNL     1     141.086 141.167 133.835  1.00  0.00     0.160 A 
ATOM     19  C   UNL     1     143.091 139.827 133.534  1.00  0.00     0.050 A 
ATOM     20  C   UNL     1     142.456 141.073 133.527  1.00  0.00     0.157 A 
BRANCH  18  21
ATOM     21  O   UNL     1     140.470 142.429 133.813  1.00  0.00    -0.493 OA
ATOM     22  C   UNL     1     139.662 142.914 132.747  1.00  0.00     0.278 C 
ENDBRANCH  18  21
BRANCH  20  23
ATOM     23  O   UNL     1     143.203 142.207 133.209  1.00  0.00    -0.504 OA
ATOM     24  H   UNL     1     143.957 142.185 132.532  1.00  0.00     0.293 HD
ENDBRANCH  20  23
ENDBRANCH  14  15
ENDBRANCH  12  14
ENDBRANCH   9  10
ENDBRANCH   1   9
TORSDOF 10
ENDMDL
MODEL 9
REMARK VINA RESULT:    -5.101      2.579      6.199
REMARK INTER + INTRA:          -9.188
REMARK INTER:                  -7.043
REMARK INTRA:                  -2.145
REMARK UNBOUND:                -1.254
REMARK SMILES COc1cc(CNC(=O)CCCCC=CC(C)C)ccc1O
REMARK SMILES IDX 11 1 12 2 13 3 14 4 15 5 16 6 17 7 18 8 10 9 8 10 9 11 7 12
REMARK SMILES IDX 6 14 5 15 4 16 19 17 3 18 20 19 21 20 2 21 1 22 22 23
REMARK H PARENT 7 13 22 24
REMARK Flexibility Score: inf
ROOT
ATOM      1  C   UNL     1     140.652 142.058 132.495  1.00  0.00     0.010 C 
ENDROOT
BRANCH   1   2
ATOM      2  C   UNL     1     139.865 143.255 133.045  1.00  0.00     0.005 C 
BRANCH   2   3
ATOM      3  C   UNL     1     138.514 142.834 133.640  1.00  0.00     0.027 C 
BRANCH   3   4
ATOM      4  C   UNL     1     138.651 142.233 135.017  1.00  0.00    -0.031 C 
ATOM      5  C   UNL     1     138.249 140.995 135.371  1.00  0.00    -0.028 C 
BRANCH   5   6
ATOM      6  C   UNL     1     137.584 139.993 134.452  1.00  0.00     0.005 C 
ATOM      7  C   UNL     1     138.654 139.180 133.719  1.00  0.00     0.012 C 
ATOM      8  C   UNL     1     136.676 139.069 135.268  1.00  0.00     0.012 C 
ENDBRANCH   5   6
ENDBRANCH   3   4
ENDBRANCH   2   3
ENDBRANCH   1   2
BRANCH   1   9
ATOM      9  C   UNL     1     142.060 142.001 133.101  1.00  0.00     0.100 C 
BRANCH   9  10
ATOM     10  C   UNL     1     142.292 140.670 133.750  1.00  0.00     0.220 C 
ATOM     11  O   UNL     1     142.842 139.748 133.089  1.00  0.00    -0.275 OA
ATOM     12  N   UNL     1     141.841 140.433 135.092  1.00  0.00    -0.352 N 
ATOM     13  H   UNL     1     141.414 141.220 135.638  1.00  0.00     0.163 HD
BRANCH  12  14
ATOM     14  C   UNL     1     141.870 139.108 135.706  1.00  0.00     0.151 C 
BRANCH  14  15
ATOM     15  C   UNL     1     140.845 139.030 136.804  1.00  0.00    -0.025 A 
ATOM     16  C   UNL     1     140.685 140.106 137.693  1.00  0.00     0.056 A 
ATOM     17  C   UNL     1     140.012 137.908 136.923  1.00  0.00     0.009 A 
ATOM     18  C   UNL     1     139.710 140.059 138.710  1.00  0.00     0.160 A 
ATOM     19  C   UNL     1     139.041 137.858 137.926  1.00  0.00     0.050 A 
ATOM     20  C   UNL     1     138.885 138.924 138.818  1.00  0.00     0.157 A 
BRANCH  18  21
ATOM     21  O   UNL     1     139.538 141.113 139.623  1.00  0.00    -0.493 OA
ATOM     22  C   UNL     1     140.019 141.107 140.962  1.00  0.00     0.278 C 
ENDBRANCH  18  21
BRANCH  20  23
ATOM     23  O   UNL     1     137.905 138.836 139.806  1.00  0.00    -0.504 OA
ATOM     24  H   UNL     1     137.012 138.387 139.642  1.00  0.00     0.293 HD
ENDBRANCH  20  23
ENDBRANCH  14  15
ENDBRANCH  12  14
ENDBRANCH   9  10
ENDBRANCH   1   9
TORSDOF 10
ENDMDL
