MODEL 1
REMARK VINA RESULT:    -3.566      0.000      0.000
REMARK INTER + INTRA:          -4.072
REMARK INTER:                  -3.879
REMARK INTRA:                  -0.193
REMARK UNBOUND:                -0.193
REMARK SMILES C=C(C)[C@H]1CC=C(C)[C@H](O)C1
REMARK SMILES IDX 8 1 7 2 6 3 5 4 4 5 11 6 9 7 10 8 2 10 1 11 3 12
REMARK H PARENT 10 9
REMARK Flexibility Score: inf
ROOT
ATOM      1  C   UNL     1     -18.751 -16.000  13.125  1.00  0.00     0.042 C 
ATOM      2  C   UNL     1     -18.782 -15.604  11.671  1.00  0.00    -0.049 C 
ATOM      3  C   UNL     1     -19.084 -16.550  10.756  1.00  0.00    -0.025 C 
ATOM      4  C   UNL     1     -19.125 -16.297   9.270  1.00  0.00     0.035 C 
ATOM      5  C   UNL     1     -18.418 -14.996   8.834  1.00  0.00     0.021 C 
ATOM      6  C   UNL     1     -18.706 -13.858   9.824  1.00  0.00     0.044 C 
ATOM      7  C   UNL     1     -18.316 -14.215  11.268  1.00  0.00     0.140 C 
ENDROOT
BRANCH   7   8
ATOM      8  O   UNL     1     -18.872 -13.265  12.140  1.00  0.00    -0.389 OA
ATOM      9  H   UNL     1     -19.803 -13.104  11.835  1.00  0.00     0.211 HD
ENDBRANCH   7   8
BRANCH   5  10
ATOM     10  C   UNL     1     -16.924 -15.159   8.550  1.00  0.00    -0.077 C 
ATOM     11  C   UNL     1     -16.132 -14.121   8.230  1.00  0.00     0.008 C 
ATOM     12  C   UNL     1     -16.304 -16.531   8.615  1.00  0.00     0.039 C 
ENDBRANCH   5  10
TORSDOF 2
ENDMDL
MODEL 2
REMARK VINA RESULT:    -3.049      1.522      2.083
REMARK INTER + INTRA:          -3.510
REMARK INTER:                  -3.606
REMARK INTRA:                   0.096
REMARK UNBOUND:                -0.193
REMARK SMILES C=C(C)[C@H]1CC=C(C)[C@H](O)C1
REMARK SMILES IDX 8 1 7 2 6 3 5 4 4 5 11 6 9 7 10 8 2 10 1 11 3 12
REMARK H PARENT 10 9
REMARK Flexibility Score: inf
ROOT
ATOM      1  C   UNL     1     -19.125 -12.580  12.355  1.00  0.00     0.042 C 
ATOM      2  C   UNL     1     -18.846 -13.685  11.369  1.00  0.00    -0.049 C 
ATOM      3  C   UNL     1     -18.902 -14.962  11.806  1.00  0.00    -0.025 C 
ATOM      4  C   UNL     1     -18.620 -16.160  10.935  1.00  0.00     0.035 C 
ATOM      5  C   UNL     1     -17.882 -15.823   9.622  1.00  0.00     0.021 C 
ATOM      6  C   UNL     1     -18.425 -14.525   9.006  1.00  0.00     0.044 C 
ATOM      7  C   UNL     1     -18.353 -13.333   9.976  1.00  0.00     0.140 C 
ENDROOT
BRANCH   7   8
ATOM      8  O   UNL     1     -19.124 -12.278   9.462  1.00  0.00    -0.389 OA
ATOM      9  H   UNL     1     -19.119 -11.557  10.146  1.00  0.00     0.211 HD
ENDBRANCH   7   8
BRANCH   5  10
ATOM     10  C   UNL     1     -16.357 -15.818   9.743  1.00  0.00    -0.077 C 
ATOM     11  C   UNL     1     -15.721 -15.376  10.842  1.00  0.00     0.008 C 
ATOM     12  C   UNL     1     -15.522 -16.312   8.590  1.00  0.00     0.039 C 
ENDBRANCH   5  10
TORSDOF 2
ENDMDL
MODEL 3
REMARK VINA RESULT:    -3.012      1.940      4.085
REMARK INTER + INTRA:          -3.469
REMARK INTER:                  -3.680
REMARK INTRA:                   0.210
REMARK UNBOUND:                -0.193
REMARK SMILES C=C(C)[C@H]1CC=C(C)[C@H](O)C1
REMARK SMILES IDX 8 1 7 2 6 3 5 4 4 5 11 6 9 7 10 8 2 10 1 11 3 12
REMARK H PARENT 10 9
REMARK Flexibility Score: inf
ROOT
ATOM      1  C   UNL     1     -15.386 -16.218   9.133  1.00  0.00     0.042 C 
ATOM      2  C   UNL     1     -16.605 -15.347   9.292  1.00  0.00    -0.049 C 
ATOM      3  C   UNL     1     -16.433 -14.009   9.352  1.00  0.00    -0.025 C 
ATOM      4  C   UNL     1     -17.561 -13.025   9.536  1.00  0.00     0.035 C 
ATOM      5  C   UNL     1     -18.872 -13.660  10.045  1.00  0.00     0.021 C 
ATOM      6  C   UNL     1     -19.125 -15.014   9.366  1.00  0.00     0.044 C 
ATOM      7  C   UNL     1     -17.955 -15.996   9.547  1.00  0.00     0.140 C 
ENDROOT
BRANCH   7   8
ATOM      8  O   UNL     1     -18.125 -17.077   8.667  1.00  0.00    -0.389 OA
ATOM      9  H   UNL     1     -18.999 -17.494   8.889  1.00  0.00     0.211 HD
ENDBRANCH   7   8
BRANCH   5  10
ATOM     10  C   UNL     1     -18.979 -13.742  11.568  1.00  0.00    -0.077 C 
ATOM     11  C   UNL     1     -18.959 -14.911  12.232  1.00  0.00     0.008 C 
ATOM     12  C   UNL     1     -19.125 -12.474  12.369  1.00  0.00     0.039 C 
ENDBRANCH   5  10
TORSDOF 2
ENDMDL
MODEL 4
REMARK VINA RESULT:    -2.988      1.944      3.720
REMARK INTER + INTRA:          -3.443
REMARK INTER:                  -3.437
REMARK INTRA:                  -0.006
REMARK UNBOUND:                -0.193
REMARK SMILES C=C(C)[C@H]1CC=C(C)[C@H](O)C1
REMARK SMILES IDX 8 1 7 2 6 3 5 4 4 5 11 6 9 7 10 8 2 10 1 11 3 12
REMARK H PARENT 10 9
REMARK Flexibility Score: inf
ROOT
ATOM      1  C   UNL     1     -15.496 -15.970   7.875  1.00  0.00     0.042 C 
ATOM      2  C   UNL     1     -16.644 -15.738   8.824  1.00  0.00    -0.049 C 
ATOM      3  C   UNL     1     -17.892 -15.665   8.312  1.00  0.00    -0.025 C 
ATOM      4  C   UNL     1     -19.125 -15.410   9.143  1.00  0.00     0.035 C 
ATOM      5  C   UNL     1     -18.831 -14.848  10.550  1.00  0.00     0.021 C 
ATOM      6  C   UNL     1     -17.605 -15.535  11.169  1.00  0.00     0.044 C 
ATOM      7  C   UNL     1     -16.353 -15.428  10.282  1.00  0.00     0.140 C 
ENDROOT
BRANCH   7   8
ATOM      8  O   UNL     1     -15.376 -16.316  10.761  1.00  0.00    -0.389 OA
ATOM      9  H   UNL     1     -15.059 -16.844   9.981  1.00  0.00     0.211 HD
ENDBRANCH   7   8
BRANCH   5  10
ATOM     10  C   UNL     1     -18.735 -13.322  10.608  1.00  0.00    -0.077 C 
ATOM     11  C   UNL     1     -18.370 -12.580   9.548  1.00  0.00     0.008 C 
ATOM     12  C   UNL     1     -19.046 -12.610  11.899  1.00  0.00     0.039 C 
ENDBRANCH   5  10
TORSDOF 2
ENDMDL
MODEL 5
REMARK VINA RESULT:    -2.362      1.817      3.935
REMARK INTER + INTRA:          -2.762
REMARK INTER:                  -3.000
REMARK INTRA:                   0.238
REMARK UNBOUND:                -0.193
REMARK SMILES C=C(C)[C@H]1CC=C(C)[C@H](O)C1
REMARK SMILES IDX 8 1 7 2 6 3 5 4 4 5 11 6 9 7 10 8 2 10 1 11 3 12
REMARK H PARENT 10 9
REMARK Flexibility Score: inf
ROOT
ATOM      1  C   UNL     1     -16.763 -13.213   7.988  1.00  0.00     0.042 C 
ATOM      2  C   UNL     1     -17.112 -14.287   8.985  1.00  0.00    -0.049 C 
ATOM      3  C   UNL     1     -18.234 -15.010   8.780  1.00  0.00    -0.025 C 
ATOM      4  C   UNL     1     -18.714 -16.095   9.712  1.00  0.00     0.035 C 
ATOM      5  C   UNL     1     -18.060 -16.060  11.109  1.00  0.00     0.021 C 
ATOM      6  C   UNL     1     -16.563 -15.731  11.005  1.00  0.00     0.044 C 
ATOM      7  C   UNL     1     -16.296 -14.412  10.261  1.00  0.00     0.140 C 
ENDROOT
BRANCH   7   8
ATOM      8  O   UNL     1     -14.929 -14.331   9.949  1.00  0.00    -0.389 OA
ATOM      9  H   UNL     1     -14.638 -13.406  10.164  1.00  0.00     0.211 HD
ENDBRANCH   7   8
BRANCH   5  10
ATOM     10  C   UNL     1     -18.784 -15.168  12.118  1.00  0.00    -0.077 C 
ATOM     11  C   UNL     1     -19.125 -13.896  11.844  1.00  0.00     0.008 C 
ATOM     12  C   UNL     1     -19.125 -15.716  13.480  1.00  0.00     0.039 C 
ENDBRANCH   5  10
TORSDOF 2
ENDMDL
