MODEL 1
REMARK VINA RESULT:    -3.526      0.000      0.000
REMARK INTER + INTRA:          -5.703
REMARK INTER:                  -4.969
REMARK INTRA:                  -0.734
REMARK UNBOUND:                -0.734
REMARK SMILES CCCCCCCCC(=O)[O-]
REMARK SMILES IDX 6 1 7 2 8 3 9 4 10 5 11 6 5 7 4 8 3 9 2 10 1 11
REMARK H PARENT
REMARK Flexibility Score: inf
ROOT
ATOM      1  C   UNL     1     187.251 188.341 170.355  1.00  0.00     0.000 C 
ENDROOT
BRANCH   1   2
ATOM      2  C   UNL     1     188.502 187.608 170.862  1.00  0.00     0.006 C 
BRANCH   2   3
ATOM      3  C   UNL     1     188.172 186.219 171.427  1.00  0.00     0.053 C 
BRANCH   3   4
ATOM      4  C   UNL     1     188.922 185.942 172.694  1.00  0.00     0.041 C 
ATOM      5  O   UNL     1     190.075 186.418 172.866  1.00  0.00    -0.550 OA
ATOM      6  O   UNL     1     188.360 185.129 173.671  1.00  0.00    -0.550 OA
ENDBRANCH   3   4
ENDBRANCH   2   3
ENDBRANCH   1   2
BRANCH   1   7
ATOM      7  C   UNL     1     186.011 187.445 170.453  1.00  0.00     0.000 C 
BRANCH   7   8
ATOM      8  C   UNL     1     185.145 187.565 169.194  1.00  0.00    -0.000 C 
BRANCH   8   9
ATOM      9  C   UNL     1     185.749 186.767 168.033  1.00  0.00    -0.000 C 
BRANCH   9  10
ATOM     10  C   UNL     1     186.095 185.338 168.470  1.00  0.00    -0.003 C 
ATOM     11  C   UNL     1     187.487 184.936 167.991  1.00  0.00     0.004 C 
ENDBRANCH   9  10
ENDBRANCH   8   9
ENDBRANCH   7   8
ENDBRANCH   1   7
TORSDOF 7
ENDMDL
MODEL 2
REMARK VINA RESULT:    -3.483      2.832      4.804
REMARK INTER + INTRA:          -5.642
REMARK INTER:                  -4.769
REMARK INTRA:                  -0.873
REMARK UNBOUND:                -0.734
REMARK SMILES CCCCCCCCC(=O)[O-]
REMARK SMILES IDX 6 1 7 2 8 3 9 4 10 5 11 6 5 7 4 8 3 9 2 10 1 11
REMARK H PARENT
REMARK Flexibility Score: inf
ROOT
ATOM      1  C   UNL     1     187.496 185.060 168.139  1.00  0.00     0.000 C 
ENDROOT
BRANCH   1   2
ATOM      2  C   UNL     1     186.057 185.344 168.596  1.00  0.00     0.006 C 
BRANCH   2   3
ATOM      3  C   UNL     1     185.594 186.755 168.211  1.00  0.00     0.053 C 
BRANCH   3   4
ATOM      4  C   UNL     1     184.702 187.352 169.257  1.00  0.00     0.041 C 
ATOM      5  O   UNL     1     184.901 187.107 170.476  1.00  0.00    -0.550 OA
ATOM      6  O   UNL     1     183.629 188.152 168.883  1.00  0.00    -0.550 OA
ENDBRANCH   3   4
ENDBRANCH   2   3
ENDBRANCH   1   2
BRANCH   1   7
ATOM      7  C   UNL     1     188.480 186.048 168.776  1.00  0.00     0.000 C 
BRANCH   7   8
ATOM      8  C   UNL     1     188.492 185.906 170.303  1.00  0.00    -0.000 C 
BRANCH   8   9
ATOM      9  C   UNL     1     188.406 187.277 170.983  1.00  0.00    -0.000 C 
BRANCH   9  10
ATOM     10  C   UNL     1     188.525 188.409 169.955  1.00  0.00    -0.003 C 
ATOM     11  C   UNL     1     187.506 189.511 170.228  1.00  0.00     0.004 C 
ENDBRANCH   9  10
ENDBRANCH   8   9
ENDBRANCH   7   8
ENDBRANCH   1   7
TORSDOF 7
ENDMDL
MODEL 3
REMARK VINA RESULT:    -3.307      3.523      5.258
REMARK INTER + INTRA:          -5.394
REMARK INTER:                  -4.978
REMARK INTRA:                  -0.416
REMARK UNBOUND:                -0.734
REMARK SMILES CCCCCCCCC(=O)[O-]
REMARK SMILES IDX 6 1 7 2 8 3 9 4 10 5 11 6 5 7 4 8 3 9 2 10 1 11
REMARK H PARENT
REMARK Flexibility Score: inf
ROOT
ATOM      1  C   UNL     1     185.445 186.905 168.523  1.00  0.00     0.000 C 
ENDROOT
BRANCH   1   2
ATOM      2  C   UNL     1     184.694 187.558 169.693  1.00  0.00     0.006 C 
BRANCH   2   3
ATOM      3  C   UNL     1     183.310 188.075 169.279  1.00  0.00     0.053 C 
BRANCH   3   4
ATOM      4  C   UNL     1     182.293 187.871 170.360  1.00  0.00     0.041 C 
ATOM      5  O   UNL     1     182.384 186.886 171.138  1.00  0.00    -0.550 OA
ATOM      6  O   UNL     1     181.226 188.752 170.487  1.00  0.00    -0.550 OA
ENDBRANCH   3   4
ENDBRANCH   2   3
ENDBRANCH   1   2
BRANCH   1   7
ATOM      7  C   UNL     1     186.948 187.195 168.604  1.00  0.00     0.000 C 
BRANCH   7   8
ATOM      8  C   UNL     1     187.238 188.325 169.600  1.00  0.00    -0.000 C 
BRANCH   8   9
ATOM      9  C   UNL     1     188.282 187.891 170.635  1.00  0.00    -0.000 C 
BRANCH   9  10
ATOM     10  C   UNL     1     187.882 186.566 171.297  1.00  0.00    -0.003 C 
ATOM     11  C   UNL     1     188.967 186.076 172.251  1.00  0.00     0.004 C 
ENDBRANCH   9  10
ENDBRANCH   8   9
ENDBRANCH   7   8
ENDBRANCH   1   7
TORSDOF 7
ENDMDL
MODEL 4
REMARK VINA RESULT:    -3.297      3.008      3.923
REMARK INTER + INTRA:          -5.380
REMARK INTER:                  -4.626
REMARK INTRA:                  -0.754
REMARK UNBOUND:                -0.734
REMARK SMILES CCCCCCCCC(=O)[O-]
REMARK SMILES IDX 6 1 7 2 8 3 9 4 10 5 11 6 5 7 4 8 3 9 2 10 1 11
REMARK H PARENT
REMARK Flexibility Score: inf
ROOT
ATOM      1  C   UNL     1     188.133 187.511 169.629  1.00  0.00     0.000 C 
ENDROOT
BRANCH   1   2
ATOM      2  C   UNL     1     186.802 188.174 170.015  1.00  0.00     0.006 C 
BRANCH   2   3
ATOM      3  C   UNL     1     185.882 187.221 170.790  1.00  0.00     0.053 C 
BRANCH   3   4
ATOM      4  C   UNL     1     184.484 187.238 170.251  1.00  0.00     0.041 C 
ATOM      5  O   UNL     1     183.509 186.997 171.011  1.00  0.00    -0.550 OA
ATOM      6  O   UNL     1     184.261 187.486 168.902  1.00  0.00    -0.550 OA
ENDBRANCH   3   4
ENDBRANCH   2   3
ENDBRANCH   1   2
BRANCH   1   7
ATOM      7  C   UNL     1     188.145 186.030 170.025  1.00  0.00     0.000 C 
BRANCH   7   8
ATOM      8  C   UNL     1     188.276 185.131 168.790  1.00  0.00    -0.000 C 
BRANCH   8   9
ATOM      9  C   UNL     1     186.897 184.731 168.252  1.00  0.00    -0.000 C 
BRANCH   9  10
ATOM     10  C   UNL     1     186.812 184.954 166.738  1.00  0.00    -0.003 C 
ATOM     11  C   UNL     1     186.549 186.421 166.410  1.00  0.00     0.004 C 
ENDBRANCH   9  10
ENDBRANCH   8   9
ENDBRANCH   7   8
ENDBRANCH   1   7
TORSDOF 7
ENDMDL
MODEL 5
REMARK VINA RESULT:    -3.296      3.145      4.929
REMARK INTER + INTRA:          -5.379
REMARK INTER:                  -4.631
REMARK INTRA:                  -0.748
REMARK UNBOUND:                -0.734
REMARK SMILES CCCCCCCCC(=O)[O-]
REMARK SMILES IDX 6 1 7 2 8 3 9 4 10 5 11 6 5 7 4 8 3 9 2 10 1 11
REMARK H PARENT
REMARK Flexibility Score: inf
ROOT
ATOM      1  C   UNL     1     186.106 185.427 168.603  1.00  0.00     0.000 C 
ENDROOT
BRANCH   1   2
ATOM      2  C   UNL     1     185.680 186.875 168.319  1.00  0.00     0.006 C 
BRANCH   2   3
ATOM      3  C   UNL     1     185.284 187.625 169.599  1.00  0.00     0.053 C 
BRANCH   3   4
ATOM      4  C   UNL     1     183.800 187.629 169.804  1.00  0.00     0.041 C 
ATOM      5  O   UNL     1     183.309 187.229 170.893  1.00  0.00    -0.550 OA
ATOM      6  O   UNL     1     182.956 188.042 168.780  1.00  0.00    -0.550 OA
ENDBRANCH   3   4
ENDBRANCH   2   3
ENDBRANCH   1   2
BRANCH   1   7
ATOM      7  C   UNL     1     187.544 185.176 168.137  1.00  0.00     0.000 C 
BRANCH   7   8
ATOM      8  C   UNL     1     188.515 185.179 169.324  1.00  0.00    -0.000 C 
BRANCH   8   9
ATOM      9  C   UNL     1     189.243 186.524 169.435  1.00  0.00    -0.000 C 
BRANCH   9  10
ATOM     10  C   UNL     1     188.806 187.282 170.694  1.00  0.00    -0.003 C 
ATOM     11  C   UNL     1     188.125 186.350 171.691  1.00  0.00     0.004 C 
ENDBRANCH   9  10
ENDBRANCH   8   9
ENDBRANCH   7   8
ENDBRANCH   1   7
TORSDOF 7
ENDMDL
MODEL 6
REMARK VINA RESULT:    -3.268      0.987      1.530
REMARK INTER + INTRA:          -5.339
REMARK INTER:                  -4.593
REMARK INTRA:                  -0.747
REMARK UNBOUND:                -0.734
REMARK SMILES CCCCCCCCC(=O)[O-]
REMARK SMILES IDX 6 1 7 2 8 3 9 4 10 5 11 6 5 7 4 8 3 9 2 10 1 11
REMARK H PARENT
REMARK Flexibility Score: inf
ROOT
ATOM      1  C   UNL     1     186.280 188.133 169.525  1.00  0.00     0.000 C 
ENDROOT
BRANCH   1   2
ATOM      2  C   UNL     1     187.429 187.840 170.501  1.00  0.00     0.006 C 
BRANCH   2   3
ATOM      3  C   UNL     1     187.222 186.523 171.263  1.00  0.00     0.053 C 
BRANCH   3   4
ATOM      4  C   UNL     1     188.413 186.172 172.101  1.00  0.00     0.041 C 
ATOM      5  O   UNL     1     189.566 186.533 171.747  1.00  0.00    -0.550 OA
ATOM      6  O   UNL     1     188.252 185.418 173.257  1.00  0.00    -0.550 OA
ENDBRANCH   3   4
ENDBRANCH   2   3
ENDBRANCH   1   2
BRANCH   1   7
ATOM      7  C   UNL     1     185.543 186.845 169.139  1.00  0.00     0.000 C 
BRANCH   7   8
ATOM      8  C   UNL     1     185.973 186.360 167.749  1.00  0.00    -0.000 C 
BRANCH   8   9
ATOM      9  C   UNL     1     186.707 185.017 167.838  1.00  0.00    -0.000 C 
BRANCH   9  10
ATOM     10  C   UNL     1     188.115 185.121 167.239  1.00  0.00    -0.003 C 
ATOM     11  C   UNL     1     189.165 185.317 168.328  1.00  0.00     0.004 C 
ENDBRANCH   9  10
ENDBRANCH   8   9
ENDBRANCH   7   8
ENDBRANCH   1   7
TORSDOF 7
ENDMDL
MODEL 7
REMARK VINA RESULT:    -3.265      1.703      2.748
REMARK INTER + INTRA:          -5.336
REMARK INTER:                  -4.650
REMARK INTRA:                  -0.686
REMARK UNBOUND:                -0.734
REMARK SMILES CCCCCCCCC(=O)[O-]
REMARK SMILES IDX 6 1 7 2 8 3 9 4 10 5 11 6 5 7 4 8 3 9 2 10 1 11
REMARK H PARENT
REMARK Flexibility Score: inf
ROOT
ATOM      1  C   UNL     1     189.283 185.856 170.543  1.00  0.00     0.000 C 
ENDROOT
BRANCH   1   2
ATOM      2  C   UNL     1     189.398 186.808 171.743  1.00  0.00     0.006 C 
BRANCH   2   3
ATOM      3  C   UNL     1     190.107 186.154 172.937  1.00  0.00     0.053 C 
BRANCH   3   4
ATOM      4  C   UNL     1     189.293 185.043 173.526  1.00  0.00     0.041 C 
ATOM      5  O   UNL     1     189.784 183.889 173.639  1.00  0.00    -0.550 OA
ATOM      6  O   UNL     1     187.980 185.274 173.918  1.00  0.00    -0.550 OA
ENDBRANCH   3   4
ENDBRANCH   2   3
ENDBRANCH   1   2
BRANCH   1   7
ATOM      7  C   UNL     1     187.873 185.898 169.942  1.00  0.00     0.000 C 
BRANCH   7   8
ATOM      8  C   UNL     1     186.875 186.526 170.922  1.00  0.00    -0.000 C 
BRANCH   8   9
ATOM      9  C   UNL     1     186.011 187.583 170.224  1.00  0.00    -0.000 C 
BRANCH   9  10
ATOM     10  C   UNL     1     186.861 188.466 169.302  1.00  0.00    -0.003 C 
ATOM     11  C   UNL     1     187.579 189.557 170.092  1.00  0.00     0.004 C 
ENDBRANCH   9  10
ENDBRANCH   8   9
ENDBRANCH   7   8
ENDBRANCH   1   7
TORSDOF 7
ENDMDL
MODEL 8
REMARK VINA RESULT:    -3.248      2.779      4.391
REMARK INTER + INTRA:          -5.311
REMARK INTER:                  -4.657
REMARK INTRA:                  -0.654
REMARK UNBOUND:                -0.734
REMARK SMILES CCCCCCCCC(=O)[O-]
REMARK SMILES IDX 6 1 7 2 8 3 9 4 10 5 11 6 5 7 4 8 3 9 2 10 1 11
REMARK H PARENT
REMARK Flexibility Score: inf
ROOT
ATOM      1  C   UNL     1     185.194 187.639 169.644  1.00  0.00     0.000 C 
ENDROOT
BRANCH   1   2
ATOM      2  C   UNL     1     185.458 186.839 168.359  1.00  0.00     0.006 C 
BRANCH   2   3
ATOM      3  C   UNL     1     186.025 185.443 168.651  1.00  0.00     0.053 C 
BRANCH   3   4
ATOM      4  C   UNL     1     187.134 185.085 167.709  1.00  0.00     0.041 C 
ATOM      5  O   UNL     1     188.332 185.135 168.092  1.00  0.00    -0.550 OA
ATOM      6  O   UNL     1     186.845 184.729 166.397  1.00  0.00    -0.550 OA
ENDBRANCH   3   4
ENDBRANCH   2   3
ENDBRANCH   1   2
BRANCH   1   7
ATOM      7  C   UNL     1     186.335 187.454 170.651  1.00  0.00     0.000 C 
BRANCH   7   8
ATOM      8  C   UNL     1     187.492 188.416 170.354  1.00  0.00    -0.000 C 
BRANCH   8   9
ATOM      9  C   UNL     1     188.846 187.723 170.549  1.00  0.00    -0.000 C 
BRANCH   9  10
ATOM     10  C   UNL     1     188.681 186.395 171.297  1.00  0.00    -0.003 C 
ATOM     11  C   UNL     1     189.776 186.211 172.343  1.00  0.00     0.004 C 
ENDBRANCH   9  10
ENDBRANCH   8   9
ENDBRANCH   7   8
ENDBRANCH   1   7
TORSDOF 7
ENDMDL
MODEL 9
REMARK VINA RESULT:    -3.229      2.407      4.501
REMARK INTER + INTRA:          -5.284
REMARK INTER:                  -4.546
REMARK INTRA:                  -0.738
REMARK UNBOUND:                -0.734
REMARK SMILES CCCCCCCCC(=O)[O-]
REMARK SMILES IDX 6 1 7 2 8 3 9 4 10 5 11 6 5 7 4 8 3 9 2 10 1 11
REMARK H PARENT
REMARK Flexibility Score: inf
ROOT
ATOM      1  C   UNL     1     187.875 185.376 168.283  1.00  0.00     0.000 C 
ENDROOT
BRANCH   1   2
ATOM      2  C   UNL     1     186.381 185.239 168.611  1.00  0.00     0.006 C 
BRANCH   2   3
ATOM      3  C   UNL     1     185.614 186.549 168.384  1.00  0.00     0.053 C 
BRANCH   3   4
ATOM      4  C   UNL     1     185.585 187.398 169.619  1.00  0.00     0.041 C 
ATOM      5  O   UNL     1     186.368 188.377 169.734  1.00  0.00    -0.550 OA
ATOM      6  O   UNL     1     184.716 187.086 170.657  1.00  0.00    -0.550 OA
ENDBRANCH   3   4
ENDBRANCH   2   3
ENDBRANCH   1   2
BRANCH   1   7
ATOM      7  C   UNL     1     188.730 185.254 169.551  1.00  0.00     0.000 C 
BRANCH   7   8
ATOM      8  C   UNL     1     189.447 186.573 169.860  1.00  0.00    -0.000 C 
BRANCH   8   9
ATOM      9  C   UNL     1     189.209 187.000 171.313  1.00  0.00    -0.000 C 
BRANCH   9  10
ATOM     10  C   UNL     1     188.153 186.111 171.981  1.00  0.00    -0.003 C 
ATOM     11  C   UNL     1     188.720 185.414 173.215  1.00  0.00     0.004 C 
ENDBRANCH   9  10
ENDBRANCH   8   9
ENDBRANCH   7   8
ENDBRANCH   1   7
TORSDOF 7
ENDMDL
