MODEL 1
REMARK VINA RESULT:    -4.646      0.000      0.000
REMARK INTER + INTRA:         -10.434
REMARK INTER:                  -8.449
REMARK INTRA:                  -1.985
REMARK UNBOUND:                -1.985
REMARK SMILES CCCCCCCCCCCCCC[C@H](C)C(=O)[O-]
REMARK SMILES IDX 9 1 10 2 11 3 12 4 13 5 14 6 15 7 16 8 17 9 18 10 19 11 8 12
REMARK SMILES IDX 7 13 6 14 5 15 4 16 3 17 2 18 1 19
REMARK H PARENT
REMARK Flexibility Score: inf
ROOT
ATOM      1  C   UNL     1     -15.187  -3.337  31.234  1.00  0.00     0.000 C 
ENDROOT
BRANCH   1   2
ATOM      2  C   UNL     1     -16.463  -2.771  31.880  1.00  0.00     0.000 C 
BRANCH   2   3
ATOM      3  C   UNL     1     -17.108  -3.724  32.909  1.00  0.00     0.000 C 
BRANCH   3   4
ATOM      4  C   UNL     1     -16.724  -3.363  34.355  1.00  0.00     0.000 C 
BRANCH   4   5
ATOM      5  C   UNL     1     -16.465  -1.861  34.544  1.00  0.00     0.001 C 
BRANCH   5   6
ATOM      6  C   UNL     1     -17.722  -1.091  34.986  1.00  0.00     0.009 C 
BRANCH   6   7
ATOM      7  C   UNL     1     -17.469  -0.242  36.249  1.00  0.00     0.032 C 
ATOM      8  C   UNL     1     -17.700  -1.073  37.517  1.00  0.00     0.014 C 
BRANCH   7   9
ATOM      9  C   UNL     1     -18.344   0.983  36.277  1.00  0.00     0.044 C 
ATOM     10  O   UNL     1     -19.511   0.948  35.804  1.00  0.00    -0.550 OA
ATOM     11  O   UNL     1     -17.864   2.164  36.830  1.00  0.00    -0.550 OA
ENDBRANCH   7   9
ENDBRANCH   6   7
ENDBRANCH   5   6
ENDBRANCH   4   5
ENDBRANCH   3   4
ENDBRANCH   2   3
ENDBRANCH   1   2
BRANCH   1  12
ATOM     12  C   UNL     1     -13.907  -2.917  31.973  1.00  0.00     0.000 C 
BRANCH  12  13
ATOM     13  C   UNL     1     -13.016  -4.115  32.336  1.00  0.00    -0.000 C 
BRANCH  13  14
ATOM     14  C   UNL     1     -13.298  -4.651  33.750  1.00  0.00    -0.000 C 
BRANCH  14  15
ATOM     15  C   UNL     1     -13.463  -6.181  33.783  1.00  0.00    -0.000 C 
BRANCH  15  16
ATOM     16  C   UNL     1     -13.037  -6.908  32.492  1.00  0.00    -0.000 C 
BRANCH  16  17
ATOM     17  C   UNL     1     -14.133  -7.766  31.830  1.00  0.00    -0.000 C 
BRANCH  17  18
ATOM     18  C   UNL     1     -15.342  -6.974  31.301  1.00  0.00    -0.003 C 
ATOM     19  C   UNL     1     -16.628  -7.265  32.073  1.00  0.00     0.004 C 
ENDBRANCH  17  18
ENDBRANCH  16  17
ENDBRANCH  15  16
ENDBRANCH  14  15
ENDBRANCH  13  14
ENDBRANCH  12  13
ENDBRANCH   1  12
TORSDOF 14
ENDMDL
MODEL 2
REMARK VINA RESULT:    -4.620      1.060      2.983
REMARK INTER + INTRA:         -10.387
REMARK INTER:                  -8.306
REMARK INTRA:                  -2.080
REMARK UNBOUND:                -1.985
REMARK SMILES CCCCCCCCCCCCCC[C@H](C)C(=O)[O-]
REMARK SMILES IDX 9 1 10 2 11 3 12 4 13 5 14 6 15 7 16 8 17 9 18 10 19 11 8 12
REMARK SMILES IDX 7 13 6 14 5 15 4 16 3 17 2 18 1 19
REMARK H PARENT
REMARK Flexibility Score: inf
ROOT
ATOM      1  C   UNL     1     -12.715  -4.838  34.087  1.00  0.00     0.000 C 
ENDROOT
BRANCH   1   2
ATOM      2  C   UNL     1     -13.853  -3.898  34.518  1.00  0.00     0.000 C 
BRANCH   2   3
ATOM      3  C   UNL     1     -14.951  -4.599  35.346  1.00  0.00     0.000 C 
BRANCH   3   4
ATOM      4  C   UNL     1     -16.007  -3.608  35.867  1.00  0.00     0.000 C 
BRANCH   4   5
ATOM      5  C   UNL     1     -16.013  -2.283  35.091  1.00  0.00     0.001 C 
BRANCH   5   6
ATOM      6  C   UNL     1     -17.326  -1.498  35.264  1.00  0.00     0.009 C 
BRANCH   6   7
ATOM      7  C   UNL     1     -17.249  -0.485  36.426  1.00  0.00     0.032 C 
ATOM      8  C   UNL     1     -17.815  -1.094  37.714  1.00  0.00     0.014 C 
BRANCH   7   9
ATOM      9  C   UNL     1     -17.981   0.788  36.099  1.00  0.00     0.044 C 
ATOM     10  O   UNL     1     -17.347   1.839  35.814  1.00  0.00    -0.550 OA
ATOM     11  O   UNL     1     -19.371   0.809  36.109  1.00  0.00    -0.550 OA
ENDBRANCH   7   9
ENDBRANCH   6   7
ENDBRANCH   5   6
ENDBRANCH   4   5
ENDBRANCH   3   4
ENDBRANCH   2   3
ENDBRANCH   1   2
BRANCH   1  12
ATOM     12  C   UNL     1     -12.928  -5.428  32.683  1.00  0.00     0.000 C 
BRANCH  12  13
ATOM     13  C   UNL     1     -13.193  -6.941  32.714  1.00  0.00    -0.000 C 
BRANCH  13  14
ATOM     14  C   UNL     1     -14.516  -7.321  32.026  1.00  0.00    -0.000 C 
BRANCH  14  15
ATOM     15  C   UNL     1     -15.207  -6.117  31.361  1.00  0.00    -0.000 C 
BRANCH  15  16
ATOM     16  C   UNL     1     -16.690  -5.930  31.737  1.00  0.00    -0.000 C 
BRANCH  16  17
ATOM     17  C   UNL     1     -17.057  -4.537  32.284  1.00  0.00    -0.000 C 
BRANCH  17  18
ATOM     18  C   UNL     1     -16.288  -3.368  31.642  1.00  0.00    -0.003 C 
ATOM     19  C   UNL     1     -17.134  -2.102  31.508  1.00  0.00     0.004 C 
ENDBRANCH  17  18
ENDBRANCH  16  17
ENDBRANCH  15  16
ENDBRANCH  14  15
ENDBRANCH  13  14
ENDBRANCH  12  13
ENDBRANCH   1  12
TORSDOF 14
ENDMDL
MODEL 3
REMARK VINA RESULT:    -4.619      2.267      6.208
REMARK INTER + INTRA:         -10.384
REMARK INTER:                  -8.191
REMARK INTRA:                  -2.193
REMARK UNBOUND:                -1.985
REMARK SMILES CCCCCCCCCCCCCC[C@H](C)C(=O)[O-]
REMARK SMILES IDX 9 1 10 2 11 3 12 4 13 5 14 6 15 7 16 8 17 9 18 10 19 11 8 12
REMARK SMILES IDX 7 13 6 14 5 15 4 16 3 17 2 18 1 19
REMARK H PARENT
REMARK Flexibility Score: inf
ROOT
ATOM      1  C   UNL     1     -14.901  -5.888  34.792  1.00  0.00     0.000 C 
ENDROOT
BRANCH   1   2
ATOM      2  C   UNL     1     -13.545  -5.298  34.370  1.00  0.00     0.000 C 
BRANCH   2   3
ATOM      3  C   UNL     1     -13.201  -5.542  32.886  1.00  0.00     0.000 C 
BRANCH   3   4
ATOM      4  C   UNL     1     -12.887  -4.234  32.139  1.00  0.00     0.000 C 
BRANCH   4   5
ATOM      5  C   UNL     1     -13.950  -3.149  32.367  1.00  0.00     0.001 C 
BRANCH   5   6
ATOM      6  C   UNL     1     -15.200  -3.348  31.492  1.00  0.00     0.009 C 
BRANCH   6   7
ATOM      7  C   UNL     1     -16.494  -3.406  32.331  1.00  0.00     0.032 C 
ATOM      8  C   UNL     1     -17.219  -4.740  32.118  1.00  0.00     0.014 C 
BRANCH   7   9
ATOM      9  C   UNL     1     -17.418  -2.265  32.002  1.00  0.00     0.044 C 
ATOM     10  O   UNL     1     -17.013  -1.073  32.061  1.00  0.00    -0.550 OA
ATOM     11  O   UNL     1     -18.731  -2.524  31.627  1.00  0.00    -0.550 OA
ENDBRANCH   7   9
ENDBRANCH   6   7
ENDBRANCH   5   6
ENDBRANCH   4   5
ENDBRANCH   3   4
ENDBRANCH   2   3
ENDBRANCH   1   2
BRANCH   1  12
ATOM     12  C   UNL     1     -15.746  -4.909  35.622  1.00  0.00     0.000 C 
BRANCH  12  13
ATOM     13  C   UNL     1     -14.901  -3.794  36.259  1.00  0.00    -0.000 C 
BRANCH  13  14
ATOM     14  C   UNL     1     -15.259  -2.400  35.714  1.00  0.00    -0.000 C 
BRANCH  14  15
ATOM     15  C   UNL     1     -16.742  -2.045  35.921  1.00  0.00    -0.000 C 
BRANCH  15  16
ATOM     16  C   UNL     1     -17.125  -1.676  37.368  1.00  0.00    -0.000 C 
BRANCH  16  17
ATOM     17  C   UNL     1     -17.827  -0.314  37.534  1.00  0.00    -0.000 C 
BRANCH  17  18
ATOM     18  C   UNL     1     -18.180   0.396  36.215  1.00  0.00    -0.003 C 
ATOM     19  C   UNL     1     -17.845   1.887  36.233  1.00  0.00     0.004 C 
ENDBRANCH  17  18
ENDBRANCH  16  17
ENDBRANCH  15  16
ENDBRANCH  14  15
ENDBRANCH  13  14
ENDBRANCH  12  13
ENDBRANCH   1  12
TORSDOF 14
ENDMDL
MODEL 4
REMARK VINA RESULT:    -4.584      2.166      5.520
REMARK INTER + INTRA:         -10.321
REMARK INTER:                  -8.162
REMARK INTRA:                  -2.158
REMARK UNBOUND:                -1.985
REMARK SMILES CCCCCCCCCCCCCC[C@H](C)C(=O)[O-]
REMARK SMILES IDX 9 1 10 2 11 3 12 4 13 5 14 6 15 7 16 8 17 9 18 10 19 11 8 12
REMARK SMILES IDX 7 13 6 14 5 15 4 16 3 17 2 18 1 19
REMARK H PARENT
REMARK Flexibility Score: inf
ROOT
ATOM      1  C   UNL     1     -13.139  -5.244  32.470  1.00  0.00     0.000 C 
ENDROOT
BRANCH   1   2
ATOM      2  C   UNL     1     -13.371  -6.704  32.046  1.00  0.00     0.000 C 
BRANCH   2   3
ATOM      3  C   UNL     1     -14.856  -7.045  31.799  1.00  0.00     0.000 C 
BRANCH   3   4
ATOM      4  C   UNL     1     -15.654  -5.830  31.292  1.00  0.00     0.000 C 
BRANCH   4   5
ATOM      5  C   UNL     1     -16.969  -5.621  32.059  1.00  0.00     0.001 C 
BRANCH   5   6
ATOM      6  C   UNL     1     -17.075  -4.220  32.686  1.00  0.00     0.009 C 
BRANCH   6   7
ATOM      7  C   UNL     1     -16.650  -3.110  31.703  1.00  0.00     0.032 C 
ATOM      8  C   UNL     1     -15.481  -2.298  32.274  1.00  0.00     0.014 C 
BRANCH   7   9
ATOM      9  C   UNL     1     -17.797  -2.191  31.376  1.00  0.00     0.044 C 
ATOM     10  O   UNL     1     -17.847  -1.596  30.267  1.00  0.00    -0.550 OA
ATOM     11  O   UNL     1     -18.813  -1.996  32.305  1.00  0.00    -0.550 OA
ENDBRANCH   7   9
ENDBRANCH   6   7
ENDBRANCH   5   6
ENDBRANCH   4   5
ENDBRANCH   3   4
ENDBRANCH   2   3
ENDBRANCH   1   2
BRANCH   1  12
ATOM     12  C   UNL     1     -12.743  -5.107  33.949  1.00  0.00     0.000 C 
BRANCH  12  13
ATOM     13  C   UNL     1     -13.957  -5.142  34.890  1.00  0.00    -0.000 C 
BRANCH  13  14
ATOM     14  C   UNL     1     -14.415  -3.734  35.312  1.00  0.00    -0.000 C 
BRANCH  14  15
ATOM     15  C   UNL     1     -15.745  -3.750  36.086  1.00  0.00    -0.000 C 
BRANCH  15  16
ATOM     16  C   UNL     1     -16.242  -2.367  36.552  1.00  0.00    -0.000 C 
BRANCH  16  17
ATOM     17  C   UNL     1     -16.942  -1.524  35.468  1.00  0.00    -0.000 C 
BRANCH  17  18
ATOM     18  C   UNL     1     -17.799  -0.364  36.005  1.00  0.00    -0.003 C 
ATOM     19  C   UNL     1     -17.893  -0.349  37.529  1.00  0.00     0.004 C 
ENDBRANCH  17  18
ENDBRANCH  16  17
ENDBRANCH  15  16
ENDBRANCH  14  15
ENDBRANCH  13  14
ENDBRANCH  12  13
ENDBRANCH   1  12
TORSDOF 14
ENDMDL
MODEL 5
REMARK VINA RESULT:    -4.556     12.683     14.799
REMARK INTER + INTRA:         -10.269
REMARK INTER:                  -8.329
REMARK INTRA:                  -1.940
REMARK UNBOUND:                -1.985
REMARK SMILES CCCCCCCCCCCCCC[C@H](C)C(=O)[O-]
REMARK SMILES IDX 9 1 10 2 11 3 12 4 13 5 14 6 15 7 16 8 17 9 18 10 19 11 8 12
REMARK SMILES IDX 7 13 6 14 5 15 4 16 3 17 2 18 1 19
REMARK H PARENT
REMARK Flexibility Score: inf
ROOT
ATOM      1  C   UNL     1     -29.048   0.121  24.243  1.00  0.00     0.000 C 
ENDROOT
BRANCH   1   2
ATOM      2  C   UNL     1     -28.754  -0.247  22.778  1.00  0.00     0.000 C 
BRANCH   2   3
ATOM      3  C   UNL     1     -27.819  -1.466  22.625  1.00  0.00     0.000 C 
BRANCH   3   4
ATOM      4  C   UNL     1     -26.421  -1.065  22.122  1.00  0.00     0.000 C 
BRANCH   4   5
ATOM      5  C   UNL     1     -25.308  -1.407  23.124  1.00  0.00     0.001 C 
BRANCH   5   6
ATOM      6  C   UNL     1     -24.853  -0.188  23.946  1.00  0.00     0.009 C 
BRANCH   6   7
ATOM      7  C   UNL     1     -23.371   0.160  23.696  1.00  0.00     0.032 C 
ATOM      8  C   UNL     1     -22.512  -0.222  24.908  1.00  0.00     0.014 C 
BRANCH   7   9
ATOM      9  C   UNL     1     -23.191   1.622  23.385  1.00  0.00     0.044 C 
ATOM     10  O   UNL     1     -23.204   2.031  22.194  1.00  0.00    -0.550 OA
ATOM     11  O   UNL     1     -23.009   2.532  24.420  1.00  0.00    -0.550 OA
ENDBRANCH   7   9
ENDBRANCH   6   7
ENDBRANCH   5   6
ENDBRANCH   4   5
ENDBRANCH   3   4
ENDBRANCH   2   3
ENDBRANCH   1   2
BRANCH   1  12
ATOM     12  C   UNL     1     -30.116  -0.782  24.881  1.00  0.00     0.000 C 
BRANCH  12  13
ATOM     13  C   UNL     1     -29.607  -1.495  26.143  1.00  0.00    -0.000 C 
BRANCH  13  14
ATOM     14  C   UNL     1     -28.941  -2.846  25.828  1.00  0.00    -0.000 C 
BRANCH  14  15
ATOM     15  C   UNL     1     -27.416  -2.819  26.038  1.00  0.00    -0.000 C 
BRANCH  15  16
ATOM     16  C   UNL     1     -26.871  -1.527  26.677  1.00  0.00    -0.000 C 
BRANCH  16  17
ATOM     17  C   UNL     1     -25.990  -1.734  27.925  1.00  0.00    -0.000 C 
BRANCH  17  18
ATOM     18  C   UNL     1     -24.538  -2.151  27.630  1.00  0.00    -0.003 C 
ATOM     19  C   UNL     1     -23.948  -3.056  28.710  1.00  0.00     0.004 C 
ENDBRANCH  17  18
ENDBRANCH  16  17
ENDBRANCH  15  16
ENDBRANCH  14  15
ENDBRANCH  13  14
ENDBRANCH  12  13
ENDBRANCH   1  12
TORSDOF 14
ENDMDL
MODEL 6
REMARK VINA RESULT:    -4.519      1.192      2.995
REMARK INTER + INTRA:         -10.202
REMARK INTER:                  -8.295
REMARK INTRA:                  -1.907
REMARK UNBOUND:                -1.985
REMARK SMILES CCCCCCCCCCCCCC[C@H](C)C(=O)[O-]
REMARK SMILES IDX 9 1 10 2 11 3 12 4 13 5 14 6 15 7 16 8 17 9 18 10 19 11 8 12
REMARK SMILES IDX 7 13 6 14 5 15 4 16 3 17 2 18 1 19
REMARK H PARENT
REMARK Flexibility Score: inf
ROOT
ATOM      1  C   UNL     1     -17.670  -5.999  31.980  1.00  0.00     0.000 C 
ENDROOT
BRANCH   1   2
ATOM      2  C   UNL     1     -16.979  -4.674  32.343  1.00  0.00     0.000 C 
BRANCH   2   3
ATOM      3  C   UNL     1     -17.871  -3.433  32.125  1.00  0.00     0.000 C 
BRANCH   3   4
ATOM      4  C   UNL     1     -17.061  -2.212  31.654  1.00  0.00     0.000 C 
BRANCH   4   5
ATOM      5  C   UNL     1     -16.934  -1.129  32.736  1.00  0.00     0.001 C 
BRANCH   5   6
ATOM      6  C   UNL     1     -17.700  -1.482  34.023  1.00  0.00     0.009 C 
BRANCH   6   7
ATOM      7  C   UNL     1     -16.884  -1.161  35.293  1.00  0.00     0.032 C 
ATOM      8  C   UNL     1     -16.635  -2.432  36.113  1.00  0.00     0.014 C 
BRANCH   7   9
ATOM      9  C   UNL     1     -17.572  -0.130  36.146  1.00  0.00     0.044 C 
ATOM     10  O   UNL     1     -18.228  -0.474  37.165  1.00  0.00    -0.550 OA
ATOM     11  O   UNL     1     -17.483   1.216  35.812  1.00  0.00    -0.550 OA
ENDBRANCH   7   9
ENDBRANCH   6   7
ENDBRANCH   5   6
ENDBRANCH   4   5
ENDBRANCH   3   4
ENDBRANCH   2   3
ENDBRANCH   1   2
BRANCH   1  12
ATOM     12  C   UNL     1     -16.763  -7.222  32.187  1.00  0.00     0.000 C 
BRANCH  12  13
ATOM     13  C   UNL     1     -15.428  -7.100  31.436  1.00  0.00    -0.000 C 
BRANCH  13  14
ATOM     14  C   UNL     1     -14.301  -7.908  32.103  1.00  0.00    -0.000 C 
BRANCH  14  15
ATOM     15  C   UNL     1     -12.994  -7.105  32.236  1.00  0.00    -0.000 C 
BRANCH  15  16
ATOM     16  C   UNL     1     -13.137  -5.745  32.948  1.00  0.00    -0.000 C 
BRANCH  16  17
ATOM     17  C   UNL     1     -12.679  -4.524  32.126  1.00  0.00    -0.000 C 
BRANCH  17  18
ATOM     18  C   UNL     1     -13.533  -3.259  32.318  1.00  0.00    -0.003 C 
ATOM     19  C   UNL     1     -13.903  -3.006  33.778  1.00  0.00     0.004 C 
ENDBRANCH  17  18
ENDBRANCH  16  17
ENDBRANCH  15  16
ENDBRANCH  14  15
ENDBRANCH  13  14
ENDBRANCH  12  13
ENDBRANCH   1  12
TORSDOF 14
ENDMDL
MODEL 7
REMARK VINA RESULT:    -4.514     12.631     14.817
REMARK INTER + INTRA:         -10.193
REMARK INTER:                  -8.334
REMARK INTRA:                  -1.859
REMARK UNBOUND:                -1.985
REMARK SMILES CCCCCCCCCCCCCC[C@H](C)C(=O)[O-]
REMARK SMILES IDX 9 1 10 2 11 3 12 4 13 5 14 6 15 7 16 8 17 9 18 10 19 11 8 12
REMARK SMILES IDX 7 13 6 14 5 15 4 16 3 17 2 18 1 19
REMARK H PARENT
REMARK Flexibility Score: inf
ROOT
ATOM      1  C   UNL     1     -27.476  -4.124  24.463  1.00  0.00     0.000 C 
ENDROOT
BRANCH   1   2
ATOM      2  C   UNL     1     -26.916  -3.597  23.131  1.00  0.00     0.000 C 
BRANCH   2   3
ATOM      3  C   UNL     1     -27.459  -2.206  22.741  1.00  0.00     0.000 C 
BRANCH   3   4
ATOM      4  C   UNL     1     -26.341  -1.254  22.280  1.00  0.00     0.000 C 
BRANCH   4   5
ATOM      5  C   UNL     1     -25.058  -1.397  23.111  1.00  0.00     0.001 C 
BRANCH   5   6
ATOM      6  C   UNL     1     -24.700  -0.112  23.879  1.00  0.00     0.009 C 
BRANCH   6   7
ATOM      7  C   UNL     1     -23.244   0.332  23.622  1.00  0.00     0.032 C 
ATOM      8  C   UNL     1     -22.366   0.043  24.845  1.00  0.00     0.014 C 
BRANCH   7   9
ATOM      9  C   UNL     1     -23.165   1.793  23.272  1.00  0.00     0.044 C 
ATOM     10  O   UNL     1     -22.883   2.650  24.151  1.00  0.00    -0.550 OA
ATOM     11  O   UNL     1     -23.404   2.206  21.966  1.00  0.00    -0.550 OA
ENDBRANCH   7   9
ENDBRANCH   6   7
ENDBRANCH   5   6
ENDBRANCH   4   5
ENDBRANCH   3   4
ENDBRANCH   2   3
ENDBRANCH   1   2
BRANCH   1  12
ATOM     12  C   UNL     1     -28.886  -3.594  24.769  1.00  0.00     0.000 C 
BRANCH  12  13
ATOM     13  C   UNL     1     -29.238  -3.682  26.262  1.00  0.00    -0.000 C 
BRANCH  13  14
ATOM     14  C   UNL     1     -29.581  -2.309  26.867  1.00  0.00    -0.000 C 
BRANCH  14  15
ATOM     15  C   UNL     1     -29.082  -1.137  26.003  1.00  0.00    -0.000 C 
BRANCH  15  16
ATOM     16  C   UNL     1     -27.571  -0.851  26.108  1.00  0.00    -0.000 C 
BRANCH  16  17
ATOM     17  C   UNL     1     -26.844  -1.577  27.257  1.00  0.00    -0.000 C 
BRANCH  17  18
ATOM     18  C   UNL     1     -25.463  -2.148  26.890  1.00  0.00    -0.003 C 
ATOM     19  C   UNL     1     -24.548  -2.317  28.102  1.00  0.00     0.004 C 
ENDBRANCH  17  18
ENDBRANCH  16  17
ENDBRANCH  15  16
ENDBRANCH  14  15
ENDBRANCH  13  14
ENDBRANCH  12  13
ENDBRANCH   1  12
TORSDOF 14
ENDMDL
MODEL 8
REMARK VINA RESULT:    -4.472      1.223      2.096
REMARK INTER + INTRA:         -10.117
REMARK INTER:                  -7.898
REMARK INTRA:                  -2.219
REMARK UNBOUND:                -1.985
REMARK SMILES CCCCCCCCCCCCCC[C@H](C)C(=O)[O-]
REMARK SMILES IDX 9 1 10 2 11 3 12 4 13 5 14 6 15 7 16 8 17 9 18 10 19 11 8 12
REMARK SMILES IDX 7 13 6 14 5 15 4 16 3 17 2 18 1 19
REMARK H PARENT
REMARK Flexibility Score: inf
ROOT
ATOM      1  C   UNL     1     -13.778  -2.961  32.621  1.00  0.00     0.000 C 
ENDROOT
BRANCH   1   2
ATOM      2  C   UNL     1     -14.728  -3.018  31.413  1.00  0.00     0.000 C 
BRANCH   2   3
ATOM      3  C   UNL     1     -16.189  -3.340  31.791  1.00  0.00     0.000 C 
BRANCH   3   4
ATOM      4  C   UNL     1     -17.148  -2.189  31.437  1.00  0.00     0.000 C 
BRANCH   4   5
ATOM      5  C   UNL     1     -17.561  -1.360  32.662  1.00  0.00     0.001 C 
BRANCH   5   6
ATOM      6  C   UNL     1     -17.665  -2.206  33.944  1.00  0.00     0.009 C 
BRANCH   6   7
ATOM      7  C   UNL     1     -16.735  -1.686  35.060  1.00  0.00     0.032 C 
ATOM      8  C   UNL     1     -16.014  -2.850  35.750  1.00  0.00     0.014 C 
BRANCH   7   9
ATOM      9  C   UNL     1     -17.492  -0.879  36.080  1.00  0.00     0.044 C 
ATOM     10  O   UNL     1     -17.937   0.264  35.792  1.00  0.00    -0.550 OA
ATOM     11  O   UNL     1     -17.705  -1.396  37.352  1.00  0.00    -0.550 OA
ENDBRANCH   7   9
ENDBRANCH   6   7
ENDBRANCH   5   6
ENDBRANCH   4   5
ENDBRANCH   3   4
ENDBRANCH   2   3
ENDBRANCH   1   2
BRANCH   1  12
ATOM     12  C   UNL     1     -13.029  -4.282  32.855  1.00  0.00     0.000 C 
BRANCH  12  13
ATOM     13  C   UNL     1     -13.490  -5.003  34.131  1.00  0.00    -0.000 C 
BRANCH  13  14
ATOM     14  C   UNL     1     -13.659  -6.518  33.923  1.00  0.00    -0.000 C 
BRANCH  14  15
ATOM     15  C   UNL     1     -13.250  -6.973  32.510  1.00  0.00    -0.000 C 
BRANCH  15  16
ATOM     16  C   UNL     1     -14.349  -7.711  31.721  1.00  0.00    -0.000 C 
BRANCH  16  17
ATOM     17  C   UNL     1     -15.369  -6.800  31.010  1.00  0.00    -0.000 C 
BRANCH  17  18
ATOM     18  C   UNL     1     -16.844  -7.161  31.260  1.00  0.00    -0.003 C 
ATOM     19  C   UNL     1     -17.370  -6.625  32.591  1.00  0.00     0.004 C 
ENDBRANCH  17  18
ENDBRANCH  16  17
ENDBRANCH  15  16
ENDBRANCH  14  15
ENDBRANCH  13  14
ENDBRANCH  12  13
ENDBRANCH   1  12
TORSDOF 14
ENDMDL
MODEL 9
REMARK VINA RESULT:    -4.443      1.883      4.260
REMARK INTER + INTRA:         -10.064
REMARK INTER:                  -7.932
REMARK INTRA:                  -2.132
REMARK UNBOUND:                -1.985
REMARK SMILES CCCCCCCCCCCCCC[C@H](C)C(=O)[O-]
REMARK SMILES IDX 9 1 10 2 11 3 12 4 13 5 14 6 15 7 16 8 17 9 18 10 19 11 8 12
REMARK SMILES IDX 7 13 6 14 5 15 4 16 3 17 2 18 1 19
REMARK H PARENT
REMARK Flexibility Score: inf
ROOT
ATOM      1  C   UNL     1     -14.079  -6.689  32.541  1.00  0.00     0.000 C 
ENDROOT
BRANCH   1   2
ATOM      2  C   UNL     1     -13.012  -5.671  32.104  1.00  0.00     0.000 C 
BRANCH   2   3
ATOM      3  C   UNL     1     -13.060  -4.348  32.899  1.00  0.00     0.000 C 
BRANCH   3   4
ATOM      4  C   UNL     1     -13.283  -4.583  34.404  1.00  0.00     0.000 C 
BRANCH   4   5
ATOM      5  C   UNL     1     -13.472  -3.276  35.188  1.00  0.00     0.001 C 
BRANCH   5   6
ATOM      6  C   UNL     1     -14.896  -2.705  35.058  1.00  0.00     0.009 C 
BRANCH   6   7
ATOM      7  C   UNL     1     -15.623  -2.644  36.418  1.00  0.00     0.032 C 
ATOM      8  C   UNL     1     -15.973  -4.054  36.909  1.00  0.00     0.014 C 
BRANCH   7   9
ATOM      9  C   UNL     1     -16.870  -1.806  36.341  1.00  0.00     0.044 C 
ATOM     10  O   UNL     1     -17.445  -1.413  37.391  1.00  0.00    -0.550 OA
ATOM     11  O   UNL     1     -17.396  -1.460  35.102  1.00  0.00    -0.550 OA
ENDBRANCH   7   9
ENDBRANCH   6   7
ENDBRANCH   5   6
ENDBRANCH   4   5
ENDBRANCH   3   4
ENDBRANCH   2   3
ENDBRANCH   1   2
BRANCH   1  12
ATOM     12  C   UNL     1     -14.979  -7.145  31.381  1.00  0.00     0.000 C 
BRANCH  12  13
ATOM     13  C   UNL     1     -16.393  -6.550  31.463  1.00  0.00    -0.000 C 
BRANCH  13  14
ATOM     14  C   UNL     1     -16.738  -6.046  32.876  1.00  0.00    -0.000 C 
BRANCH  14  15
ATOM     15  C   UNL     1     -17.074  -4.544  32.904  1.00  0.00    -0.000 C 
BRANCH  15  16
ATOM     16  C   UNL     1     -16.453  -3.717  31.761  1.00  0.00    -0.000 C 
BRANCH  16  17
ATOM     17  C   UNL     1     -16.772  -2.210  31.794  1.00  0.00    -0.000 C 
BRANCH  17  18
ATOM     18  C   UNL     1     -18.006  -1.793  30.974  1.00  0.00    -0.003 C 
ATOM     19  C   UNL     1     -19.317  -1.973  31.737  1.00  0.00     0.004 C 
ENDBRANCH  17  18
ENDBRANCH  16  17
ENDBRANCH  15  16
ENDBRANCH  14  15
ENDBRANCH  13  14
ENDBRANCH  12  13
ENDBRANCH   1  12
TORSDOF 14
ENDMDL
