MODEL 1
REMARK VINA RESULT:    -6.502      0.000      0.000
REMARK INTER + INTRA:          -7.908
REMARK INTER:                  -7.643
REMARK INTRA:                  -0.266
REMARK UNBOUND:                -0.266
REMARK SMILES O=c1cc(-c2ccc(O)c(O)c2)oc2cc(O)cc(O)c12
REMARK SMILES IDX 4 1 3 2 2 3 1 4 21 5 19 6 18 7 16 8 15 9 14 10 13 11 5 12
REMARK SMILES IDX 6 13 7 14 8 15 12 16 10 17 9 18 11 20 20 22 17 24
REMARK H PARENT 9 19 11 21 20 23 17 25
REMARK Flexibility Score: inf
ROOT
ATOM      1  C   UNL     1     199.921 190.281 198.159  1.00  0.00     0.138 A 
ATOM      2  C   UNL     1     201.134 190.091 198.836  1.00  0.00     0.100 A 
ATOM      3  C   UNL     1     201.139 189.981 200.227  1.00  0.00     0.197 A 
ATOM      4  O   UNL     1     202.237 189.755 200.799  1.00  0.00    -0.289 OA
ATOM      5  C   UNL     1     199.926 190.098 200.947  1.00  0.00     0.107 A 
ATOM      6  C   UNL     1     199.814 190.037 202.369  1.00  0.00     0.134 A 
ATOM      7  C   UNL     1     198.546 190.067 202.963  1.00  0.00     0.093 A 
ATOM      8  C   UNL     1     197.391 190.215 202.191  1.00  0.00     0.123 A 
ATOM      9  C   UNL     1     197.493 190.325 200.806  1.00  0.00     0.094 A 
ATOM     10  C   UNL     1     198.741 190.263 200.181  1.00  0.00     0.146 A 
ATOM     11  O   UNL     1     198.792 190.355 198.857  1.00  0.00    -0.456 OA
ENDROOT
BRANCH   1  12
ATOM     12  C   UNL     1     199.857 190.406 196.682  1.00  0.00     0.021 A 
ATOM     13  C   UNL     1     199.382 189.360 195.869  1.00  0.00     0.016 A 
ATOM     14  C   UNL     1     199.325 189.511 194.480  1.00  0.00     0.051 A 
ATOM     15  C   UNL     1     199.735 190.709 193.881  1.00  0.00     0.157 A 
ATOM     16  C   UNL     1     200.254 191.610 196.073  1.00  0.00     0.062 A 
ATOM     17  C   UNL     1     200.200 191.763 194.683  1.00  0.00     0.158 A 
BRANCH  15  18
ATOM     18  O   UNL     1     199.678 190.854 192.496  1.00  0.00    -0.504 OA
ATOM     19  H   UNL     1     199.095 190.257 191.923  1.00  0.00     0.293 HD
ENDBRANCH  15  18
BRANCH  17  20
ATOM     20  O   UNL     1     200.611 192.971 194.118  1.00  0.00    -0.504 OA
ATOM     21  H   UNL     1     200.047 193.810 194.176  1.00  0.00     0.293 HD
ENDBRANCH  17  20
ENDBRANCH   1  12
BRANCH   6  22
ATOM     22  O   UNL     1     200.906 189.970 203.240  1.00  0.00    -0.507 OA
ATOM     23  H   UNL     1     200.920 190.331 204.181  1.00  0.00     0.293 HD
ENDBRANCH   6  22
BRANCH   8  24
ATOM     24  O   UNL     1     196.135 190.259 202.792  1.00  0.00    -0.508 OA
ATOM     25  H   UNL     1     195.781 191.109 203.217  1.00  0.00     0.293 HD
ENDBRANCH   8  24
TORSDOF 5
ENDMDL
MODEL 2
REMARK VINA RESULT:    -6.384      1.479      2.908
REMARK INTER + INTRA:          -7.769
REMARK INTER:                  -7.507
REMARK INTRA:                  -0.263
REMARK UNBOUND:                -0.266
REMARK SMILES O=c1cc(-c2ccc(O)c(O)c2)oc2cc(O)cc(O)c12
REMARK SMILES IDX 4 1 3 2 2 3 1 4 21 5 19 6 18 7 16 8 15 9 14 10 13 11 5 12
REMARK SMILES IDX 6 13 7 14 8 15 12 16 10 17 9 18 11 20 20 22 17 24
REMARK H PARENT 9 19 11 21 20 23 17 25
REMARK Flexibility Score: inf
ROOT
ATOM      1  C   UNL     1     199.964 190.719 197.764  1.00  0.00     0.138 A 
ATOM      2  C   UNL     1     198.956 191.212 198.604  1.00  0.00     0.100 A 
ATOM      3  C   UNL     1     199.102 191.118 199.988  1.00  0.00     0.197 A 
ATOM      4  O   UNL     1     198.205 191.619 200.715  1.00  0.00    -0.289 OA
ATOM      5  C   UNL     1     200.249 190.493 200.534  1.00  0.00     0.107 A 
ATOM      6  C   UNL     1     200.490 190.309 201.929  1.00  0.00     0.134 A 
ATOM      7  C   UNL     1     201.709 189.765 202.352  1.00  0.00     0.093 A 
ATOM      8  C   UNL     1     202.671 189.345 201.431  1.00  0.00     0.123 A 
ATOM      9  C   UNL     1     202.425 189.475 200.066  1.00  0.00     0.094 A 
ATOM     10  C   UNL     1     201.233 190.046 199.612  1.00  0.00     0.146 A 
ATOM     11  O   UNL     1     201.046 190.167 198.302  1.00  0.00    -0.456 OA
ENDROOT
BRANCH   1  12
ATOM     12  C   UNL     1     199.859 190.792 196.286  1.00  0.00     0.021 A 
ATOM     13  C   UNL     1     199.338 189.727 195.526  1.00  0.00     0.016 A 
ATOM     14  C   UNL     1     199.243 189.830 194.134  1.00  0.00     0.051 A 
ATOM     15  C   UNL     1     199.660 190.996 193.480  1.00  0.00     0.157 A 
ATOM     16  C   UNL     1     200.262 191.965 195.621  1.00  0.00     0.062 A 
ATOM     17  C   UNL     1     200.170 192.068 194.228  1.00  0.00     0.158 A 
BRANCH  15  18
ATOM     18  O   UNL     1     199.565 191.092 192.093  1.00  0.00    -0.504 OA
ATOM     19  H   UNL     1     200.291 191.530 191.540  1.00  0.00     0.293 HD
ENDBRANCH  15  18
BRANCH  17  20
ATOM     20  O   UNL     1     200.589 193.245 193.608  1.00  0.00    -0.504 OA
ATOM     21  H   UNL     1     200.534 193.373 192.605  1.00  0.00     0.293 HD
ENDBRANCH  17  20
ENDBRANCH   1  12
BRANCH   6  22
ATOM     22  O   UNL     1     199.566 190.618 202.932  1.00  0.00    -0.507 OA
ATOM     23  H   UNL     1     199.183 189.958 203.590  1.00  0.00     0.293 HD
ENDBRANCH   6  22
BRANCH   8  24
ATOM     24  O   UNL     1     203.874 188.790 201.861  1.00  0.00    -0.508 OA
ATOM     25  H   UNL     1     203.951 188.323 202.757  1.00  0.00     0.293 HD
ENDBRANCH   8  24
TORSDOF 5
ENDMDL
MODEL 3
REMARK VINA RESULT:    -6.334     14.759     15.700
REMARK INTER + INTRA:          -7.710
REMARK INTER:                  -7.448
REMARK INTRA:                  -0.262
REMARK UNBOUND:                -0.266
REMARK SMILES O=c1cc(-c2ccc(O)c(O)c2)oc2cc(O)cc(O)c12
REMARK SMILES IDX 4 1 3 2 2 3 1 4 21 5 19 6 18 7 16 8 15 9 14 10 13 11 5 12
REMARK SMILES IDX 6 13 7 14 8 15 12 16 10 17 9 18 11 20 20 22 17 24
REMARK H PARENT 9 19 11 21 20 23 17 25
REMARK Flexibility Score: inf
ROOT
ATOM      1  C   UNL     1     195.360 205.454 198.419  1.00  0.00     0.138 A 
ATOM      2  C   UNL     1     194.158 205.621 199.121  1.00  0.00     0.100 A 
ATOM      3  C   UNL     1     194.178 205.710 200.513  1.00  0.00     0.197 A 
ATOM      4  O   UNL     1     193.089 205.916 201.110  1.00  0.00    -0.289 OA
ATOM      5  C   UNL     1     195.406 205.595 201.209  1.00  0.00     0.107 A 
ATOM      6  C   UNL     1     195.544 205.635 202.629  1.00  0.00     0.134 A 
ATOM      7  C   UNL     1     196.823 205.609 203.198  1.00  0.00     0.093 A 
ATOM      8  C   UNL     1     197.965 205.485 202.403  1.00  0.00     0.123 A 
ATOM      9  C   UNL     1     197.837 205.395 201.018  1.00  0.00     0.094 A 
ATOM     10  C   UNL     1     196.577 205.453 200.418  1.00  0.00     0.146 A 
ATOM     11  O   UNL     1     196.502 205.380 199.093  1.00  0.00    -0.456 OA
ENDROOT
BRANCH   1  12
ATOM     12  C   UNL     1     195.396 205.351 196.939  1.00  0.00     0.021 A 
ATOM     13  C   UNL     1     195.711 206.457 196.126  1.00  0.00     0.016 A 
ATOM     14  C   UNL     1     195.747 206.327 194.735  1.00  0.00     0.051 A 
ATOM     15  C   UNL     1     195.476 205.093 194.131  1.00  0.00     0.157 A 
ATOM     16  C   UNL     1     195.139 204.112 196.325  1.00  0.00     0.062 A 
ATOM     17  C   UNL     1     195.172 203.980 194.932  1.00  0.00     0.158 A 
BRANCH  15  18
ATOM     18  O   UNL     1     195.511 204.968 192.744  1.00  0.00    -0.504 OA
ATOM     19  H   UNL     1     195.681 205.766 192.144  1.00  0.00     0.293 HD
ENDBRANCH  15  18
BRANCH  17  20
ATOM     20  O   UNL     1     194.902 202.735 194.364  1.00  0.00    -0.504 OA
ATOM     21  H   UNL     1     193.970 202.339 194.355  1.00  0.00     0.293 HD
ENDBRANCH  17  20
ENDBRANCH   1  12
BRANCH   6  22
ATOM     22  O   UNL     1     194.468 205.678 203.521  1.00  0.00    -0.507 OA
ATOM     23  H   UNL     1     194.195 204.927 204.136  1.00  0.00     0.293 HD
ENDBRANCH   6  22
BRANCH   8  24
ATOM     24  O   UNL     1     199.233 205.444 202.979  1.00  0.00    -0.508 OA
ATOM     25  H   UNL     1     199.372 205.122 203.930  1.00  0.00     0.293 HD
ENDBRANCH   8  24
TORSDOF 5
ENDMDL
MODEL 4
REMARK VINA RESULT:    -6.228     13.914     14.759
REMARK INTER + INTRA:          -7.586
REMARK INTER:                  -7.293
REMARK INTRA:                  -0.294
REMARK UNBOUND:                -0.266
REMARK SMILES O=c1cc(-c2ccc(O)c(O)c2)oc2cc(O)cc(O)c12
REMARK SMILES IDX 4 1 3 2 2 3 1 4 21 5 19 6 18 7 16 8 15 9 14 10 13 11 5 12
REMARK SMILES IDX 6 13 7 14 8 15 12 16 10 17 9 18 11 20 20 22 17 24
REMARK H PARENT 9 19 11 21 20 23 17 25
REMARK Flexibility Score: inf
ROOT
ATOM      1  C   UNL     1     196.464 204.016 198.963  1.00  0.00     0.138 A 
ATOM      2  C   UNL     1     196.783 203.626 200.272  1.00  0.00     0.100 A 
ATOM      3  C   UNL     1     196.001 204.075 201.336  1.00  0.00     0.197 A 
ATOM      4  O   UNL     1     196.280 203.662 202.492  1.00  0.00    -0.289 OA
ATOM      5  C   UNL     1     194.915 204.950 201.092  1.00  0.00     0.107 A 
ATOM      6  C   UNL     1     194.069 205.500 202.103  1.00  0.00     0.134 A 
ATOM      7  C   UNL     1     192.965 206.276 201.730  1.00  0.00     0.093 A 
ATOM      8  C   UNL     1     192.709 206.570 200.389  1.00  0.00     0.123 A 
ATOM      9  C   UNL     1     193.557 206.079 199.399  1.00  0.00     0.094 A 
ATOM     10  C   UNL     1     194.647 205.273 199.735  1.00  0.00     0.146 A 
ATOM     11  O   UNL     1     195.420 204.812 198.758  1.00  0.00    -0.456 OA
ENDROOT
BRANCH   1  12
ATOM     12  C   UNL     1     197.262 203.569 197.795  1.00  0.00     0.021 A 
ATOM     13  C   UNL     1     197.663 202.228 197.639  1.00  0.00     0.016 A 
ATOM     14  C   UNL     1     198.406 201.836 196.522  1.00  0.00     0.051 A 
ATOM     15  C   UNL     1     198.757 202.771 195.540  1.00  0.00     0.157 A 
ATOM     16  C   UNL     1     197.607 204.499 196.797  1.00  0.00     0.062 A 
ATOM     17  C   UNL     1     198.353 204.109 195.679  1.00  0.00     0.158 A 
BRANCH  15  18
ATOM     18  O   UNL     1     199.499 202.376 194.429  1.00  0.00    -0.504 OA
ATOM     19  H   UNL     1     199.216 202.617 193.488  1.00  0.00     0.293 HD
ENDBRANCH  15  18
BRANCH  17  20
ATOM     20  O   UNL     1     198.681 205.064 194.717  1.00  0.00    -0.504 OA
ATOM     21  H   UNL     1     197.988 205.688 194.321  1.00  0.00     0.293 HD
ENDBRANCH  17  20
ENDBRANCH   1  12
BRANCH   6  22
ATOM     22  O   UNL     1     194.279 205.336 203.476  1.00  0.00    -0.507 OA
ATOM     23  H   UNL     1     193.563 205.113 204.149  1.00  0.00     0.293 HD
ENDBRANCH   6  22
BRANCH   8  24
ATOM     24  O   UNL     1     191.616 207.356 200.029  1.00  0.00    -0.508 OA
ATOM     25  H   UNL     1     190.824 207.477 200.650  1.00  0.00     0.293 HD
ENDBRANCH   8  24
TORSDOF 5
ENDMDL
MODEL 5
REMARK VINA RESULT:    -6.192      2.547      3.905
REMARK INTER + INTRA:          -7.544
REMARK INTER:                  -7.262
REMARK INTRA:                  -0.282
REMARK UNBOUND:                -0.266
REMARK SMILES O=c1cc(-c2ccc(O)c(O)c2)oc2cc(O)cc(O)c12
REMARK SMILES IDX 4 1 3 2 2 3 1 4 21 5 19 6 18 7 16 8 15 9 14 10 13 11 5 12
REMARK SMILES IDX 6 13 7 14 8 15 12 16 10 17 9 18 11 20 20 22 17 24
REMARK H PARENT 9 19 11 21 20 23 17 25
REMARK Flexibility Score: inf
ROOT
ATOM      1  C   UNL     1     198.687 191.671 198.839  1.00  0.00     0.138 A 
ATOM      2  C   UNL     1     198.234 192.006 200.123  1.00  0.00     0.100 A 
ATOM      3  C   UNL     1     198.954 191.584 201.241  1.00  0.00     0.197 A 
ATOM      4  O   UNL     1     198.552 191.948 202.377  1.00  0.00    -0.289 OA
ATOM      5  C   UNL     1     200.115 190.791 201.073  1.00  0.00     0.107 A 
ATOM      6  C   UNL     1     200.909 190.274 202.141  1.00  0.00     0.134 A 
ATOM      7  C   UNL     1     202.092 189.584 201.849  1.00  0.00     0.093 A 
ATOM      8  C   UNL     1     202.479 189.342 200.529  1.00  0.00     0.123 A 
ATOM      9  C   UNL     1     201.685 189.799 199.480  1.00  0.00     0.094 A 
ATOM     10  C   UNL     1     200.516 190.521 199.738  1.00  0.00     0.146 A 
ATOM     11  O   UNL     1     199.798 190.953 198.708  1.00  0.00    -0.456 OA
ENDROOT
BRANCH   1  12
ATOM     12  C   UNL     1     197.960 192.091 197.616  1.00  0.00     0.021 A 
ATOM     13  C   UNL     1     197.695 193.446 197.339  1.00  0.00     0.016 A 
ATOM     14  C   UNL     1     197.016 193.812 196.173  1.00  0.00     0.051 A 
ATOM     15  C   UNL     1     196.596 192.835 195.261  1.00  0.00     0.157 A 
ATOM     16  C   UNL     1     197.547 191.118 196.688  1.00  0.00     0.062 A 
ATOM     17  C   UNL     1     196.866 191.482 195.521  1.00  0.00     0.158 A 
BRANCH  15  18
ATOM     18  O   UNL     1     195.919 193.205 194.102  1.00  0.00    -0.504 OA
ATOM     19  H   UNL     1     196.206 192.872 193.189  1.00  0.00     0.293 HD
ENDBRANCH  15  18
BRANCH  17  20
ATOM     20  O   UNL     1     196.466 190.485 194.631  1.00  0.00    -0.504 OA
ATOM     21  H   UNL     1     195.772 189.790 194.879  1.00  0.00     0.293 HD
ENDBRANCH  17  20
ENDBRANCH   1  12
BRANCH   6  22
ATOM     22  O   UNL     1     200.575 190.389 203.494  1.00  0.00    -0.507 OA
ATOM     23  H   UNL     1     201.229 190.572 204.239  1.00  0.00     0.293 HD
ENDBRANCH   6  22
BRANCH   8  24
ATOM     24  O   UNL     1     203.650 188.641 200.248  1.00  0.00    -0.508 OA
ATOM     25  H   UNL     1     204.309 188.969 199.552  1.00  0.00     0.293 HD
ENDBRANCH   8  24
TORSDOF 5
ENDMDL
MODEL 6
REMARK VINA RESULT:    -6.190      5.070      7.618
REMARK INTER + INTRA:          -7.541
REMARK INTER:                  -7.277
REMARK INTRA:                  -0.264
REMARK UNBOUND:                -0.266
REMARK SMILES O=c1cc(-c2ccc(O)c(O)c2)oc2cc(O)cc(O)c12
REMARK SMILES IDX 4 1 3 2 2 3 1 4 21 5 19 6 18 7 16 8 15 9 14 10 13 11 5 12
REMARK SMILES IDX 6 13 7 14 8 15 12 16 10 17 9 18 11 20 20 22 17 24
REMARK H PARENT 9 19 11 21 20 23 17 25
REMARK Flexibility Score: inf
ROOT
ATOM      1  C   UNL     1     197.992 194.955 197.065  1.00  0.00     0.138 A 
ATOM      2  C   UNL     1     197.574 193.944 197.941  1.00  0.00     0.100 A 
ATOM      3  C   UNL     1     197.850 192.610 197.640  1.00  0.00     0.197 A 
ATOM      4  O   UNL     1     197.511 191.732 198.474  1.00  0.00    -0.289 OA
ATOM      5  C   UNL     1     198.516 192.285 196.434  1.00  0.00     0.107 A 
ATOM      6  C   UNL     1     198.820 190.958 196.004  1.00  0.00     0.134 A 
ATOM      7  C   UNL     1     199.571 190.765 194.838  1.00  0.00     0.093 A 
ATOM      8  C   UNL     1     199.979 191.848 194.055  1.00  0.00     0.123 A 
ATOM      9  C   UNL     1     199.645 193.145 194.440  1.00  0.00     0.094 A 
ATOM     10  C   UNL     1     198.927 193.372 195.617  1.00  0.00     0.146 A 
ATOM     11  O   UNL     1     198.644 194.625 195.955  1.00  0.00    -0.456 OA
ENDROOT
BRANCH   1  12
ATOM     12  C   UNL     1     197.724 196.389 197.335  1.00  0.00     0.021 A 
ATOM     13  C   UNL     1     198.762 197.298 197.614  1.00  0.00     0.016 A 
ATOM     14  C   UNL     1     198.479 198.646 197.855  1.00  0.00     0.051 A 
ATOM     15  C   UNL     1     197.158 199.110 197.817  1.00  0.00     0.157 A 
ATOM     16  C   UNL     1     196.401 196.867 197.285  1.00  0.00     0.062 A 
ATOM     17  C   UNL     1     196.115 198.215 197.529  1.00  0.00     0.158 A 
BRANCH  15  18
ATOM     18  O   UNL     1     196.880 200.454 198.060  1.00  0.00    -0.504 OA
ATOM     19  H   UNL     1     197.575 201.175 197.909  1.00  0.00     0.293 HD
ENDBRANCH  15  18
BRANCH  17  20
ATOM     20  O   UNL     1     194.789 198.646 197.478  1.00  0.00    -0.504 OA
ATOM     21  H   UNL     1     194.232 198.571 196.636  1.00  0.00     0.293 HD
ENDBRANCH  17  20
ENDBRANCH   1  12
BRANCH   6  22
ATOM     22  O   UNL     1     198.394 189.802 196.666  1.00  0.00    -0.507 OA
ATOM     23  H   UNL     1     197.479 189.668 197.067  1.00  0.00     0.293 HD
ENDBRANCH   6  22
BRANCH   8  24
ATOM     24  O   UNL     1     200.713 191.646 192.889  1.00  0.00    -0.508 OA
ATOM     25  H   UNL     1     200.856 190.718 192.507  1.00  0.00     0.293 HD
ENDBRANCH   8  24
TORSDOF 5
ENDMDL
MODEL 7
REMARK VINA RESULT:    -6.181      1.436      1.479
REMARK INTER + INTRA:          -7.531
REMARK INTER:                  -7.249
REMARK INTRA:                  -0.282
REMARK UNBOUND:                -0.266
REMARK SMILES O=c1cc(-c2ccc(O)c(O)c2)oc2cc(O)cc(O)c12
REMARK SMILES IDX 4 1 3 2 2 3 1 4 21 5 19 6 18 7 16 8 15 9 14 10 13 11 5 12
REMARK SMILES IDX 6 13 7 14 8 15 12 16 10 17 9 18 11 20 20 22 17 24
REMARK H PARENT 9 19 11 21 20 23 17 25
REMARK Flexibility Score: inf
ROOT
ATOM      1  C   UNL     1     199.731 190.868 197.645  1.00  0.00     0.138 A 
ATOM      2  C   UNL     1     200.520 190.069 198.483  1.00  0.00     0.100 A 
ATOM      3  C   UNL     1     200.309 190.092 199.861  1.00  0.00     0.197 A 
ATOM      4  O   UNL     1     200.997 189.322 200.580  1.00  0.00    -0.289 OA
ATOM      5  C   UNL     1     199.323 190.950 200.408  1.00  0.00     0.107 A 
ATOM      6  C   UNL     1     199.042 191.084 201.801  1.00  0.00     0.134 A 
ATOM      7  C   UNL     1     197.976 191.891 202.215  1.00  0.00     0.093 A 
ATOM      8  C   UNL     1     197.217 192.615 201.291  1.00  0.00     0.123 A 
ATOM      9  C   UNL     1     197.516 192.529 199.933  1.00  0.00     0.094 A 
ATOM     10  C   UNL     1     198.551 191.705 199.485  1.00  0.00     0.146 A 
ATOM     11  O   UNL     1     198.790 191.640 198.180  1.00  0.00    -0.456 OA
ENDROOT
BRANCH   1  12
ATOM     12  C   UNL     1     199.914 190.883 196.172  1.00  0.00     0.021 A 
ATOM     13  C   UNL     1     199.831 189.707 195.403  1.00  0.00     0.016 A 
ATOM     14  C   UNL     1     199.999 189.755 194.015  1.00  0.00     0.051 A 
ATOM     15  C   UNL     1     200.246 190.975 193.373  1.00  0.00     0.157 A 
ATOM     16  C   UNL     1     200.149 192.106 195.518  1.00  0.00     0.062 A 
ATOM     17  C   UNL     1     200.320 192.156 194.129  1.00  0.00     0.158 A 
BRANCH  15  18
ATOM     18  O   UNL     1     200.415 191.017 191.991  1.00  0.00    -0.504 OA
ATOM     19  H   UNL     1     200.618 190.182 191.455  1.00  0.00     0.293 HD
ENDBRANCH  15  18
BRANCH  17  20
ATOM     20  O   UNL     1     200.560 193.387 193.520  1.00  0.00    -0.504 OA
ATOM     21  H   UNL     1     200.487 193.514 192.518  1.00  0.00     0.293 HD
ENDBRANCH  17  20
ENDBRANCH   1  12
BRANCH   6  22
ATOM     22  O   UNL     1     199.786 190.470 202.814  1.00  0.00    -0.507 OA
ATOM     23  H   UNL     1     200.791 190.489 202.887  1.00  0.00     0.293 HD
ENDBRANCH   6  22
BRANCH   8  24
ATOM     24  O   UNL     1     196.168 193.428 201.713  1.00  0.00    -0.508 OA
ATOM     25  H   UNL     1     195.713 193.283 202.607  1.00  0.00     0.293 HD
ENDBRANCH   8  24
TORSDOF 5
ENDMDL
MODEL 8
REMARK VINA RESULT:    -6.160     14.679     15.515
REMARK INTER + INTRA:          -7.506
REMARK INTER:                  -7.235
REMARK INTRA:                  -0.271
REMARK UNBOUND:                -0.266
REMARK SMILES O=c1cc(-c2ccc(O)c(O)c2)oc2cc(O)cc(O)c12
REMARK SMILES IDX 4 1 3 2 2 3 1 4 21 5 19 6 18 7 16 8 15 9 14 10 13 11 5 12
REMARK SMILES IDX 6 13 7 14 8 15 12 16 10 17 9 18 11 20 20 22 17 24
REMARK H PARENT 9 19 11 21 20 23 17 25
REMARK Flexibility Score: inf
ROOT
ATOM      1  C   UNL     1     195.400 204.841 197.460  1.00  0.00     0.138 A 
ATOM      2  C   UNL     1     196.535 204.708 198.273  1.00  0.00     0.100 A 
ATOM      3  C   UNL     1     196.462 205.051 199.623  1.00  0.00     0.197 A 
ATOM      4  O   UNL     1     197.482 204.868 200.337  1.00  0.00    -0.289 OA
ATOM      5  C   UNL     1     195.255 205.564 200.155  1.00  0.00     0.107 A 
ATOM      6  C   UNL     1     195.073 205.980 201.508  1.00  0.00     0.134 A 
ATOM      7  C   UNL     1     193.803 206.379 201.942  1.00  0.00     0.093 A 
ATOM      8  C   UNL     1     192.722 206.433 201.059  1.00  0.00     0.123 A 
ATOM      9  C   UNL     1     192.901 206.077 199.724  1.00  0.00     0.094 A 
ATOM     10  C   UNL     1     194.148 205.641 199.268  1.00  0.00     0.146 A 
ATOM     11  O   UNL     1     194.270 205.294 197.991  1.00  0.00    -0.456 OA
ENDROOT
BRANCH   1  12
ATOM     12  C   UNL     1     195.423 204.492 196.018  1.00  0.00     0.021 A 
ATOM     13  C   UNL     1     195.363 203.157 195.576  1.00  0.00     0.016 A 
ATOM     14  C   UNL     1     195.376 202.861 194.210  1.00  0.00     0.051 A 
ATOM     15  C   UNL     1     195.442 203.890 193.263  1.00  0.00     0.157 A 
ATOM     16  C   UNL     1     195.475 205.521 195.059  1.00  0.00     0.062 A 
ATOM     17  C   UNL     1     195.490 205.227 193.691  1.00  0.00     0.158 A 
BRANCH  15  18
ATOM     18  O   UNL     1     195.456 203.590 191.902  1.00  0.00    -0.504 OA
ATOM     19  H   UNL     1     196.298 203.271 191.438  1.00  0.00     0.293 HD
ENDBRANCH  15  18
BRANCH  17  20
ATOM     20  O   UNL     1     195.551 206.275 192.774  1.00  0.00    -0.504 OA
ATOM     21  H   UNL     1     195.172 206.194 191.838  1.00  0.00     0.293 HD
ENDBRANCH  17  20
ENDBRANCH   1  12
BRANCH   6  22
ATOM     22  O   UNL     1     196.100 206.042 202.455  1.00  0.00    -0.507 OA
ATOM     23  H   UNL     1     195.981 205.923 203.448  1.00  0.00     0.293 HD
ENDBRANCH   6  22
BRANCH   8  24
ATOM     24  O   UNL     1     191.465 206.846 201.496  1.00  0.00    -0.508 OA
ATOM     25  H   UNL     1     190.674 206.213 201.507  1.00  0.00     0.293 HD
ENDBRANCH   8  24
TORSDOF 5
ENDMDL
MODEL 9
REMARK VINA RESULT:    -6.037     10.274     12.590
REMARK INTER + INTRA:          -7.361
REMARK INTER:                  -7.092
REMARK INTRA:                  -0.269
REMARK UNBOUND:                -0.266
REMARK SMILES O=c1cc(-c2ccc(O)c(O)c2)oc2cc(O)cc(O)c12
REMARK SMILES IDX 4 1 3 2 2 3 1 4 21 5 19 6 18 7 16 8 15 9 14 10 13 11 5 12
REMARK SMILES IDX 6 13 7 14 8 15 12 16 10 17 9 18 11 20 20 22 17 24
REMARK H PARENT 9 19 11 21 20 23 17 25
REMARK Flexibility Score: inf
ROOT
ATOM      1  C   UNL     1     197.481 200.780 196.820  1.00  0.00     0.138 A 
ATOM      2  C   UNL     1     197.882 201.832 197.656  1.00  0.00     0.100 A 
ATOM      3  C   UNL     1     197.598 203.149 197.294  1.00  0.00     0.197 A 
ATOM      4  O   UNL     1     197.921 204.066 198.092  1.00  0.00    -0.289 OA
ATOM      5  C   UNL     1     196.940 203.416 196.068  1.00  0.00     0.107 A 
ATOM      6  C   UNL     1     196.628 204.720 195.578  1.00  0.00     0.134 A 
ATOM      7  C   UNL     1     195.887 204.855 194.399  1.00  0.00     0.093 A 
ATOM      8  C   UNL     1     195.495 203.735 193.660  1.00  0.00     0.123 A 
ATOM      9  C   UNL     1     195.837 202.459 194.104  1.00  0.00     0.094 A 
ATOM     10  C   UNL     1     196.546 202.290 195.296  1.00  0.00     0.146 A 
ATOM     11  O   UNL     1     196.836 201.056 195.691  1.00  0.00    -0.456 OA
ENDROOT
BRANCH   1  12
ATOM     12  C   UNL     1     197.759 199.361 197.156  1.00  0.00     0.021 A 
ATOM     13  C   UNL     1     196.736 198.395 197.198  1.00  0.00     0.016 A 
ATOM     14  C   UNL     1     197.031 197.064 197.508  1.00  0.00     0.051 A 
ATOM     15  C   UNL     1     198.349 196.674 197.775  1.00  0.00     0.157 A 
ATOM     16  C   UNL     1     199.082 198.958 197.411  1.00  0.00     0.062 A 
ATOM     17  C   UNL     1     199.379 197.627 197.724  1.00  0.00     0.158 A 
BRANCH  15  18
ATOM     18  O   UNL     1     198.637 195.346 198.085  1.00  0.00    -0.504 OA
ATOM     19  H   UNL     1     198.027 194.590 197.800  1.00  0.00     0.293 HD
ENDBRANCH  15  18
BRANCH  17  20
ATOM     20  O   UNL     1     200.703 197.270 197.979  1.00  0.00    -0.504 OA
ATOM     21  H   UNL     1     200.969 196.321 198.211  1.00  0.00     0.293 HD
ENDBRANCH  17  20
ENDBRANCH   1  12
BRANCH   6  22
ATOM     22  O   UNL     1     197.039 205.907 196.193  1.00  0.00    -0.507 OA
ATOM     23  H   UNL     1     197.554 206.646 195.740  1.00  0.00     0.293 HD
ENDBRANCH   6  22
BRANCH   8  24
ATOM     24  O   UNL     1     194.771 203.879 192.479  1.00  0.00    -0.508 OA
ATOM     25  H   UNL     1     193.997 204.531 192.409  1.00  0.00     0.293 HD
ENDBRANCH   8  24
TORSDOF 5
ENDMDL
