MODEL 1
REMARK VINA RESULT:    -0.569      0.000      0.000
REMARK INTER + INTRA:          -0.841
REMARK INTER:                  -0.701
REMARK INTRA:                  -0.139
REMARK UNBOUND:                -0.139
REMARK SMILES COc1cc(-c2oc3cc(O)cc(O)c3c(=O)c2O)ccc1O
REMARK SMILES IDX 6 1 18 2 16 3 17 4 15 5 13 6 12 7 10 8 9 9 8 10 7 11 5 12
REMARK SMILES IDX 3 13 22 14 4 15 21 16 20 17 2 18 1 19 23 20 19 22 14 24
REMARK SMILES IDX 11 26
REMARK H PARENT 23 21 19 23 14 25 11 27
REMARK Flexibility Score: inf
ROOT
ATOM      1  C   UNL     1      13.582 -12.677  28.752  1.00  0.00     0.180 A 
ATOM      2  C   UNL     1      12.347 -12.295  28.200  1.00  0.00     0.208 A 
ATOM      3  C   UNL     1      11.686 -11.172  28.722  1.00  0.00     0.238 A 
ATOM      4  O   UNL     1      10.555 -10.867  28.261  1.00  0.00    -0.285 OA
ATOM      5  C   UNL     1      12.276 -10.437  29.779  1.00  0.00     0.111 A 
ATOM      6  C   UNL     1      11.714  -9.259  30.358  1.00  0.00     0.134 A 
ATOM      7  C   UNL     1      12.319  -8.687  31.485  1.00  0.00     0.093 A 
ATOM      8  C   UNL     1      13.500  -9.214  32.012  1.00  0.00     0.123 A 
ATOM      9  C   UNL     1      14.088 -10.327  31.418  1.00  0.00     0.094 A 
ATOM     10  C   UNL     1      13.489 -10.941  30.315  1.00  0.00     0.146 A 
ATOM     11  O   UNL     1      14.077 -12.007  29.785  1.00  0.00    -0.452 OA
ENDROOT
BRANCH   1  12
ATOM     12  C   UNL     1      14.350 -13.835  28.237  1.00  0.00     0.025 A 
ATOM     13  C   UNL     1      15.388 -16.028  28.556  1.00  0.00     0.161 A 
ATOM     14  C   UNL     1      15.762 -16.036  27.199  1.00  0.00     0.157 A 
ATOM     15  C   UNL     1      14.674 -14.924  29.065  1.00  0.00     0.062 A 
ATOM     16  C   UNL     1      15.420 -14.963  26.372  1.00  0.00     0.051 A 
ATOM     17  C   UNL     1      14.713 -13.873  26.884  1.00  0.00     0.016 A 
BRANCH  13  18
ATOM     18  O   UNL     1      15.735 -17.124  29.360  1.00  0.00    -0.493 OA
ATOM     19  C   UNL     1      15.713 -17.121  30.784  1.00  0.00     0.278 C 
ENDBRANCH  13  18
BRANCH  14  20
ATOM     20  O   UNL     1      16.472 -17.106  26.654  1.00  0.00    -0.504 OA
ATOM     21  H   UNL     1      17.354 -16.979  26.173  1.00  0.00     0.293 HD
ENDBRANCH  14  20
ENDBRANCH   1  12
BRANCH   2  22
ATOM     22  O   UNL     1      11.773 -13.049  27.172  1.00  0.00    -0.502 OA
ATOM     23  H   UNL     1      12.052 -14.002  26.975  1.00  0.00     0.293 HD
ENDBRANCH   2  22
BRANCH   6  24
ATOM     24  O   UNL     1      10.589  -8.601  29.852  1.00  0.00    -0.507 OA
ATOM     25  H   UNL     1      10.080  -7.878  30.337  1.00  0.00     0.293 HD
ENDBRANCH   6  24
BRANCH   8  26
ATOM     26  O   UNL     1      14.103  -8.630  33.125  1.00  0.00    -0.508 OA
ATOM     27  H   UNL     1      14.291  -7.635  33.165  1.00  0.00     0.293 HD
ENDBRANCH   8  26
TORSDOF 6
ENDMDL
MODEL 2
REMARK VINA RESULT:    -0.543      1.383      6.814
REMARK INTER + INTRA:          -0.809
REMARK INTER:                  -0.845
REMARK INTRA:                   0.036
REMARK UNBOUND:                -0.139
REMARK SMILES COc1cc(-c2oc3cc(O)cc(O)c3c(=O)c2O)ccc1O
REMARK SMILES IDX 6 1 18 2 16 3 17 4 15 5 13 6 12 7 10 8 9 9 8 10 7 11 5 12
REMARK SMILES IDX 3 13 22 14 4 15 21 16 20 17 2 18 1 19 23 20 19 22 14 24
REMARK SMILES IDX 11 26
REMARK H PARENT 23 21 19 23 14 25 11 27
REMARK Flexibility Score: inf
ROOT
ATOM      1  C   UNL     1      13.640 -12.795  29.427  1.00  0.00     0.180 A 
ATOM      2  C   UNL     1      13.887 -13.211  28.107  1.00  0.00     0.208 A 
ATOM      3  C   UNL     1      14.582 -14.410  27.890  1.00  0.00     0.238 A 
ATOM      4  O   UNL     1      14.847 -14.750  26.707  1.00  0.00    -0.285 OA
ATOM      5  C   UNL     1      15.010 -15.186  28.995  1.00  0.00     0.111 A 
ATOM      6  C   UNL     1      15.688 -16.438  28.892  1.00  0.00     0.134 A 
ATOM      7  C   UNL     1      16.180 -17.054  30.050  1.00  0.00     0.093 A 
ATOM      8  C   UNL     1      15.960 -16.496  31.311  1.00  0.00     0.123 A 
ATOM      9  C   UNL     1      15.248 -15.305  31.427  1.00  0.00     0.094 A 
ATOM     10  C   UNL     1      14.776 -14.648  30.288  1.00  0.00     0.146 A 
ATOM     11  O   UNL     1      14.111 -13.510  30.441  1.00  0.00    -0.452 OA
ENDROOT
BRANCH   1  12
ATOM     12  C   UNL     1      12.890 -11.555  29.734  1.00  0.00     0.025 A 
ATOM     13  C   UNL     1      12.648  -9.445  30.950  1.00  0.00     0.161 A 
ATOM     14  C   UNL     1      11.459  -9.187  30.244  1.00  0.00     0.157 A 
ATOM     15  C   UNL     1      13.362 -10.630  30.683  1.00  0.00     0.062 A 
ATOM     16  C   UNL     1      11.002 -10.095  29.284  1.00  0.00     0.051 A 
ATOM     17  C   UNL     1      11.715 -11.267  29.026  1.00  0.00     0.016 A 
BRANCH  13  18
ATOM     18  O   UNL     1      13.088  -8.509  31.900  1.00  0.00    -0.493 OA
ATOM     19  C   UNL     1      13.813  -8.836  33.081  1.00  0.00     0.278 C 
ENDBRANCH  13  18
BRANCH  14  20
ATOM     20  O   UNL     1      10.718  -8.027  30.478  1.00  0.00    -0.504 OA
ATOM     21  H   UNL     1       9.991  -7.714  29.847  1.00  0.00     0.293 HD
ENDBRANCH  14  20
ENDBRANCH   1  12
BRANCH   2  22
ATOM     22  O   UNL     1      13.474 -12.419  27.031  1.00  0.00    -0.502 OA
ATOM     23  H   UNL     1      13.766 -11.455  26.922  1.00  0.00     0.293 HD
ENDBRANCH   2  22
BRANCH   6  24
ATOM     24  O   UNL     1      15.879 -17.125  27.691  1.00  0.00    -0.507 OA
ATOM     25  H   UNL     1      16.491 -16.825  26.947  1.00  0.00     0.293 HD
ENDBRANCH   6  24
BRANCH   8  26
ATOM     26  O   UNL     1      16.440 -17.124  32.459  1.00  0.00    -0.508 OA
ATOM     27  H   UNL     1      16.659 -16.599  33.299  1.00  0.00     0.293 HD
ENDBRANCH   8  26
TORSDOF 6
ENDMDL
MODEL 3
REMARK VINA RESULT:     0.023      9.853     11.926
REMARK INTER + INTRA:          -0.111
REMARK INTER:                  -0.563
REMARK INTRA:                   0.452
REMARK UNBOUND:                -0.139
REMARK SMILES COc1cc(-c2oc3cc(O)cc(O)c3c(=O)c2O)ccc1O
REMARK SMILES IDX 6 1 18 2 16 3 17 4 15 5 13 6 12 7 10 8 9 9 8 10 7 11 5 12
REMARK SMILES IDX 3 13 22 14 4 15 21 16 20 17 2 18 1 19 23 20 19 22 14 24
REMARK SMILES IDX 11 26
REMARK H PARENT 23 21 19 23 14 25 11 27
REMARK Flexibility Score: inf
ROOT
ATOM      1  C   UNL     1      15.789  -1.727  26.857  1.00  0.00     0.180 A 
ATOM      2  C   UNL     1      15.887  -1.125  28.124  1.00  0.00     0.208 A 
ATOM      3  C   UNL     1      15.604   0.243  28.252  1.00  0.00     0.238 A 
ATOM      4  O   UNL     1      15.746   0.788  29.379  1.00  0.00    -0.285 OA
ATOM      5  C   UNL     1      15.212   0.990  27.115  1.00  0.00     0.111 A 
ATOM      6  C   UNL     1      14.863   2.374  27.136  1.00  0.00     0.134 A 
ATOM      7  C   UNL     1      14.616   3.043  25.930  1.00  0.00     0.093 A 
ATOM      8  C   UNL     1      14.643   2.361  24.711  1.00  0.00     0.123 A 
ATOM      9  C   UNL     1      14.924   0.998  24.686  1.00  0.00     0.094 A 
ATOM     10  C   UNL     1      15.210   0.312  25.869  1.00  0.00     0.146 A 
ATOM     11  O   UNL     1      15.483  -0.986  25.800  1.00  0.00    -0.452 OA
ENDROOT
BRANCH   1  12
ATOM     12  C   UNL     1      16.047  -3.170  26.649  1.00  0.00     0.025 A 
ATOM     13  C   UNL     1      15.260  -5.443  26.197  1.00  0.00     0.161 A 
ATOM     14  C   UNL     1      16.592  -5.894  26.205  1.00  0.00     0.157 A 
ATOM     15  C   UNL     1      14.997  -4.075  26.413  1.00  0.00     0.062 A 
ATOM     16  C   UNL     1      17.637  -4.991  26.417  1.00  0.00     0.051 A 
ATOM     17  C   UNL     1      17.369  -3.638  26.631  1.00  0.00     0.016 A 
BRANCH  13  18
ATOM     18  O   UNL     1      14.231  -6.371  25.969  1.00  0.00    -0.493 OA
ATOM     19  C   UNL     1      14.381  -7.578  25.228  1.00  0.00     0.278 C 
ENDBRANCH  13  18
BRANCH  14  20
ATOM     20  O   UNL     1      16.898  -7.240  25.999  1.00  0.00    -0.504 OA
ATOM     21  H   UNL     1      17.831  -7.551  25.759  1.00  0.00     0.293 HD
ENDBRANCH  14  20
ENDBRANCH   1  12
BRANCH   2  22
ATOM     22  O   UNL     1      16.297  -1.877  29.230  1.00  0.00    -0.502 OA
ATOM     23  H   UNL     1      15.661  -2.465  29.754  1.00  0.00     0.293 HD
ENDBRANCH   2  22
BRANCH   6  24
ATOM     24  O   UNL     1      14.719   3.125  28.306  1.00  0.00    -0.507 OA
ATOM     25  H   UNL     1      14.172   2.845  29.106  1.00  0.00     0.293 HD
ENDBRANCH   6  24
BRANCH   8  26
ATOM     26  O   UNL     1      14.382   3.031  23.517  1.00  0.00    -0.508 OA
ATOM     27  H   UNL     1      14.132   4.013  23.503  1.00  0.00     0.293 HD
ENDBRANCH   8  26
TORSDOF 6
ENDMDL
MODEL 4
REMARK VINA RESULT:     1.426      8.824     10.768
REMARK INTER + INTRA:           1.620
REMARK INTER:                   1.838
REMARK INTRA:                  -0.217
REMARK UNBOUND:                -0.139
REMARK SMILES COc1cc(-c2oc3cc(O)cc(O)c3c(=O)c2O)ccc1O
REMARK SMILES IDX 6 1 18 2 16 3 17 4 15 5 13 6 12 7 10 8 9 9 8 10 7 11 5 12
REMARK SMILES IDX 3 13 22 14 4 15 21 16 20 17 2 18 1 19 23 20 19 22 14 24
REMARK SMILES IDX 11 26
REMARK H PARENT 23 21 19 23 14 25 11 27
REMARK Flexibility Score: inf
ROOT
ATOM      1  C   UNL     1      15.685  -2.979  26.941  1.00  0.00     0.180 A 
ATOM      2  C   UNL     1      15.948  -2.560  28.257  1.00  0.00     0.208 A 
ATOM      3  C   UNL     1      15.858  -1.194  28.567  1.00  0.00     0.238 A 
ATOM      4  O   UNL     1      16.147  -0.818  29.734  1.00  0.00    -0.285 OA
ATOM      5  C   UNL     1      15.492  -0.266  27.562  1.00  0.00     0.111 A 
ATOM      6  C   UNL     1      15.332   1.137  27.774  1.00  0.00     0.134 A 
ATOM      7  C   UNL     1      15.095   1.978  26.679  1.00  0.00     0.093 A 
ATOM      8  C   UNL     1      14.948   1.458  25.391  1.00  0.00     0.123 A 
ATOM      9  C   UNL     1      15.044   0.085  25.183  1.00  0.00     0.094 A 
ATOM     10  C   UNL     1      15.315  -0.776  26.249  1.00  0.00     0.146 A 
ATOM     11  O   UNL     1      15.409  -2.078  26.007  1.00  0.00    -0.452 OA
ENDROOT
BRANCH   1  12
ATOM     12  C   UNL     1      15.734  -4.405  26.544  1.00  0.00     0.025 A 
ATOM     13  C   UNL     1      14.625  -6.530  26.052  1.00  0.00     0.161 A 
ATOM     14  C   UNL     1      15.874  -7.096  25.734  1.00  0.00     0.157 A 
ATOM     15  C   UNL     1      14.565  -5.180  26.450  1.00  0.00     0.062 A 
ATOM     16  C   UNL     1      17.034  -6.319  25.805  1.00  0.00     0.051 A 
ATOM     17  C   UNL     1      16.965  -4.982  26.201  1.00  0.00     0.016 A 
BRANCH  13  18
ATOM     18  O   UNL     1      13.476  -7.331  25.960  1.00  0.00    -0.493 OA
ATOM     19  C   UNL     1      13.171  -8.411  26.837  1.00  0.00     0.278 C 
ENDBRANCH  13  18
BRANCH  14  20
ATOM     20  O   UNL     1      15.981  -8.430  25.338  1.00  0.00    -0.504 OA
ATOM     21  H   UNL     1      15.392  -8.828  24.617  1.00  0.00     0.293 HD
ENDBRANCH  14  20
ENDBRANCH   1  12
BRANCH   2  22
ATOM     22  O   UNL     1      16.328  -3.490  29.228  1.00  0.00    -0.502 OA
ATOM     23  H   UNL     1      17.262  -3.881  29.271  1.00  0.00     0.293 HD
ENDBRANCH   2  22
BRANCH   6  24
ATOM     24  O   UNL     1      15.369   1.745  29.031  1.00  0.00    -0.507 OA
ATOM     25  H   UNL     1      16.141   2.287  29.386  1.00  0.00     0.293 HD
ENDBRANCH   6  24
BRANCH   8  26
ATOM     26  O   UNL     1      14.698   2.301  24.310  1.00  0.00    -0.508 OA
ATOM     27  H   UNL     1      14.379   1.939  23.418  1.00  0.00     0.293 HD
ENDBRANCH   8  26
TORSDOF 6
ENDMDL
MODEL 5
REMARK VINA RESULT:     1.561      9.305     12.842
REMARK INTER + INTRA:           1.787
REMARK INTER:                   1.641
REMARK INTRA:                   0.146
REMARK UNBOUND:                -0.139
REMARK SMILES COc1cc(-c2oc3cc(O)cc(O)c3c(=O)c2O)ccc1O
REMARK SMILES IDX 6 1 18 2 16 3 17 4 15 5 13 6 12 7 10 8 9 9 8 10 7 11 5 12
REMARK SMILES IDX 3 13 22 14 4 15 21 16 20 17 2 18 1 19 23 20 19 22 14 24
REMARK SMILES IDX 11 26
REMARK H PARENT 23 21 19 23 14 25 11 27
REMARK Flexibility Score: inf
ROOT
ATOM      1  C   UNL     1      16.090  -2.338  26.547  1.00  0.00     0.180 A 
ATOM      2  C   UNL     1      17.430  -2.733  26.701  1.00  0.00     0.208 A 
ATOM      3  C   UNL     1      17.759  -4.091  26.572  1.00  0.00     0.238 A 
ATOM      4  O   UNL     1      18.952  -4.445  26.764  1.00  0.00    -0.285 OA
ATOM      5  C   UNL     1      16.747  -5.035  26.274  1.00  0.00     0.111 A 
ATOM      6  C   UNL     1      16.973  -6.431  26.081  1.00  0.00     0.134 A 
ATOM      7  C   UNL     1      15.880  -7.293  25.920  1.00  0.00     0.093 A 
ATOM      8  C   UNL     1      14.574  -6.798  25.880  1.00  0.00     0.123 A 
ATOM      9  C   UNL     1      14.347  -5.430  26.008  1.00  0.00     0.094 A 
ATOM     10  C   UNL     1      15.415  -4.551  26.206  1.00  0.00     0.146 A 
ATOM     11  O   UNL     1      15.154  -3.255  26.333  1.00  0.00    -0.452 OA
ENDROOT
BRANCH   1  12
ATOM     12  C   UNL     1      15.670  -0.921  26.644  1.00  0.00     0.025 A 
ATOM     13  C   UNL     1      15.373   1.141  27.929  1.00  0.00     0.161 A 
ATOM     14  C   UNL     1      14.913   1.786  26.766  1.00  0.00     0.157 A 
ATOM     15  C   UNL     1      15.757  -0.213  27.856  1.00  0.00     0.062 A 
ATOM     16  C   UNL     1      14.848   1.089  25.556  1.00  0.00     0.051 A 
ATOM     17  C   UNL     1      15.230  -0.252  25.493  1.00  0.00     0.016 A 
BRANCH  13  18
ATOM     18  O   UNL     1      15.438   1.869  29.127  1.00  0.00    -0.493 OA
ATOM     19  C   UNL     1      16.094   3.125  29.275  1.00  0.00     0.278 C 
ENDBRANCH  13  18
BRANCH  14  20
ATOM     20  O   UNL     1      14.519   3.125  26.793  1.00  0.00    -0.504 OA
ATOM     21  H   UNL     1      14.068   3.539  27.599  1.00  0.00     0.293 HD
ENDBRANCH  14  20
ENDBRANCH   1  12
BRANCH   2  22
ATOM     22  O   UNL     1      18.410  -1.786  27.016  1.00  0.00    -0.502 OA
ATOM     23  H   UNL     1      18.830  -1.185  26.318  1.00  0.00     0.293 HD
ENDBRANCH   2  22
BRANCH   6  24
ATOM     24  O   UNL     1      18.241  -7.014  26.012  1.00  0.00    -0.507 OA
ATOM     25  H   UNL     1      18.651  -7.404  25.177  1.00  0.00     0.293 HD
ENDBRANCH   6  24
BRANCH   8  26
ATOM     26  O   UNL     1      13.493  -7.660  25.704  1.00  0.00    -0.508 OA
ATOM     27  H   UNL     1      12.615  -7.337  25.315  1.00  0.00     0.293 HD
ENDBRANCH   8  26
TORSDOF 6
ENDMDL
MODEL 6
REMARK VINA RESULT:     1.740      1.444      7.249
REMARK INTER + INTRA:           2.008
REMARK INTER:                   2.143
REMARK INTRA:                  -0.135
REMARK UNBOUND:                -0.139
REMARK SMILES COc1cc(-c2oc3cc(O)cc(O)c3c(=O)c2O)ccc1O
REMARK SMILES IDX 6 1 18 2 16 3 17 4 15 5 13 6 12 7 10 8 9 9 8 10 7 11 5 12
REMARK SMILES IDX 3 13 22 14 4 15 21 16 20 17 2 18 1 19 23 20 19 22 14 24
REMARK SMILES IDX 11 26
REMARK H PARENT 23 21 19 23 14 25 11 27
REMARK Flexibility Score: inf
ROOT
ATOM      1  C   UNL     1      13.700 -12.812  29.618  1.00  0.00     0.180 A 
ATOM      2  C   UNL     1      14.021 -13.711  30.651  1.00  0.00     0.208 A 
ATOM      3  C   UNL     1      14.763 -14.862  30.345  1.00  0.00     0.238 A 
ATOM      4  O   UNL     1      15.001 -15.690  31.263  1.00  0.00    -0.285 OA
ATOM      5  C   UNL     1      15.188 -15.093  29.014  1.00  0.00     0.111 A 
ATOM      6  C   UNL     1      15.980 -16.206  28.598  1.00  0.00     0.134 A 
ATOM      7  C   UNL     1      16.232 -16.403  27.234  1.00  0.00     0.093 A 
ATOM      8  C   UNL     1      15.777 -15.490  26.280  1.00  0.00     0.123 A 
ATOM      9  C   UNL     1      15.055 -14.369  26.681  1.00  0.00     0.094 A 
ATOM     10  C   UNL     1      14.756 -14.166  28.031  1.00  0.00     0.146 A 
ATOM     11  O   UNL     1      14.057 -13.090  28.371  1.00  0.00    -0.452 OA
ENDROOT
BRANCH   1  12
ATOM     12  C   UNL     1      12.943 -11.564  29.868  1.00  0.00     0.025 A 
ATOM     13  C   UNL     1      12.652  -9.433  31.036  1.00  0.00     0.161 A 
ATOM     14  C   UNL     1      11.500  -9.182  30.269  1.00  0.00     0.157 A 
ATOM     15  C   UNL     1      13.372 -10.626  30.824  1.00  0.00     0.062 A 
ATOM     16  C   UNL     1      11.086 -10.104  29.303  1.00  0.00     0.051 A 
ATOM     17  C   UNL     1      11.804 -11.283  29.099  1.00  0.00     0.016 A 
BRANCH  13  18
ATOM     18  O   UNL     1      13.050  -8.484  31.991  1.00  0.00    -0.493 OA
ATOM     19  C   UNL     1      13.874  -8.767  33.117  1.00  0.00     0.278 C 
ENDBRANCH  13  18
BRANCH  14  20
ATOM     20  O   UNL     1      10.754  -8.016  30.448  1.00  0.00    -0.504 OA
ATOM     21  H   UNL     1      10.984  -7.333  31.160  1.00  0.00     0.293 HD
ENDBRANCH  14  20
ENDBRANCH   1  12
BRANCH   2  22
ATOM     22  O   UNL     1      13.572 -13.474  31.954  1.00  0.00    -0.502 OA
ATOM     23  H   UNL     1      14.204 -13.402  32.742  1.00  0.00     0.293 HD
ENDBRANCH   2  22
BRANCH   6  24
ATOM     24  O   UNL     1      16.559 -17.124  29.478  1.00  0.00    -0.507 OA
ATOM     25  H   UNL     1      16.628 -18.116  29.311  1.00  0.00     0.293 HD
ENDBRANCH   6  24
BRANCH   8  26
ATOM     26  O   UNL     1      16.045 -15.686  24.926  1.00  0.00    -0.508 OA
ATOM     27  H   UNL     1      16.183 -14.905  24.295  1.00  0.00     0.293 HD
ENDBRANCH   8  26
TORSDOF 6
ENDMDL
MODEL 7
REMARK VINA RESULT:     2.071      3.137      6.974
REMARK INTER + INTRA:           2.416
REMARK INTER:                   2.156
REMARK INTRA:                   0.261
REMARK UNBOUND:                -0.139
REMARK SMILES COc1cc(-c2oc3cc(O)cc(O)c3c(=O)c2O)ccc1O
REMARK SMILES IDX 6 1 18 2 16 3 17 4 15 5 13 6 12 7 10 8 9 9 8 10 7 11 5 12
REMARK SMILES IDX 3 13 22 14 4 15 21 16 20 17 2 18 1 19 23 20 19 22 14 24
REMARK SMILES IDX 11 26
REMARK H PARENT 23 21 19 23 14 25 11 27
REMARK Flexibility Score: inf
ROOT
ATOM      1  C   UNL     1      14.222 -11.549  28.509  1.00  0.00     0.180 A 
ATOM      2  C   UNL     1      13.923 -11.697  29.875  1.00  0.00     0.208 A 
ATOM      3  C   UNL     1      14.138 -12.940  30.488  1.00  0.00     0.238 A 
ATOM      4  O   UNL     1      13.818 -13.082  31.698  1.00  0.00    -0.285 OA
ATOM      5  C   UNL     1      14.664 -14.016  29.732  1.00  0.00     0.111 A 
ATOM      6  C   UNL     1      14.959 -15.309  30.261  1.00  0.00     0.134 A 
ATOM      7  C   UNL     1      15.353 -16.337  29.393  1.00  0.00     0.093 A 
ATOM      8  C   UNL     1      15.525 -16.099  28.028  1.00  0.00     0.123 A 
ATOM      9  C   UNL     1      15.296 -14.826  27.512  1.00  0.00     0.094 A 
ATOM     10  C   UNL     1      14.868 -13.790  28.346  1.00  0.00     0.146 A 
ATOM     11  O   UNL     1      14.651 -12.594  27.813  1.00  0.00    -0.452 OA
ENDROOT
BRANCH   1  12
ATOM     12  C   UNL     1      14.046 -10.261  27.800  1.00  0.00     0.025 A 
ATOM     13  C   UNL     1      14.881  -8.498  26.322  1.00  0.00     0.161 A 
ATOM     14  C   UNL     1      13.644  -7.838  26.428  1.00  0.00     0.157 A 
ATOM     15  C   UNL     1      15.071  -9.715  27.008  1.00  0.00     0.062 A 
ATOM     16  C   UNL     1      12.617  -8.392  27.197  1.00  0.00     0.051 A 
ATOM     17  C   UNL     1      12.813  -9.597  27.873  1.00  0.00     0.016 A 
BRANCH  13  18
ATOM     18  O   UNL     1      15.890  -7.923  25.533  1.00  0.00    -0.493 OA
ATOM     19  C   UNL     1      16.438  -6.625  25.741  1.00  0.00     0.278 C 
ENDBRANCH  13  18
BRANCH  14  20
ATOM     20  O   UNL     1      13.413  -6.629  25.769  1.00  0.00    -0.504 OA
ATOM     21  H   UNL     1      12.577  -6.462  25.223  1.00  0.00     0.293 HD
ENDBRANCH  14  20
ENDBRANCH   1  12
BRANCH   2  22
ATOM     22  O   UNL     1      13.385 -10.627  30.597  1.00  0.00    -0.502 OA
ATOM     23  H   UNL     1      12.404 -10.578  30.846  1.00  0.00     0.293 HD
ENDBRANCH   2  22
BRANCH   6  24
ATOM     24  O   UNL     1      14.909 -15.627  31.621  1.00  0.00    -0.507 OA
ATOM     25  H   UNL     1      15.358 -16.425  32.043  1.00  0.00     0.293 HD
ENDBRANCH   6  24
BRANCH   8  26
ATOM     26  O   UNL     1      15.931 -17.123  27.174  1.00  0.00    -0.508 OA
ATOM     27  H   UNL     1      15.391 -17.376  26.355  1.00  0.00     0.293 HD
ENDBRANCH   8  26
TORSDOF 6
ENDMDL
