MODEL 1
REMARK VINA RESULT:    -2.920      0.000      0.000
REMARK INTER + INTRA:          -7.557
REMARK INTER:                  -5.396
REMARK INTRA:                  -2.161
REMARK UNBOUND:                -2.161
REMARK SMILES CCCCCCCCCCCCCCCCO
REMARK SMILES IDX 9 1 8 2 7 3 6 4 5 5 4 6 3 7 2 8 1 9 10 10 11 11 12 12 13 13
REMARK SMILES IDX 14 14 15 15 16 16 17 17
REMARK H PARENT 17 18
REMARK Flexibility Score: inf
ROOT
ATOM      1  C   UNL     1      -0.410   4.212  -8.102  1.00  0.00     0.000 C 
ENDROOT
BRANCH   1   2
ATOM      2  C   UNL     1      -1.234   2.925  -7.950  1.00  0.00    -0.000 C 
BRANCH   2   3
ATOM      3  C   UNL     1      -2.733   3.243  -7.851  1.00  0.00    -0.000 C 
BRANCH   3   4
ATOM      4  C   UNL     1      -3.295   3.043  -6.431  1.00  0.00    -0.000 C 
BRANCH   4   5
ATOM      5  C   UNL     1      -2.237   2.749  -5.349  1.00  0.00    -0.000 C 
BRANCH   5   6
ATOM      6  C   UNL     1      -2.028   3.875  -4.317  1.00  0.00    -0.000 C 
BRANCH   6   7
ATOM      7  C   UNL     1      -2.538   5.263  -4.753  1.00  0.00    -0.000 C 
BRANCH   7   8
ATOM      8  C   UNL     1      -1.440   6.240  -5.208  1.00  0.00    -0.003 C 
ATOM      9  C   UNL     1      -0.160   6.128  -4.381  1.00  0.00     0.004 C 
ENDBRANCH   7   8
ENDBRANCH   6   7
ENDBRANCH   5   6
ENDBRANCH   4   5
ENDBRANCH   3   4
ENDBRANCH   2   3
ENDBRANCH   1   2
BRANCH   1  10
ATOM     10  C   UNL     1       0.894   4.184  -7.290  1.00  0.00     0.000 C 
BRANCH  10  11
ATOM     11  C   UNL     1       1.178   2.856  -6.563  1.00  0.00     0.000 C 
BRANCH  11  12
ATOM     12  C   UNL     1       1.806   3.033  -5.163  1.00  0.00     0.000 C 
BRANCH  12  13
ATOM     13  C   UNL     1       1.189   2.083  -4.122  1.00  0.00     0.000 C 
BRANCH  13  14
ATOM     14  C   UNL     1       2.188   1.035  -3.605  1.00  0.00     0.002 C 
BRANCH  14  15
ATOM     15  C   UNL     1       3.588   1.616  -3.308  1.00  0.00     0.028 C 
BRANCH  15  16
ATOM     16  C   UNL     1       4.228   0.983  -2.070  1.00  0.00     0.156 C 
BRANCH  16  17
ATOM     17  O   UNL     1       4.502   1.980  -1.126  1.00  0.00    -0.396 OA
ATOM     18  H   UNL     1       4.168   1.636  -0.257  1.00  0.00     0.210 HD
ENDBRANCH  16  17
ENDBRANCH  15  16
ENDBRANCH  14  15
ENDBRANCH  13  14
ENDBRANCH  12  13
ENDBRANCH  11  12
ENDBRANCH  10  11
ENDBRANCH   1  10
TORSDOF 15
ENDMDL
MODEL 2
REMARK VINA RESULT:    -2.917      1.051      2.771
REMARK INTER + INTRA:          -7.550
REMARK INTER:                  -5.417
REMARK INTRA:                  -2.134
REMARK UNBOUND:                -2.161
REMARK SMILES CCCCCCCCCCCCCCCCO
REMARK SMILES IDX 9 1 8 2 7 3 6 4 5 5 4 6 3 7 2 8 1 9 10 10 11 11 12 12 13 13
REMARK SMILES IDX 14 14 15 15 16 16 17 17
REMARK H PARENT 17 18
REMARK Flexibility Score: inf
ROOT
ATOM      1  C   UNL     1       0.816   5.402  -6.788  1.00  0.00     0.000 C 
ENDROOT
BRANCH   1   2
ATOM      2  C   UNL     1      -0.369   6.232  -6.274  1.00  0.00    -0.000 C 
BRANCH   2   3
ATOM      3  C   UNL     1      -0.667   5.907  -4.802  1.00  0.00    -0.000 C 
BRANCH   3   4
ATOM      4  C   UNL     1      -2.173   5.778  -4.511  1.00  0.00    -0.000 C 
BRANCH   4   5
ATOM      5  C   UNL     1      -2.675   4.334  -4.311  1.00  0.00    -0.000 C 
BRANCH   5   6
ATOM      6  C   UNL     1      -2.957   3.556  -5.612  1.00  0.00    -0.000 C 
BRANCH   6   7
ATOM      7  C   UNL     1      -3.624   4.377  -6.732  1.00  0.00    -0.000 C 
BRANCH   7   8
ATOM      8  C   UNL     1      -3.483   3.779  -8.144  1.00  0.00    -0.003 C 
ATOM      9  C   UNL     1      -3.142   2.289  -8.129  1.00  0.00     0.004 C 
ENDBRANCH   7   8
ENDBRANCH   6   7
ENDBRANCH   5   6
ENDBRANCH   4   5
ENDBRANCH   3   4
ENDBRANCH   2   3
ENDBRANCH   1   2
BRANCH   1  10
ATOM     10  C   UNL     1       0.386   4.273  -7.738  1.00  0.00     0.000 C 
BRANCH  10  11
ATOM     11  C   UNL     1       0.358   2.868  -7.105  1.00  0.00     0.000 C 
BRANCH  11  12
ATOM     12  C   UNL     1       1.240   2.734  -5.845  1.00  0.00     0.000 C 
BRANCH  12  13
ATOM     13  C   UNL     1       0.426   2.330  -4.603  1.00  0.00     0.000 C 
BRANCH  13  14
ATOM     14  C   UNL     1       1.194   1.377  -3.672  1.00  0.00     0.002 C 
BRANCH  14  15
ATOM     15  C   UNL     1       2.717   1.634  -3.651  1.00  0.00     0.028 C 
BRANCH  15  16
ATOM     16  C   UNL     1       3.495   0.459  -3.056  1.00  0.00     0.156 C 
BRANCH  16  17
ATOM     17  O   UNL     1       3.762   0.713  -1.704  1.00  0.00    -0.396 OA
ATOM     18  H   UNL     1       3.470  -0.096  -1.209  1.00  0.00     0.210 HD
ENDBRANCH  16  17
ENDBRANCH  15  16
ENDBRANCH  14  15
ENDBRANCH  13  14
ENDBRANCH  12  13
ENDBRANCH  11  12
ENDBRANCH  10  11
ENDBRANCH   1  10
TORSDOF 15
ENDMDL
MODEL 3
REMARK VINA RESULT:    -2.908      1.211      2.827
REMARK INTER + INTRA:          -7.533
REMARK INTER:                  -5.089
REMARK INTRA:                  -2.445
REMARK UNBOUND:                -2.161
REMARK SMILES CCCCCCCCCCCCCCCCO
REMARK SMILES IDX 9 1 8 2 7 3 6 4 5 5 4 6 3 7 2 8 1 9 10 10 11 11 12 12 13 13
REMARK SMILES IDX 14 14 15 15 16 16 17 17
REMARK H PARENT 17 18
REMARK Flexibility Score: inf
ROOT
ATOM      1  C   UNL     1      -2.332   4.739  -5.399  1.00  0.00     0.000 C 
ENDROOT
BRANCH   1   2
ATOM      2  C   UNL     1      -2.783   4.626  -6.862  1.00  0.00    -0.000 C 
BRANCH   2   3
ATOM      3  C   UNL     1      -2.601   3.192  -7.382  1.00  0.00    -0.000 C 
BRANCH   3   4
ATOM      4  C   UNL     1      -1.512   3.083  -8.465  1.00  0.00    -0.000 C 
BRANCH   4   5
ATOM      5  C   UNL     1      -0.254   2.296  -8.045  1.00  0.00    -0.000 C 
BRANCH   5   6
ATOM      6  C   UNL     1       1.024   3.143  -7.890  1.00  0.00    -0.000 C 
BRANCH   6   7
ATOM      7  C   UNL     1       0.824   4.663  -8.055  1.00  0.00    -0.000 C 
BRANCH   7   8
ATOM      8  C   UNL     1       1.130   5.495  -6.797  1.00  0.00    -0.003 C 
ATOM      9  C   UNL     1       0.397   6.836  -6.776  1.00  0.00     0.004 C 
ENDBRANCH   7   8
ENDBRANCH   6   7
ENDBRANCH   5   6
ENDBRANCH   4   5
ENDBRANCH   3   4
ENDBRANCH   2   3
ENDBRANCH   1   2
BRANCH   1  10
ATOM     10  C   UNL     1      -1.976   3.379  -4.777  1.00  0.00     0.000 C 
BRANCH  10  11
ATOM     11  C   UNL     1      -0.504   3.226  -4.350  1.00  0.00     0.000 C 
BRANCH  11  12
ATOM     12  C   UNL     1      -0.055   1.758  -4.176  1.00  0.00     0.000 C 
BRANCH  12  13
ATOM     13  C   UNL     1       1.454   1.638  -3.899  1.00  0.00     0.000 C 
BRANCH  13  14
ATOM     14  C   UNL     1       2.269   2.773  -4.541  1.00  0.00     0.002 C 
BRANCH  14  15
ATOM     15  C   UNL     1       3.770   2.730  -4.182  1.00  0.00     0.028 C 
BRANCH  15  16
ATOM     16  C   UNL     1       4.101   1.596  -3.208  1.00  0.00     0.156 C 
BRANCH  16  17
ATOM     17  O   UNL     1       4.392   2.135  -1.949  1.00  0.00    -0.396 OA
ATOM     18  H   UNL     1       5.217   1.679  -1.638  1.00  0.00     0.210 HD
ENDBRANCH  16  17
ENDBRANCH  15  16
ENDBRANCH  14  15
ENDBRANCH  13  14
ENDBRANCH  12  13
ENDBRANCH  11  12
ENDBRANCH  10  11
ENDBRANCH   1  10
TORSDOF 15
ENDMDL
MODEL 4
REMARK VINA RESULT:    -2.767      1.820      3.320
REMARK INTER + INTRA:          -7.274
REMARK INTER:                  -5.691
REMARK INTRA:                  -1.584
REMARK UNBOUND:                -2.161
REMARK SMILES CCCCCCCCCCCCCCCCO
REMARK SMILES IDX 9 1 8 2 7 3 6 4 5 5 4 6 3 7 2 8 1 9 10 10 11 11 12 12 13 13
REMARK SMILES IDX 14 14 15 15 16 16 17 17
REMARK H PARENT 17 18
REMARK Flexibility Score: inf
ROOT
ATOM      1  C   UNL     1      -1.675   3.860  -4.598  1.00  0.00     0.000 C 
ENDROOT
BRANCH   1   2
ATOM      2  C   UNL     1      -2.272   2.599  -5.239  1.00  0.00    -0.000 C 
BRANCH   2   3
ATOM      3  C   UNL     1      -2.930   2.929  -6.586  1.00  0.00    -0.000 C 
BRANCH   3   4
ATOM      4  C   UNL     1      -1.921   3.422  -7.640  1.00  0.00    -0.000 C 
BRANCH   4   5
ATOM      5  C   UNL     1      -0.674   2.532  -7.812  1.00  0.00    -0.000 C 
BRANCH   5   6
ATOM      6  C   UNL     1       0.548   3.235  -8.435  1.00  0.00    -0.000 C 
BRANCH   6   7
ATOM      7  C   UNL     1       1.742   3.436  -7.481  1.00  0.00    -0.000 C 
BRANCH   7   8
ATOM      8  C   UNL     1       2.172   4.901  -7.284  1.00  0.00    -0.003 C 
ATOM      9  C   UNL     1       2.968   5.121  -5.998  1.00  0.00     0.004 C 
ENDBRANCH   7   8
ENDBRANCH   6   7
ENDBRANCH   5   6
ENDBRANCH   4   5
ENDBRANCH   3   4
ENDBRANCH   2   3
ENDBRANCH   1   2
BRANCH   1  10
ATOM     10  C   UNL     1      -0.181   3.711  -4.267  1.00  0.00     0.000 C 
BRANCH  10  11
ATOM     11  C   UNL     1       0.323   2.258  -4.179  1.00  0.00     0.000 C 
BRANCH  11  12
ATOM     12  C   UNL     1       1.861   2.133  -4.130  1.00  0.00     0.000 C 
BRANCH  12  13
ATOM     13  C   UNL     1       2.321   0.874  -3.376  1.00  0.00     0.000 C 
BRANCH  13  14
ATOM     14  C   UNL     1       3.815   0.909  -3.014  1.00  0.00     0.002 C 
BRANCH  14  15
ATOM     15  C   UNL     1       4.445  -0.493  -2.867  1.00  0.00     0.028 C 
BRANCH  15  16
ATOM     16  C   UNL     1       5.702  -0.657  -3.724  1.00  0.00     0.156 C 
BRANCH  16  17
ATOM     17  O   UNL     1       5.547  -1.762  -4.570  1.00  0.00    -0.396 OA
ATOM     18  H   UNL     1       4.613  -1.725  -4.904  1.00  0.00     0.210 HD
ENDBRANCH  16  17
ENDBRANCH  15  16
ENDBRANCH  14  15
ENDBRANCH  13  14
ENDBRANCH  12  13
ENDBRANCH  11  12
ENDBRANCH  10  11
ENDBRANCH   1  10
TORSDOF 15
ENDMDL
MODEL 5
REMARK VINA RESULT:    -2.753      1.407      2.120
REMARK INTER + INTRA:          -7.247
REMARK INTER:                  -5.111
REMARK INTRA:                  -2.136
REMARK UNBOUND:                -2.161
REMARK SMILES CCCCCCCCCCCCCCCCO
REMARK SMILES IDX 9 1 8 2 7 3 6 4 5 5 4 6 3 7 2 8 1 9 10 10 11 11 12 12 13 13
REMARK SMILES IDX 14 14 15 15 16 16 17 17
REMARK H PARENT 17 18
REMARK Flexibility Score: inf
ROOT
ATOM      1  C   UNL     1      -1.865   3.787  -8.987  1.00  0.00     0.000 C 
ENDROOT
BRANCH   1   2
ATOM      2  C   UNL     1      -2.376   2.563  -8.214  1.00  0.00    -0.000 C 
BRANCH   2   3
ATOM      3  C   UNL     1      -3.424   2.974  -7.168  1.00  0.00    -0.000 C 
BRANCH   3   4
ATOM      4  C   UNL     1      -2.808   3.268  -5.788  1.00  0.00    -0.000 C 
BRANCH   4   5
ATOM      5  C   UNL     1      -3.292   4.573  -5.125  1.00  0.00    -0.000 C 
BRANCH   5   6
ATOM      6  C   UNL     1      -2.171   5.532  -4.677  1.00  0.00    -0.000 C 
BRANCH   6   7
ATOM      7  C   UNL     1      -1.139   5.884  -5.766  1.00  0.00    -0.000 C 
BRANCH   7   8
ATOM      8  C   UNL     1       0.092   6.659  -5.263  1.00  0.00    -0.003 C 
ATOM      9  C   UNL     1       0.770   5.992  -4.067  1.00  0.00     0.004 C 
ENDBRANCH   7   8
ENDBRANCH   6   7
ENDBRANCH   5   6
ENDBRANCH   4   5
ENDBRANCH   3   4
ENDBRANCH   2   3
ENDBRANCH   1   2
BRANCH   1  10
ATOM     10  C   UNL     1      -0.382   4.086  -8.716  1.00  0.00     0.000 C 
BRANCH  10  11
ATOM     11  C   UNL     1       0.458   2.869  -8.286  1.00  0.00     0.000 C 
BRANCH  11  12
ATOM     12  C   UNL     1       1.816   3.240  -7.650  1.00  0.00     0.000 C 
BRANCH  12  13
ATOM     13  C   UNL     1       1.778   3.176  -6.114  1.00  0.00     0.000 C 
BRANCH  13  14
ATOM     14  C   UNL     1       0.500   2.511  -5.577  1.00  0.00     0.002 C 
BRANCH  14  15
ATOM     15  C   UNL     1       0.644   1.979  -4.134  1.00  0.00     0.028 C 
BRANCH  15  16
ATOM     16  C   UNL     1       2.102   1.700  -3.762  1.00  0.00     0.156 C 
BRANCH  16  17
ATOM     17  O   UNL     1       2.162   0.583  -2.920  1.00  0.00    -0.396 OA
ATOM     18  H   UNL     1       2.499  -0.165  -3.479  1.00  0.00     0.210 HD
ENDBRANCH  16  17
ENDBRANCH  15  16
ENDBRANCH  14  15
ENDBRANCH  13  14
ENDBRANCH  12  13
ENDBRANCH  11  12
ENDBRANCH  10  11
ENDBRANCH   1  10
TORSDOF 15
ENDMDL
MODEL 6
REMARK VINA RESULT:    -2.753      1.935      3.610
REMARK INTER + INTRA:          -7.247
REMARK INTER:                  -5.661
REMARK INTRA:                  -1.586
REMARK UNBOUND:                -2.161
REMARK SMILES CCCCCCCCCCCCCCCCO
REMARK SMILES IDX 9 1 8 2 7 3 6 4 5 5 4 6 3 7 2 8 1 9 10 10 11 11 12 12 13 13
REMARK SMILES IDX 14 14 15 15 16 16 17 17
REMARK H PARENT 17 18
REMARK Flexibility Score: inf
ROOT
ATOM      1  C   UNL     1      -0.553   2.067  -4.531  1.00  0.00     0.000 C 
ENDROOT
BRANCH   1   2
ATOM      2  C   UNL     1      -1.094   3.446  -4.125  1.00  0.00    -0.000 C 
BRANCH   2   3
ATOM      3  C   UNL     1      -2.360   3.794  -4.922  1.00  0.00    -0.000 C 
BRANCH   3   4
ATOM      4  C   UNL     1      -2.627   2.813  -6.079  1.00  0.00    -0.000 C 
BRANCH   4   5
ATOM      5  C   UNL     1      -2.897   3.478  -7.444  1.00  0.00    -0.000 C 
BRANCH   5   6
ATOM      6  C   UNL     1      -1.696   3.498  -8.409  1.00  0.00    -0.000 C 
BRANCH   6   7
ATOM      7  C   UNL     1      -0.657   2.383  -8.181  1.00  0.00    -0.000 C 
BRANCH   7   8
ATOM      8  C   UNL     1       0.764   2.879  -7.858  1.00  0.00    -0.003 C 
ATOM      9  C   UNL     1       0.784   4.292  -7.275  1.00  0.00     0.004 C 
ENDBRANCH   7   8
ENDBRANCH   6   7
ENDBRANCH   5   6
ENDBRANCH   4   5
ENDBRANCH   3   4
ENDBRANCH   2   3
ENDBRANCH   1   2
BRANCH   1  10
ATOM     10  C   UNL     1       0.728   1.682  -3.774  1.00  0.00     0.000 C 
BRANCH  10  11
ATOM     11  C   UNL     1       2.018   2.332  -4.308  1.00  0.00     0.000 C 
BRANCH  11  12
ATOM     12  C   UNL     1       3.305   1.814  -3.631  1.00  0.00     0.000 C 
BRANCH  12  13
ATOM     13  C   UNL     1       3.210   0.325  -3.257  1.00  0.00     0.000 C 
BRANCH  13  14
ATOM     14  C   UNL     1       4.552  -0.258  -2.784  1.00  0.00     0.002 C 
BRANCH  14  15
ATOM     15  C   UNL     1       5.285  -1.072  -3.871  1.00  0.00     0.028 C 
BRANCH  15  16
ATOM     16  C   UNL     1       6.803  -1.067  -3.674  1.00  0.00     0.156 C 
BRANCH  16  17
ATOM     17  O   UNL     1       7.411  -0.417  -4.756  1.00  0.00    -0.396 OA
ATOM     18  H   UNL     1       7.563  -1.115  -5.446  1.00  0.00     0.210 HD
ENDBRANCH  16  17
ENDBRANCH  15  16
ENDBRANCH  14  15
ENDBRANCH  13  14
ENDBRANCH  12  13
ENDBRANCH  11  12
ENDBRANCH  10  11
ENDBRANCH   1  10
TORSDOF 15
ENDMDL
MODEL 7
REMARK VINA RESULT:    -2.697      1.717      2.889
REMARK INTER + INTRA:          -7.144
REMARK INTER:                  -4.649
REMARK INTRA:                  -2.495
REMARK UNBOUND:                -2.161
REMARK SMILES CCCCCCCCCCCCCCCCO
REMARK SMILES IDX 9 1 8 2 7 3 6 4 5 5 4 6 3 7 2 8 1 9 10 10 11 11 12 12 13 13
REMARK SMILES IDX 14 14 15 15 16 16 17 17
REMARK H PARENT 17 18
REMARK Flexibility Score: inf
ROOT
ATOM      1  C   UNL     1      -2.588   4.085  -8.080  1.00  0.00     0.000 C 
ENDROOT
BRANCH   1   2
ATOM      2  C   UNL     1      -3.431   4.033  -6.798  1.00  0.00    -0.000 C 
BRANCH   2   3
ATOM      3  C   UNL     1      -2.762   3.145  -5.739  1.00  0.00    -0.000 C 
BRANCH   3   4
ATOM      4  C   UNL     1      -2.502   3.886  -4.414  1.00  0.00    -0.000 C 
BRANCH   4   5
ATOM      5  C   UNL     1      -1.377   4.939  -4.469  1.00  0.00    -0.000 C 
BRANCH   5   6
ATOM      6  C   UNL     1      -1.840   6.399  -4.292  1.00  0.00    -0.000 C 
BRANCH   6   7
ATOM      7  C   UNL     1      -3.318   6.570  -3.887  1.00  0.00    -0.000 C 
BRANCH   7   8
ATOM      8  C   UNL     1      -4.215   7.201  -4.967  1.00  0.00    -0.003 C 
ATOM      9  C   UNL     1      -3.425   7.728  -6.165  1.00  0.00     0.004 C 
ENDBRANCH   7   8
ENDBRANCH   6   7
ENDBRANCH   5   6
ENDBRANCH   4   5
ENDBRANCH   3   4
ENDBRANCH   2   3
ENDBRANCH   1   2
BRANCH   1  10
ATOM     10  C   UNL     1      -1.527   5.197  -8.052  1.00  0.00     0.000 C 
BRANCH  10  11
ATOM     11  C   UNL     1      -0.079   4.708  -7.862  1.00  0.00     0.000 C 
BRANCH  11  12
ATOM     12  C   UNL     1       0.087   3.179  -8.002  1.00  0.00     0.000 C 
BRANCH  12  13
ATOM     13  C   UNL     1       0.598   2.525  -6.706  1.00  0.00     0.000 C 
BRANCH  13  14
ATOM     14  C   UNL     1       1.658   3.376  -5.988  1.00  0.00     0.002 C 
BRANCH  14  15
ATOM     15  C   UNL     1       1.848   2.995  -4.504  1.00  0.00     0.028 C 
BRANCH  15  16
ATOM     16  C   UNL     1       0.950   1.829  -4.084  1.00  0.00     0.156 C 
BRANCH  16  17
ATOM     17  O   UNL     1       1.620   1.042  -3.139  1.00  0.00    -0.396 OA
ATOM     18  H   UNL     1       2.397   0.645  -3.612  1.00  0.00     0.210 HD
ENDBRANCH  16  17
ENDBRANCH  15  16
ENDBRANCH  14  15
ENDBRANCH  13  14
ENDBRANCH  12  13
ENDBRANCH  11  12
ENDBRANCH  10  11
ENDBRANCH   1  10
TORSDOF 15
ENDMDL
MODEL 8
REMARK VINA RESULT:    -2.691      1.487      3.423
REMARK INTER + INTRA:          -7.133
REMARK INTER:                  -5.104
REMARK INTRA:                  -2.028
REMARK UNBOUND:                -2.161
REMARK SMILES CCCCCCCCCCCCCCCCO
REMARK SMILES IDX 9 1 8 2 7 3 6 4 5 5 4 6 3 7 2 8 1 9 10 10 11 11 12 12 13 13
REMARK SMILES IDX 14 14 15 15 16 16 17 17
REMARK H PARENT 17 18
REMARK Flexibility Score: inf
ROOT
ATOM      1  C   UNL     1      -1.965   5.570  -6.987  1.00  0.00     0.000 C 
ENDROOT
BRANCH   1   2
ATOM      2  C   UNL     1      -3.305   5.444  -7.726  1.00  0.00    -0.000 C 
BRANCH   2   3
ATOM      3  C   UNL     1      -3.998   4.118  -7.381  1.00  0.00    -0.000 C 
BRANCH   3   4
ATOM      4  C   UNL     1      -3.064   2.901  -7.517  1.00  0.00    -0.000 C 
BRANCH   4   5
ATOM      5  C   UNL     1      -2.679   2.536  -8.965  1.00  0.00    -0.000 C 
BRANCH   5   6
ATOM      6  C   UNL     1      -1.200   2.776  -9.327  1.00  0.00    -0.000 C 
BRANCH   6   7
ATOM      7  C   UNL     1      -0.181   2.223  -8.310  1.00  0.00    -0.000 C 
BRANCH   7   8
ATOM      8  C   UNL     1       1.005   3.157  -8.011  1.00  0.00    -0.003 C 
ATOM      9  C   UNL     1       0.984   4.436  -8.848  1.00  0.00     0.004 C 
ENDBRANCH   7   8
ENDBRANCH   6   7
ENDBRANCH   5   6
ENDBRANCH   4   5
ENDBRANCH   3   4
ENDBRANCH   2   3
ENDBRANCH   1   2
BRANCH   1  10
ATOM     10  C   UNL     1      -2.126   5.583  -5.458  1.00  0.00     0.000 C 
BRANCH  10  11
ATOM     11  C   UNL     1      -1.053   4.792  -4.686  1.00  0.00     0.000 C 
BRANCH  11  12
ATOM     12  C   UNL     1      -1.531   3.408  -4.194  1.00  0.00     0.000 C 
BRANCH  12  13
ATOM     13  C   UNL     1      -0.698   2.258  -4.786  1.00  0.00     0.000 C 
BRANCH  13  14
ATOM     14  C   UNL     1       0.455   1.823  -3.866  1.00  0.00     0.002 C 
BRANCH  14  15
ATOM     15  C   UNL     1       1.832   2.361  -4.311  1.00  0.00     0.028 C 
BRANCH  15  16
ATOM     16  C   UNL     1       2.989   1.628  -3.628  1.00  0.00     0.156 C 
BRANCH  16  17
ATOM     17  O   UNL     1       2.476   0.683  -2.731  1.00  0.00    -0.396 OA
ATOM     18  H   UNL     1       2.454   1.128  -1.844  1.00  0.00     0.210 HD
ENDBRANCH  16  17
ENDBRANCH  15  16
ENDBRANCH  14  15
ENDBRANCH  13  14
ENDBRANCH  12  13
ENDBRANCH  11  12
ENDBRANCH  10  11
ENDBRANCH   1  10
TORSDOF 15
ENDMDL
MODEL 9
REMARK VINA RESULT:    -2.639      3.029      4.909
REMARK INTER + INTRA:          -7.037
REMARK INTER:                  -4.675
REMARK INTRA:                  -2.362
REMARK UNBOUND:                -2.161
REMARK SMILES CCCCCCCCCCCCCCCCO
REMARK SMILES IDX 9 1 8 2 7 3 6 4 5 5 4 6 3 7 2 8 1 9 10 10 11 11 12 12 13 13
REMARK SMILES IDX 14 14 15 15 16 16 17 17
REMARK H PARENT 17 18
REMARK Flexibility Score: inf
ROOT
ATOM      1  C   UNL     1       1.751   3.030  -4.508  1.00  0.00     0.000 C 
ENDROOT
BRANCH   1   2
ATOM      2  C   UNL     1       0.471   2.268  -4.136  1.00  0.00    -0.000 C 
BRANCH   2   3
ATOM      3  C   UNL     1      -0.520   2.259  -5.309  1.00  0.00    -0.000 C 
BRANCH   3   4
ATOM      4  C   UNL     1      -1.940   2.690  -4.897  1.00  0.00    -0.000 C 
BRANCH   4   5
ATOM      5  C   UNL     1      -2.413   4.028  -5.499  1.00  0.00    -0.000 C 
BRANCH   5   6
ATOM      6  C   UNL     1      -2.988   5.034  -4.482  1.00  0.00    -0.000 C 
BRANCH   6   7
ATOM      7  C   UNL     1      -2.206   6.356  -4.359  1.00  0.00    -0.000 C 
BRANCH   7   8
ATOM      8  C   UNL     1      -0.824   6.354  -5.035  1.00  0.00    -0.003 C 
ATOM      9  C   UNL     1       0.331   6.315  -4.035  1.00  0.00     0.004 C 
ENDBRANCH   7   8
ENDBRANCH   6   7
ENDBRANCH   5   6
ENDBRANCH   4   5
ENDBRANCH   3   4
ENDBRANCH   2   3
ENDBRANCH   1   2
BRANCH   1  10
ATOM     10  C   UNL     1       2.010   3.060  -6.023  1.00  0.00     0.000 C 
BRANCH  10  11
ATOM     11  C   UNL     1       2.200   4.466  -6.622  1.00  0.00     0.000 C 
BRANCH  11  12
ATOM     12  C   UNL     1       1.280   4.761  -7.826  1.00  0.00     0.000 C 
BRANCH  12  13
ATOM     13  C   UNL     1       0.744   3.477  -8.481  1.00  0.00     0.000 C 
BRANCH  13  14
ATOM     14  C   UNL     1      -0.754   3.558  -8.814  1.00  0.00     0.002 C 
BRANCH  14  15
ATOM     15  C   UNL     1      -1.417   2.177  -9.006  1.00  0.00     0.028 C 
BRANCH  15  16
ATOM     16  C   UNL     1      -2.898   2.185  -8.618  1.00  0.00     0.156 C 
BRANCH  16  17
ATOM     17  O   UNL     1      -3.331   0.870  -8.408  1.00  0.00    -0.396 OA
ATOM     18  H   UNL     1      -3.443   0.469  -9.309  1.00  0.00     0.210 HD
ENDBRANCH  16  17
ENDBRANCH  15  16
ENDBRANCH  14  15
ENDBRANCH  13  14
ENDBRANCH  12  13
ENDBRANCH  11  12
ENDBRANCH  10  11
ENDBRANCH   1  10
TORSDOF 15
ENDMDL
