MODEL 1
REMARK VINA RESULT:    -6.255      0.000      0.000
REMARK INTER + INTRA:          -7.077
REMARK INTER:                  -6.803
REMARK INTRA:                  -0.273
REMARK UNBOUND:                -0.273
REMARK SMILES C=C1C[C@@]2(O)O[C@]3(C[C@@H]2C(C)C)[C@@H]1CC[C@@H]3C
REMARK SMILES IDX 17 1 16 2 15 3 14 4 13 5 7 6 8 7 9 8 4 9 6 10 3 11 2 12 1 13
REMARK SMILES IDX 10 14 11 15 12 16 5 17
REMARK H PARENT 5 18
REMARK Flexibility Score: inf
ROOT
ATOM      1  C   UNL     1      83.756  81.619 276.622  1.00  0.00     0.011 C 
ATOM      2  C   UNL     1      83.533  80.139 276.270  1.00  0.00     0.019 C 
ATOM      3  C   UNL     1      82.864  79.974 274.880  1.00  0.00     0.007 C 
ATOM      4  C   UNL     1      83.929  79.417 273.916  1.00  0.00     0.011 C 
ATOM      5  C   UNL     1      85.236  79.574 274.679  1.00  0.00     0.047 C 
ATOM      6  C   UNL     1      84.849  79.350 276.140  1.00  0.00     0.081 C 
ATOM      7  C   UNL     1      84.652  77.848 276.499  1.00  0.00     0.046 C 
ATOM      8  C   UNL     1      85.973  77.465 277.167  1.00  0.00     0.054 C 
ATOM      9  C   UNL     1      86.837  78.715 276.879  1.00  0.00     0.173 C 
ATOM     10  O   UNL     1      85.930  79.804 276.921  1.00  0.00    -0.342 OA
ATOM     11  C   UNL     1      87.489  78.621 275.450  1.00  0.00     0.096 C 
ATOM     12  C   UNL     1      86.440  78.725 274.351  1.00  0.00    -0.066 C 
ATOM     13  C   UNL     1      86.685  78.274 273.114  1.00  0.00     0.008 C 
ENDROOT
BRANCH   8  14
ATOM     14  C   UNL     1      85.835  77.104 278.684  1.00  0.00    -0.009 C 
ATOM     15  C   UNL     1      86.016  75.597 278.919  1.00  0.00     0.008 C 
ATOM     16  C   UNL     1      84.529  77.596 279.339  1.00  0.00     0.008 C 
ENDBRANCH   8  14
BRANCH   9  17
ATOM     17  O   UNL     1      87.840  78.907 277.845  1.00  0.00    -0.365 OA
ATOM     18  H   UNL     1      88.429  79.636 277.517  1.00  0.00     0.214 HD
ENDBRANCH   9  17
TORSDOF 2
ENDMDL
MODEL 2
REMARK VINA RESULT:    -5.850      1.442      3.827
REMARK INTER + INTRA:          -6.636
REMARK INTER:                  -6.384
REMARK INTRA:                  -0.252
REMARK UNBOUND:                -0.273
REMARK SMILES C=C1C[C@@]2(O)O[C@]3(C[C@@H]2C(C)C)[C@@H]1CC[C@@H]3C
REMARK SMILES IDX 17 1 16 2 15 3 14 4 13 5 7 6 8 7 9 8 4 9 6 10 3 11 2 12 1 13
REMARK SMILES IDX 10 14 11 15 12 16 5 17
REMARK H PARENT 5 18
REMARK Flexibility Score: inf
ROOT
ATOM      1  C   UNL     1      86.738  78.481 273.934  1.00  0.00     0.011 C 
ATOM      2  C   UNL     1      85.423  78.325 274.714  1.00  0.00     0.019 C 
ATOM      3  C   UNL     1      84.793  76.923 274.506  1.00  0.00     0.007 C 
ATOM      4  C   UNL     1      84.962  76.139 275.821  1.00  0.00     0.011 C 
ATOM      5  C   UNL     1      85.944  76.976 276.627  1.00  0.00     0.047 C 
ATOM      6  C   UNL     1      85.617  78.417 276.240  1.00  0.00     0.081 C 
ATOM      7  C   UNL     1      84.344  78.968 276.946  1.00  0.00     0.046 C 
ATOM      8  C   UNL     1      84.907  79.790 278.105  1.00  0.00     0.054 C 
ATOM      9  C   UNL     1      86.402  79.398 278.062  1.00  0.00     0.173 C 
ATOM     10  O   UNL     1      86.691  79.211 276.686  1.00  0.00    -0.342 OA
ATOM     11  C   UNL     1      86.648  78.055 278.845  1.00  0.00     0.096 C 
ATOM     12  C   UNL     1      86.010  76.871 278.131  1.00  0.00    -0.066 C 
ATOM     13  C   UNL     1      85.735  75.735 278.785  1.00  0.00     0.008 C 
ENDROOT
BRANCH   8  14
ATOM     14  C   UNL     1      84.632  81.326 277.987  1.00  0.00    -0.009 C 
ATOM     15  C   UNL     1      84.083  81.899 279.302  1.00  0.00     0.008 C 
ATOM     16  C   UNL     1      83.720  81.720 276.808  1.00  0.00     0.008 C 
ENDBRANCH   8  14
BRANCH   9  17
ATOM     17  O   UNL     1      87.235  80.406 278.579  1.00  0.00    -0.365 OA
ATOM     18  H   UNL     1      86.899  81.274 278.232  1.00  0.00     0.214 HD
ENDBRANCH   9  17
TORSDOF 2
ENDMDL
MODEL 3
REMARK VINA RESULT:    -5.721      1.458      4.172
REMARK INTER + INTRA:          -6.496
REMARK INTER:                  -6.238
REMARK INTRA:                  -0.258
REMARK UNBOUND:                -0.273
REMARK SMILES C=C1C[C@@]2(O)O[C@]3(C[C@@H]2C(C)C)[C@@H]1CC[C@@H]3C
REMARK SMILES IDX 17 1 16 2 15 3 14 4 13 5 7 6 8 7 9 8 4 9 6 10 3 11 2 12 1 13
REMARK SMILES IDX 10 14 11 15 12 16 5 17
REMARK H PARENT 5 18
REMARK Flexibility Score: inf
ROOT
ATOM      1  C   UNL     1      85.950  76.011 278.753  1.00  0.00     0.011 C 
ATOM      2  C   UNL     1      85.049  76.406 277.573  1.00  0.00     0.019 C 
ATOM      3  C   UNL     1      83.575  76.600 278.014  1.00  0.00     0.007 C 
ATOM      4  C   UNL     1      83.271  78.110 277.968  1.00  0.00     0.011 C 
ATOM      5  C   UNL     1      84.639  78.757 277.813  1.00  0.00     0.047 C 
ATOM      6  C   UNL     1      85.430  77.767 276.959  1.00  0.00     0.081 C 
ATOM      7  C   UNL     1      85.066  77.834 275.447  1.00  0.00     0.046 C 
ATOM      8  C   UNL     1      86.185  78.687 274.848  1.00  0.00     0.054 C 
ATOM      9  C   UNL     1      86.894  79.201 276.122  1.00  0.00     0.173 C 
ATOM     10  O   UNL     1      86.785  78.139 277.055  1.00  0.00    -0.342 OA
ATOM     11  C   UNL     1      86.168  80.480 276.684  1.00  0.00     0.096 C 
ATOM     12  C   UNL     1      84.787  80.141 277.229  1.00  0.00    -0.066 C 
ATOM     13  C   UNL     1      83.849  81.086 277.374  1.00  0.00     0.008 C 
ENDROOT
BRANCH   8  14
ATOM     14  C   UNL     1      87.112  77.910 273.855  1.00  0.00    -0.009 C 
ATOM     15  C   UNL     1      86.776  78.250 272.395  1.00  0.00     0.008 C 
ATOM     16  C   UNL     1      87.128  76.383 274.060  1.00  0.00     0.008 C 
ENDBRANCH   8  14
BRANCH   9  17
ATOM     17  O   UNL     1      88.252  79.488 275.900  1.00  0.00    -0.365 OA
ATOM     18  H   UNL     1      88.384  79.548 274.918  1.00  0.00     0.214 HD
ENDBRANCH   9  17
TORSDOF 2
ENDMDL
MODEL 4
REMARK VINA RESULT:    -5.656      1.707      3.714
REMARK INTER + INTRA:          -6.425
REMARK INTER:                  -6.263
REMARK INTRA:                  -0.162
REMARK UNBOUND:                -0.273
REMARK SMILES C=C1C[C@@]2(O)O[C@]3(C[C@@H]2C(C)C)[C@@H]1CC[C@@H]3C
REMARK SMILES IDX 17 1 16 2 15 3 14 4 13 5 7 6 8 7 9 8 4 9 6 10 3 11 2 12 1 13
REMARK SMILES IDX 10 14 11 15 12 16 5 17
REMARK H PARENT 5 18
REMARK Flexibility Score: inf
ROOT
ATOM      1  C   UNL     1      81.880  79.068 276.444  1.00  0.00     0.011 C 
ATOM      2  C   UNL     1      83.122  79.836 275.965  1.00  0.00     0.019 C 
ATOM      3  C   UNL     1      83.191  81.259 276.579  1.00  0.00     0.007 C 
ATOM      4  C   UNL     1      84.333  81.263 277.614  1.00  0.00     0.011 C 
ATOM      5  C   UNL     1      84.673  79.791 277.793  1.00  0.00     0.047 C 
ATOM      6  C   UNL     1      84.442  79.180 276.413  1.00  0.00     0.081 C 
ATOM      7  C   UNL     1      85.595  79.473 275.410  1.00  0.00     0.046 C 
ATOM      8  C   UNL     1      86.428  78.192 275.439  1.00  0.00     0.054 C 
ATOM      9  C   UNL     1      85.792  77.439 276.630  1.00  0.00     0.173 C 
ATOM     10  O   UNL     1      84.417  77.781 276.587  1.00  0.00    -0.342 OA
ATOM     11  C   UNL     1      86.418  77.921 277.991  1.00  0.00     0.096 C 
ATOM     12  C   UNL     1      86.026  79.358 278.305  1.00  0.00    -0.066 C 
ATOM     13  C   UNL     1      86.741  80.101 279.160  1.00  0.00     0.008 C 
ENDROOT
BRANCH   8  14
ATOM     14  C   UNL     1      86.421  77.400 274.089  1.00  0.00    -0.009 C 
ATOM     15  C   UNL     1      87.782  76.739 273.821  1.00  0.00     0.008 C 
ATOM     16  C   UNL     1      85.978  78.229 272.867  1.00  0.00     0.008 C 
ENDBRANCH   8  14
BRANCH   9  17
ATOM     17  O   UNL     1      85.927  76.044 276.515  1.00  0.00    -0.365 OA
ATOM     18  H   UNL     1      85.038  75.681 276.260  1.00  0.00     0.214 HD
ENDBRANCH   9  17
TORSDOF 2
ENDMDL
MODEL 5
REMARK VINA RESULT:    -5.639      1.954      3.925
REMARK INTER + INTRA:          -6.407
REMARK INTER:                  -6.132
REMARK INTRA:                  -0.275
REMARK UNBOUND:                -0.273
REMARK SMILES C=C1C[C@@]2(O)O[C@]3(C[C@@H]2C(C)C)[C@@H]1CC[C@@H]3C
REMARK SMILES IDX 17 1 16 2 15 3 14 4 13 5 7 6 8 7 9 8 4 9 6 10 3 11 2 12 1 13
REMARK SMILES IDX 10 14 11 15 12 16 5 17
REMARK H PARENT 5 18
REMARK Flexibility Score: inf
ROOT
ATOM      1  C   UNL     1      84.503  81.997 278.137  1.00  0.00     0.011 C 
ATOM      2  C   UNL     1      84.611  80.465 278.193  1.00  0.00     0.019 C 
ATOM      3  C   UNL     1      83.614  79.854 279.212  1.00  0.00     0.007 C 
ATOM      4  C   UNL     1      82.508  79.142 278.409  1.00  0.00     0.011 C 
ATOM      5  C   UNL     1      82.720  79.624 276.981  1.00  0.00     0.047 C 
ATOM      6  C   UNL     1      84.233  79.789 276.861  1.00  0.00     0.081 C 
ATOM      7  C   UNL     1      84.985  78.439 276.671  1.00  0.00     0.046 C 
ATOM      8  C   UNL     1      85.235  78.379 275.165  1.00  0.00     0.054 C 
ATOM      9  C   UNL     1      84.381  79.566 274.663  1.00  0.00     0.173 C 
ATOM     10  O   UNL     1      84.468  80.539 275.691  1.00  0.00    -0.342 OA
ATOM     11  C   UNL     1      82.882  79.128 274.470  1.00  0.00     0.096 C 
ATOM     12  C   UNL     1      82.214  78.825 275.804  1.00  0.00    -0.066 C 
ATOM     13  C   UNL     1      81.113  78.065 275.872  1.00  0.00     0.008 C 
ENDROOT
BRANCH   8  14
ATOM     14  C   UNL     1      86.748  78.452 274.769  1.00  0.00    -0.009 C 
ATOM     15  C   UNL     1      87.255  77.100 274.243  1.00  0.00     0.008 C 
ATOM     16  C   UNL     1      87.674  78.973 275.886  1.00  0.00     0.008 C 
ENDBRANCH   8  14
BRANCH   9  17
ATOM     17  O   UNL     1      84.873  80.111 273.464  1.00  0.00    -0.365 OA
ATOM     18  H   UNL     1      85.861  80.168 273.550  1.00  0.00     0.214 HD
ENDBRANCH   9  17
TORSDOF 2
ENDMDL
MODEL 6
REMARK VINA RESULT:    -5.609      1.942      3.615
REMARK INTER + INTRA:          -6.374
REMARK INTER:                  -6.160
REMARK INTRA:                  -0.214
REMARK UNBOUND:                -0.273
REMARK SMILES C=C1C[C@@]2(O)O[C@]3(C[C@@H]2C(C)C)[C@@H]1CC[C@@H]3C
REMARK SMILES IDX 17 1 16 2 15 3 14 4 13 5 7 6 8 7 9 8 4 9 6 10 3 11 2 12 1 13
REMARK SMILES IDX 10 14 11 15 12 16 5 17
REMARK H PARENT 5 18
REMARK Flexibility Score: inf
ROOT
ATOM      1  C   UNL     1      86.749  76.281 274.419  1.00  0.00     0.011 C 
ATOM      2  C   UNL     1      86.699  77.804 274.626  1.00  0.00     0.019 C 
ATOM      3  C   UNL     1      86.445  78.557 273.294  1.00  0.00     0.007 C 
ATOM      4  C   UNL     1      85.008  79.111 273.342  1.00  0.00     0.011 C 
ATOM      5  C   UNL     1      84.380  78.407 274.535  1.00  0.00     0.047 C 
ATOM      6  C   UNL     1      85.530  78.247 275.527  1.00  0.00     0.081 C 
ATOM      7  C   UNL     1      85.866  79.559 276.294  1.00  0.00     0.046 C 
ATOM      8  C   UNL     1      85.161  79.377 277.638  1.00  0.00     0.054 C 
ATOM      9  C   UNL     1      84.314  78.111 277.372  1.00  0.00     0.173 C 
ATOM     10  O   UNL     1      85.104  77.321 276.499  1.00  0.00    -0.342 OA
ATOM     11  C   UNL     1      82.958  78.488 276.668  1.00  0.00     0.096 C 
ATOM     12  C   UNL     1      83.188  78.995 275.251  1.00  0.00    -0.066 C 
ATOM     13  C   UNL     1      82.268  79.739 274.623  1.00  0.00     0.008 C 
ENDROOT
BRANCH   8  14
ATOM     14  C   UNL     1      86.137  79.264 278.856  1.00  0.00    -0.009 C 
ATOM     15  C   UNL     1      86.368  80.632 279.517  1.00  0.00     0.008 C 
ATOM     16  C   UNL     1      87.486  78.592 278.531  1.00  0.00     0.008 C 
ENDBRANCH   8  14
BRANCH   9  17
ATOM     17  O   UNL     1      84.052  77.386 278.547  1.00  0.00    -0.365 OA
ATOM     18  H   UNL     1      83.528  76.583 278.287  1.00  0.00     0.214 HD
ENDBRANCH   9  17
TORSDOF 2
ENDMDL
MODEL 7
REMARK VINA RESULT:    -5.560      2.213      4.121
REMARK INTER + INTRA:          -6.321
REMARK INTER:                  -6.080
REMARK INTRA:                  -0.241
REMARK UNBOUND:                -0.273
REMARK SMILES C=C1C[C@@]2(O)O[C@]3(C[C@@H]2C(C)C)[C@@H]1CC[C@@H]3C
REMARK SMILES IDX 17 1 16 2 15 3 14 4 13 5 7 6 8 7 9 8 4 9 6 10 3 11 2 12 1 13
REMARK SMILES IDX 10 14 11 15 12 16 5 17
REMARK H PARENT 5 18
REMARK Flexibility Score: inf
ROOT
ATOM      1  C   UNL     1      87.073  77.714 274.015  1.00  0.00     0.011 C 
ATOM      2  C   UNL     1      86.690  77.804 275.501  1.00  0.00     0.019 C 
ATOM      3  C   UNL     1      87.493  78.909 276.236  1.00  0.00     0.007 C 
ATOM      4  C   UNL     1      86.520  80.065 276.539  1.00  0.00     0.011 C 
ATOM      5  C   UNL     1      85.288  79.738 275.707  1.00  0.00     0.047 C 
ATOM      6  C   UNL     1      85.221  78.212 275.718  1.00  0.00     0.081 C 
ATOM      7  C   UNL     1      84.656  77.632 277.047  1.00  0.00     0.046 C 
ATOM      8  C   UNL     1      83.195  77.334 276.713  1.00  0.00     0.054 C 
ATOM      9  C   UNL     1      83.051  78.010 275.330  1.00  0.00     0.173 C 
ATOM     10  O   UNL     1      84.313  77.839 274.707  1.00  0.00    -0.342 OA
ATOM     11  C   UNL     1      82.740  79.544 275.492  1.00  0.00     0.096 C 
ATOM     12  C   UNL     1      83.932  80.296 276.067  1.00  0.00    -0.066 C 
ATOM     13  C   UNL     1      83.780  81.486 276.661  1.00  0.00     0.008 C 
ENDROOT
BRANCH   8  14
ATOM     14  C   UNL     1      82.838  75.810 276.734  1.00  0.00    -0.009 C 
ATOM     15  C   UNL     1      81.522  75.554 277.486  1.00  0.00     0.008 C 
ATOM     16  C   UNL     1      83.955  74.901 277.284  1.00  0.00     0.008 C 
ENDBRANCH   8  14
BRANCH   9  17
ATOM     17  O   UNL     1      82.057  77.406 274.540  1.00  0.00    -0.365 OA
ATOM     18  H   UNL     1      81.221  77.928 274.668  1.00  0.00     0.214 HD
ENDBRANCH   9  17
TORSDOF 2
ENDMDL
MODEL 8
REMARK VINA RESULT:    -5.421      1.505      4.466
REMARK INTER + INTRA:          -6.169
REMARK INTER:                  -6.054
REMARK INTRA:                  -0.116
REMARK UNBOUND:                -0.273
REMARK SMILES C=C1C[C@@]2(O)O[C@]3(C[C@@H]2C(C)C)[C@@H]1CC[C@@H]3C
REMARK SMILES IDX 17 1 16 2 15 3 14 4 13 5 7 6 8 7 9 8 4 9 6 10 3 11 2 12 1 13
REMARK SMILES IDX 10 14 11 15 12 16 5 17
REMARK H PARENT 5 18
REMARK Flexibility Score: inf
ROOT
ATOM      1  C   UNL     1      86.603  79.240 278.832  1.00  0.00     0.011 C 
ATOM      2  C   UNL     1      86.176  77.991 278.044  1.00  0.00     0.019 C 
ATOM      3  C   UNL     1      85.299  77.041 278.902  1.00  0.00     0.007 C 
ATOM      4  C   UNL     1      83.857  77.131 278.366  1.00  0.00     0.011 C 
ATOM      5  C   UNL     1      83.881  78.341 277.444  1.00  0.00     0.047 C 
ATOM      6  C   UNL     1      85.281  78.323 276.835  1.00  0.00     0.081 C 
ATOM      7  C   UNL     1      85.443  77.272 275.698  1.00  0.00     0.046 C 
ATOM      8  C   UNL     1      85.292  78.099 274.423  1.00  0.00     0.054 C 
ATOM      9  C   UNL     1      84.817  79.457 274.991  1.00  0.00     0.173 C 
ATOM     10  O   UNL     1      85.481  79.583 276.237  1.00  0.00    -0.342 OA
ATOM     11  C   UNL     1      83.259  79.450 275.216  1.00  0.00     0.096 C 
ATOM     12  C   UNL     1      82.864  78.502 276.340  1.00  0.00    -0.066 C 
ATOM     13  C   UNL     1      81.615  78.027 276.439  1.00  0.00     0.008 C 
ENDROOT
BRANCH   8  14
ATOM     14  C   UNL     1      86.594  78.176 273.558  1.00  0.00    -0.009 C 
ATOM     15  C   UNL     1      86.266  78.286 272.061  1.00  0.00     0.008 C 
ATOM     16  C   UNL     1      87.591  77.025 273.804  1.00  0.00     0.008 C 
ENDBRANCH   8  14
BRANCH   9  17
ATOM     17  O   UNL     1      85.170  80.537 274.164  1.00  0.00    -0.365 OA
ATOM     18  H   UNL     1      84.709  81.342 274.517  1.00  0.00     0.214 HD
ENDBRANCH   9  17
TORSDOF 2
ENDMDL
MODEL 9
REMARK VINA RESULT:    -5.383      1.792      4.235
REMARK INTER + INTRA:          -6.129
REMARK INTER:                  -5.855
REMARK INTRA:                  -0.273
REMARK UNBOUND:                -0.273
REMARK SMILES C=C1C[C@@]2(O)O[C@]3(C[C@@H]2C(C)C)[C@@H]1CC[C@@H]3C
REMARK SMILES IDX 17 1 16 2 15 3 14 4 13 5 7 6 8 7 9 8 4 9 6 10 3 11 2 12 1 13
REMARK SMILES IDX 10 14 11 15 12 16 5 17
REMARK H PARENT 5 18
REMARK Flexibility Score: inf
ROOT
ATOM      1  C   UNL     1      84.310  76.594 278.966  1.00  0.00     0.011 C 
ATOM      2  C   UNL     1      84.286  78.042 278.453  1.00  0.00     0.019 C 
ATOM      3  C   UNL     1      85.216  78.964 279.284  1.00  0.00     0.007 C 
ATOM      4  C   UNL     1      86.432  79.311 278.404  1.00  0.00     0.011 C 
ATOM      5  C   UNL     1      86.328  78.346 277.233  1.00  0.00     0.047 C 
ATOM      6  C   UNL     1      84.826  78.177 277.016  1.00  0.00     0.081 C 
ATOM      7  C   UNL     1      84.174  79.379 276.271  1.00  0.00     0.046 C 
ATOM      8  C   UNL     1      84.071  78.890 274.827  1.00  0.00     0.054 C 
ATOM      9  C   UNL     1      84.899  77.585 274.884  1.00  0.00     0.173 C 
ATOM     10  O   UNL     1      84.659  77.057 276.178  1.00  0.00    -0.342 OA
ATOM     11  C   UNL     1      86.433  77.893 274.710  1.00  0.00     0.096 C 
ATOM     12  C   UNL     1      86.988  78.649 275.909  1.00  0.00    -0.066 C 
ATOM     13  C   UNL     1      88.120  79.360 275.817  1.00  0.00     0.008 C 
ENDROOT
BRANCH   8  14
ATOM     14  C   UNL     1      82.601  78.707 274.323  1.00  0.00    -0.009 C 
ATOM     15  C   UNL     1      82.219  79.795 273.307  1.00  0.00     0.008 C 
ATOM     16  C   UNL     1      81.548  78.628 275.445  1.00  0.00     0.008 C 
ENDBRANCH   8  14
BRANCH   9  17
ATOM     17  O   UNL     1      84.492  76.650 273.917  1.00  0.00    -0.365 OA
ATOM     18  H   UNL     1      85.198  76.620 273.220  1.00  0.00     0.214 HD
ENDBRANCH   9  17
TORSDOF 2
ENDMDL
