MODEL 1
REMARK VINA RESULT:     6.132      0.000      0.000
REMARK INTER + INTRA:           7.443
REMARK INTER:                   7.565
REMARK INTRA:                  -0.122
REMARK UNBOUND:                -0.122
REMARK SMILES CCCCCC(=O)[O-]
REMARK SMILES IDX 4 1 5 2 6 3 7 4 8 5 3 6 2 7 1 8
REMARK H PARENT
REMARK Flexibility Score: inf
ROOT
ATOM      1  C   UNL     1     -12.325  -8.557 -21.955  1.00  0.00     0.006 C 
ENDROOT
BRANCH   1   2
ATOM      2  C   UNL     1     -13.641  -7.788 -22.132  1.00  0.00     0.053 C 
BRANCH   2   3
ATOM      3  C   UNL     1     -14.405  -8.265 -23.329  1.00  0.00     0.041 C 
ATOM      4  O   UNL     1     -14.305  -9.461 -23.711  1.00  0.00    -0.550 OA
ATOM      5  O   UNL     1     -15.204  -7.380 -24.042  1.00  0.00    -0.550 OA
ENDBRANCH   2   3
ENDBRANCH   1   2
BRANCH   1   6
ATOM      6  C   UNL     1     -12.087  -8.972 -20.495  1.00  0.00     0.000 C 
BRANCH   6   7
ATOM      7  C   UNL     1     -12.749  -7.984 -19.529  1.00  0.00    -0.003 C 
ATOM      8  C   UNL     1     -12.768  -8.534 -18.105  1.00  0.00     0.004 C 
ENDBRANCH   6   7
ENDBRANCH   1   6
TORSDOF 4
ENDMDL
MODEL 2
REMARK VINA RESULT:     6.658     22.430     23.480
REMARK INTER + INTRA:           8.093
REMARK INTER:                   7.860
REMARK INTRA:                   0.233
REMARK UNBOUND:                -0.122
REMARK SMILES CCCCCC(=O)[O-]
REMARK SMILES IDX 4 1 5 2 6 3 7 4 8 5 3 6 2 7 1 8
REMARK H PARENT
REMARK Flexibility Score: inf
ROOT
ATOM      1  C   UNL     1     -28.912 -19.798  -9.718  1.00  0.00     0.006 C 
ENDROOT
BRANCH   1   2
ATOM      2  C   UNL     1     -30.374 -20.121  -9.384  1.00  0.00     0.053 C 
BRANCH   2   3
ATOM      3  C   UNL     1     -30.776 -19.564  -8.052  1.00  0.00     0.041 C 
ATOM      4  O   UNL     1     -30.770 -18.320  -7.857  1.00  0.00    -0.550 OA
ATOM      5  O   UNL     1     -31.125 -20.422  -7.017  1.00  0.00    -0.550 OA
ENDBRANCH   2   3
ENDBRANCH   1   2
BRANCH   1   6
ATOM      6  C   UNL     1     -28.085 -19.482  -8.463  1.00  0.00     0.000 C 
BRANCH   6   7
ATOM      7  C   UNL     1     -26.684 -18.987  -8.839  1.00  0.00    -0.003 C 
ATOM      8  C   UNL     1     -25.980 -18.361  -7.639  1.00  0.00     0.004 C 
ENDBRANCH   6   7
ENDBRANCH   1   6
TORSDOF 4
ENDMDL
MODEL 3
REMARK VINA RESULT:     7.127     22.156     23.288
REMARK INTER + INTRA:           8.671
REMARK INTER:                   8.434
REMARK INTRA:                   0.237
REMARK UNBOUND:                -0.122
REMARK SMILES CCCCCC(=O)[O-]
REMARK SMILES IDX 4 1 5 2 6 3 7 4 8 5 3 6 2 7 1 8
REMARK H PARENT
REMARK Flexibility Score: inf
ROOT
ATOM      1  C   UNL     1     -28.929 -19.696  -9.494  1.00  0.00     0.006 C 
ENDROOT
BRANCH   1   2
ATOM      2  C   UNL     1     -28.237 -19.548  -8.133  1.00  0.00     0.053 C 
BRANCH   2   3
ATOM      3  C   UNL     1     -26.875 -18.937  -8.266  1.00  0.00     0.041 C 
ATOM      4  O   UNL     1     -26.286 -18.938  -9.379  1.00  0.00    -0.550 OA
ATOM      5  O   UNL     1     -26.244 -18.397  -7.153  1.00  0.00    -0.550 OA
ENDBRANCH   2   3
ENDBRANCH   1   2
BRANCH   1   6
ATOM      6  C   UNL     1     -30.397 -20.128  -9.356  1.00  0.00     0.000 C 
BRANCH   6   7
ATOM      7  C   UNL     1     -31.099 -19.337  -8.247  1.00  0.00    -0.003 C 
ATOM      8  C   UNL     1     -31.125 -20.125  -6.940  1.00  0.00     0.004 C 
ENDBRANCH   6   7
ENDBRANCH   1   6
TORSDOF 4
ENDMDL
MODEL 4
REMARK VINA RESULT:     7.267     22.377     23.578
REMARK INTER + INTRA:           8.844
REMARK INTER:                   8.552
REMARK INTRA:                   0.292
REMARK UNBOUND:                -0.122
REMARK SMILES CCCCCC(=O)[O-]
REMARK SMILES IDX 4 1 5 2 6 3 7 4 8 5 3 6 2 7 1 8
REMARK H PARENT
REMARK Flexibility Score: inf
ROOT
ATOM      1  C   UNL     1     -29.676 -19.025  -7.363  1.00  0.00     0.006 C 
ENDROOT
BRANCH   1   2
ATOM      2  C   UNL     1     -28.477 -19.963  -7.557  1.00  0.00     0.053 C 
BRANCH   2   3
ATOM      3  C   UNL     1     -27.341 -19.275  -8.250  1.00  0.00     0.041 C 
ATOM      4  O   UNL     1     -26.525 -18.577  -7.591  1.00  0.00    -0.550 OA
ATOM      5  O   UNL     1     -27.202 -19.378  -9.628  1.00  0.00    -0.550 OA
ENDBRANCH   2   3
ENDBRANCH   1   2
BRANCH   1   6
ATOM      6  C   UNL     1     -31.017 -19.747  -7.564  1.00  0.00     0.000 C 
BRANCH   6   7
ATOM      7  C   UNL     1     -31.125 -20.319  -8.982  1.00  0.00    -0.003 C 
ATOM      8  C   UNL     1     -30.452 -19.401  -9.998  1.00  0.00     0.004 C 
ENDBRANCH   6   7
ENDBRANCH   1   6
TORSDOF 4
ENDMDL
MODEL 5
REMARK VINA RESULT:     7.571      8.540      9.847
REMARK INTER + INTRA:           9.220
REMARK INTER:                   9.325
REMARK INTRA:                  -0.106
REMARK UNBOUND:                -0.122
REMARK SMILES CCCCCC(=O)[O-]
REMARK SMILES IDX 4 1 5 2 6 3 7 4 8 5 3 6 2 7 1 8
REMARK H PARENT
REMARK Flexibility Score: inf
ROOT
ATOM      1  C   UNL     1     -21.690 -13.573 -24.192  1.00  0.00     0.006 C 
ENDROOT
BRANCH   1   2
ATOM      2  C   UNL     1     -20.496 -13.813 -25.124  1.00  0.00     0.053 C 
BRANCH   2   3
ATOM      3  C   UNL     1     -19.349 -12.905 -24.803  1.00  0.00     0.041 C 
ATOM      4  O   UNL     1     -19.498 -11.655 -24.849  1.00  0.00    -0.550 OA
ATOM      5  O   UNL     1     -18.107 -13.439 -24.485  1.00  0.00    -0.550 OA
ENDBRANCH   2   3
ENDBRANCH   1   2
BRANCH   1   6
ATOM      6  C   UNL     1     -22.493 -14.857 -23.933  1.00  0.00     0.000 C 
BRANCH   6   7
ATOM      7  C   UNL     1     -22.560 -15.169 -22.434  1.00  0.00    -0.003 C 
ATOM      8  C   UNL     1     -22.031 -14.002 -21.605  1.00  0.00     0.004 C 
ENDBRANCH   6   7
ENDBRANCH   1   6
TORSDOF 4
ENDMDL
MODEL 6
REMARK VINA RESULT:     7.581      8.933     10.342
REMARK INTER + INTRA:           9.232
REMARK INTER:                   9.340
REMARK INTRA:                  -0.109
REMARK UNBOUND:                -0.122
REMARK SMILES CCCCCC(=O)[O-]
REMARK SMILES IDX 4 1 5 2 6 3 7 4 8 5 3 6 2 7 1 8
REMARK H PARENT
REMARK Flexibility Score: inf
ROOT
ATOM      1  C   UNL     1     -21.729 -13.428 -24.430  1.00  0.00     0.006 C 
ENDROOT
BRANCH   1   2
ATOM      2  C   UNL     1     -22.347 -14.709 -23.856  1.00  0.00     0.053 C 
BRANCH   2   3
ATOM      3  C   UNL     1     -22.289 -14.731 -22.359  1.00  0.00     0.041 C 
ATOM      4  O   UNL     1     -21.825 -13.744 -21.728  1.00  0.00    -0.550 OA
ATOM      5  O   UNL     1     -22.718 -15.853 -21.663  1.00  0.00    -0.550 OA
ENDBRANCH   2   3
ENDBRANCH   1   2
BRANCH   1   6
ATOM      6  C   UNL     1     -20.380 -13.690 -25.116  1.00  0.00     0.000 C 
BRANCH   6   7
ATOM      7  C   UNL     1     -19.359 -12.606 -24.751  1.00  0.00    -0.003 C 
ATOM      8  C   UNL     1     -18.032 -13.223 -24.319  1.00  0.00     0.004 C 
ENDBRANCH   6   7
ENDBRANCH   1   6
TORSDOF 4
ENDMDL
MODEL 7
REMARK VINA RESULT:     7.630     17.546     18.373
REMARK INTER + INTRA:           9.292
REMARK INTER:                   9.407
REMARK INTRA:                  -0.114
REMARK UNBOUND:                -0.122
REMARK SMILES CCCCCC(=O)[O-]
REMARK SMILES IDX 4 1 5 2 6 3 7 4 8 5 3 6 2 7 1 8
REMARK H PARENT
REMARK Flexibility Score: inf
ROOT
ATOM      1  C   UNL     1     -27.111  -4.392 -12.029  1.00  0.00     0.006 C 
ENDROOT
BRANCH   1   2
ATOM      2  C   UNL     1     -27.708  -3.513 -10.922  1.00  0.00     0.053 C 
BRANCH   2   3
ATOM      3  C   UNL     1     -29.201  -3.619 -10.873  1.00  0.00     0.041 C 
ATOM      4  O   UNL     1     -29.756  -4.402 -10.058  1.00  0.00    -0.550 OA
ATOM      5  O   UNL     1     -29.980  -2.875 -11.751  1.00  0.00    -0.550 OA
ENDBRANCH   2   3
ENDBRANCH   1   2
BRANCH   1   6
ATOM      6  C   UNL     1     -26.116  -5.425 -11.479  1.00  0.00     0.000 C 
BRANCH   6   7
ATOM      7  C   UNL     1     -26.799  -6.779 -11.255  1.00  0.00    -0.003 C 
ATOM      8  C   UNL     1     -25.880  -7.742 -10.509  1.00  0.00     0.004 C 
ENDBRANCH   6   7
ENDBRANCH   1   6
TORSDOF 4
ENDMDL
MODEL 8
REMARK VINA RESULT:     7.944     17.025     17.996
REMARK INTER + INTRA:           9.680
REMARK INTER:                   9.790
REMARK INTRA:                  -0.110
REMARK UNBOUND:                -0.122
REMARK SMILES CCCCCC(=O)[O-]
REMARK SMILES IDX 4 1 5 2 6 3 7 4 8 5 3 6 2 7 1 8
REMARK H PARENT
REMARK Flexibility Score: inf
ROOT
ATOM      1  C   UNL     1     -27.124  -4.969 -11.628  1.00  0.00     0.006 C 
ENDROOT
BRANCH   1   2
ATOM      2  C   UNL     1     -27.677  -3.618 -11.160  1.00  0.00     0.053 C 
BRANCH   2   3
ATOM      3  C   UNL     1     -29.156  -3.673 -10.927  1.00  0.00     0.041 C 
ATOM      4  O   UNL     1     -29.634  -4.464 -10.071  1.00  0.00    -0.550 OA
ATOM      5  O   UNL     1     -30.009  -2.875 -11.678  1.00  0.00    -0.550 OA
ENDBRANCH   2   3
ENDBRANCH   1   2
BRANCH   1   6
ATOM      6  C   UNL     1     -25.593  -4.957 -11.759  1.00  0.00     0.000 C 
BRANCH   6   7
ATOM      7  C   UNL     1     -25.095  -3.591 -12.243  1.00  0.00    -0.003 C 
ATOM      8  C   UNL     1     -24.751  -3.625 -13.729  1.00  0.00     0.004 C 
ENDBRANCH   6   7
ENDBRANCH   1   6
TORSDOF 4
ENDMDL
