MODEL 1
REMARK VINA RESULT:    -4.389      0.000      0.000
REMARK INTER + INTRA:          -6.808
REMARK INTER:                  -6.442
REMARK INTRA:                  -0.367
REMARK UNBOUND:                -0.367
REMARK SMILES O=C([O-])CCCCCCCC(=O)[O-]
REMARK SMILES IDX 7 1 6 2 5 3 4 4 2 5 1 6 3 7 8 8 9 9 10 10 11 11 12 12 13 13
REMARK H PARENT
REMARK Flexibility Score: inf
ROOT
ATOM      1  C   UNL     1     255.688 260.853 250.931  1.00  0.00     0.000 C 
ENDROOT
BRANCH   1   2
ATOM      2  C   UNL     1     256.476 260.943 249.609  1.00  0.00     0.000 C 
BRANCH   2   3
ATOM      3  C   UNL     1     255.656 260.652 248.339  1.00  0.00     0.006 C 
BRANCH   3   4
ATOM      4  C   UNL     1     254.156 260.909 248.529  1.00  0.00     0.053 C 
BRANCH   4   5
ATOM      5  C   UNL     1     253.473 261.017 247.202  1.00  0.00     0.041 C 
ATOM      6  O   UNL     1     252.341 261.560 247.114  1.00  0.00    -0.550 OA
ATOM      7  O   UNL     1     254.067 260.476 246.069  1.00  0.00    -0.550 OA
ENDBRANCH   4   5
ENDBRANCH   3   4
ENDBRANCH   2   3
ENDBRANCH   1   2
BRANCH   1   8
ATOM      8  C   UNL     1     255.567 262.175 251.711  1.00  0.00     0.000 C 
BRANCH   8   9
ATOM      9  C   UNL     1     254.374 262.188 252.680  1.00  0.00     0.006 C 
BRANCH   9  10
ATOM     10  C   UNL     1     254.818 261.823 254.099  1.00  0.00     0.053 C 
BRANCH  10  11
ATOM     11  C   UNL     1     254.077 260.618 254.586  1.00  0.00     0.041 C 
ATOM     12  O   UNL     1     253.205 260.074 253.860  1.00  0.00    -0.550 OA
ATOM     13  O   UNL     1     254.315 260.126 255.863  1.00  0.00    -0.550 OA
ENDBRANCH  10  11
ENDBRANCH   9  10
ENDBRANCH   8   9
ENDBRANCH   1   8
TORSDOF 8
ENDMDL
MODEL 2
REMARK VINA RESULT:    -4.347      5.414      6.481
REMARK INTER + INTRA:          -6.747
REMARK INTER:                  -6.459
REMARK INTRA:                  -0.288
REMARK UNBOUND:                -0.367
REMARK SMILES O=C([O-])CCCCCCCC(=O)[O-]
REMARK SMILES IDX 7 1 6 2 5 3 4 4 2 5 1 6 3 7 8 8 9 9 10 10 11 11 12 12 13 13
REMARK H PARENT
REMARK Flexibility Score: inf
ROOT
ATOM      1  C   UNL     1     254.282 259.707 246.183  1.00  0.00     0.000 C 
ENDROOT
BRANCH   1   2
ATOM      2  C   UNL     1     255.152 260.221 245.018  1.00  0.00     0.000 C 
BRANCH   2   3
ATOM      3  C   UNL     1     256.110 261.371 245.377  1.00  0.00     0.006 C 
BRANCH   3   4
ATOM      4  C   UNL     1     257.496 261.211 244.740  1.00  0.00     0.053 C 
BRANCH   4   5
ATOM      5  C   UNL     1     258.328 262.429 244.989  1.00  0.00     0.041 C 
ATOM      6  O   UNL     1     257.880 263.572 244.707  1.00  0.00    -0.550 OA
ATOM      7  O   UNL     1     259.617 262.300 245.490  1.00  0.00    -0.550 OA
ENDBRANCH   4   5
ENDBRANCH   3   4
ENDBRANCH   2   3
ENDBRANCH   1   2
BRANCH   1   8
ATOM      8  C   UNL     1     253.844 260.782 247.195  1.00  0.00     0.000 C 
BRANCH   8   9
ATOM      9  C   UNL     1     252.320 260.963 247.250  1.00  0.00     0.006 C 
BRANCH   9  10
ATOM     10  C   UNL     1     251.601 259.643 246.961  1.00  0.00     0.053 C 
BRANCH  10  11
ATOM     11  C   UNL     1     250.123 259.804 247.126  1.00  0.00     0.041 C 
ATOM     12  O   UNL     1     249.584 260.928 246.952  1.00  0.00    -0.550 OA
ATOM     13  O   UNL     1     249.346 258.723 247.521  1.00  0.00    -0.550 OA
ENDBRANCH  10  11
ENDBRANCH   9  10
ENDBRANCH   8   9
ENDBRANCH   1   8
TORSDOF 8
ENDMDL
MODEL 3
REMARK VINA RESULT:    -4.328      4.971      6.805
REMARK INTER + INTRA:          -6.719
REMARK INTER:                  -6.420
REMARK INTRA:                  -0.299
REMARK UNBOUND:                -0.367
REMARK SMILES O=C([O-])CCCCCCCC(=O)[O-]
REMARK SMILES IDX 7 1 6 2 5 3 4 4 2 5 1 6 3 7 8 8 9 9 10 10 11 11 12 12 13 13
REMARK H PARENT
REMARK Flexibility Score: inf
ROOT
ATOM      1  C   UNL     1     254.168 260.921 248.315  1.00  0.00     0.000 C 
ENDROOT
BRANCH   1   2
ATOM      2  C   UNL     1     253.004 261.082 247.316  1.00  0.00     0.000 C 
BRANCH   2   3
ATOM      3  C   UNL     1     252.364 259.765 246.843  1.00  0.00     0.006 C 
BRANCH   3   4
ATOM      4  C   UNL     1     250.852 259.714 247.095  1.00  0.00     0.053 C 
BRANCH   4   5
ATOM      5  C   UNL     1     250.383 258.296 247.168  1.00  0.00     0.041 C 
ATOM      6  O   UNL     1     251.171 257.352 246.895  1.00  0.00    -0.550 OA
ATOM      7  O   UNL     1     249.061 258.016 247.492  1.00  0.00    -0.550 OA
ENDBRANCH   4   5
ENDBRANCH   3   4
ENDBRANCH   2   3
ENDBRANCH   1   2
BRANCH   1   8
ATOM      8  C   UNL     1     255.350 260.073 247.810  1.00  0.00     0.000 C 
BRANCH   8   9
ATOM      9  C   UNL     1     256.506 260.926 247.265  1.00  0.00     0.006 C 
BRANCH   9  10
ATOM     10  C   UNL     1     256.340 261.177 245.764  1.00  0.00     0.053 C 
BRANCH  10  11
ATOM     11  C   UNL     1     257.587 261.771 245.191  1.00  0.00     0.041 C 
ATOM     12  O   UNL     1     257.690 263.018 245.052  1.00  0.00    -0.550 OA
ATOM     13  O   UNL     1     258.619 260.945 244.765  1.00  0.00    -0.550 OA
ENDBRANCH  10  11
ENDBRANCH   9  10
ENDBRANCH   8   9
ENDBRANCH   1   8
TORSDOF 8
ENDMDL
MODEL 4
REMARK VINA RESULT:    -4.328      1.383      2.147
REMARK INTER + INTRA:          -6.718
REMARK INTER:                  -6.356
REMARK INTRA:                  -0.362
REMARK UNBOUND:                -0.367
REMARK SMILES O=C([O-])CCCCCCCC(=O)[O-]
REMARK SMILES IDX 7 1 6 2 5 3 4 4 2 5 1 6 3 7 8 8 9 9 10 10 11 11 12 12 13 13
REMARK H PARENT
REMARK Flexibility Score: inf
ROOT
ATOM      1  C   UNL     1     255.827 260.507 249.632  1.00  0.00     0.000 C 
ENDROOT
BRANCH   1   2
ATOM      2  C   UNL     1     254.689 259.902 248.787  1.00  0.00     0.000 C 
BRANCH   2   3
ATOM      3  C   UNL     1     253.989 260.888 247.834  1.00  0.00     0.006 C 
BRANCH   3   4
ATOM      4  C   UNL     1     253.045 260.191 246.846  1.00  0.00     0.053 C 
BRANCH   4   5
ATOM      5  C   UNL     1     253.814 259.275 245.948  1.00  0.00     0.041 C 
ATOM      6  O   UNL     1     254.524 259.745 245.020  1.00  0.00    -0.550 OA
ATOM      7  O   UNL     1     253.709 257.898 246.104  1.00  0.00    -0.550 OA
ENDBRANCH   4   5
ENDBRANCH   3   4
ENDBRANCH   2   3
ENDBRANCH   1   2
BRANCH   1   8
ATOM      8  C   UNL     1     255.554 260.568 251.147  1.00  0.00     0.000 C 
BRANCH   8   9
ATOM      9  C   UNL     1     255.498 262.006 251.684  1.00  0.00     0.006 C 
BRANCH   9  10
ATOM     10  C   UNL     1     254.201 262.249 252.461  1.00  0.00     0.053 C 
BRANCH  10  11
ATOM     11  C   UNL     1     254.199 261.467 253.735  1.00  0.00     0.041 C 
ATOM     12  O   UNL     1     255.044 261.718 254.635  1.00  0.00    -0.550 OA
ATOM     13  O   UNL     1     253.296 260.427 253.911  1.00  0.00    -0.550 OA
ENDBRANCH  10  11
ENDBRANCH   9  10
ENDBRANCH   8   9
ENDBRANCH   1   8
TORSDOF 8
ENDMDL
MODEL 5
REMARK VINA RESULT:    -4.307      4.486      6.624
REMARK INTER + INTRA:          -6.688
REMARK INTER:                  -6.126
REMARK INTRA:                  -0.562
REMARK UNBOUND:                -0.367
REMARK SMILES O=C([O-])CCCCCCCC(=O)[O-]
REMARK SMILES IDX 7 1 6 2 5 3 4 4 2 5 1 6 3 7 8 8 9 9 10 10 11 11 12 12 13 13
REMARK H PARENT
REMARK Flexibility Score: inf
ROOT
ATOM      1  C   UNL     1     255.962 260.180 248.286  1.00  0.00     0.000 C 
ENDROOT
BRANCH   1   2
ATOM      2  C   UNL     1     254.603 260.731 248.762  1.00  0.00     0.000 C 
BRANCH   2   3
ATOM      3  C   UNL     1     253.606 261.070 247.639  1.00  0.00     0.006 C 
BRANCH   3   4
ATOM      4  C   UNL     1     253.785 260.187 246.398  1.00  0.00     0.053 C 
BRANCH   4   5
ATOM      5  C   UNL     1     252.999 258.922 246.540  1.00  0.00     0.041 C 
ATOM      6  O   UNL     1     253.564 257.805 246.402  1.00  0.00    -0.550 OA
ATOM      7  O   UNL     1     251.631 258.977 246.779  1.00  0.00    -0.550 OA
ENDBRANCH   4   5
ENDBRANCH   3   4
ENDBRANCH   2   3
ENDBRANCH   1   2
BRANCH   1   8
ATOM      8  C   UNL     1     257.127 261.185 248.333  1.00  0.00     0.000 C 
BRANCH   8   9
ATOM      9  C   UNL     1     257.904 261.261 247.010  1.00  0.00     0.006 C 
BRANCH   9  10
ATOM     10  C   UNL     1     257.007 261.771 245.878  1.00  0.00     0.053 C 
BRANCH  10  11
ATOM     11  C   UNL     1     257.778 262.670 244.965  1.00  0.00     0.041 C 
ATOM     12  O   UNL     1     257.643 263.920 245.041  1.00  0.00    -0.550 OA
ATOM     13  O   UNL     1     258.611 262.127 243.995  1.00  0.00    -0.550 OA
ENDBRANCH  10  11
ENDBRANCH   9  10
ENDBRANCH   8   9
ENDBRANCH   1   8
TORSDOF 8
ENDMDL
MODEL 6
REMARK VINA RESULT:    -4.283      4.582      6.295
REMARK INTER + INTRA:          -6.653
REMARK INTER:                  -6.201
REMARK INTRA:                  -0.452
REMARK UNBOUND:                -0.367
REMARK SMILES O=C([O-])CCCCCCCC(=O)[O-]
REMARK SMILES IDX 7 1 6 2 5 3 4 4 2 5 1 6 3 7 8 8 9 9 10 10 11 11 12 12 13 13
REMARK H PARENT
REMARK Flexibility Score: inf
ROOT
ATOM      1  C   UNL     1     256.678 260.941 248.462  1.00  0.00     0.000 C 
ENDROOT
BRANCH   1   2
ATOM      2  C   UNL     1     257.632 260.993 247.252  1.00  0.00     0.000 C 
BRANCH   2   3
ATOM      3  C   UNL     1     257.030 261.599 245.971  1.00  0.00     0.006 C 
BRANCH   3   4
ATOM      4  C   UNL     1     257.989 261.537 244.776  1.00  0.00     0.053 C 
BRANCH   4   5
ATOM      5  C   UNL     1     258.823 262.777 244.711  1.00  0.00     0.041 C 
ATOM      6  O   UNL     1     258.553 263.680 243.877  1.00  0.00    -0.550 OA
ATOM      7  O   UNL     1     259.929 262.915 245.540  1.00  0.00    -0.550 OA
ENDBRANCH   4   5
ENDBRANCH   3   4
ENDBRANCH   2   3
ENDBRANCH   1   2
BRANCH   1   8
ATOM      8  C   UNL     1     255.423 260.069 248.267  1.00  0.00     0.000 C 
BRANCH   8   9
ATOM      9  C   UNL     1     254.123 260.887 248.269  1.00  0.00     0.006 C 
BRANCH   9  10
ATOM     10  C   UNL     1     253.533 260.980 246.859  1.00  0.00     0.053 C 
BRANCH  10  11
ATOM     11  C   UNL     1     253.462 259.625 246.230  1.00  0.00     0.041 C 
ATOM     12  O   UNL     1     252.629 258.777 246.644  1.00  0.00    -0.550 OA
ATOM     13  O   UNL     1     254.349 259.281 245.218  1.00  0.00    -0.550 OA
ENDBRANCH  10  11
ENDBRANCH   9  10
ENDBRANCH   8   9
ENDBRANCH   1   8
TORSDOF 8
ENDMDL
MODEL 7
REMARK VINA RESULT:    -4.279      4.619      6.302
REMARK INTER + INTRA:          -6.647
REMARK INTER:                  -6.149
REMARK INTRA:                  -0.498
REMARK UNBOUND:                -0.367
REMARK SMILES O=C([O-])CCCCCCCC(=O)[O-]
REMARK SMILES IDX 7 1 6 2 5 3 4 4 2 5 1 6 3 7 8 8 9 9 10 10 11 11 12 12 13 13
REMARK H PARENT
REMARK Flexibility Score: inf
ROOT
ATOM      1  C   UNL     1     255.542 260.862 245.849  1.00  0.00     0.000 C 
ENDROOT
BRANCH   1   2
ATOM      2  C   UNL     1     256.886 261.219 245.183  1.00  0.00     0.000 C 
BRANCH   2   3
ATOM      3  C   UNL     1     257.891 261.950 246.092  1.00  0.00     0.006 C 
BRANCH   3   4
ATOM      4  C   UNL     1     259.275 261.289 246.099  1.00  0.00     0.053 C 
BRANCH   4   5
ATOM      5  C   UNL     1     259.459 260.479 247.343  1.00  0.00     0.041 C 
ATOM      6  O   UNL     1     258.967 260.872 248.434  1.00  0.00    -0.550 OA
ATOM      7  O   UNL     1     260.215 259.314 247.309  1.00  0.00    -0.550 OA
ENDBRANCH   4   5
ENDBRANCH   3   4
ENDBRANCH   2   3
ENDBRANCH   1   2
BRANCH   1   8
ATOM      8  C   UNL     1     255.588 260.730 247.383  1.00  0.00     0.000 C 
BRANCH   8   9
ATOM      9  C   UNL     1     254.198 260.819 248.031  1.00  0.00     0.006 C 
BRANCH   9  10
ATOM     10  C   UNL     1     253.110 260.998 246.968  1.00  0.00     0.053 C 
BRANCH  10  11
ATOM     11  C   UNL     1     252.221 259.796 246.922  1.00  0.00     0.041 C 
ATOM     12  O   UNL     1     252.687 258.674 246.593  1.00  0.00    -0.550 OA
ATOM     13  O   UNL     1     250.865 259.925 247.195  1.00  0.00    -0.550 OA
ENDBRANCH  10  11
ENDBRANCH   9  10
ENDBRANCH   8   9
ENDBRANCH   1   8
TORSDOF 8
ENDMDL
MODEL 8
REMARK VINA RESULT:    -4.237      1.226      6.415
REMARK INTER + INTRA:          -6.584
REMARK INTER:                  -6.233
REMARK INTRA:                  -0.352
REMARK UNBOUND:                -0.367
REMARK SMILES O=C([O-])CCCCCCCC(=O)[O-]
REMARK SMILES IDX 7 1 6 2 5 3 4 4 2 5 1 6 3 7 8 8 9 9 10 10 11 11 12 12 13 13
REMARK H PARENT
REMARK Flexibility Score: inf
ROOT
ATOM      1  C   UNL     1     256.459 261.574 250.575  1.00  0.00     0.000 C 
ENDROOT
BRANCH   1   2
ATOM      2  C   UNL     1     255.477 261.061 251.647  1.00  0.00     0.000 C 
BRANCH   2   3
ATOM      3  C   UNL     1     254.562 262.136 252.261  1.00  0.00     0.006 C 
BRANCH   3   4
ATOM      4  C   UNL     1     254.593 262.138 253.794  1.00  0.00     0.053 C 
BRANCH   4   5
ATOM      5  C   UNL     1     254.122 260.822 254.327  1.00  0.00     0.041 C 
ATOM      6  O   UNL     1     253.010 260.353 253.966  1.00  0.00    -0.550 OA
ATOM      7  O   UNL     1     254.888 260.135 255.260  1.00  0.00    -0.550 OA
ENDBRANCH   4   5
ENDBRANCH   3   4
ENDBRANCH   2   3
ENDBRANCH   1   2
BRANCH   1   8
ATOM      8  C   UNL     1     256.315 260.918 249.189  1.00  0.00     0.000 C 
BRANCH   8   9
ATOM      9  C   UNL     1     254.894 260.401 248.919  1.00  0.00     0.006 C 
BRANCH   9  10
ATOM     10  C   UNL     1     254.475 260.683 247.473  1.00  0.00     0.053 C 
BRANCH  10  11
ATOM     11  C   UNL     1     254.385 259.408 246.696  1.00  0.00     0.041 C 
ATOM     12  O   UNL     1     254.486 258.299 247.283  1.00  0.00    -0.550 OA
ATOM     13  O   UNL     1     254.240 259.445 245.315  1.00  0.00    -0.550 OA
ENDBRANCH  10  11
ENDBRANCH   9  10
ENDBRANCH   8   9
ENDBRANCH   1   8
TORSDOF 8
ENDMDL
MODEL 9
REMARK VINA RESULT:    -4.227      3.452      7.259
REMARK INTER + INTRA:          -6.570
REMARK INTER:                  -6.191
REMARK INTRA:                  -0.378
REMARK UNBOUND:                -0.367
REMARK SMILES O=C([O-])CCCCCCCC(=O)[O-]
REMARK SMILES IDX 7 1 6 2 5 3 4 4 2 5 1 6 3 7 8 8 9 9 10 10 11 11 12 12 13 13
REMARK H PARENT
REMARK Flexibility Score: inf
ROOT
ATOM      1  C   UNL     1     254.251 259.920 246.246  1.00  0.00     0.000 C 
ENDROOT
BRANCH   1   2
ATOM      2  C   UNL     1     254.177 260.847 247.476  1.00  0.00     0.000 C 
BRANCH   2   3
ATOM      3  C   UNL     1     254.738 260.249 248.779  1.00  0.00     0.006 C 
BRANCH   3   4
ATOM      4  C   UNL     1     256.034 260.930 249.235  1.00  0.00     0.053 C 
BRANCH   4   5
ATOM      5  C   UNL     1     256.050 261.076 250.724  1.00  0.00     0.041 C 
ATOM      6  O   UNL     1     256.483 262.134 251.252  1.00  0.00    -0.550 OA
ATOM      7  O   UNL     1     255.632 260.025 251.530  1.00  0.00    -0.550 OA
ENDBRANCH   4   5
ENDBRANCH   3   4
ENDBRANCH   2   3
ENDBRANCH   1   2
BRANCH   1   8
ATOM      8  C   UNL     1     255.150 260.422 245.101  1.00  0.00     0.000 C 
BRANCH   8   9
ATOM      9  C   UNL     1     256.368 261.212 245.603  1.00  0.00     0.006 C 
BRANCH   9  10
ATOM     10  C   UNL     1     257.499 261.188 244.571  1.00  0.00     0.053 C 
BRANCH  10  11
ATOM     11  C   UNL     1     258.801 261.548 245.211  1.00  0.00     0.041 C 
ATOM     12  O   UNL     1     259.238 262.727 245.141  1.00  0.00    -0.550 OA
ATOM     13  O   UNL     1     259.558 260.571 245.845  1.00  0.00    -0.550 OA
ENDBRANCH  10  11
ENDBRANCH   9  10
ENDBRANCH   8   9
ENDBRANCH   1   8
TORSDOF 8
ENDMDL
