MODEL 1
REMARK VINA RESULT:    -5.232      0.000      0.000
REMARK INTER + INTRA:          -5.232
REMARK INTER:                  -5.232
REMARK INTRA:                   0.000
REMARK UNBOUND:                 0.000
REMARK SMILES CC1=CC(=O)[C@H]2C[C@@H]1C2(C)C
REMARK SMILES IDX 1 1 2 2 3 3 4 4 5 5 6 6 7 7 8 8 9 9 10 10 11 11
REMARK H PARENT
REMARK Flexibility Score: inf
ROOT
ATOM      1  C   UNL     1     122.745 176.930 130.360  1.00  0.00     0.040 C 
ATOM      2  C   UNL     1     121.634 176.016 129.954  1.00  0.00    -0.066 C 
ATOM      3  C   UNL     1     121.766 175.163 128.899  1.00  0.00     0.047 C 
ATOM      4  C   UNL     1     120.569 174.321 128.573  1.00  0.00     0.159 C 
ATOM      5  O   UNL     1     120.553 173.525 127.600  1.00  0.00    -0.295 OA
ATOM      6  C   UNL     1     119.370 174.499 129.506  1.00  0.00     0.067 C 
ATOM      7  C   UNL     1     119.986 174.479 130.923  1.00  0.00     0.021 C 
ATOM      8  C   UNL     1     120.292 175.980 130.717  1.00  0.00     0.022 C 
ATOM      9  C   UNL     1     119.116 176.022 129.699  1.00  0.00    -0.019 C 
ATOM     10  C   UNL     1     117.755 176.310 130.382  1.00  0.00     0.012 C 
ATOM     11  C   UNL     1     119.247 176.956 128.463  1.00  0.00     0.012 C 
ENDROOT
TORSDOF 0
ENDMDL
MODEL 2
REMARK VINA RESULT:    -5.191      3.782      5.033
REMARK INTER + INTRA:          -5.191
REMARK INTER:                  -5.191
REMARK INTRA:                   0.000
REMARK UNBOUND:                 0.000
REMARK SMILES CC1=CC(=O)[C@H]2C[C@@H]1C2(C)C
REMARK SMILES IDX 1 1 2 2 3 3 4 4 5 5 6 6 7 7 8 8 9 9 10 10 11 11
REMARK H PARENT
REMARK Flexibility Score: inf
ROOT
ATOM      1  C   UNL     1     123.699 179.351 127.686  1.00  0.00     0.040 C 
ATOM      2  C   UNL     1     122.434 178.781 127.127  1.00  0.00    -0.066 C 
ATOM      3  C   UNL     1     122.037 177.511 127.423  1.00  0.00     0.047 C 
ATOM      4  C   UNL     1     120.768 177.046 126.774  1.00  0.00     0.159 C 
ATOM      5  O   UNL     1     120.318 175.883 126.937  1.00  0.00    -0.295 OA
ATOM      6  C   UNL     1     120.061 178.084 125.902  1.00  0.00     0.067 C 
ATOM      7  C   UNL     1     120.084 179.373 126.752  1.00  0.00     0.021 C 
ATOM      8  C   UNL     1     121.511 179.604 126.204  1.00  0.00     0.022 C 
ATOM      9  C   UNL     1     121.114 178.746 124.968  1.00  0.00    -0.019 C 
ATOM     10  C   UNL     1     120.460 179.593 123.848  1.00  0.00     0.012 C 
ATOM     11  C   UNL     1     122.202 177.842 124.322  1.00  0.00     0.012 C 
ENDROOT
TORSDOF 0
ENDMDL
MODEL 3
REMARK VINA RESULT:    -5.154      3.707      5.448
REMARK INTER + INTRA:          -5.154
REMARK INTER:                  -5.154
REMARK INTRA:                   0.000
REMARK UNBOUND:                 0.000
REMARK SMILES CC1=CC(=O)[C@H]2C[C@@H]1C2(C)C
REMARK SMILES IDX 1 1 2 2 3 3 4 4 5 5 6 6 7 7 8 8 9 9 10 10 11 11
REMARK H PARENT
REMARK Flexibility Score: inf
ROOT
ATOM      1  C   UNL     1     118.457 180.125 125.877  1.00  0.00     0.040 C 
ATOM      2  C   UNL     1     119.561 179.119 125.964  1.00  0.00    -0.066 C 
ATOM      3  C   UNL     1     119.312 177.821 126.295  1.00  0.00     0.047 C 
ATOM      4  C   UNL     1     120.506 176.918 126.380  1.00  0.00     0.159 C 
ATOM      5  O   UNL     1     120.413 175.710 126.715  1.00  0.00    -0.295 OA
ATOM      6  C   UNL     1     121.845 177.570 126.032  1.00  0.00     0.067 C 
ATOM      7  C   UNL     1     121.553 178.371 124.744  1.00  0.00     0.021 C 
ATOM      8  C   UNL     1     121.028 179.495 125.666  1.00  0.00     0.022 C 
ATOM      9  C   UNL     1     121.946 178.927 126.787  1.00  0.00    -0.019 C 
ATOM     10  C   UNL     1     123.375 179.524 126.738  1.00  0.00     0.012 C 
ATOM     11  C   UNL     1     121.440 178.995 128.256  1.00  0.00     0.012 C 
ENDROOT
TORSDOF 0
ENDMDL
MODEL 4
REMARK VINA RESULT:    -5.143      1.842      3.241
REMARK INTER + INTRA:          -5.143
REMARK INTER:                  -5.143
REMARK INTRA:                   0.000
REMARK UNBOUND:                 0.000
REMARK SMILES CC1=CC(=O)[C@H]2C[C@@H]1C2(C)C
REMARK SMILES IDX 1 1 2 2 3 3 4 4 5 5 6 6 7 7 8 8 9 9 10 10 11 11
REMARK H PARENT
REMARK Flexibility Score: inf
ROOT
ATOM      1  C   UNL     1     118.878 176.767 127.062  1.00  0.00     0.040 C 
ATOM      2  C   UNL     1     119.481 176.488 128.401  1.00  0.00    -0.066 C 
ATOM      3  C   UNL     1     120.536 177.213 128.870  1.00  0.00     0.047 C 
ATOM      4  C   UNL     1     121.070 176.814 130.212  1.00  0.00     0.159 C 
ATOM      5  O   UNL     1     122.064 177.380 130.735  1.00  0.00    -0.295 OA
ATOM      6  C   UNL     1     120.322 175.672 130.901  1.00  0.00     0.067 C 
ATOM      7  C   UNL     1     118.831 176.033 130.722  1.00  0.00     0.021 C 
ATOM      8  C   UNL     1     118.931 175.380 129.325  1.00  0.00     0.022 C 
ATOM      9  C   UNL     1     120.112 174.526 129.871  1.00  0.00    -0.019 C 
ATOM     10  C   UNL     1     119.631 173.213 130.539  1.00  0.00     0.012 C 
ATOM     11  C   UNL     1     121.278 174.180 128.901  1.00  0.00     0.012 C 
ENDROOT
TORSDOF 0
ENDMDL
MODEL 5
REMARK VINA RESULT:    -5.024      4.015      5.366
REMARK INTER + INTRA:          -5.024
REMARK INTER:                  -5.024
REMARK INTRA:                   0.000
REMARK UNBOUND:                 0.000
REMARK SMILES CC1=CC(=O)[C@H]2C[C@@H]1C2(C)C
REMARK SMILES IDX 1 1 2 2 3 3 4 4 5 5 6 6 7 7 8 8 9 9 10 10 11 11
REMARK H PARENT
REMARK Flexibility Score: inf
ROOT
ATOM      1  C   UNL     1     120.375 179.749 124.377  1.00  0.00     0.040 C 
ATOM      2  C   UNL     1     121.411 178.998 125.152  1.00  0.00    -0.066 C 
ATOM      3  C   UNL     1     122.076 177.941 124.608  1.00  0.00     0.047 C 
ATOM      4  C   UNL     1     123.066 177.252 125.497  1.00  0.00     0.159 C 
ATOM      5  O   UNL     1     123.715 176.241 125.125  1.00  0.00    -0.295 OA
ATOM      6  C   UNL     1     123.232 177.864 126.889  1.00  0.00     0.067 C 
ATOM      7  C   UNL     1     123.333 179.383 126.625  1.00  0.00     0.021 C 
ATOM      8  C   UNL     1     121.788 179.392 126.596  1.00  0.00     0.022 C 
ATOM      9  C   UNL     1     121.820 178.119 127.489  1.00  0.00    -0.019 C 
ATOM     10  C   UNL     1     121.874 178.459 129.000  1.00  0.00     0.012 C 
ATOM     11  C   UNL     1     120.720 177.041 127.272  1.00  0.00     0.012 C 
ENDROOT
TORSDOF 0
ENDMDL
MODEL 6
REMARK VINA RESULT:    -5.000      3.958      5.331
REMARK INTER + INTRA:          -5.000
REMARK INTER:                  -5.000
REMARK INTRA:                   0.000
REMARK UNBOUND:                 0.000
REMARK SMILES CC1=CC(=O)[C@H]2C[C@@H]1C2(C)C
REMARK SMILES IDX 1 1 2 2 3 3 4 4 5 5 6 6 7 7 8 8 9 9 10 10 11 11
REMARK H PARENT
REMARK Flexibility Score: inf
ROOT
ATOM      1  C   UNL     1     122.973 177.490 124.500  1.00  0.00     0.040 C 
ATOM      2  C   UNL     1     122.035 178.147 125.462  1.00  0.00    -0.066 C 
ATOM      3  C   UNL     1     122.372 178.326 126.770  1.00  0.00     0.047 C 
ATOM      4  C   UNL     1     121.333 178.969 127.640  1.00  0.00     0.159 C 
ATOM      5  O   UNL     1     121.508 179.152 128.872  1.00  0.00    -0.295 OA
ATOM      6  C   UNL     1     120.047 179.384 126.925  1.00  0.00     0.067 C 
ATOM      7  C   UNL     1     120.538 180.082 125.637  1.00  0.00     0.021 C 
ATOM      8  C   UNL     1     120.652 178.670 125.019  1.00  0.00     0.022 C 
ATOM      9  C   UNL     1     119.571 178.200 126.035  1.00  0.00    -0.019 C 
ATOM     10  C   UNL     1     118.131 178.405 125.501  1.00  0.00     0.012 C 
ATOM     11  C   UNL     1     119.678 176.757 126.606  1.00  0.00     0.012 C 
ENDROOT
TORSDOF 0
ENDMDL
MODEL 7
REMARK VINA RESULT:    -4.978      4.225      5.418
REMARK INTER + INTRA:          -4.978
REMARK INTER:                  -4.978
REMARK INTRA:                   0.000
REMARK UNBOUND:                 0.000
REMARK SMILES CC1=CC(=O)[C@H]2C[C@@H]1C2(C)C
REMARK SMILES IDX 1 1 2 2 3 3 4 4 5 5 6 6 7 7 8 8 9 9 10 10 11 11
REMARK H PARENT
REMARK Flexibility Score: inf
ROOT
ATOM      1  C   UNL     1     123.408 176.283 124.745  1.00  0.00     0.040 C 
ATOM      2  C   UNL     1     122.425 177.276 125.278  1.00  0.00    -0.066 C 
ATOM      3  C   UNL     1     121.863 178.220 124.473  1.00  0.00     0.047 C 
ATOM      4  C   UNL     1     120.917 179.177 125.133  1.00  0.00     0.159 C 
ATOM      5  O   UNL     1     120.365 180.117 124.506  1.00  0.00    -0.295 OA
ATOM      6  C   UNL     1     120.670 178.930 126.622  1.00  0.00     0.067 C 
ATOM      7  C   UNL     1     120.446 177.405 126.721  1.00  0.00     0.021 C 
ATOM      8  C   UNL     1     121.985 177.269 126.758  1.00  0.00     0.022 C 
ATOM      9  C   UNL     1     122.043 178.718 127.322  1.00  0.00    -0.019 C 
ATOM     10  C   UNL     1     121.929 178.754 128.867  1.00  0.00     0.012 C 
ATOM     11  C   UNL     1     123.236 179.623 126.901  1.00  0.00     0.012 C 
ENDROOT
TORSDOF 0
ENDMDL
MODEL 8
REMARK VINA RESULT:    -4.971      3.887      5.380
REMARK INTER + INTRA:          -4.971
REMARK INTER:                  -4.971
REMARK INTRA:                   0.000
REMARK UNBOUND:                 0.000
REMARK SMILES CC1=CC(=O)[C@H]2C[C@@H]1C2(C)C
REMARK SMILES IDX 1 1 2 2 3 3 4 4 5 5 6 6 7 7 8 8 9 9 10 10 11 11
REMARK H PARENT
REMARK Flexibility Score: inf
ROOT
ATOM      1  C   UNL     1     123.376 177.724 130.082  1.00  0.00     0.040 C 
ATOM      2  C   UNL     1     122.844 178.276 128.798  1.00  0.00    -0.066 C 
ATOM      3  C   UNL     1     121.559 178.716 128.693  1.00  0.00     0.047 C 
ATOM      4  C   UNL     1     121.137 179.216 127.344  1.00  0.00     0.159 C 
ATOM      5  O   UNL     1     119.967 179.612 127.110  1.00  0.00    -0.295 OA
ATOM      6  C   UNL     1     122.230 179.210 126.273  1.00  0.00     0.067 C 
ATOM      7  C   UNL     1     123.462 179.809 126.986  1.00  0.00     0.021 C 
ATOM      8  C   UNL     1     123.726 178.389 127.536  1.00  0.00     0.022 C 
ATOM      9  C   UNL     1     122.949 177.831 126.308  1.00  0.00    -0.019 C 
ATOM     10  C   UNL     1     123.866 177.613 125.079  1.00  0.00     0.012 C 
ATOM     11  C   UNL     1     122.086 176.552 126.505  1.00  0.00     0.012 C 
ENDROOT
TORSDOF 0
ENDMDL
MODEL 9
REMARK VINA RESULT:    -4.841      3.764      5.445
REMARK INTER + INTRA:          -4.841
REMARK INTER:                  -4.841
REMARK INTRA:                   0.000
REMARK UNBOUND:                 0.000
REMARK SMILES CC1=CC(=O)[C@H]2C[C@@H]1C2(C)C
REMARK SMILES IDX 1 1 2 2 3 3 4 4 5 5 6 6 7 7 8 8 9 9 10 10 11 11
REMARK H PARENT
REMARK Flexibility Score: inf
ROOT
ATOM      1  C   UNL     1     119.600 180.125 125.821  1.00  0.00     0.040 C 
ATOM      2  C   UNL     1     120.522 179.158 126.495  1.00  0.00    -0.066 C 
ATOM      3  C   UNL     1     120.482 178.963 127.843  1.00  0.00     0.047 C 
ATOM      4  C   UNL     1     121.478 177.991 128.401  1.00  0.00     0.159 C 
ATOM      5  O   UNL     1     121.568 177.754 129.633  1.00  0.00    -0.295 OA
ATOM      6  C   UNL     1     122.377 177.310 127.368  1.00  0.00     0.067 C 
ATOM      7  C   UNL     1     121.407 176.885 126.244  1.00  0.00     0.021 C 
ATOM      8  C   UNL     1     121.548 178.324 125.698  1.00  0.00     0.022 C 
ATOM      9  C   UNL     1     122.933 178.395 126.403  1.00  0.00    -0.019 C 
ATOM     10  C   UNL     1     124.078 177.858 125.509  1.00  0.00     0.012 C 
ATOM     11  C   UNL     1     123.382 179.758 127.003  1.00  0.00     0.012 C 
ENDROOT
TORSDOF 0
ENDMDL
