MODEL 1
REMARK VINA RESULT:    -3.923      0.000      0.000
REMARK INTER + INTRA:          -6.125
REMARK INTER:                  -5.644
REMARK INTRA:                  -0.482
REMARK UNBOUND:                -0.482
REMARK SMILES CCCCCCCCCO
REMARK SMILES IDX 6 1 5 2 4 3 3 4 2 5 1 6 7 7 8 8 9 9 10 10
REMARK H PARENT 10 11
REMARK Flexibility Score: inf
ROOT
ATOM      1  C   UNL     1      28.144  26.779  23.785  1.00  0.00     0.000 C 
ENDROOT
BRANCH   1   2
ATOM      2  C   UNL     1      28.938  26.854  22.471  1.00  0.00     0.000 C 
BRANCH   2   3
ATOM      3  C   UNL     1      29.715  25.563  22.175  1.00  0.00    -0.000 C 
BRANCH   3   4
ATOM      4  C   UNL     1      29.135  24.843  20.948  1.00  0.00    -0.000 C 
BRANCH   4   5
ATOM      5  C   UNL     1      28.604  25.820  19.887  1.00  0.00    -0.003 C 
ATOM      6  C   UNL     1      28.802  25.309  18.460  1.00  0.00     0.004 C 
ENDBRANCH   4   5
ENDBRANCH   3   4
ENDBRANCH   2   3
ENDBRANCH   1   2
BRANCH   1   7
ATOM      7  C   UNL     1      26.636  27.006  23.579  1.00  0.00     0.002 C 
BRANCH   7   8
ATOM      8  C   UNL     1      26.014  25.998  22.597  1.00  0.00     0.028 C 
BRANCH   8   9
ATOM      9  C   UNL     1      25.138  24.942  23.278  1.00  0.00     0.156 C 
BRANCH   9  10
ATOM     10  O   UNL     1      25.330  23.691  22.676  1.00  0.00    -0.396 OA
ATOM     11  H   UNL     1      24.544  23.140  22.928  1.00  0.00     0.210 HD
ENDBRANCH   9  10
ENDBRANCH   8   9
ENDBRANCH   7   8
ENDBRANCH   1   7
TORSDOF 8
ENDMDL
MODEL 2
REMARK VINA RESULT:    -3.739      2.569      3.208
REMARK INTER + INTRA:          -5.860
REMARK INTER:                  -5.530
REMARK INTRA:                  -0.329
REMARK UNBOUND:                -0.482
REMARK SMILES CCCCCCCCCO
REMARK SMILES IDX 6 1 5 2 4 3 3 4 2 5 1 6 7 7 8 8 9 9 10 10
REMARK H PARENT 10 11
REMARK Flexibility Score: inf
ROOT
ATOM      1  C   UNL     1      25.522  26.472  23.563  1.00  0.00     0.000 C 
ENDROOT
BRANCH   1   2
ATOM      2  C   UNL     1      26.596  26.299  22.479  1.00  0.00     0.000 C 
BRANCH   2   3
ATOM      3  C   UNL     1      27.978  26.799  22.931  1.00  0.00    -0.000 C 
BRANCH   3   4
ATOM      4  C   UNL     1      29.076  26.315  21.972  1.00  0.00    -0.000 C 
BRANCH   4   5
ATOM      5  C   UNL     1      28.596  25.186  21.046  1.00  0.00    -0.003 C 
ATOM      6  C   UNL     1      28.753  25.529  19.565  1.00  0.00     0.004 C 
ENDBRANCH   4   5
ENDBRANCH   3   4
ENDBRANCH   2   3
ENDBRANCH   1   2
BRANCH   1   7
ATOM      7  C   UNL     1      25.727  27.746  24.402  1.00  0.00     0.002 C 
BRANCH   7   8
ATOM      8  C   UNL     1      24.407  28.475  24.706  1.00  0.00     0.028 C 
BRANCH   8   9
ATOM      9  C   UNL     1      24.319  29.868  24.076  1.00  0.00     0.156 C 
BRANCH   9  10
ATOM     10  O   UNL     1      24.346  29.772  22.679  1.00  0.00    -0.396 OA
ATOM     11  H   UNL     1      24.707  28.871  22.471  1.00  0.00     0.210 HD
ENDBRANCH   9  10
ENDBRANCH   8   9
ENDBRANCH   7   8
ENDBRANCH   1   7
TORSDOF 8
ENDMDL
MODEL 3
REMARK VINA RESULT:    -3.691      2.364      2.831
REMARK INTER + INTRA:          -5.792
REMARK INTER:                  -5.471
REMARK INTRA:                  -0.320
REMARK UNBOUND:                -0.482
REMARK SMILES CCCCCCCCCO
REMARK SMILES IDX 6 1 5 2 4 3 3 4 2 5 1 6 7 7 8 8 9 9 10 10
REMARK H PARENT 10 11
REMARK Flexibility Score: inf
ROOT
ATOM      1  C   UNL     1      27.308  27.033  23.657  1.00  0.00     0.000 C 
ENDROOT
BRANCH   1   2
ATOM      2  C   UNL     1      28.781  27.467  23.615  1.00  0.00     0.000 C 
BRANCH   2   3
ATOM      3  C   UNL     1      29.470  27.094  22.293  1.00  0.00    -0.000 C 
BRANCH   3   4
ATOM      4  C   UNL     1      29.769  25.588  22.237  1.00  0.00    -0.000 C 
BRANCH   4   5
ATOM      5  C   UNL     1      29.082  24.894  21.051  1.00  0.00    -0.003 C 
ATOM      6  C   UNL     1      28.583  25.880  19.996  1.00  0.00     0.004 C 
ENDBRANCH   4   5
ENDBRANCH   3   4
ENDBRANCH   2   3
ENDBRANCH   1   2
BRANCH   1   7
ATOM      7  C   UNL     1      26.460  27.908  24.596  1.00  0.00     0.002 C 
BRANCH   7   8
ATOM      8  C   UNL     1      24.976  27.947  24.192  1.00  0.00     0.028 C 
BRANCH   8   9
ATOM      9  C   UNL     1      24.419  29.367  24.046  1.00  0.00     0.156 C 
BRANCH   9  10
ATOM     10  O   UNL     1      24.390  29.741  22.696  1.00  0.00    -0.396 OA
ATOM     11  H   UNL     1      24.682  28.943  22.182  1.00  0.00     0.210 HD
ENDBRANCH   9  10
ENDBRANCH   8   9
ENDBRANCH   7   8
ENDBRANCH   1   7
TORSDOF 8
ENDMDL
MODEL 4
REMARK VINA RESULT:    -3.688      2.425      3.394
REMARK INTER + INTRA:          -5.786
REMARK INTER:                  -5.502
REMARK INTRA:                  -0.285
REMARK UNBOUND:                -0.482
REMARK SMILES CCCCCCCCCO
REMARK SMILES IDX 6 1 5 2 4 3 3 4 2 5 1 6 7 7 8 8 9 9 10 10
REMARK H PARENT 10 11
REMARK Flexibility Score: inf
ROOT
ATOM      1  C   UNL     1      25.895  26.020  22.712  1.00  0.00     0.000 C 
ENDROOT
BRANCH   1   2
ATOM      2  C   UNL     1      27.368  26.436  22.576  1.00  0.00     0.000 C 
BRANCH   2   3
ATOM      3  C   UNL     1      28.005  25.939  21.270  1.00  0.00    -0.000 C 
BRANCH   3   4
ATOM      4  C   UNL     1      29.399  25.349  21.529  1.00  0.00    -0.000 C 
BRANCH   4   5
ATOM      5  C   UNL     1      30.089  25.980  22.749  1.00  0.00    -0.003 C 
ATOM      6  C   UNL     1      31.390  25.271  23.126  1.00  0.00     0.004 C 
ENDBRANCH   4   5
ENDBRANCH   3   4
ENDBRANCH   2   3
ENDBRANCH   1   2
BRANCH   1   7
ATOM      7  C   UNL     1      25.256  26.524  24.018  1.00  0.00     0.002 C 
BRANCH   7   8
ATOM      8  C   UNL     1      25.592  27.995  24.313  1.00  0.00     0.028 C 
BRANCH   8   9
ATOM      9  C   UNL     1      24.393  28.937  24.169  1.00  0.00     0.156 C 
BRANCH   9  10
ATOM     10  O   UNL     1      24.428  29.583  22.926  1.00  0.00    -0.396 OA
ATOM     11  H   UNL     1      24.402  30.556  23.119  1.00  0.00     0.210 HD
ENDBRANCH   9  10
ENDBRANCH   8   9
ENDBRANCH   7   8
ENDBRANCH   1   7
TORSDOF 8
ENDMDL
MODEL 5
REMARK VINA RESULT:    -3.541      4.276      5.793
REMARK INTER + INTRA:          -5.576
REMARK INTER:                  -5.454
REMARK INTRA:                  -0.122
REMARK UNBOUND:                -0.482
REMARK SMILES CCCCCCCCCO
REMARK SMILES IDX 6 1 5 2 4 3 3 4 2 5 1 6 7 7 8 8 9 9 10 10
REMARK H PARENT 10 11
REMARK Flexibility Score: inf
ROOT
ATOM      1  C   UNL     1      25.311  25.681  23.806  1.00  0.00     0.000 C 
ENDROOT
BRANCH   1   2
ATOM      2  C   UNL     1      24.397  24.464  24.013  1.00  0.00     0.000 C 
BRANCH   2   3
ATOM      3  C   UNL     1      24.092  23.723  22.702  1.00  0.00    -0.000 C 
BRANCH   3   4
ATOM      4  C   UNL     1      22.628  23.262  22.660  1.00  0.00    -0.000 C 
BRANCH   4   5
ATOM      5  C   UNL     1      22.422  22.030  21.765  1.00  0.00    -0.003 C 
ATOM      6  C   UNL     1      21.305  21.114  22.266  1.00  0.00     0.004 C 
ENDBRANCH   4   5
ENDBRANCH   3   4
ENDBRANCH   2   3
ENDBRANCH   1   2
BRANCH   1   7
ATOM      7  C   UNL     1      24.978  26.841  24.760  1.00  0.00     0.002 C 
BRANCH   7   8
ATOM      8  C   UNL     1      25.445  28.204  24.223  1.00  0.00     0.028 C 
BRANCH   8   9
ATOM      9  C   UNL     1      24.314  29.229  24.089  1.00  0.00     0.156 C 
BRANCH   9  10
ATOM     10  O   UNL     1      24.333  29.809  22.814  1.00  0.00    -0.396 OA
ATOM     11  H   UNL     1      25.128  29.436  22.352  1.00  0.00     0.210 HD
ENDBRANCH   9  10
ENDBRANCH   8   9
ENDBRANCH   7   8
ENDBRANCH   1   7
TORSDOF 8
ENDMDL
MODEL 6
REMARK VINA RESULT:    -3.506      2.840      4.286
REMARK INTER + INTRA:          -5.525
REMARK INTER:                  -5.032
REMARK INTRA:                  -0.493
REMARK UNBOUND:                -0.482
REMARK SMILES CCCCCCCCCO
REMARK SMILES IDX 6 1 5 2 4 3 3 4 2 5 1 6 7 7 8 8 9 9 10 10
REMARK H PARENT 10 11
REMARK Flexibility Score: inf
ROOT
ATOM      1  C   UNL     1      28.071  26.311  22.367  1.00  0.00     0.000 C 
ENDROOT
BRANCH   1   2
ATOM      2  C   UNL     1      29.080  26.978  23.314  1.00  0.00     0.000 C 
BRANCH   2   3
ATOM      3  C   UNL     1      30.452  26.288  23.298  1.00  0.00    -0.000 C 
BRANCH   3   4
ATOM      4  C   UNL     1      31.559  27.274  22.895  1.00  0.00    -0.000 C 
BRANCH   4   5
ATOM      5  C   UNL     1      31.034  28.425  22.023  1.00  0.00    -0.003 C 
ATOM      6  C   UNL     1      32.053  29.551  21.853  1.00  0.00     0.004 C 
ENDBRANCH   4   5
ENDBRANCH   3   4
ENDBRANCH   2   3
ENDBRANCH   1   2
BRANCH   1   7
ATOM      7  C   UNL     1      28.752  25.447  21.291  1.00  0.00     0.002 C 
BRANCH   7   8
ATOM      8  C   UNL     1      28.893  26.177  19.945  1.00  0.00     0.028 C 
BRANCH   8   9
ATOM      9  C   UNL     1      28.724  25.260  18.730  1.00  0.00     0.156 C 
BRANCH   9  10
ATOM     10  O   UNL     1      28.895  25.987  17.544  1.00  0.00    -0.396 OA
ATOM     11  H   UNL     1      29.251  26.873  17.813  1.00  0.00     0.210 HD
ENDBRANCH   9  10
ENDBRANCH   8   9
ENDBRANCH   7   8
ENDBRANCH   1   7
TORSDOF 8
ENDMDL
MODEL 7
REMARK VINA RESULT:    -3.481      2.802      5.437
REMARK INTER + INTRA:          -5.489
REMARK INTER:                  -5.308
REMARK INTRA:                  -0.181
REMARK UNBOUND:                -0.482
REMARK SMILES CCCCCCCCCO
REMARK SMILES IDX 6 1 5 2 4 3 3 4 2 5 1 6 7 7 8 8 9 9 10 10
REMARK H PARENT 10 11
REMARK Flexibility Score: inf
ROOT
ATOM      1  C   UNL     1      25.461  25.995  22.828  1.00  0.00     0.000 C 
ENDROOT
BRANCH   1   2
ATOM      2  C   UNL     1      25.295  24.499  23.141  1.00  0.00     0.000 C 
BRANCH   2   3
ATOM      3  C   UNL     1      23.851  24.130  23.516  1.00  0.00    -0.000 C 
BRANCH   3   4
ATOM      4  C   UNL     1      23.188  23.308  22.400  1.00  0.00    -0.000 C 
BRANCH   4   5
ATOM      5  C   UNL     1      21.852  22.689  22.839  1.00  0.00    -0.003 C 
ATOM      6  C   UNL     1      21.530  21.391  22.098  1.00  0.00     0.004 C 
ENDBRANCH   4   5
ENDBRANCH   3   4
ENDBRANCH   2   3
ENDBRANCH   1   2
BRANCH   1   7
ATOM      7  C   UNL     1      26.935  26.435  22.809  1.00  0.00     0.002 C 
BRANCH   7   8
ATOM      8  C   UNL     1      27.812  25.531  21.925  1.00  0.00     0.028 C 
BRANCH   8   9
ATOM      9  C   UNL     1      28.393  26.248  20.703  1.00  0.00     0.156 C 
BRANCH   9  10
ATOM     10  O   UNL     1      27.606  25.993  19.571  1.00  0.00    -0.396 OA
ATOM     11  H   UNL     1      27.756  26.755  18.954  1.00  0.00     0.210 HD
ENDBRANCH   9  10
ENDBRANCH   8   9
ENDBRANCH   7   8
ENDBRANCH   1   7
TORSDOF 8
ENDMDL
MODEL 8
REMARK VINA RESULT:    -3.414      2.450      3.326
REMARK INTER + INTRA:          -5.393
REMARK INTER:                  -5.022
REMARK INTRA:                  -0.371
REMARK UNBOUND:                -0.482
REMARK SMILES CCCCCCCCCO
REMARK SMILES IDX 6 1 5 2 4 3 3 4 2 5 1 6 7 7 8 8 9 9 10 10
REMARK H PARENT 10 11
REMARK Flexibility Score: inf
ROOT
ATOM      1  C   UNL     1      27.745  26.120  21.544  1.00  0.00     0.000 C 
ENDROOT
BRANCH   1   2
ATOM      2  C   UNL     1      29.248  26.372  21.347  1.00  0.00     0.000 C 
BRANCH   2   3
ATOM      3  C   UNL     1      30.076  26.005  22.588  1.00  0.00    -0.000 C 
BRANCH   3   4
ATOM      4  C   UNL     1      30.861  27.221  23.103  1.00  0.00    -0.000 C 
BRANCH   4   5
ATOM      5  C   UNL     1      30.655  28.469  22.230  1.00  0.00    -0.003 C 
ATOM      6  C   UNL     1      31.965  29.183  21.900  1.00  0.00     0.004 C 
ENDBRANCH   4   5
ENDBRANCH   3   4
ENDBRANCH   2   3
ENDBRANCH   1   2
BRANCH   1   7
ATOM      7  C   UNL     1      27.260  26.507  22.953  1.00  0.00     0.002 C 
BRANCH   7   8
ATOM      8  C   UNL     1      25.728  26.603  23.047  1.00  0.00     0.028 C 
BRANCH   8   9
ATOM      9  C   UNL     1      25.240  27.755  23.931  1.00  0.00     0.156 C 
BRANCH   9  10
ATOM     10  O   UNL     1      24.583  28.719  23.155  1.00  0.00    -0.396 OA
ATOM     11  H   UNL     1      25.110  28.806  22.318  1.00  0.00     0.210 HD
ENDBRANCH   9  10
ENDBRANCH   8   9
ENDBRANCH   7   8
ENDBRANCH   1   7
TORSDOF 8
ENDMDL
MODEL 9
REMARK VINA RESULT:    -3.388      1.530      2.472
REMARK INTER + INTRA:          -5.355
REMARK INTER:                  -4.921
REMARK INTRA:                  -0.433
REMARK UNBOUND:                -0.482
REMARK SMILES CCCCCCCCCO
REMARK SMILES IDX 6 1 5 2 4 3 3 4 2 5 1 6 7 7 8 8 9 9 10 10
REMARK H PARENT 10 11
REMARK Flexibility Score: inf
ROOT
ATOM      1  C   UNL     1      27.256  26.579  22.886  1.00  0.00     0.000 C 
ENDROOT
BRANCH   1   2
ATOM      2  C   UNL     1      27.847  25.691  21.781  1.00  0.00     0.000 C 
BRANCH   2   3
ATOM      3  C   UNL     1      29.383  25.654  21.810  1.00  0.00    -0.000 C 
BRANCH   3   4
ATOM      4  C   UNL     1      29.921  26.260  23.114  1.00  0.00    -0.000 C 
BRANCH   4   5
ATOM      5  C   UNL     1      31.049  27.275  22.872  1.00  0.00    -0.003 C 
ATOM      6  C   UNL     1      30.588  28.493  22.072  1.00  0.00     0.004 C 
ENDBRANCH   4   5
ENDBRANCH   3   4
ENDBRANCH   2   3
ENDBRANCH   1   2
BRANCH   1   7
ATOM      7  C   UNL     1      25.722  26.485  22.962  1.00  0.00     0.002 C 
BRANCH   7   8
ATOM      8  C   UNL     1      25.240  25.578  24.107  1.00  0.00     0.028 C 
BRANCH   8   9
ATOM      9  C   UNL     1      24.452  24.355  23.628  1.00  0.00     0.156 C 
BRANCH   9  10
ATOM     10  O   UNL     1      25.177  23.663  22.650  1.00  0.00    -0.396 OA
ATOM     11  H   UNL     1      24.504  23.252  22.047  1.00  0.00     0.210 HD
ENDBRANCH   9  10
ENDBRANCH   8   9
ENDBRANCH   7   8
ENDBRANCH   1   7
TORSDOF 8
ENDMDL
