MODEL 1
REMARK VINA RESULT:    -4.922      0.000      0.000
REMARK INTER + INTRA:          -7.374
REMARK INTER:                  -6.936
REMARK INTRA:                  -0.438
REMARK UNBOUND:                -0.438
REMARK SMILES CCCCCCCCC(=O)[O-]
REMARK SMILES IDX 6 1 7 2 8 3 9 4 10 5 11 6 5 7 4 8 3 9 2 10 1 11
REMARK H PARENT
REMARK Flexibility Score: inf
ROOT
ATOM      1  C   UNL     1     134.943 133.259 133.430  1.00  0.00     0.000 C 
ENDROOT
BRANCH   1   2
ATOM      2  C   UNL     1     136.211 134.103 133.635  1.00  0.00     0.006 C 
BRANCH   2   3
ATOM      3  C   UNL     1     136.076 135.468 132.955  1.00  0.00     0.053 C 
BRANCH   3   4
ATOM      4  C   UNL     1     137.389 135.901 132.382  1.00  0.00     0.041 C 
ATOM      5  O   UNL     1     138.295 136.343 133.138  1.00  0.00    -0.550 OA
ATOM      6  O   UNL     1     137.596 135.863 131.009  1.00  0.00    -0.550 OA
ENDBRANCH   3   4
ENDBRANCH   2   3
ENDBRANCH   1   2
BRANCH   1   7
ATOM      7  C   UNL     1     133.781 133.710 134.336  1.00  0.00     0.000 C 
BRANCH   7   8
ATOM      8  C   UNL     1     132.391 133.394 133.754  1.00  0.00    -0.000 C 
BRANCH   8   9
ATOM      9  C   UNL     1     131.624 134.655 133.293  1.00  0.00    -0.000 C 
BRANCH   9  10
ATOM     10  C   UNL     1     132.431 135.955 133.451  1.00  0.00    -0.003 C 
ATOM     11  C   UNL     1     131.632 137.199 133.070  1.00  0.00     0.004 C 
ENDBRANCH   9  10
ENDBRANCH   8   9
ENDBRANCH   7   8
ENDBRANCH   1   7
TORSDOF 7
ENDMDL
MODEL 2
REMARK VINA RESULT:    -4.888      3.272      4.593
REMARK INTER + INTRA:          -7.326
REMARK INTER:                  -6.885
REMARK INTRA:                  -0.441
REMARK UNBOUND:                -0.438
REMARK SMILES CCCCCCCCC(=O)[O-]
REMARK SMILES IDX 6 1 7 2 8 3 9 4 10 5 11 6 5 7 4 8 3 9 2 10 1 11
REMARK H PARENT
REMARK Flexibility Score: inf
ROOT
ATOM      1  C   UNL     1     134.252 134.914 133.498  1.00  0.00     0.000 C 
ENDROOT
BRANCH   1   2
ATOM      2  C   UNL     1     133.453 136.225 133.560  1.00  0.00     0.006 C 
BRANCH   2   3
ATOM      3  C   UNL     1     132.047 136.037 132.983  1.00  0.00     0.053 C 
BRANCH   3   4
ATOM      4  C   UNL     1     131.548 137.316 132.389  1.00  0.00     0.041 C 
ATOM      5  O   UNL     1     131.536 137.471 131.138  1.00  0.00    -0.550 OA
ATOM      6  O   UNL     1     131.143 138.356 133.215  1.00  0.00    -0.550 OA
ENDBRANCH   3   4
ENDBRANCH   2   3
ENDBRANCH   1   2
BRANCH   1   7
ATOM      7  C   UNL     1     133.591 133.781 134.307  1.00  0.00     0.000 C 
BRANCH   7   8
ATOM      8  C   UNL     1     133.893 132.375 133.754  1.00  0.00    -0.000 C 
BRANCH   8   9
ATOM      9  C   UNL     1     132.628 131.622 133.282  1.00  0.00    -0.000 C 
BRANCH   9  10
ATOM     10  C   UNL     1     131.340 132.455 133.399  1.00  0.00    -0.003 C 
ATOM     11  C   UNL     1     130.079 131.637 133.128  1.00  0.00     0.004 C 
ENDBRANCH   9  10
ENDBRANCH   8   9
ENDBRANCH   7   8
ENDBRANCH   1   7
TORSDOF 7
ENDMDL
MODEL 3
REMARK VINA RESULT:    -4.814      2.904      4.428
REMARK INTER + INTRA:          -7.222
REMARK INTER:                  -6.724
REMARK INTRA:                  -0.498
REMARK UNBOUND:                -0.438
REMARK SMILES CCCCCCCCC(=O)[O-]
REMARK SMILES IDX 6 1 7 2 8 3 9 4 10 5 11 6 5 7 4 8 3 9 2 10 1 11
REMARK H PARENT
REMARK Flexibility Score: inf
ROOT
ATOM      1  C   UNL     1     132.554 132.820 133.753  1.00  0.00     0.000 C 
ENDROOT
BRANCH   1   2
ATOM      2  C   UNL     1     133.248 131.781 132.858  1.00  0.00     0.006 C 
BRANCH   2   3
ATOM      3  C   UNL     1     134.356 131.052 133.624  1.00  0.00     0.053 C 
BRANCH   3   4
ATOM      4  C   UNL     1     135.430 130.597 132.686  1.00  0.00     0.041 C 
ATOM      5  O   UNL     1     136.200 129.656 133.015  1.00  0.00    -0.550 OA
ATOM      6  O   UNL     1     135.610 131.242 131.469  1.00  0.00    -0.550 OA
ENDBRANCH   3   4
ENDBRANCH   2   3
ENDBRANCH   1   2
BRANCH   1   7
ATOM      7  C   UNL     1     133.546 133.823 134.372  1.00  0.00     0.000 C 
BRANCH   7   8
ATOM      8  C   UNL     1     133.461 135.232 133.755  1.00  0.00    -0.000 C 
BRANCH   8   9
ATOM      9  C   UNL     1     134.795 135.707 133.136  1.00  0.00    -0.000 C 
BRANCH   9  10
ATOM     10  C   UNL     1     135.974 134.763 133.424  1.00  0.00    -0.003 C 
ATOM     11  C   UNL     1     137.328 135.467 133.355  1.00  0.00     0.004 C 
ENDBRANCH   9  10
ENDBRANCH   8   9
ENDBRANCH   7   8
ENDBRANCH   1   7
TORSDOF 7
ENDMDL
MODEL 4
REMARK VINA RESULT:    -4.781      3.564      4.119
REMARK INTER + INTRA:          -7.176
REMARK INTER:                  -6.834
REMARK INTRA:                  -0.342
REMARK UNBOUND:                -0.438
REMARK SMILES CCCCCCCCC(=O)[O-]
REMARK SMILES IDX 6 1 7 2 8 3 9 4 10 5 11 6 5 7 4 8 3 9 2 10 1 11
REMARK H PARENT
REMARK Flexibility Score: inf
ROOT
ATOM      1  C   UNL     1     133.012 131.781 133.066  1.00  0.00     0.000 C 
ENDROOT
BRANCH   1   2
ATOM      2  C   UNL     1     134.363 131.450 133.720  1.00  0.00     0.006 C 
BRANCH   2   3
ATOM      3  C   UNL     1     135.487 131.439 132.680  1.00  0.00     0.053 C 
BRANCH   3   4
ATOM      4  C   UNL     1     135.801 130.037 132.262  1.00  0.00     0.041 C 
ATOM      5  O   UNL     1     135.636 129.682 131.065  1.00  0.00    -0.550 OA
ATOM      6  O   UNL     1     136.231 129.110 133.202  1.00  0.00    -0.550 OA
ENDBRANCH   3   4
ENDBRANCH   2   3
ENDBRANCH   1   2
BRANCH   1   7
ATOM      7  C   UNL     1     132.380 133.066 133.633  1.00  0.00     0.000 C 
BRANCH   7   8
ATOM      8  C   UNL     1     133.411 134.054 134.211  1.00  0.00    -0.000 C 
BRANCH   8   9
ATOM      9  C   UNL     1     133.223 135.500 133.698  1.00  0.00    -0.000 C 
BRANCH   9  10
ATOM     10  C   UNL     1     131.803 135.786 133.181  1.00  0.00    -0.003 C 
ATOM     11  C   UNL     1     131.480 137.279 133.128  1.00  0.00     0.004 C 
ENDBRANCH   9  10
ENDBRANCH   8   9
ENDBRANCH   7   8
ENDBRANCH   1   7
TORSDOF 7
ENDMDL
MODEL 5
REMARK VINA RESULT:    -4.729      4.062      6.166
REMARK INTER + INTRA:          -7.102
REMARK INTER:                  -6.615
REMARK INTRA:                  -0.487
REMARK UNBOUND:                -0.438
REMARK SMILES CCCCCCCCC(=O)[O-]
REMARK SMILES IDX 6 1 7 2 8 3 9 4 10 5 11 6 5 7 4 8 3 9 2 10 1 11
REMARK H PARENT
REMARK Flexibility Score: inf
ROOT
ATOM      1  C   UNL     1     132.680 134.689 133.179  1.00  0.00     0.000 C 
ENDROOT
BRANCH   1   2
ATOM      2  C   UNL     1     131.227 134.203 133.307  1.00  0.00     0.006 C 
BRANCH   2   3
ATOM      3  C   UNL     1     131.177 132.737 133.746  1.00  0.00     0.053 C 
BRANCH   3   4
ATOM      4  C   UNL     1     130.438 131.913 132.740  1.00  0.00     0.041 C 
ATOM      5  O   UNL     1     130.842 131.856 131.548  1.00  0.00    -0.550 OA
ATOM      6  O   UNL     1     129.275 131.246 133.105  1.00  0.00    -0.550 OA
ENDBRANCH   3   4
ENDBRANCH   2   3
ENDBRANCH   1   2
BRANCH   1   7
ATOM      7  C   UNL     1     133.629 133.981 134.165  1.00  0.00     0.000 C 
BRANCH   7   8
ATOM      8  C   UNL     1     135.115 134.096 133.777  1.00  0.00    -0.000 C 
BRANCH   8   9
ATOM      9  C   UNL     1     135.698 132.783 133.207  1.00  0.00    -0.000 C 
BRANCH   9  10
ATOM     10  C   UNL     1     134.778 131.567 133.407  1.00  0.00    -0.003 C 
ATOM     11  C   UNL     1     135.507 130.236 133.231  1.00  0.00     0.004 C 
ENDBRANCH   9  10
ENDBRANCH   8   9
ENDBRANCH   7   8
ENDBRANCH   1   7
TORSDOF 7
ENDMDL
MODEL 6
REMARK VINA RESULT:    -4.724      2.918      4.612
REMARK INTER + INTRA:          -7.095
REMARK INTER:                  -6.502
REMARK INTRA:                  -0.594
REMARK UNBOUND:                -0.438
REMARK SMILES CCCCCCCCC(=O)[O-]
REMARK SMILES IDX 6 1 7 2 8 3 9 4 10 5 11 6 5 7 4 8 3 9 2 10 1 11
REMARK H PARENT
REMARK Flexibility Score: inf
ROOT
ATOM      1  C   UNL     1     131.973 133.699 133.742  1.00  0.00     0.000 C 
ENDROOT
BRANCH   1   2
ATOM      2  C   UNL     1     131.840 134.827 132.707  1.00  0.00     0.006 C 
BRANCH   2   3
ATOM      3  C   UNL     1     132.273 136.170 133.301  1.00  0.00     0.053 C 
BRANCH   3   4
ATOM      4  C   UNL     1     131.642 137.302 132.555  1.00  0.00     0.041 C 
ATOM      5  O   UNL     1     131.062 138.228 133.181  1.00  0.00    -0.550 OA
ATOM      6  O   UNL     1     131.651 137.311 131.166  1.00  0.00    -0.550 OA
ENDBRANCH   3   4
ENDBRANCH   2   3
ENDBRANCH   1   2
BRANCH   1   7
ATOM      7  C   UNL     1     133.387 133.619 134.350  1.00  0.00     0.000 C 
BRANCH   7   8
ATOM      8  C   UNL     1     134.255 132.501 133.742  1.00  0.00    -0.000 C 
BRANCH   8   9
ATOM      9  C   UNL     1     135.582 133.020 133.143  1.00  0.00    -0.000 C 
BRANCH   9  10
ATOM     10  C   UNL     1     135.991 134.407 133.669  1.00  0.00    -0.003 C 
ATOM     11  C   UNL     1     136.073 135.459 132.564  1.00  0.00     0.004 C 
ENDBRANCH   9  10
ENDBRANCH   8   9
ENDBRANCH   7   8
ENDBRANCH   1   7
TORSDOF 7
ENDMDL
MODEL 7
REMARK VINA RESULT:    -4.698      1.873      3.779
REMARK INTER + INTRA:          -7.058
REMARK INTER:                  -6.539
REMARK INTRA:                  -0.519
REMARK UNBOUND:                -0.438
REMARK SMILES CCCCCCCCC(=O)[O-]
REMARK SMILES IDX 6 1 7 2 8 3 9 4 10 5 11 6 5 7 4 8 3 9 2 10 1 11
REMARK H PARENT
REMARK Flexibility Score: inf
ROOT
ATOM      1  C   UNL     1     133.165 134.972 133.836  1.00  0.00     0.000 C 
ENDROOT
BRANCH   1   2
ATOM      2  C   UNL     1     134.270 135.892 133.294  1.00  0.00     0.006 C 
BRANCH   2   3
ATOM      3  C   UNL     1     135.630 135.190 133.324  1.00  0.00     0.053 C 
BRANCH   3   4
ATOM      4  C   UNL     1     136.178 135.048 131.938  1.00  0.00     0.041 C 
ATOM      5  O   UNL     1     135.605 134.297 131.105  1.00  0.00    -0.550 OA
ATOM      6  O   UNL     1     137.348 135.706 131.582  1.00  0.00    -0.550 OA
ENDBRANCH   3   4
ENDBRANCH   2   3
ENDBRANCH   1   2
BRANCH   1   7
ATOM      7  C   UNL     1     133.701 133.591 134.259  1.00  0.00     0.000 C 
BRANCH   7   8
ATOM      8  C   UNL     1     133.137 132.429 133.419  1.00  0.00    -0.000 C 
BRANCH   8   9
ATOM      9  C   UNL     1     133.927 131.112 133.593  1.00  0.00    -0.000 C 
BRANCH   9  10
ATOM     10  C   UNL     1     135.373 131.193 133.076  1.00  0.00    -0.003 C 
ATOM     11  C   UNL     1     136.063 129.830 133.031  1.00  0.00     0.004 C 
ENDBRANCH   9  10
ENDBRANCH   8   9
ENDBRANCH   7   8
ENDBRANCH   1   7
TORSDOF 7
ENDMDL
MODEL 8
REMARK VINA RESULT:    -4.692      3.870      4.931
REMARK INTER + INTRA:          -7.051
REMARK INTER:                  -6.486
REMARK INTRA:                  -0.564
REMARK UNBOUND:                -0.438
REMARK SMILES CCCCCCCCC(=O)[O-]
REMARK SMILES IDX 6 1 7 2 8 3 9 4 10 5 11 6 5 7 4 8 3 9 2 10 1 11
REMARK H PARENT
REMARK Flexibility Score: inf
ROOT
ATOM      1  C   UNL     1     134.252 132.239 133.776  1.00  0.00     0.000 C 
ENDROOT
BRANCH   1   2
ATOM      2  C   UNL     1     133.047 131.410 133.305  1.00  0.00     0.006 C 
BRANCH   2   3
ATOM      3  C   UNL     1     132.290 132.131 132.186  1.00  0.00     0.053 C 
BRANCH   3   4
ATOM      4  C   UNL     1     130.832 132.217 132.509  1.00  0.00     0.041 C 
ATOM      5  O   UNL     1     130.455 132.715 133.604  1.00  0.00    -0.550 OA
ATOM      6  O   UNL     1     129.891 131.705 131.625  1.00  0.00    -0.550 OA
ENDBRANCH   3   4
ENDBRANCH   2   3
ENDBRANCH   1   2
BRANCH   1   7
ATOM      7  C   UNL     1     133.850 133.646 134.257  1.00  0.00     0.000 C 
BRANCH   7   8
ATOM      8  C   UNL     1     134.627 134.780 133.561  1.00  0.00    -0.000 C 
BRANCH   8   9
ATOM      9  C   UNL     1     133.807 136.083 133.423  1.00  0.00    -0.000 C 
BRANCH   9  10
ATOM     10  C   UNL     1     132.297 135.843 133.261  1.00  0.00    -0.003 C 
ATOM     11  C   UNL     1     131.502 137.140 133.124  1.00  0.00     0.004 C 
ENDBRANCH   9  10
ENDBRANCH   8   9
ENDBRANCH   7   8
ENDBRANCH   1   7
TORSDOF 7
ENDMDL
MODEL 9
REMARK VINA RESULT:    -4.646      3.084      5.107
REMARK INTER + INTRA:          -6.984
REMARK INTER:                  -6.677
REMARK INTRA:                  -0.307
REMARK UNBOUND:                -0.438
REMARK SMILES CCCCCCCCC(=O)[O-]
REMARK SMILES IDX 6 1 7 2 8 3 9 4 10 5 11 6 5 7 4 8 3 9 2 10 1 11
REMARK H PARENT
REMARK Flexibility Score: inf
ROOT
ATOM      1  C   UNL     1     132.496 134.449 133.758  1.00  0.00     0.000 C 
ENDROOT
BRANCH   1   2
ATOM      2  C   UNL     1     132.944 135.864 133.360  1.00  0.00     0.006 C 
BRANCH   2   3
ATOM      3  C   UNL     1     131.748 136.712 132.918  1.00  0.00     0.053 C 
BRANCH   3   4
ATOM      4  C   UNL     1     131.702 136.817 131.426  1.00  0.00     0.041 C 
ATOM      5  O   UNL     1     131.719 135.775 130.718  1.00  0.00    -0.550 OA
ATOM      6  O   UNL     1     131.690 138.065 130.816  1.00  0.00    -0.550 OA
ENDBRANCH   3   4
ENDBRANCH   2   3
ENDBRANCH   1   2
BRANCH   1   7
ATOM      7  C   UNL     1     133.632 133.627 134.396  1.00  0.00     0.000 C 
BRANCH   7   8
ATOM      8  C   UNL     1     135.015 133.905 133.776  1.00  0.00    -0.000 C 
BRANCH   8   9
ATOM      9  C   UNL     1     135.710 132.631 133.245  1.00  0.00    -0.000 C 
BRANCH   9  10
ATOM     10  C   UNL     1     134.869 131.355 133.421  1.00  0.00    -0.003 C 
ATOM     11  C   UNL     1     135.657 130.080 133.125  1.00  0.00     0.004 C 
ENDBRANCH   9  10
ENDBRANCH   8   9
ENDBRANCH   7   8
ENDBRANCH   1   7
TORSDOF 7
ENDMDL
