MODEL 1
REMARK VINA RESULT:    -5.441      0.000      0.000
REMARK INTER + INTRA:          -6.050
REMARK INTER:                  -5.759
REMARK INTRA:                  -0.291
REMARK UNBOUND:                -0.291
REMARK SMILES CC1=CC[C@@H]2[C@H]3[C@@H](C(C)C)CC[C@]2(C)[C@@H]13
REMARK SMILES IDX 1 1 2 2 3 3 4 4 5 5 6 6 15 7 13 8 12 9 11 10 7 11 14 12 8 13
REMARK SMILES IDX 9 14 10 15
REMARK H PARENT
REMARK Flexibility Score: inf
ROOT
ATOM      1  C   UNL     1      32.004   7.382  33.290  1.00  0.00     0.039 C 
ATOM      2  C   UNL     1      31.492   8.762  33.003  1.00  0.00    -0.073 C 
ATOM      3  C   UNL     1      30.471   9.298  33.721  1.00  0.00    -0.027 C 
ATOM      4  C   UNL     1      30.007  10.722  33.398  1.00  0.00     0.031 C 
ATOM      5  C   UNL     1      30.832  11.308  32.206  1.00  0.00     0.003 C 
ATOM      6  C   UNL     1      30.883  10.223  31.105  1.00  0.00     0.004 C 
ATOM      7  C   UNL     1      32.081   9.621  31.880  1.00  0.00     0.024 C 
ATOM      8  C   UNL     1      32.347  11.059  32.389  1.00  0.00    -0.022 C 
ATOM      9  C   UNL     1      33.125  11.881  31.323  1.00  0.00     0.008 C 
ATOM     10  C   UNL     1      32.738  11.503  29.868  1.00  0.00     0.005 C 
ATOM     11  C   UNL     1      31.332  10.822  29.737  1.00  0.00    -0.005 C 
ATOM     12  C   UNL     1      32.967  11.252  33.793  1.00  0.00     0.012 C 
ENDROOT
BRANCH  11  13
ATOM     13  C   UNL     1      30.278  11.784  29.094  1.00  0.00    -0.014 C 
ATOM     14  C   UNL     1      30.839  12.446  27.821  1.00  0.00     0.007 C 
ATOM     15  C   UNL     1      28.959  11.075  28.734  1.00  0.00     0.007 C 
ENDBRANCH  11  13
TORSDOF 1
ENDMDL
MODEL 2
REMARK VINA RESULT:    -5.387      1.554      2.538
REMARK INTER + INTRA:          -5.993
REMARK INTER:                  -5.705
REMARK INTRA:                  -0.288
REMARK UNBOUND:                -0.291
REMARK SMILES CC1=CC[C@@H]2[C@H]3[C@@H](C(C)C)CC[C@]2(C)[C@@H]13
REMARK SMILES IDX 1 1 2 2 3 3 4 4 5 5 6 6 15 7 13 8 12 9 11 10 7 11 14 12 8 13
REMARK SMILES IDX 9 14 10 15
REMARK H PARENT
REMARK Flexibility Score: inf
ROOT
ATOM      1  C   UNL     1      31.028   6.728  35.843  1.00  0.00     0.039 C 
ATOM      2  C   UNL     1      30.632   7.964  35.092  1.00  0.00    -0.073 C 
ATOM      3  C   UNL     1      29.342   8.389  35.066  1.00  0.00    -0.027 C 
ATOM      4  C   UNL     1      29.002   9.673  34.301  1.00  0.00     0.031 C 
ATOM      5  C   UNL     1      30.284  10.266  33.631  1.00  0.00     0.003 C 
ATOM      6  C   UNL     1      31.017   9.098  32.931  1.00  0.00     0.004 C 
ATOM      7  C   UNL     1      31.655   8.791  34.308  1.00  0.00     0.024 C 
ATOM      8  C   UNL     1      31.476  10.297  34.616  1.00  0.00    -0.022 C 
ATOM      9  C   UNL     1      32.629  11.126  33.984  1.00  0.00     0.008 C 
ATOM     10  C   UNL     1      33.125  10.540  32.635  1.00  0.00     0.005 C 
ATOM     11  C   UNL     1      32.079   9.621  31.915  1.00  0.00    -0.005 C 
ATOM     12  C   UNL     1      31.219  10.736  36.077  1.00  0.00     0.012 C 
ENDROOT
BRANCH  11  13
ATOM     13  C   UNL     1      31.459  10.318  30.659  1.00  0.00    -0.014 C 
ATOM     14  C   UNL     1      32.403  11.404  30.107  1.00  0.00     0.007 C 
ATOM     15  C   UNL     1      31.135   9.331  29.522  1.00  0.00     0.007 C 
ENDBRANCH  11  13
TORSDOF 1
ENDMDL
MODEL 3
REMARK VINA RESULT:    -5.315      1.666      5.009
REMARK INTER + INTRA:          -5.917
REMARK INTER:                  -5.624
REMARK INTRA:                  -0.293
REMARK UNBOUND:                -0.291
REMARK SMILES CC1=CC[C@@H]2[C@H]3[C@@H](C(C)C)CC[C@]2(C)[C@@H]13
REMARK SMILES IDX 1 1 2 2 3 3 4 4 5 5 6 6 15 7 13 8 12 9 11 10 7 11 14 12 8 13
REMARK SMILES IDX 9 14 10 15
REMARK H PARENT
REMARK Flexibility Score: inf
ROOT
ATOM      1  C   UNL     1      33.125  12.289  30.770  1.00  0.00     0.039 C 
ATOM      2  C   UNL     1      31.989  11.558  31.422  1.00  0.00    -0.073 C 
ATOM      3  C   UNL     1      30.802  12.172  31.663  1.00  0.00    -0.027 C 
ATOM      4  C   UNL     1      29.670  11.365  32.310  1.00  0.00     0.031 C 
ATOM      5  C   UNL     1      30.142   9.906  32.612  1.00  0.00     0.003 C 
ATOM      6  C   UNL     1      31.530  10.003  33.287  1.00  0.00     0.004 C 
ATOM      7  C   UNL     1      32.120  10.095  31.858  1.00  0.00     0.024 C 
ATOM      8  C   UNL     1      30.880   9.287  31.402  1.00  0.00    -0.022 C 
ATOM      9  C   UNL     1      31.091   7.769  31.663  1.00  0.00     0.008 C 
ATOM     10  C   UNL     1      31.924   7.486  32.942  1.00  0.00     0.005 C 
ATOM     11  C   UNL     1      31.921   8.661  33.979  1.00  0.00    -0.005 C 
ATOM     12  C   UNL     1      30.312   9.528  29.983  1.00  0.00     0.012 C 
ENDROOT
BRANCH  11  13
ATOM     13  C   UNL     1      31.052   8.325  35.237  1.00  0.00    -0.014 C 
ATOM     14  C   UNL     1      31.458   6.967  35.842  1.00  0.00     0.007 C 
ATOM     15  C   UNL     1      31.148   9.398  36.337  1.00  0.00     0.007 C 
ENDBRANCH  11  13
TORSDOF 1
ENDMDL
MODEL 4
REMARK VINA RESULT:    -5.259      1.284      2.832
REMARK INTER + INTRA:          -5.857
REMARK INTER:                  -5.569
REMARK INTRA:                  -0.288
REMARK UNBOUND:                -0.291
REMARK SMILES CC1=CC[C@@H]2[C@H]3[C@@H](C(C)C)CC[C@]2(C)[C@@H]13
REMARK SMILES IDX 1 1 2 2 3 3 4 4 5 5 6 6 15 7 13 8 12 9 11 10 7 11 14 12 8 13
REMARK SMILES IDX 9 14 10 15
REMARK H PARENT
REMARK Flexibility Score: inf
ROOT
ATOM      1  C   UNL     1      29.568  11.125  34.671  1.00  0.00     0.039 C 
ATOM      2  C   UNL     1      30.715  10.786  33.766  1.00  0.00    -0.073 C 
ATOM      3  C   UNL     1      31.990  11.123  34.090  1.00  0.00    -0.027 C 
ATOM      4  C   UNL     1      33.125  10.728  33.137  1.00  0.00     0.031 C 
ATOM      5  C   UNL     1      32.552   9.992  31.882  1.00  0.00     0.003 C 
ATOM      6  C   UNL     1      31.345  10.816  31.377  1.00  0.00     0.004 C 
ATOM      7  C   UNL     1      30.502  10.062  32.433  1.00  0.00     0.024 C 
ATOM      8  C   UNL     1      31.523   8.909  32.280  1.00  0.00    -0.022 C 
ATOM      9  C   UNL     1      31.191   8.046  31.031  1.00  0.00     0.008 C 
ATOM     10  C   UNL     1      30.598   8.878  29.862  1.00  0.00     0.005 C 
ATOM     11  C   UNL     1      30.942  10.406  29.927  1.00  0.00    -0.005 C 
ATOM     12  C   UNL     1      31.826   8.011  33.504  1.00  0.00     0.012 C 
ENDROOT
BRANCH  11  13
ATOM     13  C   UNL     1      31.995  10.811  28.842  1.00  0.00    -0.014 C 
ATOM     14  C   UNL     1      31.984   9.819  27.664  1.00  0.00     0.007 C 
ATOM     15  C   UNL     1      31.771  12.230  28.288  1.00  0.00     0.007 C 
ENDBRANCH  11  13
TORSDOF 1
ENDMDL
MODEL 5
REMARK VINA RESULT:    -5.210      1.342      4.723
REMARK INTER + INTRA:          -5.806
REMARK INTER:                  -5.515
REMARK INTRA:                  -0.291
REMARK UNBOUND:                -0.291
REMARK SMILES CC1=CC[C@@H]2[C@H]3[C@@H](C(C)C)CC[C@]2(C)[C@@H]13
REMARK SMILES IDX 1 1 2 2 3 3 4 4 5 5 6 6 15 7 13 8 12 9 11 10 7 11 14 12 8 13
REMARK SMILES IDX 9 14 10 15
REMARK H PARENT
REMARK Flexibility Score: inf
ROOT
ATOM      1  C   UNL     1      29.199  12.652  30.724  1.00  0.00     0.039 C 
ATOM      2  C   UNL     1      30.187  11.560  31.006  1.00  0.00    -0.073 C 
ATOM      3  C   UNL     1      30.590  10.705  30.030  1.00  0.00    -0.027 C 
ATOM      4  C   UNL     1      31.621   9.623  30.373  1.00  0.00     0.031 C 
ATOM      5  C   UNL     1      32.012   9.702  31.885  1.00  0.00     0.003 C 
ATOM      6  C   UNL     1      30.700   9.829  32.693  1.00  0.00     0.004 C 
ATOM      7  C   UNL     1      30.774  11.348  32.405  1.00  0.00     0.024 C 
ATOM      8  C   UNL     1      32.308  11.156  32.319  1.00  0.00    -0.022 C 
ATOM      9  C   UNL     1      32.937  11.139  33.740  1.00  0.00     0.008 C 
ATOM     10  C   UNL     1      32.011  10.490  34.803  1.00  0.00     0.005 C 
ATOM     11  C   UNL     1      30.931   9.524  34.205  1.00  0.00    -0.005 C 
ATOM     12  C   UNL     1      33.123  12.064  31.367  1.00  0.00     0.012 C 
ENDROOT
BRANCH  11  13
ATOM     13  C   UNL     1      31.265   8.024  34.501  1.00  0.00    -0.014 C 
ATOM     14  C   UNL     1      31.268   7.747  36.017  1.00  0.00     0.007 C 
ATOM     15  C   UNL     1      30.284   7.046  33.829  1.00  0.00     0.007 C 
ENDBRANCH  11  13
TORSDOF 1
ENDMDL
MODEL 6
REMARK VINA RESULT:    -5.100      1.811      4.905
REMARK INTER + INTRA:          -5.689
REMARK INTER:                  -5.401
REMARK INTRA:                  -0.288
REMARK UNBOUND:                -0.291
REMARK SMILES CC1=CC[C@@H]2[C@H]3[C@@H](C(C)C)CC[C@]2(C)[C@@H]13
REMARK SMILES IDX 1 1 2 2 3 3 4 4 5 5 6 6 15 7 13 8 12 9 11 10 7 11 14 12 8 13
REMARK SMILES IDX 9 14 10 15
REMARK H PARENT
REMARK Flexibility Score: inf
ROOT
ATOM      1  C   UNL     1      31.877   9.269  27.068  1.00  0.00     0.039 C 
ATOM      2  C   UNL     1      31.073   9.548  28.303  1.00  0.00    -0.073 C 
ATOM      3  C   UNL     1      30.068  10.462  28.297  1.00  0.00    -0.027 C 
ATOM      4  C   UNL     1      29.266  10.688  29.584  1.00  0.00     0.031 C 
ATOM      5  C   UNL     1      29.815   9.785  30.736  1.00  0.00     0.003 C 
ATOM      6  C   UNL     1      31.356   9.920  30.730  1.00  0.00     0.004 C 
ATOM      7  C   UNL     1      31.358   8.833  29.627  1.00  0.00     0.024 C 
ATOM      8  C   UNL     1      30.037   8.330  30.259  1.00  0.00    -0.022 C 
ATOM      9  C   UNL     1      30.328   7.434  31.495  1.00  0.00     0.008 C 
ATOM     10  C   UNL     1      31.585   7.887  32.287  1.00  0.00     0.005 C 
ATOM     11  C   UNL     1      31.979   9.386  32.057  1.00  0.00    -0.005 C 
ATOM     12  C   UNL     1      28.972   7.678  29.345  1.00  0.00     0.012 C 
ENDROOT
BRANCH  11  13
ATOM     13  C   UNL     1      31.653  10.271  33.306  1.00  0.00    -0.014 C 
ATOM     14  C   UNL     1      31.281   9.398  34.519  1.00  0.00     0.007 C 
ATOM     15  C   UNL     1      32.818  11.195  33.708  1.00  0.00     0.007 C 
ENDBRANCH  11  13
TORSDOF 1
ENDMDL
MODEL 7
REMARK VINA RESULT:    -5.044      1.684      4.943
REMARK INTER + INTRA:          -5.630
REMARK INTER:                  -5.343
REMARK INTRA:                  -0.288
REMARK UNBOUND:                -0.291
REMARK SMILES CC1=CC[C@@H]2[C@H]3[C@@H](C(C)C)CC[C@]2(C)[C@@H]13
REMARK SMILES IDX 1 1 2 2 3 3 4 4 5 5 6 6 15 7 13 8 12 9 11 10 7 11 14 12 8 13
REMARK SMILES IDX 9 14 10 15
REMARK H PARENT
REMARK Flexibility Score: inf
ROOT
ATOM      1  C   UNL     1      27.997   9.885  27.303  1.00  0.00     0.039 C 
ATOM      2  C   UNL     1      29.430   9.703  27.707  1.00  0.00    -0.073 C 
ATOM      3  C   UNL     1      30.179   8.686  27.207  1.00  0.00    -0.027 C 
ATOM      4  C   UNL     1      31.645   8.565  27.639  1.00  0.00     0.031 C 
ATOM      5  C   UNL     1      32.008   9.692  28.659  1.00  0.00     0.003 C 
ATOM      6  C   UNL     1      30.875   9.743  29.711  1.00  0.00     0.004 C 
ATOM      7  C   UNL     1      30.108  10.641  28.710  1.00  0.00     0.024 C 
ATOM      8  C   UNL     1      31.499  11.073  28.185  1.00  0.00    -0.022 C 
ATOM      9  C   UNL     1      32.110  12.175  29.095  1.00  0.00     0.008 C 
ATOM     10  C   UNL     1      31.731  12.002  30.590  1.00  0.00     0.005 C 
ATOM     11  C   UNL     1      31.310  10.542  30.978  1.00  0.00    -0.005 C 
ATOM     12  C   UNL     1      31.650  11.446  26.691  1.00  0.00     0.012 C 
ENDROOT
BRANCH  11  13
ATOM     13  C   UNL     1      32.411   9.826  31.828  1.00  0.00    -0.014 C 
ATOM     14  C   UNL     1      33.104  10.817  32.782  1.00  0.00     0.007 C 
ATOM     15  C   UNL     1      31.859   8.653  32.660  1.00  0.00     0.007 C 
ENDBRANCH  11  13
TORSDOF 1
ENDMDL
MODEL 8
REMARK VINA RESULT:    -5.005      2.492      4.824
REMARK INTER + INTRA:          -5.589
REMARK INTER:                  -5.300
REMARK INTRA:                  -0.289
REMARK UNBOUND:                -0.291
REMARK SMILES CC1=CC[C@@H]2[C@H]3[C@@H](C(C)C)CC[C@]2(C)[C@@H]13
REMARK SMILES IDX 1 1 2 2 3 3 4 4 5 5 6 6 15 7 13 8 12 9 11 10 7 11 14 12 8 13
REMARK SMILES IDX 9 14 10 15
REMARK H PARENT
REMARK Flexibility Score: inf
ROOT
ATOM      1  C   UNL     1      28.145   6.515  28.859  1.00  0.00     0.039 C 
ATOM      2  C   UNL     1      29.350   7.388  28.674  1.00  0.00    -0.073 C 
ATOM      3  C   UNL     1      30.428   6.960  27.968  1.00  0.00    -0.027 C 
ATOM      4  C   UNL     1      31.621   7.907  27.791  1.00  0.00     0.031 C 
ATOM      5  C   UNL     1      31.359   9.259  28.531  1.00  0.00     0.003 C 
ATOM      6  C   UNL     1      30.824   8.914  29.941  1.00  0.00     0.004 C 
ATOM      7  C   UNL     1      29.428   8.792  29.283  1.00  0.00     0.024 C 
ATOM      8  C   UNL     1      29.943   9.804  28.232  1.00  0.00    -0.022 C 
ATOM      9  C   UNL     1      29.838  11.257  28.774  1.00  0.00     0.008 C 
ATOM     10  C   UNL     1      30.085  11.350  30.304  1.00  0.00     0.005 C 
ATOM     11  C   UNL     1      30.898  10.147  30.894  1.00  0.00    -0.005 C 
ATOM     12  C   UNL     1      29.405   9.717  26.783  1.00  0.00     0.012 C 
ENDROOT
BRANCH  11  13
ATOM     13  C   UNL     1      32.358  10.562  31.274  1.00  0.00    -0.014 C 
ATOM     14  C   UNL     1      32.506  12.095  31.304  1.00  0.00     0.007 C 
ATOM     15  C   UNL     1      32.807  10.002  32.636  1.00  0.00     0.007 C 
ENDBRANCH  11  13
TORSDOF 1
ENDMDL
MODEL 9
REMARK VINA RESULT:    -4.916      1.553      3.148
REMARK INTER + INTRA:          -5.495
REMARK INTER:                  -5.231
REMARK INTRA:                  -0.263
REMARK UNBOUND:                -0.291
REMARK SMILES CC1=CC[C@@H]2[C@H]3[C@@H](C(C)C)CC[C@]2(C)[C@@H]13
REMARK SMILES IDX 1 1 2 2 3 3 4 4 5 5 6 6 15 7 13 8 12 9 11 10 7 11 14 12 8 13
REMARK SMILES IDX 9 14 10 15
REMARK H PARENT
REMARK Flexibility Score: inf
ROOT
ATOM      1  C   UNL     1      28.090  10.237  35.053  1.00  0.00     0.039 C 
ATOM      2  C   UNL     1      29.529  10.242  34.633  1.00  0.00    -0.073 C 
ATOM      3  C   UNL     1      30.491  10.790  35.421  1.00  0.00    -0.027 C 
ATOM      4  C   UNL     1      31.949  10.743  34.950  1.00  0.00     0.031 C 
ATOM      5  C   UNL     1      32.048  10.055  33.549  1.00  0.00     0.003 C 
ATOM      6  C   UNL     1      30.947  10.672  32.656  1.00  0.00     0.004 C 
ATOM      7  C   UNL     1      29.979   9.647  33.295  1.00  0.00     0.024 C 
ATOM      8  C   UNL     1      31.223   8.748  33.500  1.00  0.00    -0.022 C 
ATOM      9  C   UNL     1      31.567   7.985  32.190  1.00  0.00     0.008 C 
ATOM     10  C   UNL     1      31.257   8.809  30.911  1.00  0.00     0.005 C 
ATOM     11  C   UNL     1      31.195  10.357  31.148  1.00  0.00    -0.005 C 
ATOM     12  C   UNL     1      31.266   7.797  34.719  1.00  0.00     0.012 C 
ENDROOT
BRANCH  11  13
ATOM     13  C   UNL     1      32.443  11.087  30.550  1.00  0.00    -0.014 C 
ATOM     14  C   UNL     1      32.395  11.091  29.010  1.00  0.00     0.007 C 
ATOM     15  C   UNL     1      32.580  12.541  31.037  1.00  0.00     0.007 C 
ENDBRANCH  11  13
TORSDOF 1
ENDMDL
