MODEL 1
REMARK VINA RESULT:     2.233      0.000      0.000
REMARK INTER + INTRA:           2.299
REMARK INTER:                   2.299
REMARK INTRA:                   0.000
REMARK UNBOUND:                 0.000
REMARK SMILES Nc1ncnc2nc[nH]c12
REMARK SMILES IDX 8 1 7 2 6 3 5 4 4 5 3 6 2 7 10 8 9 9 1 11
REMARK H PARENT 9 10 1 12 1 13
REMARK Flexibility Score: inf
ROOT
ATOM      1  C   UNL     1       3.105   8.491  10.086  1.00  0.00     0.199 A 
ATOM      2  N   UNL     1       3.057   9.841   9.922  1.00  0.00    -0.217 NA
ATOM      3  C   UNL     1       2.996   9.965   8.586  1.00  0.00     0.182 A 
ATOM      4  N   UNL     1       2.930  11.120   7.882  1.00  0.00    -0.215 NA
ATOM      5  C   UNL     1       2.875  11.044   6.519  1.00  0.00     0.226 A 
ATOM      6  N   UNL     1       2.886   9.825   5.888  1.00  0.00    -0.217 NA
ATOM      7  C   UNL     1       2.952   8.658   6.596  1.00  0.00     0.152 A 
ATOM      8  C   UNL     1       3.008   8.753   7.983  1.00  0.00     0.127 A 
ATOM      9  N   UNL     1       3.077   7.798   8.919  1.00  0.00    -0.340 N 
ATOM     10  H   UNL     1       3.104   6.762   8.794  1.00  0.00     0.168 HD
ENDROOT
BRANCH   7  11
ATOM     11  N   UNL     1       2.963   7.400   5.918  1.00  0.00    -0.382 N 
ATOM     12  H   UNL     1       2.076   7.012   5.527  1.00  0.00     0.158 HD
ATOM     13  H   UNL     1       3.843   6.853   5.802  1.00  0.00     0.158 HD
ENDBRANCH   7  11
TORSDOF 1
ENDMDL
MODEL 2
REMARK VINA RESULT:     3.460     13.795     15.382
REMARK INTER + INTRA:           3.562
REMARK INTER:                   3.562
REMARK INTRA:                   0.000
REMARK UNBOUND:                 0.000
REMARK SMILES Nc1ncnc2nc[nH]c12
REMARK SMILES IDX 8 1 7 2 6 3 5 4 4 5 3 6 2 7 10 8 9 9 1 11
REMARK H PARENT 9 10 1 12 1 13
REMARK Flexibility Score: inf
ROOT
ATOM      1  C   UNL     1      12.386  -2.007  12.436  1.00  0.00     0.199 A 
ATOM      2  N   UNL     1      12.383  -3.341  12.707  1.00  0.00    -0.217 NA
ATOM      3  C   UNL     1      11.084  -3.657  12.576  1.00  0.00     0.182 A 
ATOM      4  N   UNL     1      10.528  -4.880  12.741  1.00  0.00    -0.215 NA
ATOM      5  C   UNL     1       9.179  -5.006  12.563  1.00  0.00     0.226 A 
ATOM      6  N   UNL     1       8.416  -3.916  12.226  1.00  0.00    -0.217 NA
ATOM      7  C   UNL     1       8.975  -2.680  12.059  1.00  0.00     0.152 A 
ATOM      8  C   UNL     1      10.350  -2.569  12.244  1.00  0.00     0.127 A 
ATOM      9  N   UNL     1      11.158  -1.506  12.149  1.00  0.00    -0.340 N 
ATOM     10  H   UNL     1      10.913  -0.519  11.911  1.00  0.00     0.168 HD
ENDROOT
BRANCH   7  11
ATOM     11  N   UNL     1       8.161  -1.560  11.708  1.00  0.00    -0.382 N 
ATOM     12  H   UNL     1       7.774  -0.942  12.456  1.00  0.00     0.158 HD
ATOM     13  H   UNL     1       7.941  -1.338  10.713  1.00  0.00     0.158 HD
ENDBRANCH   7  11
TORSDOF 1
ENDMDL
MODEL 3
REMARK VINA RESULT:     4.131     14.522     15.856
REMARK INTER + INTRA:           4.251
REMARK INTER:                   4.251
REMARK INTRA:                   0.000
REMARK UNBOUND:                 0.000
REMARK SMILES Nc1ncnc2nc[nH]c12
REMARK SMILES IDX 8 1 7 2 6 3 5 4 4 5 3 6 2 7 10 8 9 9 1 11
REMARK H PARENT 9 10 1 12 1 13
REMARK Flexibility Score: inf
ROOT
ATOM      1  C   UNL     1      13.704  -3.161  13.272  1.00  0.00     0.199 A 
ATOM      2  N   UNL     1      13.039  -1.973  13.288  1.00  0.00    -0.217 NA
ATOM      3  C   UNL     1      11.842  -2.308  12.779  1.00  0.00     0.182 A 
ATOM      4  N   UNL     1      10.789  -1.481  12.575  1.00  0.00    -0.215 NA
ATOM      5  C   UNL     1       9.647  -2.010  12.043  1.00  0.00     0.226 A 
ATOM      6  N   UNL     1       9.577  -3.343  11.727  1.00  0.00    -0.217 NA
ATOM      7  C   UNL     1      10.638  -4.180  11.931  1.00  0.00     0.152 A 
ATOM      8  C   UNL     1      11.795  -3.626  12.473  1.00  0.00     0.127 A 
ATOM      9  N   UNL     1      12.970  -4.190  12.779  1.00  0.00    -0.340 N 
ATOM     10  H   UNL     1      13.264  -5.186  12.670  1.00  0.00     0.168 HD
ENDROOT
BRANCH   7  11
ATOM     11  N   UNL     1      10.544  -5.565  11.595  1.00  0.00    -0.382 N 
ATOM     12  H   UNL     1      11.225  -5.986  10.925  1.00  0.00     0.158 HD
ATOM     13  H   UNL     1       9.803  -6.175  12.005  1.00  0.00     0.158 HD
ENDBRANCH   7  11
TORSDOF 1
ENDMDL
MODEL 4
REMARK VINA RESULT:     4.230     14.566     15.264
REMARK INTER + INTRA:           4.354
REMARK INTER:                   4.354
REMARK INTRA:                   0.000
REMARK UNBOUND:                 0.000
REMARK SMILES Nc1ncnc2nc[nH]c12
REMARK SMILES IDX 8 1 7 2 6 3 5 4 4 5 3 6 2 7 10 8 9 9 1 11
REMARK H PARENT 9 10 1 12 1 13
REMARK Flexibility Score: inf
ROOT
ATOM      1  C   UNL     1       8.757  -3.155  12.557  1.00  0.00     0.199 A 
ATOM      2  N   UNL     1       9.596  -2.951  13.609  1.00  0.00    -0.217 NA
ATOM      3  C   UNL     1      10.779  -2.766  13.000  1.00  0.00     0.182 A 
ATOM      4  N   UNL     1      11.967  -2.520  13.600  1.00  0.00    -0.215 NA
ATOM      5  C   UNL     1      13.070  -2.359  12.808  1.00  0.00     0.226 A 
ATOM      6  N   UNL     1      12.965  -2.446  11.443  1.00  0.00    -0.217 NA
ATOM      7  C   UNL     1      11.767  -2.695  10.835  1.00  0.00     0.152 A 
ATOM      8  C   UNL     1      10.654  -2.856  11.656  1.00  0.00     0.127 A 
ATOM      9  N   UNL     1       9.374  -3.104  11.349  1.00  0.00    -0.340 N 
ATOM     10  H   UNL     1       8.941  -3.229  10.407  1.00  0.00     0.168 HD
ENDROOT
BRANCH   7  11
ATOM     11  N   UNL     1      11.681  -2.781   9.412  1.00  0.00    -0.382 N 
ATOM     12  H   UNL     1      11.209  -2.024   8.871  1.00  0.00     0.158 HD
ATOM     13  H   UNL     1      12.084  -3.591   8.891  1.00  0.00     0.158 HD
ENDBRANCH   7  11
TORSDOF 1
ENDMDL
MODEL 5
REMARK VINA RESULT:     5.086      1.647      2.588
REMARK INTER + INTRA:           5.234
REMARK INTER:                   5.234
REMARK INTRA:                   0.000
REMARK UNBOUND:                 0.000
REMARK SMILES Nc1ncnc2nc[nH]c12
REMARK SMILES IDX 8 1 7 2 6 3 5 4 4 5 3 6 2 7 10 8 9 9 1 11
REMARK H PARENT 9 10 1 12 1 13
REMARK Flexibility Score: inf
ROOT
ATOM      1  C   UNL     1       3.279   8.861  10.618  1.00  0.00     0.199 A 
ATOM      2  N   UNL     1       4.292   8.045  10.217  1.00  0.00    -0.217 NA
ATOM      3  C   UNL     1       4.512   8.460   8.959  1.00  0.00     0.182 A 
ATOM      4  N   UNL     1       5.434   7.971   8.096  1.00  0.00    -0.215 NA
ATOM      5  C   UNL     1       5.509   8.526   6.849  1.00  0.00     0.226 A 
ATOM      6  N   UNL     1       4.670   9.551   6.491  1.00  0.00    -0.217 NA
ATOM      7  C   UNL     1       3.739  10.046   7.360  1.00  0.00     0.152 A 
ATOM      8  C   UNL     1       3.675   9.470   8.625  1.00  0.00     0.127 A 
ATOM      9  N   UNL     1       2.879   9.743   9.667  1.00  0.00    -0.340 N 
ATOM     10  H   UNL     1       2.126  10.462   9.742  1.00  0.00     0.168 HD
ENDROOT
BRANCH   7  11
ATOM     11  N   UNL     1       2.875  11.113   6.965  1.00  0.00    -0.382 N 
ATOM     12  H   UNL     1       3.228  11.861   6.329  1.00  0.00     0.158 HD
ATOM     13  H   UNL     1       1.888  11.166   7.299  1.00  0.00     0.158 HD
ENDBRANCH   7  11
TORSDOF 1
ENDMDL
