MODEL 1
REMARK VINA RESULT:     6.994      0.000      0.000
REMARK INTER + INTRA:           7.065
REMARK INTER:                   7.403
REMARK INTRA:                  -0.338
REMARK UNBOUND:                -0.338
REMARK SMILES C=C(C)[C@H]1CC[C@H](C)[C@@]12CC=C(C)CC2
REMARK SMILES IDX 8 1 7 2 6 3 5 4 4 5 9 6 15 7 14 8 12 9 11 10 10 11 13 12
REMARK SMILES IDX 2 13 1 14 3 15
REMARK H PARENT
REMARK Flexibility Score: inf
ROOT
ATOM      1  C   UNL     1     -16.269   1.196  17.067  1.00  0.00     0.008 C 
ATOM      2  C   UNL     1     -16.688  -0.224  17.512  1.00  0.00    -0.007 C 
ATOM      3  C   UNL     1     -17.339  -0.961  16.330  1.00  0.00     0.004 C 
ATOM      4  C   UNL     1     -16.242  -1.789  15.663  1.00  0.00     0.009 C 
ATOM      5  C   UNL     1     -15.019  -1.718  16.593  1.00  0.00     0.021 C 
ATOM      6  C   UNL     1     -15.525  -1.173  17.965  1.00  0.00    -0.017 C 
ATOM      7  C   UNL     1     -14.350  -0.444  18.746  1.00  0.00     0.012 C 
ATOM      8  C   UNL     1     -14.180  -0.891  20.207  1.00  0.00     0.031 C 
ATOM      9  C   UNL     1     -14.168  -2.396  20.285  1.00  0.00    -0.077 C 
ATOM     10  C   UNL     1     -15.123  -3.070  19.630  1.00  0.00    -0.027 C 
ATOM     11  C   UNL     1     -16.160  -2.307  18.851  1.00  0.00     0.035 C 
ATOM     12  C   UNL     1     -13.086  -3.136  21.020  1.00  0.00     0.039 C 
ENDROOT
BRANCH   5  13
ATOM     13  C   UNL     1     -14.153  -2.984  16.628  1.00  0.00    -0.077 C 
ATOM     14  C   UNL     1     -12.872  -2.981  17.041  1.00  0.00     0.008 C 
ATOM     15  C   UNL     1     -14.749  -4.306  16.210  1.00  0.00     0.039 C 
ENDBRANCH   5  13
TORSDOF 1
ENDMDL
MODEL 2
REMARK VINA RESULT:     8.343      1.282      3.585
REMARK INTER + INTRA:           8.493
REMARK INTER:                   5.646
REMARK INTRA:                   2.847
REMARK UNBOUND:                -0.338
REMARK SMILES C=C(C)[C@H]1CC[C@H](C)[C@@]12CC=C(C)CC2
REMARK SMILES IDX 8 1 7 2 6 3 5 4 4 5 9 6 15 7 14 8 12 9 11 10 10 11 13 12
REMARK SMILES IDX 2 13 1 14 3 15
REMARK H PARENT
REMARK Flexibility Score: inf
ROOT
ATOM      1  C   UNL     1     -17.703  -2.409  15.303  1.00  0.00     0.008 C 
ATOM      2  C   UNL     1     -16.403  -1.614  15.564  1.00  0.00    -0.007 C 
ATOM      3  C   UNL     1     -16.728  -0.354  16.384  1.00  0.00     0.004 C 
ATOM      4  C   UNL     1     -16.487  -0.704  17.851  1.00  0.00     0.009 C 
ATOM      5  C   UNL     1     -15.799  -2.081  17.861  1.00  0.00     0.021 C 
ATOM      6  C   UNL     1     -15.306  -2.351  16.406  1.00  0.00    -0.017 C 
ATOM      7  C   UNL     1     -15.204  -3.911  16.130  1.00  0.00     0.012 C 
ATOM      8  C   UNL     1     -13.869  -4.366  15.517  1.00  0.00     0.031 C 
ATOM      9  C   UNL     1     -12.720  -3.772  16.291  1.00  0.00    -0.077 C 
ATOM     10  C   UNL     1     -12.757  -2.463  16.573  1.00  0.00    -0.027 C 
ATOM     11  C   UNL     1     -13.931  -1.644  16.111  1.00  0.00     0.035 C 
ATOM     12  C   UNL     1     -11.589  -4.625  16.794  1.00  0.00     0.039 C 
ENDROOT
BRANCH   5  13
ATOM     13  C   UNL     1     -14.781  -2.292  18.989  1.00  0.00    -0.077 C 
ATOM     14  C   UNL     1     -13.453  -2.324  18.777  1.00  0.00     0.008 C 
ATOM     15  C   UNL     1     -15.266  -2.447  20.410  1.00  0.00     0.039 C 
ENDBRANCH   5  13
TORSDOF 1
ENDMDL
