MODEL 1
REMARK VINA RESULT:    68.970      0.000      0.000
REMARK INTER + INTRA:          90.033
REMARK INTER:                  91.146
REMARK INTRA:                  -1.113
REMARK UNBOUND:                -1.113
REMARK SMILES CC[C@@H](C=C[C@H](C)[C@@H]1CC[C@H]2[C@H]3CC[C@H]4C[C@H](O)CC[C@@]4(C)[C@H]3CC[C@]21C)C(C)C
REMARK SMILES IDX 6 1 7 2 5 3 4 4 3 5 2 6 1 7 28 8 29 9 30 10 8 11 9 12 26 13
REMARK SMILES IDX 10 14 11 15 25 16 27 17 12 18 24 19 23 20 13 21 21 22 14 23
REMARK SMILES IDX 15 24 20 25 22 26 16 27 19 28 17 29 18 30
REMARK H PARENT 18 31
REMARK Flexibility Score: inf
ROOT
ATOM      1  C   UNL     1     -27.134  31.786  -3.983  1.00  0.00     0.012 C 
ATOM      2  C   UNL     1     -25.653  31.996  -3.585  1.00  0.00     0.012 C 
ENDROOT
BRANCH   1   3
ATOM      3  C   UNL     1     -27.163  30.791  -5.128  1.00  0.00    -0.028 C 
ATOM      4  C   UNL     1     -27.131  31.175  -6.418  1.00  0.00    -0.027 C 
BRANCH   4   5
ATOM      5  C   UNL     1     -27.126  30.169  -7.549  1.00  0.00     0.014 C 
BRANCH   5   6
ATOM      6  C   UNL     1     -27.046  28.741  -6.959  1.00  0.00     0.004 C 
ATOM      7  C   UNL     1     -28.402  28.034  -6.912  1.00  0.00     0.004 C 
ENDBRANCH   5   6
BRANCH   5   8
ATOM      8  C   UNL     1     -26.000  30.481  -8.587  1.00  0.00    -0.011 C 
ATOM      9  C   UNL     1     -25.841  31.995  -8.794  1.00  0.00     0.008 C 
ATOM     10  C   UNL     1     -24.635  29.862  -8.224  1.00  0.00     0.008 C 
ENDBRANCH   5   8
ENDBRANCH   4   5
ENDBRANCH   1   3
BRANCH   1  11
ATOM     11  C   UNL     1     -28.048  31.345  -2.769  1.00  0.00     0.002 C 
ATOM     12  C   UNL     1     -28.480  29.867  -2.877  1.00  0.00     0.005 C 
ATOM     13  C   UNL     1     -29.424  32.098  -2.617  1.00  0.00    -0.026 C 
ATOM     14  C   UNL     1     -29.836  29.848  -3.571  1.00  0.00     0.005 C 
ATOM     15  C   UNL     1     -30.387  31.282  -3.524  1.00  0.00    -0.001 C 
ATOM     16  C   UNL     1     -29.899  32.097  -1.112  1.00  0.00     0.007 C 
ATOM     17  C   UNL     1     -29.391  33.575  -3.082  1.00  0.00     0.012 C 
ATOM     18  C   UNL     1     -31.885  31.412  -3.116  1.00  0.00    -0.004 C 
ATOM     19  C   UNL     1     -30.927  31.013  -0.757  1.00  0.00     0.005 C 
ATOM     20  C   UNL     1     -32.217  31.143  -1.606  1.00  0.00    -0.001 C 
ATOM     21  C   UNL     1     -32.823  30.696  -4.085  1.00  0.00     0.004 C 
ATOM     22  C   UNL     1     -33.347  30.053  -1.281  1.00  0.00    -0.026 C 
ATOM     23  C   UNL     1     -34.261  30.888  -3.611  1.00  0.00     0.004 C 
ATOM     24  C   UNL     1     -34.541  30.060  -2.338  1.00  0.00    -0.002 C 
ATOM     25  C   UNL     1     -32.752  28.612  -1.180  1.00  0.00     0.010 C 
ATOM     26  C   UNL     1     -33.934  30.417   0.116  1.00  0.00     0.012 C 
ATOM     27  C   UNL     1     -35.018  28.646  -2.775  1.00  0.00     0.036 C 
ATOM     28  C   UNL     1     -33.792  27.523  -0.845  1.00  0.00     0.032 C 
ATOM     29  C   UNL     1     -35.126  27.657  -1.611  1.00  0.00     0.114 C 
BRANCH  29  30
ATOM     30  O   UNL     1     -36.149  28.051  -0.734  1.00  0.00    -0.393 OA
ATOM     31  H   UNL     1     -36.849  27.350  -0.770  1.00  0.00     0.210 HD
ENDBRANCH  29  30
ENDBRANCH   1  11
TORSDOF 6
ENDMDL
MODEL 2
REMARK VINA RESULT:    69.549      3.196      8.615
REMARK INTER + INTRA:          90.798
REMARK INTER:                  90.251
REMARK INTRA:                   0.547
REMARK UNBOUND:                -1.113
REMARK SMILES CC[C@@H](C=C[C@H](C)[C@@H]1CC[C@H]2[C@H]3CC[C@H]4C[C@H](O)CC[C@@]4(C)[C@H]3CC[C@]21C)C(C)C
REMARK SMILES IDX 6 1 7 2 5 3 4 4 3 5 2 6 1 7 28 8 29 9 30 10 8 11 9 12 26 13
REMARK SMILES IDX 10 14 11 15 25 16 27 17 12 18 24 19 23 20 13 21 21 22 14 23
REMARK SMILES IDX 15 24 20 25 22 26 16 27 19 28 17 29 18 30
REMARK H PARENT 18 31
REMARK Flexibility Score: inf
ROOT
ATOM      1  C   UNL     1     -29.190  32.171  -2.304  1.00  0.00     0.012 C 
ATOM      2  C   UNL     1     -29.887  33.457  -1.797  1.00  0.00     0.012 C 
ENDROOT
BRANCH   1   3
ATOM      3  C   UNL     1     -30.228  31.348  -3.041  1.00  0.00    -0.028 C 
ATOM      4  C   UNL     1     -31.382  30.960  -2.467  1.00  0.00    -0.027 C 
BRANCH   4   5
ATOM      5  C   UNL     1     -32.425  30.168  -3.227  1.00  0.00     0.014 C 
BRANCH   5   6
ATOM      6  C   UNL     1     -33.343  31.146  -3.997  1.00  0.00     0.004 C 
ATOM      7  C   UNL     1     -34.683  30.523  -4.398  1.00  0.00     0.004 C 
ENDBRANCH   5   6
BRANCH   5   8
ATOM      8  C   UNL     1     -33.201  29.193  -2.284  1.00  0.00    -0.011 C 
ATOM      9  C   UNL     1     -32.323  28.747  -1.104  1.00  0.00     0.008 C 
ATOM     10  C   UNL     1     -34.528  29.769  -1.754  1.00  0.00     0.008 C 
ENDBRANCH   5   8
ENDBRANCH   4   5
ENDBRANCH   1   3
BRANCH   1  11
ATOM     11  C   UNL     1     -27.907  32.463  -3.182  1.00  0.00     0.002 C 
ATOM     12  C   UNL     1     -28.251  33.251  -4.465  1.00  0.00     0.005 C 
ATOM     13  C   UNL     1     -27.138  31.206  -3.743  1.00  0.00    -0.026 C 
ATOM     14  C   UNL     1     -28.462  32.227  -5.573  1.00  0.00     0.005 C 
ATOM     15  C   UNL     1     -27.873  30.897  -5.077  1.00  0.00    -0.001 C 
ATOM     16  C   UNL     1     -25.615  31.542  -3.980  1.00  0.00     0.007 C 
ATOM     17  C   UNL     1     -27.192  29.968  -2.815  1.00  0.00     0.012 C 
ATOM     18  C   UNL     1     -26.995  30.126  -6.107  1.00  0.00    -0.004 C 
ATOM     19  C   UNL     1     -25.247  31.895  -5.429  1.00  0.00     0.005 C 
ATOM     20  C   UNL     1     -25.581  30.738  -6.405  1.00  0.00    -0.001 C 
ATOM     21  C   UNL     1     -27.768  29.733  -7.363  1.00  0.00     0.004 C 
ATOM     22  C   UNL     1     -25.209  31.026  -7.938  1.00  0.00    -0.026 C 
ATOM     23  C   UNL     1     -26.832  28.978  -8.302  1.00  0.00     0.004 C 
ATOM     24  C   UNL     1     -25.795  29.929  -8.937  1.00  0.00    -0.002 C 
ATOM     25  C   UNL     1     -25.678  32.445  -8.394  1.00  0.00     0.010 C 
ATOM     26  C   UNL     1     -23.654  30.990  -8.038  1.00  0.00     0.012 C 
ATOM     27  C   UNL     1     -26.409  30.514 -10.241  1.00  0.00     0.036 C 
ATOM     28  C   UNL     1     -25.325  32.786  -9.856  1.00  0.00     0.032 C 
ATOM     29  C   UNL     1     -25.569  31.636 -10.856  1.00  0.00     0.114 C 
BRANCH  29  30
ATOM     30  O   UNL     1     -24.343  31.127 -11.315  1.00  0.00    -0.393 OA
ATOM     31  H   UNL     1     -24.471  30.157 -11.474  1.00  0.00     0.210 HD
ENDBRANCH  29  30
ENDBRANCH   1  11
TORSDOF 6
ENDMDL
MODEL 3
REMARK VINA RESULT:    69.663      6.187     10.458
REMARK INTER + INTRA:          90.948
REMARK INTER:                  90.086
REMARK INTRA:                   0.862
REMARK UNBOUND:                -1.113
REMARK SMILES CC[C@@H](C=C[C@H](C)[C@@H]1CC[C@H]2[C@H]3CC[C@H]4C[C@H](O)CC[C@@]4(C)[C@H]3CC[C@]21C)C(C)C
REMARK SMILES IDX 6 1 7 2 5 3 4 4 3 5 2 6 1 7 28 8 29 9 30 10 8 11 9 12 26 13
REMARK SMILES IDX 10 14 11 15 25 16 27 17 12 18 24 19 23 20 13 21 21 22 14 23
REMARK SMILES IDX 15 24 20 25 22 26 16 27 19 28 17 29 18 30
REMARK H PARENT 18 31
REMARK Flexibility Score: inf
ROOT
ATOM      1  C   UNL     1     -19.055  26.332  -5.217  1.00  0.00     0.012 C 
ATOM      2  C   UNL     1     -19.122  26.254  -3.672  1.00  0.00     0.012 C 
ENDROOT
BRANCH   1   3
ATOM      3  C   UNL     1     -19.588  25.021  -5.763  1.00  0.00    -0.028 C 
ATOM      4  C   UNL     1     -19.380  23.844  -5.144  1.00  0.00    -0.027 C 
BRANCH   4   5
ATOM      5  C   UNL     1     -19.947  22.548  -5.684  1.00  0.00     0.014 C 
BRANCH   5   6
ATOM      6  C   UNL     1     -19.930  21.481  -4.564  1.00  0.00     0.004 C 
ATOM      7  C   UNL     1     -20.951  21.755  -3.458  1.00  0.00     0.004 C 
ENDBRANCH   5   6
BRANCH   5   8
ATOM      8  C   UNL     1     -19.208  22.099  -6.986  1.00  0.00    -0.011 C 
ATOM      9  C   UNL     1     -20.013  21.026  -7.737  1.00  0.00     0.008 C 
ATOM     10  C   UNL     1     -18.875  23.261  -7.942  1.00  0.00     0.008 C 
ENDBRANCH   5   8
ENDBRANCH   4   5
ENDBRANCH   1   3
BRANCH   1  11
ATOM     11  C   UNL     1     -19.807  27.591  -5.810  1.00  0.00     0.002 C 
ATOM     12  C   UNL     1     -20.860  28.151  -4.831  1.00  0.00     0.005 C 
ATOM     13  C   UNL     1     -20.647  27.353  -7.123  1.00  0.00    -0.026 C 
ATOM     14  C   UNL     1     -22.192  27.506  -5.192  1.00  0.00     0.005 C 
ATOM     15  C   UNL     1     -22.030  26.888  -6.589  1.00  0.00    -0.001 C 
ATOM     16  C   UNL     1     -20.762  28.684  -7.962  1.00  0.00     0.007 C 
ATOM     17  C   UNL     1     -20.056  26.272  -8.063  1.00  0.00     0.012 C 
ATOM     18  C   UNL     1     -23.201  27.155  -7.581  1.00  0.00    -0.004 C 
ATOM     19  C   UNL     1     -22.070  29.464  -7.765  1.00  0.00     0.005 C 
ATOM     20  C   UNL     1     -23.309  28.615  -8.146  1.00  0.00    -0.001 C 
ATOM     21  C   UNL     1     -24.532  26.591  -7.088  1.00  0.00     0.004 C 
ATOM     22  C   UNL     1     -24.715  29.369  -7.981  1.00  0.00    -0.026 C 
ATOM     23  C   UNL     1     -25.609  26.892  -8.126  1.00  0.00     0.004 C 
ATOM     24  C   UNL     1     -25.967  28.393  -8.137  1.00  0.00    -0.002 C 
ATOM     25  C   UNL     1     -24.813  30.124  -6.617  1.00  0.00     0.010 C 
ATOM     26  C   UNL     1     -24.789  30.437  -9.115  1.00  0.00     0.012 C 
ATOM     27  C   UNL     1     -27.097  28.630  -7.095  1.00  0.00     0.036 C 
ATOM     28  C   UNL     1     -26.137  30.888  -6.412  1.00  0.00     0.032 C 
ATOM     29  C   UNL     1     -27.397  30.111  -6.852  1.00  0.00     0.114 C 
BRANCH  29  30
ATOM     30  O   UNL     1     -27.942  30.691  -8.010  1.00  0.00    -0.393 OA
ATOM     31  H   UNL     1     -27.248  31.285  -8.392  1.00  0.00     0.210 HD
ENDBRANCH  29  30
ENDBRANCH   1  11
TORSDOF 6
ENDMDL
MODEL 4
REMARK VINA RESULT:    70.116      7.477     10.600
REMARK INTER + INTRA:          91.547
REMARK INTER:                  91.713
REMARK INTRA:                  -0.166
REMARK UNBOUND:                -1.113
REMARK SMILES CC[C@@H](C=C[C@H](C)[C@@H]1CC[C@H]2[C@H]3CC[C@H]4C[C@H](O)CC[C@@]4(C)[C@H]3CC[C@]21C)C(C)C
REMARK SMILES IDX 6 1 7 2 5 3 4 4 3 5 2 6 1 7 28 8 29 9 30 10 8 11 9 12 26 13
REMARK SMILES IDX 10 14 11 15 25 16 27 17 12 18 24 19 23 20 13 21 21 22 14 23
REMARK SMILES IDX 15 24 20 25 22 26 16 27 19 28 17 29 18 30
REMARK H PARENT 18 31
REMARK Flexibility Score: inf
ROOT
ATOM      1  C   UNL     1     -26.172  30.516  -8.872  1.00  0.00     0.012 C 
ATOM      2  C   UNL     1     -26.947  31.622  -8.115  1.00  0.00     0.012 C 
ENDROOT
BRANCH   1   3
ATOM      3  C   UNL     1     -24.956  31.162  -9.505  1.00  0.00    -0.028 C 
ATOM      4  C   UNL     1     -24.267  32.149  -8.902  1.00  0.00    -0.027 C 
BRANCH   4   5
ATOM      5  C   UNL     1     -23.034  32.762  -9.532  1.00  0.00     0.014 C 
BRANCH   5   6
ATOM      6  C   UNL     1     -21.898  31.712  -9.550  1.00  0.00     0.004 C 
ATOM      7  C   UNL     1     -21.034  31.783 -10.811  1.00  0.00     0.004 C 
ENDBRANCH   5   6
BRANCH   5   8
ATOM      8  C   UNL     1     -22.637  34.099  -8.828  1.00  0.00    -0.011 C 
ATOM      9  C   UNL     1     -21.111  34.286  -8.815  1.00  0.00     0.008 C 
ATOM     10  C   UNL     1     -23.306  35.344  -9.442  1.00  0.00     0.008 C 
ENDBRANCH   5   8
ENDBRANCH   4   5
ENDBRANCH   1   3
BRANCH   1  11
ATOM     11  C   UNL     1     -25.800  29.280  -7.957  1.00  0.00     0.002 C 
ATOM     12  C   UNL     1     -25.072  29.713  -6.667  1.00  0.00     0.005 C 
ATOM     13  C   UNL     1     -24.808  28.222  -8.576  1.00  0.00    -0.026 C 
ATOM     14  C   UNL     1     -23.577  29.628  -6.948  1.00  0.00     0.005 C 
ATOM     15  C   UNL     1     -23.405  28.791  -8.225  1.00  0.00    -0.001 C 
ATOM     16  C   UNL     1     -25.037  26.799  -7.933  1.00  0.00     0.007 C 
ATOM     17  C   UNL     1     -24.940  28.055 -10.110  1.00  0.00     0.012 C 
ATOM     18  C   UNL     1     -22.289  27.706  -8.172  1.00  0.00    -0.004 C 
ATOM     19  C   UNL     1     -24.064  26.433  -6.803  1.00  0.00     0.005 C 
ATOM     20  C   UNL     1     -22.591  26.447  -7.285  1.00  0.00    -0.001 C 
ATOM     21  C   UNL     1     -20.901  28.299  -7.939  1.00  0.00     0.004 C 
ATOM     22  C   UNL     1     -21.514  26.059  -6.163  1.00  0.00    -0.026 C 
ATOM     23  C   UNL     1     -19.880  27.166  -7.912  1.00  0.00     0.004 C 
ATOM     24  C   UNL     1     -20.011  26.330  -6.622  1.00  0.00    -0.002 C 
ATOM     25  C   UNL     1     -21.786  26.801  -4.815  1.00  0.00     0.010 C 
ATOM     26  C   UNL     1     -21.672  24.531  -5.897  1.00  0.00     0.012 C 
ATOM     27  C   UNL     1     -19.115  26.980  -5.529  1.00  0.00     0.036 C 
ATOM     28  C   UNL     1     -20.793  26.448  -3.689  1.00  0.00     0.032 C 
ATOM     29  C   UNL     1     -19.318  26.373  -4.139  1.00  0.00     0.114 C 
BRANCH  29  30
ATOM     30  O   UNL     1     -18.875  25.040  -4.123  1.00  0.00    -0.393 OA
ATOM     31  H   UNL     1     -18.460  24.882  -3.237  1.00  0.00     0.210 HD
ENDBRANCH  29  30
ENDBRANCH   1  11
TORSDOF 6
ENDMDL
