MODEL 1
REMARK VINA RESULT:    -4.091      0.000      0.000
REMARK INTER + INTRA:          -5.871
REMARK INTER:                  -5.525
REMARK INTRA:                  -0.346
REMARK UNBOUND:                -0.346
REMARK SMILES CCCCCCC=CC(=O)[O-]
REMARK SMILES IDX 5 1 6 2 7 3 8 4 9 5 10 6 11 7 4 8 3 9 2 10 1 11
REMARK H PARENT
REMARK Flexibility Score: inf
ROOT
ATOM      1  C   UNL     1      21.151  16.702  26.353  1.00  0.00     0.004 C 
ENDROOT
BRANCH   1   2
ATOM      2  C   UNL     1      21.492  18.152  26.745  1.00  0.00     0.027 C 
BRANCH   2   3
ATOM      3  C   UNL     1      21.812  18.295  28.210  1.00  0.00    -0.025 C 
ATOM      4  C   UNL     1      20.956  18.677  29.172  1.00  0.00     0.020 C 
BRANCH   4   5
ATOM      5  C   UNL     1      19.549  19.089  28.991  1.00  0.00     0.064 C 
ATOM      6  O   UNL     1      18.611  18.252  28.921  1.00  0.00    -0.545 OA
ATOM      7  O   UNL     1      19.257  20.439  28.862  1.00  0.00    -0.545 OA
ENDBRANCH   4   5
ENDBRANCH   2   3
ENDBRANCH   1   2
BRANCH   1   8
ATOM      8  C   UNL     1      22.243  15.999  25.525  1.00  0.00     0.000 C 
BRANCH   8   9
ATOM      9  C   UNL     1      23.168  16.986  24.796  1.00  0.00    -0.000 C 
BRANCH   9  10
ATOM     10  C   UNL     1      24.304  16.245  24.083  1.00  0.00    -0.003 C 
ATOM     11  C   UNL     1      24.967  17.131  23.031  1.00  0.00     0.004 C 
ENDBRANCH   9  10
ENDBRANCH   8   9
ENDBRANCH   1   8
TORSDOF 6
ENDMDL
MODEL 2
REMARK VINA RESULT:    -3.975      2.256      3.469
REMARK INTER + INTRA:          -5.716
REMARK INTER:                  -5.069
REMARK INTRA:                  -0.646
REMARK UNBOUND:                -0.346
REMARK SMILES CCCCCCC=CC(=O)[O-]
REMARK SMILES IDX 5 1 6 2 7 3 8 4 9 5 10 6 11 7 4 8 3 9 2 10 1 11
REMARK H PARENT
REMARK Flexibility Score: inf
ROOT
ATOM      1  C   UNL     1      18.476  16.925  28.189  1.00  0.00     0.004 C 
ENDROOT
BRANCH   1   2
ATOM      2  C   UNL     1      19.190  16.920  29.554  1.00  0.00     0.027 C 
BRANCH   2   3
ATOM      3  C   UNL     1      18.480  17.761  30.583  1.00  0.00    -0.025 C 
ATOM      4  C   UNL     1      18.601  19.090  30.737  1.00  0.00     0.020 C 
BRANCH   4   5
ATOM      5  C   UNL     1      19.492  19.990  29.976  1.00  0.00     0.064 C 
ATOM      6  O   UNL     1      19.143  20.510  28.884  1.00  0.00    -0.545 OA
ATOM      7  O   UNL     1      20.766  20.245  30.466  1.00  0.00    -0.545 OA
ENDBRANCH   4   5
ENDBRANCH   2   3
ENDBRANCH   1   2
BRANCH   1   8
ATOM      8  C   UNL     1      19.305  17.539  27.047  1.00  0.00     0.000 C 
BRANCH   8   9
ATOM      9  C   UNL     1      20.451  16.628  26.582  1.00  0.00    -0.000 C 
BRANCH   9  10
ATOM     10  C   UNL     1      21.767  17.408  26.489  1.00  0.00    -0.003 C 
ATOM     11  C   UNL     1      21.986  18.271  27.729  1.00  0.00     0.004 C 
ENDBRANCH   9  10
ENDBRANCH   8   9
ENDBRANCH   1   8
TORSDOF 6
ENDMDL
MODEL 3
REMARK VINA RESULT:    -3.932     13.242     14.963
REMARK INTER + INTRA:          -5.657
REMARK INTER:                  -5.288
REMARK INTRA:                  -0.370
REMARK UNBOUND:                -0.346
REMARK SMILES CCCCCCC=CC(=O)[O-]
REMARK SMILES IDX 5 1 6 2 7 3 8 4 9 5 10 6 11 7 4 8 3 9 2 10 1 11
REMARK H PARENT
REMARK Flexibility Score: inf
ROOT
ATOM      1  C   UNL     1      21.439  33.871  26.239  1.00  0.00     0.004 C 
ENDROOT
BRANCH   1   2
ATOM      2  C   UNL     1      20.817  32.914  25.204  1.00  0.00     0.027 C 
BRANCH   2   3
ATOM      3  C   UNL     1      21.633  32.818  23.941  1.00  0.00    -0.025 C 
ATOM      4  C   UNL     1      21.800  31.717  23.191  1.00  0.00     0.020 C 
BRANCH   4   5
ATOM      5  C   UNL     1      21.272  30.366  23.473  1.00  0.00     0.064 C 
ATOM      6  O   UNL     1      20.495  29.772  22.681  1.00  0.00    -0.545 OA
ATOM      7  O   UNL     1      21.620  29.746  24.666  1.00  0.00    -0.545 OA
ENDBRANCH   4   5
ENDBRANCH   2   3
ENDBRANCH   1   2
BRANCH   1   8
ATOM      8  C   UNL     1      21.871  33.188  27.549  1.00  0.00     0.000 C 
BRANCH   8   9
ATOM      9  C   UNL     1      21.503  31.697  27.596  1.00  0.00    -0.000 C 
BRANCH   9  10
ATOM     10  C   UNL     1      21.187  31.256  29.030  1.00  0.00    -0.003 C 
ATOM     11  C   UNL     1      19.778  31.677  29.438  1.00  0.00     0.004 C 
ENDBRANCH   9  10
ENDBRANCH   8   9
ENDBRANCH   1   8
TORSDOF 6
ENDMDL
MODEL 4
REMARK VINA RESULT:    -3.915     13.596     15.191
REMARK INTER + INTRA:          -5.635
REMARK INTER:                  -5.294
REMARK INTRA:                  -0.340
REMARK UNBOUND:                -0.346
REMARK SMILES CCCCCCC=CC(=O)[O-]
REMARK SMILES IDX 5 1 6 2 7 3 8 4 9 5 10 6 11 7 4 8 3 9 2 10 1 11
REMARK H PARENT
REMARK Flexibility Score: inf
ROOT
ATOM      1  C   UNL     1      22.255  33.142  31.733  1.00  0.00     0.004 C 
ENDROOT
BRANCH   1   2
ATOM      2  C   UNL     1      23.013  31.909  32.261  1.00  0.00     0.027 C 
BRANCH   2   3
ATOM      3  C   UNL     1      23.993  32.255  33.352  1.00  0.00    -0.025 C 
ATOM      4  C   UNL     1      24.625  31.381  34.153  1.00  0.00     0.020 C 
BRANCH   4   5
ATOM      5  C   UNL     1      24.450  29.914  34.173  1.00  0.00     0.064 C 
ATOM      6  O   UNL     1      23.404  29.371  34.616  1.00  0.00    -0.545 OA
ATOM      7  O   UNL     1      25.485  29.109  33.716  1.00  0.00    -0.545 OA
ENDBRANCH   4   5
ENDBRANCH   2   3
ENDBRANCH   1   2
BRANCH   1   8
ATOM      8  C   UNL     1      21.260  32.832  30.600  1.00  0.00     0.000 C 
BRANCH   8   9
ATOM      9  C   UNL     1      21.795  33.218  29.212  1.00  0.00    -0.000 C 
BRANCH   9  10
ATOM     10  C   UNL     1      21.441  32.149  28.173  1.00  0.00    -0.003 C 
ATOM     11  C   UNL     1      21.325  30.770  28.817  1.00  0.00     0.004 C 
ENDBRANCH   9  10
ENDBRANCH   8   9
ENDBRANCH   1   8
TORSDOF 6
ENDMDL
MODEL 5
REMARK VINA RESULT:    -3.903     14.212     15.153
REMARK INTER + INTRA:          -5.618
REMARK INTER:                  -5.322
REMARK INTRA:                  -0.296
REMARK UNBOUND:                -0.346
REMARK SMILES CCCCCCC=CC(=O)[O-]
REMARK SMILES IDX 5 1 6 2 7 3 8 4 9 5 10 6 11 7 4 8 3 9 2 10 1 11
REMARK H PARENT
REMARK Flexibility Score: inf
ROOT
ATOM      1  C   UNL     1      22.064  32.819  31.942  1.00  0.00     0.004 C 
ENDROOT
BRANCH   1   2
ATOM      2  C   UNL     1      23.300  31.965  32.283  1.00  0.00     0.027 C 
BRANCH   2   3
ATOM      3  C   UNL     1      23.738  32.126  33.716  1.00  0.00    -0.025 C 
ATOM      4  C   UNL     1      24.224  31.156  34.507  1.00  0.00     0.020 C 
BRANCH   4   5
ATOM      5  C   UNL     1      24.375  29.727  34.163  1.00  0.00     0.064 C 
ATOM      6  O   UNL     1      25.470  29.246  33.771  1.00  0.00    -0.545 OA
ATOM      7  O   UNL     1      23.265  28.897  34.244  1.00  0.00    -0.545 OA
ENDBRANCH   4   5
ENDBRANCH   2   3
ENDBRANCH   1   2
BRANCH   1   8
ATOM      8  C   UNL     1      21.811  32.987  30.433  1.00  0.00     0.000 C 
BRANCH   8   9
ATOM      9  C   UNL     1      21.460  31.665  29.734  1.00  0.00    -0.000 C 
BRANCH   9  10
ATOM     10  C   UNL     1      21.311  31.868  28.222  1.00  0.00    -0.003 C 
ATOM     11  C   UNL     1      21.830  33.239  27.796  1.00  0.00     0.004 C 
ENDBRANCH   9  10
ENDBRANCH   8   9
ENDBRANCH   1   8
TORSDOF 6
ENDMDL
MODEL 6
REMARK VINA RESULT:    -3.853      2.662      5.654
REMARK INTER + INTRA:          -5.551
REMARK INTER:                  -5.055
REMARK INTRA:                  -0.496
REMARK UNBOUND:                -0.346
REMARK SMILES CCCCCCC=CC(=O)[O-]
REMARK SMILES IDX 5 1 6 2 7 3 8 4 9 5 10 6 11 7 4 8 3 9 2 10 1 11
REMARK H PARENT
REMARK Flexibility Score: inf
ROOT
ATOM      1  C   UNL     1      18.861  18.013  28.592  1.00  0.00     0.004 C 
ENDROOT
BRANCH   1   2
ATOM      2  C   UNL     1      19.259  17.739  27.129  1.00  0.00     0.027 C 
BRANCH   2   3
ATOM      3  C   UNL     1      20.103  16.500  26.981  1.00  0.00    -0.025 C 
ATOM      4  C   UNL     1      21.410  16.467  26.673  1.00  0.00     0.020 C 
BRANCH   4   5
ATOM      5  C   UNL     1      22.275  17.624  26.362  1.00  0.00     0.064 C 
ATOM      6  O   UNL     1      22.552  18.502  27.221  1.00  0.00    -0.545 OA
ATOM      7  O   UNL     1      22.770  17.763  25.073  1.00  0.00    -0.545 OA
ENDBRANCH   4   5
ENDBRANCH   2   3
ENDBRANCH   1   2
BRANCH   1   8
ATOM      8  C   UNL     1      19.581  19.218  29.225  1.00  0.00     0.000 C 
BRANCH   8   9
ATOM      9  C   UNL     1      20.733  18.805  30.155  1.00  0.00    -0.000 C 
BRANCH   9  10
ATOM     10  C   UNL     1      20.217  18.503  31.565  1.00  0.00    -0.003 C 
ATOM     11  C   UNL     1      20.446  17.040  31.935  1.00  0.00     0.004 C 
ENDBRANCH   9  10
ENDBRANCH   8   9
ENDBRANCH   1   8
TORSDOF 6
ENDMDL
MODEL 7
REMARK VINA RESULT:    -3.806     14.082     15.559
REMARK INTER + INTRA:          -5.487
REMARK INTER:                  -5.098
REMARK INTRA:                  -0.389
REMARK UNBOUND:                -0.346
REMARK SMILES CCCCCCC=CC(=O)[O-]
REMARK SMILES IDX 5 1 6 2 7 3 8 4 9 5 10 6 11 7 4 8 3 9 2 10 1 11
REMARK H PARENT
REMARK Flexibility Score: inf
ROOT
ATOM      1  C   UNL     1      21.805  33.255  27.570  1.00  0.00     0.004 C 
ENDROOT
BRANCH   1   2
ATOM      2  C   UNL     1      21.992  33.533  26.066  1.00  0.00     0.027 C 
BRANCH   2   3
ATOM      3  C   UNL     1      20.728  33.316  25.275  1.00  0.00    -0.025 C 
ATOM      4  C   UNL     1      20.595  32.520  24.201  1.00  0.00     0.020 C 
BRANCH   4   5
ATOM      5  C   UNL     1      21.663  31.742  23.540  1.00  0.00     0.064 C 
ATOM      6  O   UNL     1      21.919  30.552  23.860  1.00  0.00    -0.545 OA
ATOM      7  O   UNL     1      22.428  32.354  22.557  1.00  0.00    -0.545 OA
ENDBRANCH   4   5
ENDBRANCH   2   3
ENDBRANCH   1   2
BRANCH   1   8
ATOM      8  C   UNL     1      21.414  31.803  27.898  1.00  0.00     0.000 C 
BRANCH   8   9
ATOM      9  C   UNL     1      21.410  31.511  29.407  1.00  0.00    -0.000 C 
BRANCH   9  10
ATOM     10  C   UNL     1      21.693  32.784  30.211  1.00  0.00    -0.003 C 
ATOM     11  C   UNL     1      22.327  32.455  31.561  1.00  0.00     0.004 C 
ENDBRANCH   9  10
ENDBRANCH   8   9
ENDBRANCH   1   8
TORSDOF 6
ENDMDL
MODEL 8
REMARK VINA RESULT:    -3.700     15.226     16.174
REMARK INTER + INTRA:          -5.343
REMARK INTER:                  -4.780
REMARK INTRA:                  -0.563
REMARK UNBOUND:                -0.346
REMARK SMILES CCCCCCC=CC(=O)[O-]
REMARK SMILES IDX 5 1 6 2 7 3 8 4 9 5 10 6 11 7 4 8 3 9 2 10 1 11
REMARK H PARENT
REMARK Flexibility Score: inf
ROOT
ATOM      1  C   UNL     1      35.374  23.755  19.791  1.00  0.00     0.004 C 
ENDROOT
BRANCH   1   2
ATOM      2  C   UNL     1      35.981  24.971  20.516  1.00  0.00     0.027 C 
BRANCH   2   3
ATOM      3  C   UNL     1      35.151  26.218  20.353  1.00  0.00    -0.025 C 
ATOM      4  C   UNL     1      34.293  26.720  21.255  1.00  0.00     0.020 C 
BRANCH   4   5
ATOM      5  C   UNL     1      33.941  26.130  22.563  1.00  0.00     0.064 C 
ATOM      6  O   UNL     1      33.259  25.077  22.660  1.00  0.00    -0.545 OA
ATOM      7  O   UNL     1      34.350  26.777  23.722  1.00  0.00    -0.545 OA
ENDBRANCH   4   5
ENDBRANCH   2   3
ENDBRANCH   1   2
BRANCH   1   8
ATOM      8  C   UNL     1      34.908  24.047  18.353  1.00  0.00     0.000 C 
BRANCH   8   9
ATOM      9  C   UNL     1      33.913  23.003  17.823  1.00  0.00    -0.000 C 
BRANCH   9  10
ATOM     10  C   UNL     1      32.521  23.617  17.640  1.00  0.00    -0.003 C 
ATOM     11  C   UNL     1      32.530  25.110  17.960  1.00  0.00     0.004 C 
ENDBRANCH   9  10
ENDBRANCH   8   9
ENDBRANCH   1   8
TORSDOF 6
ENDMDL
MODEL 9
REMARK VINA RESULT:    -3.667     15.509     16.360
REMARK INTER + INTRA:          -5.299
REMARK INTER:                  -4.660
REMARK INTRA:                  -0.640
REMARK UNBOUND:                -0.346
REMARK SMILES CCCCCCC=CC(=O)[O-]
REMARK SMILES IDX 5 1 6 2 7 3 8 4 9 5 10 6 11 7 4 8 3 9 2 10 1 11
REMARK H PARENT
REMARK Flexibility Score: inf
ROOT
ATOM      1  C   UNL     1      33.267  27.198  18.515  1.00  0.00     0.004 C 
ENDROOT
BRANCH   1   2
ATOM      2  C   UNL     1      33.934  27.645  19.829  1.00  0.00     0.027 C 
BRANCH   2   3
ATOM      3  C   UNL     1      35.049  26.727  20.255  1.00  0.00    -0.025 C 
ATOM      4  C   UNL     1      35.074  25.978  21.370  1.00  0.00     0.020 C 
BRANCH   4   5
ATOM      5  C   UNL     1      34.048  25.940  22.433  1.00  0.00     0.064 C 
ATOM      6  O   UNL     1      33.078  25.139  22.397  1.00  0.00    -0.545 OA
ATOM      7  O   UNL     1      34.142  26.838  23.487  1.00  0.00    -0.545 OA
ENDBRANCH   4   5
ENDBRANCH   2   3
ENDBRANCH   1   2
BRANCH   1   8
ATOM      8  C   UNL     1      32.804  25.730  18.510  1.00  0.00     0.000 C 
BRANCH   8   9
ATOM      9  C   UNL     1      33.418  24.913  17.363  1.00  0.00    -0.000 C 
BRANCH   9  10
ATOM     10  C   UNL     1      33.751  23.489  17.822  1.00  0.00    -0.003 C 
ATOM     11  C   UNL     1      35.001  23.469  18.697  1.00  0.00     0.004 C 
ENDBRANCH   9  10
ENDBRANCH   8   9
ENDBRANCH   1   8
TORSDOF 6
ENDMDL
