MODEL 1
REMARK VINA RESULT:    -7.087      0.000      0.000
REMARK INTER + INTRA:         -11.521
REMARK INTER:                 -10.194
REMARK INTRA:                  -1.327
REMARK UNBOUND:                -1.327
REMARK SMILES CC(C)=CCCC(C)=CCCC(C)=CCO
REMARK SMILES IDX 10 1 9 2 7 3 8 4 6 5 5 6 4 7 1 8 2 9 3 10 11 11 12 12 14 13
REMARK SMILES IDX 13 14 15 15 16 16
REMARK H PARENT 16 17
REMARK Flexibility Score: inf
ROOT
ATOM      1  C   UNL     1      32.022  18.025  46.819  1.00  0.00     0.032 C 
ENDROOT
BRANCH   1   2
ATOM      2  C   UNL     1      31.664  17.850  48.273  1.00  0.00    -0.028 C 
ATOM      3  C   UNL     1      32.328  18.427  49.300  1.00  0.00    -0.077 C 
ATOM      4  C   UNL     1      33.552  19.285  49.078  1.00  0.00     0.039 C 
BRANCH   3   5
ATOM      5  C   UNL     1      31.855  18.175  50.717  1.00  0.00     0.034 C 
BRANCH   5   6
ATOM      6  C   UNL     1      30.353  18.446  50.871  1.00  0.00     0.032 C 
BRANCH   6   7
ATOM      7  C   UNL     1      30.109  19.734  51.624  1.00  0.00    -0.028 C 
ATOM      8  C   UNL     1      30.042  21.150  49.557  1.00  0.00     0.039 C 
ATOM      9  C   UNL     1      29.942  20.947  51.050  1.00  0.00    -0.080 C 
ATOM     10  C   UNL     1      29.645  22.125  51.941  1.00  0.00     0.039 C 
ENDBRANCH   6   7
ENDBRANCH   5   6
ENDBRANCH   3   5
ENDBRANCH   1   2
BRANCH   1  11
ATOM     11  C   UNL     1      30.894  18.733  46.063  1.00  0.00     0.034 C 
BRANCH  11  12
ATOM     12  C   UNL     1      31.438  19.906  45.270  1.00  0.00    -0.075 C 
ATOM     13  C   UNL     1      31.750  19.824  43.958  1.00  0.00    -0.000 C 
ATOM     14  C   UNL     1      31.708  21.200  45.993  1.00  0.00     0.039 C 
BRANCH  13  15
ATOM     15  C   UNL     1      31.553  18.595  43.114  1.00  0.00     0.183 C 
BRANCH  15  16
ATOM     16  O   UNL     1      32.756  17.886  43.022  1.00  0.00    -0.392 OA
ATOM     17  H   UNL     1      33.031  17.688  43.955  1.00  0.00     0.210 HD
ENDBRANCH  15  16
ENDBRANCH  13  15
ENDBRANCH  11  12
ENDBRANCH   1  11
TORSDOF 8
ENDMDL
MODEL 2
REMARK VINA RESULT:    -7.015      3.361      6.068
REMARK INTER + INTRA:         -11.418
REMARK INTER:                 -10.123
REMARK INTRA:                  -1.295
REMARK UNBOUND:                -1.327
REMARK SMILES CC(C)=CCCC(C)=CCCC(C)=CCO
REMARK SMILES IDX 10 1 9 2 7 3 8 4 6 5 5 6 4 7 1 8 2 9 3 10 11 11 12 12 14 13
REMARK SMILES IDX 13 14 15 15 16 16
REMARK H PARENT 16 17
REMARK Flexibility Score: inf
ROOT
ATOM      1  C   UNL     1      30.592  18.452  50.873  1.00  0.00     0.032 C 
ENDROOT
BRANCH   1   2
ATOM      2  C   UNL     1      30.699  18.239  49.384  1.00  0.00    -0.028 C 
ATOM      3  C   UNL     1      31.825  18.440  48.662  1.00  0.00    -0.077 C 
ATOM      4  C   UNL     1      33.097  18.955  49.292  1.00  0.00     0.039 C 
BRANCH   3   5
ATOM      5  C   UNL     1      31.799  18.176  47.170  1.00  0.00     0.034 C 
BRANCH   5   6
ATOM      6  C   UNL     1      30.853  19.137  46.439  1.00  0.00     0.032 C 
BRANCH   6   7
ATOM      7  C   UNL     1      31.482  20.502  46.283  1.00  0.00    -0.028 C 
ATOM      8  C   UNL     1      29.292  21.720  46.302  1.00  0.00     0.039 C 
ATOM      9  C   UNL     1      30.799  21.669  46.246  1.00  0.00    -0.080 C 
ATOM     10  C   UNL     1      31.582  22.953  46.147  1.00  0.00     0.039 C 
ENDBRANCH   6   7
ENDBRANCH   5   6
ENDBRANCH   3   5
ENDBRANCH   1   2
BRANCH   1  11
ATOM     11  C   UNL     1      29.596  19.572  51.191  1.00  0.00     0.034 C 
BRANCH  11  12
ATOM     12  C   UNL     1      30.288  20.921  51.171  1.00  0.00    -0.075 C 
ATOM     13  C   UNL     1      30.670  21.567  52.296  1.00  0.00    -0.000 C 
ATOM     14  C   UNL     1      30.495  21.605  49.845  1.00  0.00     0.039 C 
BRANCH  13  15
ATOM     15  C   UNL     1      30.511  21.017  53.686  1.00  0.00     0.183 C 
BRANCH  15  16
ATOM     16  O   UNL     1      30.939  21.966  54.623  1.00  0.00    -0.392 OA
ATOM     17  H   UNL     1      30.626  22.845  54.287  1.00  0.00     0.210 HD
ENDBRANCH  15  16
ENDBRANCH  13  15
ENDBRANCH  11  12
ENDBRANCH   1  11
TORSDOF 8
ENDMDL
MODEL 3
REMARK VINA RESULT:    -7.004      3.083      5.821
REMARK INTER + INTRA:         -11.402
REMARK INTER:                  -9.609
REMARK INTRA:                  -1.793
REMARK UNBOUND:                -1.327
REMARK SMILES CC(C)=CCCC(C)=CCCC(C)=CCO
REMARK SMILES IDX 10 1 9 2 7 3 8 4 6 5 5 6 4 7 1 8 2 9 3 10 11 11 12 12 14 13
REMARK SMILES IDX 13 14 15 15 16 16
REMARK H PARENT 16 17
REMARK Flexibility Score: inf
ROOT
ATOM      1  C   UNL     1      28.995  22.038  43.815  1.00  0.00     0.032 C 
ENDROOT
BRANCH   1   2
ATOM      2  C   UNL     1      29.248  20.554  43.724  1.00  0.00    -0.028 C 
ATOM      3  C   UNL     1      30.383  20.000  43.242  1.00  0.00    -0.077 C 
ATOM      4  C   UNL     1      31.512  20.841  42.693  1.00  0.00     0.039 C 
BRANCH   3   5
ATOM      5  C   UNL     1      30.513  18.491  43.217  1.00  0.00     0.034 C 
BRANCH   5   6
ATOM      6  C   UNL     1      31.822  18.022  43.864  1.00  0.00     0.032 C 
BRANCH   6   7
ATOM      7  C   UNL     1      31.613  17.673  45.319  1.00  0.00    -0.028 C 
ATOM      8  C   UNL     1      32.743  19.740  46.173  1.00  0.00     0.039 C 
ATOM      9  C   UNL     1      31.996  18.442  46.363  1.00  0.00    -0.080 C 
ATOM     10  C   UNL     1      31.658  17.978  47.757  1.00  0.00     0.039 C 
ENDBRANCH   6   7
ENDBRANCH   5   6
ENDBRANCH   3   5
ENDBRANCH   1   2
BRANCH   1  11
ATOM     11  C   UNL     1      28.627  22.440  45.247  1.00  0.00     0.034 C 
BRANCH  11  12
ATOM     12  C   UNL     1      29.854  22.418  46.138  1.00  0.00    -0.075 C 
ATOM     13  C   UNL     1      29.963  21.613  47.218  1.00  0.00    -0.000 C 
ATOM     14  C   UNL     1      30.972  23.387  45.849  1.00  0.00     0.039 C 
BRANCH  13  15
ATOM     15  C   UNL     1      28.923  20.612  47.639  1.00  0.00     0.183 C 
BRANCH  15  16
ATOM     16  O   UNL     1      29.189  20.171  48.940  1.00  0.00    -0.392 OA
ATOM     17  H   UNL     1      28.784  20.844  49.547  1.00  0.00     0.210 HD
ENDBRANCH  15  16
ENDBRANCH  13  15
ENDBRANCH  11  12
ENDBRANCH   1  11
TORSDOF 8
ENDMDL
MODEL 4
REMARK VINA RESULT:    -6.901      1.222      2.328
REMARK INTER + INTRA:         -11.254
REMARK INTER:                 -10.010
REMARK INTRA:                  -1.244
REMARK UNBOUND:                -1.327
REMARK SMILES CC(C)=CCCC(C)=CCCC(C)=CCO
REMARK SMILES IDX 10 1 9 2 7 3 8 4 6 5 5 6 4 7 1 8 2 9 3 10 11 11 12 12 14 13
REMARK SMILES IDX 13 14 15 15 16 16
REMARK H PARENT 16 17
REMARK Flexibility Score: inf
ROOT
ATOM      1  C   UNL     1      30.560  20.536  46.134  1.00  0.00     0.032 C 
ENDROOT
BRANCH   1   2
ATOM      2  C   UNL     1      31.616  20.388  47.201  1.00  0.00    -0.028 C 
ATOM      3  C   UNL     1      31.999  19.209  47.741  1.00  0.00    -0.077 C 
ATOM      4  C   UNL     1      31.352  17.902  47.346  1.00  0.00     0.039 C 
BRANCH   3   5
ATOM      5  C   UNL     1      33.083  19.202  48.799  1.00  0.00     0.034 C 
BRANCH   5   6
ATOM      6  C   UNL     1      32.573  18.636  50.130  1.00  0.00     0.032 C 
BRANCH   6   7
ATOM      7  C   UNL     1      31.705  19.642  50.850  1.00  0.00    -0.028 C 
ATOM      8  C   UNL     1      29.592  18.336  50.521  1.00  0.00     0.039 C 
ATOM      9  C   UNL     1      30.375  19.510  51.056  1.00  0.00    -0.080 C 
ATOM     10  C   UNL     1      29.664  20.577  51.847  1.00  0.00     0.039 C 
ENDBRANCH   6   7
ENDBRANCH   5   6
ENDBRANCH   3   5
ENDBRANCH   1   2
BRANCH   1  11
ATOM     11  C   UNL     1      31.201  20.765  44.762  1.00  0.00     0.034 C 
BRANCH  11  12
ATOM     12  C   UNL     1      30.622  19.808  43.738  1.00  0.00    -0.075 C 
ATOM     13  C   UNL     1      31.220  18.643  43.401  1.00  0.00    -0.000 C 
ATOM     14  C   UNL     1      29.363  20.204  43.011  1.00  0.00     0.039 C 
BRANCH  13  15
ATOM     15  C   UNL     1      32.487  18.128  44.026  1.00  0.00     0.183 C 
BRANCH  15  16
ATOM     16  O   UNL     1      33.434  17.866  43.029  1.00  0.00    -0.392 OA
ATOM     17  H   UNL     1      34.054  17.190  43.409  1.00  0.00     0.210 HD
ENDBRANCH  15  16
ENDBRANCH  13  15
ENDBRANCH  11  12
ENDBRANCH   1  11
TORSDOF 8
ENDMDL
MODEL 5
REMARK VINA RESULT:    -6.898      2.104      2.496
REMARK INTER + INTRA:         -11.250
REMARK INTER:                  -9.739
REMARK INTRA:                  -1.512
REMARK UNBOUND:                -1.327
REMARK SMILES CC(C)=CCCC(C)=CCCC(C)=CCO
REMARK SMILES IDX 10 1 9 2 7 3 8 4 6 5 5 6 4 7 1 8 2 9 3 10 11 11 12 12 14 13
REMARK SMILES IDX 13 14 15 15 16 16
REMARK H PARENT 16 17
REMARK Flexibility Score: inf
ROOT
ATOM      1  C   UNL     1      31.697  18.299  46.759  1.00  0.00     0.032 C 
ENDROOT
BRANCH   1   2
ATOM      2  C   UNL     1      31.192  18.133  48.171  1.00  0.00    -0.028 C 
ATOM      3  C   UNL     1      31.894  18.464  49.278  1.00  0.00    -0.077 C 
ATOM      4  C   UNL     1      33.304  19.001  49.200  1.00  0.00     0.039 C 
BRANCH   3   5
ATOM      5  C   UNL     1      31.262  18.256  50.639  1.00  0.00     0.034 C 
BRANCH   5   6
ATOM      6  C   UNL     1      29.802  18.727  50.666  1.00  0.00     0.032 C 
BRANCH   6   7
ATOM      7  C   UNL     1      29.582  19.751  51.755  1.00  0.00    -0.028 C 
ATOM      8  C   UNL     1      30.513  21.653  50.414  1.00  0.00     0.039 C 
ATOM      9  C   UNL     1      29.871  21.068  51.649  1.00  0.00    -0.080 C 
ATOM     10  C   UNL     1      29.534  21.971  52.808  1.00  0.00     0.039 C 
ENDBRANCH   6   7
ENDBRANCH   5   6
ENDBRANCH   3   5
ENDBRANCH   1   2
BRANCH   1  11
ATOM     11  C   UNL     1      30.797  19.253  45.968  1.00  0.00     0.034 C 
BRANCH  11  12
ATOM     12  C   UNL     1      31.022  20.687  46.409  1.00  0.00    -0.075 C 
ATOM     13  C   UNL     1      30.012  21.516  46.755  1.00  0.00    -0.000 C 
ATOM     14  C   UNL     1      32.426  21.233  46.394  1.00  0.00     0.039 C 
BRANCH  13  15
ATOM     15  C   UNL     1      28.563  21.116  46.799  1.00  0.00     0.183 C 
BRANCH  15  16
ATOM     16  O   UNL     1      28.321  20.333  47.934  1.00  0.00    -0.392 OA
ATOM     17  H   UNL     1      29.190  20.262  48.409  1.00  0.00     0.210 HD
ENDBRANCH  15  16
ENDBRANCH  13  15
ENDBRANCH  11  12
ENDBRANCH   1  11
TORSDOF 8
ENDMDL
MODEL 6
REMARK VINA RESULT:    -6.890      3.184      6.647
REMARK INTER + INTRA:         -11.238
REMARK INTER:                 -10.397
REMARK INTRA:                  -0.841
REMARK UNBOUND:                -1.327
REMARK SMILES CC(C)=CCCC(C)=CCCC(C)=CCO
REMARK SMILES IDX 10 1 9 2 7 3 8 4 6 5 5 6 4 7 1 8 2 9 3 10 11 11 12 12 14 13
REMARK SMILES IDX 13 14 15 15 16 16
REMARK H PARENT 16 17
REMARK Flexibility Score: inf
ROOT
ATOM      1  C   UNL     1      30.759  18.407  50.801  1.00  0.00     0.032 C 
ENDROOT
BRANCH   1   2
ATOM      2  C   UNL     1      30.840  18.063  49.335  1.00  0.00    -0.028 C 
ATOM      3  C   UNL     1      31.925  18.281  48.557  1.00  0.00    -0.077 C 
ATOM      4  C   UNL     1      33.170  18.948  49.091  1.00  0.00     0.039 C 
BRANCH   3   5
ATOM      5  C   UNL     1      31.876  17.876  47.098  1.00  0.00     0.034 C 
BRANCH   5   6
ATOM      6  C   UNL     1      32.458  18.965  46.187  1.00  0.00     0.032 C 
BRANCH   6   7
ATOM      7  C   UNL     1      31.402  19.514  45.256  1.00  0.00    -0.028 C 
ATOM      8  C   UNL     1      32.263  18.283  43.250  1.00  0.00     0.039 C 
ATOM      9  C   UNL     1      31.286  19.199  43.946  1.00  0.00    -0.080 C 
ATOM     10  C   UNL     1      30.137  19.788  43.167  1.00  0.00     0.039 C 
ENDBRANCH   6   7
ENDBRANCH   5   6
ENDBRANCH   3   5
ENDBRANCH   1   2
BRANCH   1  11
ATOM     11  C   UNL     1      29.629  19.407  51.064  1.00  0.00     0.034 C 
BRANCH  11  12
ATOM     12  C   UNL     1      30.151  20.829  51.003  1.00  0.00    -0.075 C 
ATOM     13  C   UNL     1      30.353  21.585  52.106  1.00  0.00    -0.000 C 
ATOM     14  C   UNL     1      30.387  21.453  49.652  1.00  0.00     0.039 C 
BRANCH  13  15
ATOM     15  C   UNL     1      30.142  21.104  53.515  1.00  0.00     0.183 C 
BRANCH  15  16
ATOM     16  O   UNL     1      30.971  21.819  54.388  1.00  0.00    -0.392 OA
ATOM     17  H   UNL     1      30.379  22.176  55.099  1.00  0.00     0.210 HD
ENDBRANCH  15  16
ENDBRANCH  13  15
ENDBRANCH  11  12
ENDBRANCH   1  11
TORSDOF 8
ENDMDL
MODEL 7
REMARK VINA RESULT:    -6.876      3.637      7.416
REMARK INTER + INTRA:         -11.218
REMARK INTER:                 -10.282
REMARK INTRA:                  -0.936
REMARK UNBOUND:                -1.327
REMARK SMILES CC(C)=CCCC(C)=CCCC(C)=CCO
REMARK SMILES IDX 10 1 9 2 7 3 8 4 6 5 5 6 4 7 1 8 2 9 3 10 11 11 12 12 14 13
REMARK SMILES IDX 13 14 15 15 16 16
REMARK H PARENT 16 17
REMARK Flexibility Score: inf
ROOT
ATOM      1  C   UNL     1      30.124  20.609  48.593  1.00  0.00     0.032 C 
ENDROOT
BRANCH   1   2
ATOM      2  C   UNL     1      30.690  21.572  47.579  1.00  0.00    -0.028 C 
ATOM      3  C   UNL     1      29.960  22.198  46.629  1.00  0.00    -0.077 C 
ATOM      4  C   UNL     1      28.480  21.947  46.463  1.00  0.00     0.039 C 
BRANCH   3   5
ATOM      5  C   UNL     1      30.654  23.152  45.678  1.00  0.00     0.034 C 
BRANCH   5   6
ATOM      6  C   UNL     1      30.510  22.705  44.218  1.00  0.00     0.032 C 
BRANCH   6   7
ATOM      7  C   UNL     1      31.362  21.488  43.938  1.00  0.00    -0.028 C 
ATOM      8  C   UNL     1      29.443  20.102  43.115  1.00  0.00     0.039 C 
ATOM      9  C   UNL     1      30.904  20.325  43.420  1.00  0.00    -0.080 C 
ATOM     10  C   UNL     1      31.897  19.226  43.143  1.00  0.00     0.039 C 
ENDBRANCH   6   7
ENDBRANCH   5   6
ENDBRANCH   3   5
ENDBRANCH   1   2
BRANCH   1  11
ATOM     11  C   UNL     1      30.091  21.244  49.987  1.00  0.00     0.034 C 
BRANCH  11  12
ATOM     12  C   UNL     1      29.762  20.202  51.039  1.00  0.00    -0.075 C 
ATOM     13  C   UNL     1      29.666  20.494  52.355  1.00  0.00    -0.000 C 
ATOM     14  C   UNL     1      29.603  18.767  50.607  1.00  0.00     0.039 C 
BRANCH  13  15
ATOM     15  C   UNL     1      29.818  21.874  52.933  1.00  0.00     0.183 C 
BRANCH  15  16
ATOM     16  O   UNL     1      30.837  21.875  53.893  1.00  0.00    -0.392 OA
ATOM     17  H   UNL     1      31.369  21.053  53.732  1.00  0.00     0.210 HD
ENDBRANCH  15  16
ENDBRANCH  13  15
ENDBRANCH  11  12
ENDBRANCH   1  11
TORSDOF 8
ENDMDL
MODEL 8
REMARK VINA RESULT:    -6.729      1.746      2.264
REMARK INTER + INTRA:         -11.007
REMARK INTER:                  -9.810
REMARK INTRA:                  -1.197
REMARK UNBOUND:                -1.327
REMARK SMILES CC(C)=CCCC(C)=CCCC(C)=CCO
REMARK SMILES IDX 10 1 9 2 7 3 8 4 6 5 5 6 4 7 1 8 2 9 3 10 11 11 12 12 14 13
REMARK SMILES IDX 13 14 15 15 16 16
REMARK H PARENT 16 17
REMARK Flexibility Score: inf
ROOT
ATOM      1  C   UNL     1      32.165  20.422  46.008  1.00  0.00     0.032 C 
ENDROOT
BRANCH   1   2
ATOM      2  C   UNL     1      32.673  20.051  47.379  1.00  0.00    -0.028 C 
ATOM      3  C   UNL     1      32.351  18.912  48.032  1.00  0.00    -0.077 C 
ATOM      4  C   UNL     1      31.389  17.903  47.450  1.00  0.00     0.039 C 
BRANCH   3   5
ATOM      5  C   UNL     1      32.943  18.658  49.403  1.00  0.00     0.034 C 
BRANCH   5   6
ATOM      6  C   UNL     1      31.874  18.715  50.502  1.00  0.00     0.032 C 
BRANCH   6   7
ATOM      7  C   UNL     1      31.823  20.085  51.139  1.00  0.00    -0.028 C 
ATOM      8  C   UNL     1      29.882  20.861  49.757  1.00  0.00     0.039 C 
ATOM      9  C   UNL     1      30.923  21.047  50.835  1.00  0.00    -0.080 C 
ATOM     10  C   UNL     1      30.969  22.341  51.606  1.00  0.00     0.039 C 
ENDBRANCH   6   7
ENDBRANCH   5   6
ENDBRANCH   3   5
ENDBRANCH   1   2
BRANCH   1  11
ATOM     11  C   UNL     1      30.916  21.303  46.111  1.00  0.00     0.034 C 
BRANCH  11  12
ATOM     12  C   UNL     1      30.814  22.224  44.910  1.00  0.00    -0.075 C 
ATOM     13  C   UNL     1      30.110  21.907  43.800  1.00  0.00    -0.000 C 
ATOM     14  C   UNL     1      31.586  23.517  44.925  1.00  0.00     0.039 C 
BRANCH  13  15
ATOM     15  C   UNL     1      29.308  20.646  43.634  1.00  0.00     0.183 C 
BRANCH  15  16
ATOM     16  O   UNL     1      30.099  19.656  43.040  1.00  0.00    -0.392 OA
ATOM     17  H   UNL     1      29.764  18.789  43.389  1.00  0.00     0.210 HD
ENDBRANCH  15  16
ENDBRANCH  13  15
ENDBRANCH  11  12
ENDBRANCH   1  11
TORSDOF 8
ENDMDL
MODEL 9
REMARK VINA RESULT:    -6.717      2.142      3.485
REMARK INTER + INTRA:         -10.988
REMARK INTER:                  -9.761
REMARK INTRA:                  -1.228
REMARK UNBOUND:                -1.327
REMARK SMILES CC(C)=CCCC(C)=CCCC(C)=CCO
REMARK SMILES IDX 10 1 9 2 7 3 8 4 6 5 5 6 4 7 1 8 2 9 3 10 11 11 12 12 14 13
REMARK SMILES IDX 13 14 15 15 16 16
REMARK H PARENT 16 17
REMARK Flexibility Score: inf
ROOT
ATOM      1  C   UNL     1      30.568  23.020  46.004  1.00  0.00     0.032 C 
ENDROOT
BRANCH   1   2
ATOM      2  C   UNL     1      30.609  21.901  47.015  1.00  0.00    -0.028 C 
ATOM      3  C   UNL     1      29.523  21.224  47.450  1.00  0.00    -0.077 C 
ATOM      4  C   UNL     1      28.127  21.567  46.985  1.00  0.00     0.039 C 
BRANCH   3   5
ATOM      5  C   UNL     1      29.706  20.112  48.462  1.00  0.00     0.034 C 
BRANCH   5   6
ATOM      6  C   UNL     1      30.723  20.492  49.546  1.00  0.00     0.032 C 
BRANCH   6   7
ATOM      7  C   UNL     1      30.101  21.408  50.575  1.00  0.00    -0.028 C 
ATOM      8  C   UNL     1      30.501  19.840  52.489  1.00  0.00     0.039 C 
ATOM      9  C   UNL     1      30.017  21.142  51.898  1.00  0.00    -0.080 C 
ATOM     10  C   UNL     1      29.420  22.190  52.803  1.00  0.00     0.039 C 
ENDBRANCH   6   7
ENDBRANCH   5   6
ENDBRANCH   3   5
ENDBRANCH   1   2
BRANCH   1  11
ATOM     11  C   UNL     1      31.110  22.549  44.650  1.00  0.00     0.034 C 
BRANCH  11  12
ATOM     12  C   UNL     1      30.036  21.812  43.874  1.00  0.00    -0.075 C 
ATOM     13  C   UNL     1      30.156  20.517  43.503  1.00  0.00    -0.000 C 
ATOM     14  C   UNL     1      28.812  22.574  43.434  1.00  0.00     0.039 C 
BRANCH  13  15
ATOM     15  C   UNL     1      31.326  19.640  43.853  1.00  0.00     0.183 C 
BRANCH  15  16
ATOM     16  O   UNL     1      31.036  18.901  45.006  1.00  0.00    -0.392 OA
ATOM     17  H   UNL     1      31.911  18.669  45.412  1.00  0.00     0.210 HD
ENDBRANCH  15  16
ENDBRANCH  13  15
ENDBRANCH  11  12
ENDBRANCH   1  11
TORSDOF 8
ENDMDL
