MODEL 1
REMARK VINA RESULT:    -3.295      0.000      0.000
REMARK INTER + INTRA:          -7.713
REMARK INTER:                  -6.185
REMARK INTRA:                  -1.528
REMARK UNBOUND:                -1.528
REMARK SMILES CCCCCCCCC=CCCCCCCCC(=O)[O-]
REMARK SMILES IDX 10 1 9 2 11 3 12 4 13 5 14 6 15 7 16 8 17 9 18 10 19 11
REMARK SMILES IDX 20 12 8 13 7 14 6 15 5 16 4 17 3 18 2 19 1 20
REMARK H PARENT
REMARK Flexibility Score: inf
ROOT
ATOM      1  C   UNL     1      26.679  20.321  58.109  1.00  0.00    -0.031 C 
ATOM      2  C   UNL     1      26.653  19.914  56.827  1.00  0.00    -0.031 C 
ENDROOT
BRANCH   1   3
ATOM      3  C   UNL     1      26.908  21.745  58.549  1.00  0.00     0.027 C 
BRANCH   3   4
ATOM      4  C   UNL     1      26.186  22.030  59.871  1.00  0.00     0.004 C 
BRANCH   4   5
ATOM      5  C   UNL     1      24.668  22.123  59.656  1.00  0.00     0.000 C 
BRANCH   5   6
ATOM      6  C   UNL     1      23.871  21.254  60.642  1.00  0.00     0.000 C 
BRANCH   6   7
ATOM      7  C   UNL     1      23.534  21.995  61.948  1.00  0.00     0.000 C 
BRANCH   7   8
ATOM      8  C   UNL     1      24.695  21.970  62.955  1.00  0.00     0.006 C 
BRANCH   8   9
ATOM      9  C   UNL     1      24.734  20.675  63.777  1.00  0.00     0.053 C 
BRANCH   9  10
ATOM     10  C   UNL     1      26.007  19.931  63.524  1.00  0.00     0.041 C 
ATOM     11  O   UNL     1      26.612  20.066  62.427  1.00  0.00    -0.550 OA
ATOM     12  O   UNL     1      26.499  19.050  64.478  1.00  0.00    -0.550 OA
ENDBRANCH   9  10
ENDBRANCH   8   9
ENDBRANCH   7   8
ENDBRANCH   6   7
ENDBRANCH   5   6
ENDBRANCH   4   5
ENDBRANCH   3   4
ENDBRANCH   1   3
BRANCH   2  13
ATOM     13  C   UNL     1      26.759  20.834  55.637  1.00  0.00     0.027 C 
BRANCH  13  14
ATOM     14  C   UNL     1      25.502  21.701  55.506  1.00  0.00     0.004 C 
BRANCH  14  15
ATOM     15  C   UNL     1      25.096  21.860  54.033  1.00  0.00     0.000 C 
BRANCH  15  16
ATOM     16  C   UNL     1      23.688  21.310  53.737  1.00  0.00     0.000 C 
BRANCH  16  17
ATOM     17  C   UNL     1      23.217  20.183  54.673  1.00  0.00    -0.000 C 
BRANCH  17  18
ATOM     18  C   UNL     1      23.838  18.818  54.325  1.00  0.00    -0.000 C 
BRANCH  18  19
ATOM     19  C   UNL     1      23.838  17.850  55.519  1.00  0.00    -0.003 C 
ATOM     20  C   UNL     1      23.266  18.477  56.791  1.00  0.00     0.004 C 
ENDBRANCH  18  19
ENDBRANCH  17  18
ENDBRANCH  16  17
ENDBRANCH  15  16
ENDBRANCH  14  15
ENDBRANCH  13  14
ENDBRANCH   2  13
TORSDOF 15
ENDMDL
MODEL 2
REMARK VINA RESULT:    -3.034      1.114      1.428
REMARK INTER + INTRA:          -7.222
REMARK INTER:                  -5.448
REMARK INTRA:                  -1.773
REMARK UNBOUND:                -1.528
REMARK SMILES CCCCCCCCC=CCCCCCCCC(=O)[O-]
REMARK SMILES IDX 10 1 9 2 11 3 12 4 13 5 14 6 15 7 16 8 17 9 18 10 19 11
REMARK SMILES IDX 20 12 8 13 7 14 6 15 5 16 4 17 3 18 2 19 1 20
REMARK H PARENT
REMARK Flexibility Score: inf
ROOT
ATOM      1  C   UNL     1      26.506  20.132  57.626  1.00  0.00    -0.031 C 
ATOM      2  C   UNL     1      27.057  20.294  56.409  1.00  0.00    -0.031 C 
ENDROOT
BRANCH   1   3
ATOM      3  C   UNL     1      25.028  20.220  57.914  1.00  0.00     0.027 C 
BRANCH   3   4
ATOM      4  C   UNL     1      24.671  21.584  58.517  1.00  0.00     0.004 C 
BRANCH   4   5
ATOM      5  C   UNL     1      23.180  21.649  58.878  1.00  0.00     0.000 C 
BRANCH   5   6
ATOM      6  C   UNL     1      22.934  22.125  60.319  1.00  0.00     0.000 C 
BRANCH   6   7
ATOM      7  C   UNL     1      24.157  21.917  61.229  1.00  0.00     0.000 C 
BRANCH   7   8
ATOM      8  C   UNL     1      23.830  21.064  62.467  1.00  0.00     0.006 C 
BRANCH   8   9
ATOM      9  C   UNL     1      24.738  21.387  63.660  1.00  0.00     0.053 C 
BRANCH   9  10
ATOM     10  C   UNL     1      26.171  21.133  63.312  1.00  0.00     0.041 C 
ATOM     11  O   UNL     1      27.055  21.980  63.611  1.00  0.00    -0.550 OA
ATOM     12  O   UNL     1      26.524  19.985  62.614  1.00  0.00    -0.550 OA
ENDBRANCH   9  10
ENDBRANCH   8   9
ENDBRANCH   7   8
ENDBRANCH   6   7
ENDBRANCH   5   6
ENDBRANCH   4   5
ENDBRANCH   3   4
ENDBRANCH   1   3
BRANCH   2  13
ATOM     13  C   UNL     1      26.272  20.498  55.138  1.00  0.00     0.027 C 
BRANCH  13  14
ATOM     14  C   UNL     1      25.889  21.972  54.967  1.00  0.00     0.004 C 
BRANCH  14  15
ATOM     15  C   UNL     1      24.381  22.121  54.717  1.00  0.00     0.000 C 
BRANCH  15  16
ATOM     16  C   UNL     1      23.971  21.745  53.281  1.00  0.00     0.000 C 
BRANCH  16  17
ATOM     17  C   UNL     1      23.115  20.472  53.159  1.00  0.00    -0.000 C 
BRANCH  17  18
ATOM     18  C   UNL     1      22.875  19.780  54.513  1.00  0.00    -0.000 C 
BRANCH  18  19
ATOM     19  C   UNL     1      23.196  18.277  54.472  1.00  0.00    -0.003 C 
ATOM     20  C   UNL     1      23.688  17.739  55.816  1.00  0.00     0.004 C 
ENDBRANCH  18  19
ENDBRANCH  17  18
ENDBRANCH  16  17
ENDBRANCH  15  16
ENDBRANCH  14  15
ENDBRANCH  13  14
ENDBRANCH   2  13
TORSDOF 15
ENDMDL
MODEL 3
REMARK VINA RESULT:    -3.010      2.205      6.662
REMARK INTER + INTRA:          -7.177
REMARK INTER:                  -5.490
REMARK INTRA:                  -1.687
REMARK UNBOUND:                -1.528
REMARK SMILES CCCCCCCCC=CCCCCCCCC(=O)[O-]
REMARK SMILES IDX 10 1 9 2 11 3 12 4 13 5 14 6 15 7 16 8 17 9 18 10 19 11
REMARK SMILES IDX 20 12 8 13 7 14 6 15 5 16 4 17 3 18 2 19 1 20
REMARK H PARENT
REMARK Flexibility Score: inf
ROOT
ATOM      1  C   UNL     1      26.825  19.923  58.338  1.00  0.00    -0.031 C 
ATOM      2  C   UNL     1      27.282  20.286  59.551  1.00  0.00    -0.031 C 
ENDROOT
BRANCH   1   3
ATOM      3  C   UNL     1      26.446  20.889  57.244  1.00  0.00     0.027 C 
BRANCH   3   4
ATOM      4  C   UNL     1      26.918  20.378  55.878  1.00  0.00     0.004 C 
BRANCH   4   5
ATOM      5  C   UNL     1      26.500  21.343  54.758  1.00  0.00     0.000 C 
BRANCH   5   6
ATOM      6  C   UNL     1      25.091  21.920  54.962  1.00  0.00     0.000 C 
BRANCH   6   7
ATOM      7  C   UNL     1      24.016  21.158  54.169  1.00  0.00     0.000 C 
BRANCH   7   8
ATOM      8  C   UNL     1      22.998  20.456  55.082  1.00  0.00     0.006 C 
BRANCH   8   9
ATOM      9  C   UNL     1      23.125  20.889  56.548  1.00  0.00     0.053 C 
BRANCH   9  10
ATOM     10  C   UNL     1      23.267  19.693  57.437  1.00  0.00     0.041 C 
ATOM     11  O   UNL     1      23.185  19.821  58.688  1.00  0.00    -0.550 OA
ATOM     12  O   UNL     1      23.542  18.447  56.888  1.00  0.00    -0.550 OA
ENDBRANCH   9  10
ENDBRANCH   8   9
ENDBRANCH   7   8
ENDBRANCH   6   7
ENDBRANCH   5   6
ENDBRANCH   4   5
ENDBRANCH   3   4
ENDBRANCH   1   3
BRANCH   2  13
ATOM     13  C   UNL     1      27.566  21.707  59.966  1.00  0.00     0.027 C 
BRANCH  13  14
ATOM     14  C   UNL     1      26.664  22.122  61.134  1.00  0.00     0.004 C 
BRANCH  14  15
ATOM     15  C   UNL     1      25.187  22.125  60.712  1.00  0.00     0.000 C 
BRANCH  15  16
ATOM     16  C   UNL     1      24.222  22.080  61.912  1.00  0.00     0.000 C 
BRANCH  16  17
ATOM     17  C   UNL     1      24.899  22.025  63.293  1.00  0.00    -0.000 C 
BRANCH  17  18
ATOM     18  C   UNL     1      24.542  20.754  64.085  1.00  0.00    -0.000 C 
BRANCH  18  19
ATOM     19  C   UNL     1      25.314  19.518  63.594  1.00  0.00    -0.003 C 
ATOM     20  C   UNL     1      26.818  19.768  63.477  1.00  0.00     0.004 C 
ENDBRANCH  18  19
ENDBRANCH  17  18
ENDBRANCH  16  17
ENDBRANCH  15  16
ENDBRANCH  14  15
ENDBRANCH  13  14
ENDBRANCH   2  13
TORSDOF 15
ENDMDL
MODEL 4
REMARK VINA RESULT:    -2.932      2.663      6.895
REMARK INTER + INTRA:          -7.031
REMARK INTER:                  -5.238
REMARK INTRA:                  -1.793
REMARK UNBOUND:                -1.528
REMARK SMILES CCCCCCCCC=CCCCCCCCC(=O)[O-]
REMARK SMILES IDX 10 1 9 2 11 3 12 4 13 5 14 6 15 7 16 8 17 9 18 10 19 11
REMARK SMILES IDX 20 12 8 13 7 14 6 15 5 16 4 17 3 18 2 19 1 20
REMARK H PARENT
REMARK Flexibility Score: inf
ROOT
ATOM      1  C   UNL     1      27.381  20.738  59.535  1.00  0.00    -0.031 C 
ATOM      2  C   UNL     1      27.037  20.465  60.807  1.00  0.00    -0.031 C 
ENDROOT
BRANCH   1   3
ATOM      3  C   UNL     1      27.416  22.123  58.939  1.00  0.00     0.027 C 
BRANCH   3   4
ATOM      4  C   UNL     1      27.380  22.057  57.407  1.00  0.00     0.004 C 
BRANCH   4   5
ATOM      5  C   UNL     1      25.932  22.024  56.895  1.00  0.00     0.000 C 
BRANCH   5   6
ATOM      6  C   UNL     1      25.781  21.244  55.580  1.00  0.00     0.000 C 
BRANCH   6   7
ATOM      7  C   UNL     1      24.362  21.338  54.993  1.00  0.00     0.000 C 
BRANCH   7   8
ATOM      8  C   UNL     1      23.963  20.074  54.214  1.00  0.00     0.006 C 
BRANCH   8   9
ATOM      9  C   UNL     1      24.703  18.822  54.702  1.00  0.00     0.053 C 
BRANCH   9  10
ATOM     10  C   UNL     1      23.825  18.012  55.602  1.00  0.00     0.041 C 
ATOM     11  O   UNL     1      22.875  17.338  55.122  1.00  0.00    -0.550 OA
ATOM     12  O   UNL     1      24.023  18.040  56.977  1.00  0.00    -0.550 OA
ENDBRANCH   9  10
ENDBRANCH   8   9
ENDBRANCH   7   8
ENDBRANCH   6   7
ENDBRANCH   5   6
ENDBRANCH   4   5
ENDBRANCH   3   4
ENDBRANCH   1   3
BRANCH   2  13
ATOM     13  C   UNL     1      26.722  21.508  61.849  1.00  0.00     0.027 C 
BRANCH  13  14
ATOM     14  C   UNL     1      26.587  20.868  63.235  1.00  0.00     0.004 C 
BRANCH  14  15
ATOM     15  C   UNL     1      25.110  20.713  63.627  1.00  0.00     0.000 C 
BRANCH  15  16
ATOM     16  C   UNL     1      24.283  21.985  63.360  1.00  0.00     0.000 C 
BRANCH  16  17
ATOM     17  C   UNL     1      22.919  21.747  62.686  1.00  0.00    -0.000 C 
BRANCH  17  18
ATOM     18  C   UNL     1      23.038  21.017  61.336  1.00  0.00    -0.000 C 
BRANCH  18  19
ATOM     19  C   UNL     1      23.594  21.922  60.224  1.00  0.00    -0.003 C 
ATOM     20  C   UNL     1      23.333  21.366  58.823  1.00  0.00     0.004 C 
ENDBRANCH  18  19
ENDBRANCH  17  18
ENDBRANCH  16  17
ENDBRANCH  15  16
ENDBRANCH  14  15
ENDBRANCH  13  14
ENDBRANCH   2  13
TORSDOF 15
ENDMDL
MODEL 5
REMARK VINA RESULT:    -2.615      2.627      7.074
REMARK INTER + INTRA:          -6.435
REMARK INTER:                  -5.269
REMARK INTRA:                  -1.166
REMARK UNBOUND:                -1.528
REMARK SMILES CCCCCCCCC=CCCCCCCCC(=O)[O-]
REMARK SMILES IDX 10 1 9 2 11 3 12 4 13 5 14 6 15 7 16 8 17 9 18 10 19 11
REMARK SMILES IDX 20 12 8 13 7 14 6 15 5 16 4 17 3 18 2 19 1 20
REMARK H PARENT
REMARK Flexibility Score: inf
ROOT
ATOM      1  C   UNL     1      25.165  18.904  56.624  1.00  0.00    -0.031 C 
ATOM      2  C   UNL     1      24.730  19.774  57.554  1.00  0.00    -0.031 C 
ENDROOT
BRANCH   1   3
ATOM      3  C   UNL     1      24.308  17.841  55.983  1.00  0.00     0.027 C 
BRANCH   3   4
ATOM      4  C   UNL     1      22.966  18.426  55.527  1.00  0.00     0.004 C 
BRANCH   4   5
ATOM      5  C   UNL     1      23.132  19.230  54.229  1.00  0.00     0.000 C 
BRANCH   5   6
ATOM      6  C   UNL     1      22.924  20.739  54.430  1.00  0.00     0.000 C 
BRANCH   6   7
ATOM      7  C   UNL     1      24.035  21.583  53.784  1.00  0.00     0.000 C 
BRANCH   7   8
ATOM      8  C   UNL     1      25.040  22.123  54.815  1.00  0.00     0.006 C 
BRANCH   8   9
ATOM      9  C   UNL     1      26.491  22.038  54.324  1.00  0.00     0.053 C 
BRANCH   9  10
ATOM     10  C   UNL     1      27.427  21.881  55.480  1.00  0.00     0.041 C 
ATOM     11  O   UNL     1      27.033  22.123  56.653  1.00  0.00    -0.550 OA
ATOM     12  O   UNL     1      28.750  21.518  55.260  1.00  0.00    -0.550 OA
ENDBRANCH   9  10
ENDBRANCH   8   9
ENDBRANCH   7   8
ENDBRANCH   6   7
ENDBRANCH   5   6
ENDBRANCH   4   5
ENDBRANCH   3   4
ENDBRANCH   1   3
BRANCH   2  13
ATOM     13  C   UNL     1      23.303  19.875  58.028  1.00  0.00     0.027 C 
BRANCH  13  14
ATOM     14  C   UNL     1      23.085  21.166  58.824  1.00  0.00     0.004 C 
BRANCH  14  15
ATOM     15  C   UNL     1      24.380  21.602  59.527  1.00  0.00     0.000 C 
BRANCH  15  16
ATOM     16  C   UNL     1      24.140  22.116  60.959  1.00  0.00     0.000 C 
BRANCH  16  17
ATOM     17  C   UNL     1      24.064  21.023  62.041  1.00  0.00    -0.000 C 
BRANCH  17  18
ATOM     18  C   UNL     1      24.610  21.490  63.402  1.00  0.00    -0.000 C 
BRANCH  18  19
ATOM     19  C   UNL     1      26.064  21.047  63.637  1.00  0.00    -0.003 C 
ATOM     20  C   UNL     1      26.186  19.551  63.931  1.00  0.00     0.004 C 
ENDBRANCH  18  19
ENDBRANCH  17  18
ENDBRANCH  16  17
ENDBRANCH  15  16
ENDBRANCH  14  15
ENDBRANCH  13  14
ENDBRANCH   2  13
TORSDOF 15
ENDMDL
MODEL 6
REMARK VINA RESULT:    -2.569      1.372      3.017
REMARK INTER + INTRA:          -6.350
REMARK INTER:                  -4.329
REMARK INTRA:                  -2.020
REMARK UNBOUND:                -1.528
REMARK SMILES CCCCCCCCC=CCCCCCCCC(=O)[O-]
REMARK SMILES IDX 10 1 9 2 11 3 12 4 13 5 14 6 15 7 16 8 17 9 18 10 19 11
REMARK SMILES IDX 20 12 8 13 7 14 6 15 5 16 4 17 3 18 2 19 1 20
REMARK H PARENT
REMARK Flexibility Score: inf
ROOT
ATOM      1  C   UNL     1      25.291  19.375  57.455  1.00  0.00    -0.031 C 
ATOM      2  C   UNL     1      25.156  18.409  56.528  1.00  0.00    -0.031 C 
ENDROOT
BRANCH   1   3
ATOM      3  C   UNL     1      24.152  20.198  58.001  1.00  0.00     0.027 C 
BRANCH   3   4
ATOM      4  C   UNL     1      24.498  21.692  57.972  1.00  0.00     0.004 C 
BRANCH   4   5
ATOM      5  C   UNL     1      25.169  22.124  59.284  1.00  0.00     0.000 C 
BRANCH   5   6
ATOM      6  C   UNL     1      26.689  21.898  59.280  1.00  0.00     0.000 C 
BRANCH   6   7
ATOM      7  C   UNL     1      27.216  21.387  60.632  1.00  0.00     0.000 C 
BRANCH   7   8
ATOM      8  C   UNL     1      26.087  20.927  61.568  1.00  0.00     0.006 C 
BRANCH   8   9
ATOM      9  C   UNL     1      26.533  20.846  63.034  1.00  0.00     0.053 C 
BRANCH   9  10
ATOM     10  C   UNL     1      25.553  20.052  63.837  1.00  0.00     0.041 C 
ATOM     11  O   UNL     1      25.625  18.794  63.863  1.00  0.00    -0.550 OA
ATOM     12  O   UNL     1      24.527  20.696  64.518  1.00  0.00    -0.550 OA
ENDBRANCH   9  10
ENDBRANCH   8   9
ENDBRANCH   7   8
ENDBRANCH   6   7
ENDBRANCH   5   6
ENDBRANCH   4   5
ENDBRANCH   3   4
ENDBRANCH   1   3
BRANCH   2  13
ATOM     13  C   UNL     1      23.837  17.945  55.962  1.00  0.00     0.027 C 
BRANCH  13  14
ATOM     14  C   UNL     1      23.674  18.412  54.512  1.00  0.00     0.004 C 
BRANCH  14  15
ATOM     15  C   UNL     1      22.889  19.731  54.445  1.00  0.00     0.000 C 
BRANCH  15  16
ATOM     16  C   UNL     1      23.622  20.825  53.646  1.00  0.00     0.000 C 
BRANCH  16  17
ATOM     17  C   UNL     1      24.361  21.872  54.498  1.00  0.00    -0.000 C 
BRANCH  17  18
ATOM     18  C   UNL     1      25.802  22.125  54.019  1.00  0.00    -0.000 C 
BRANCH  18  19
ATOM     19  C   UNL     1      26.823  21.207  54.711  1.00  0.00    -0.003 C 
ATOM     20  C   UNL     1      27.394  21.816  55.993  1.00  0.00     0.004 C 
ENDBRANCH  18  19
ENDBRANCH  17  18
ENDBRANCH  16  17
ENDBRANCH  15  16
ENDBRANCH  14  15
ENDBRANCH  13  14
ENDBRANCH   2  13
TORSDOF 15
ENDMDL
MODEL 7
REMARK VINA RESULT:    -2.346      3.082      7.009
REMARK INTER + INTRA:          -5.931
REMARK INTER:                  -5.485
REMARK INTRA:                  -0.446
REMARK UNBOUND:                -1.528
REMARK SMILES CCCCCCCCC=CCCCCCCCC(=O)[O-]
REMARK SMILES IDX 10 1 9 2 11 3 12 4 13 5 14 6 15 7 16 8 17 9 18 10 19 11
REMARK SMILES IDX 20 12 8 13 7 14 6 15 5 16 4 17 3 18 2 19 1 20
REMARK H PARENT
REMARK Flexibility Score: inf
ROOT
ATOM      1  C   UNL     1      27.939  21.896  59.451  1.00  0.00    -0.031 C 
ATOM      2  C   UNL     1      26.783  21.534  60.037  1.00  0.00    -0.031 C 
ENDROOT
BRANCH   1   3
ATOM      3  C   UNL     1      28.130  22.052  57.964  1.00  0.00     0.027 C 
BRANCH   3   4
ATOM      4  C   UNL     1      26.778  22.088  57.242  1.00  0.00     0.004 C 
BRANCH   4   5
ATOM      5  C   UNL     1      26.940  21.723  55.759  1.00  0.00     0.000 C 
BRANCH   5   6
ATOM      6  C   UNL     1      26.610  20.251  55.466  1.00  0.00     0.000 C 
BRANCH   6   7
ATOM      7  C   UNL     1      25.980  19.533  56.672  1.00  0.00     0.000 C 
BRANCH   7   8
ATOM      8  C   UNL     1      24.660  18.830  56.314  1.00  0.00     0.006 C 
BRANCH   8   9
ATOM      9  C   UNL     1      23.442  19.748  56.474  1.00  0.00     0.053 C 
BRANCH   9  10
ATOM     10  C   UNL     1      23.363  20.717  55.337  1.00  0.00     0.041 C 
ATOM     11  O   UNL     1      23.306  21.956  55.563  1.00  0.00    -0.550 OA
ATOM     12  O   UNL     1      23.300  20.252  54.029  1.00  0.00    -0.550 OA
ENDBRANCH   9  10
ENDBRANCH   8   9
ENDBRANCH   7   8
ENDBRANCH   6   7
ENDBRANCH   5   6
ENDBRANCH   4   5
ENDBRANCH   3   4
ENDBRANCH   1   3
BRANCH   2  13
ATOM     13  C   UNL     1      25.484  21.318  59.302  1.00  0.00     0.027 C 
BRANCH  13  14
ATOM     14  C   UNL     1      24.353  22.122  59.951  1.00  0.00     0.004 C 
BRANCH  14  15
ATOM     15  C   UNL     1      23.677  21.314  61.069  1.00  0.00     0.000 C 
BRANCH  15  16
ATOM     16  C   UNL     1      23.495  22.123  62.368  1.00  0.00     0.000 C 
BRANCH  16  17
ATOM     17  C   UNL     1      24.087  21.472  63.631  1.00  0.00    -0.000 C 
BRANCH  17  18
ATOM     18  C   UNL     1      25.466  22.042  64.007  1.00  0.00    -0.000 C 
BRANCH  18  19
ATOM     19  C   UNL     1      26.624  21.232  63.401  1.00  0.00    -0.003 C 
ATOM     20  C   UNL     1      26.442  19.723  63.567  1.00  0.00     0.004 C 
ENDBRANCH  18  19
ENDBRANCH  17  18
ENDBRANCH  16  17
ENDBRANCH  15  16
ENDBRANCH  14  15
ENDBRANCH  13  14
ENDBRANCH   2  13
TORSDOF 15
ENDMDL
MODEL 8
REMARK VINA RESULT:    -1.651      2.452      7.009
REMARK INTER + INTRA:          -4.626
REMARK INTER:                  -3.338
REMARK INTRA:                  -1.288
REMARK UNBOUND:                -1.528
REMARK SMILES CCCCCCCCC=CCCCCCCCC(=O)[O-]
REMARK SMILES IDX 10 1 9 2 11 3 12 4 13 5 14 6 15 7 16 8 17 9 18 10 19 11
REMARK SMILES IDX 20 12 8 13 7 14 6 15 5 16 4 17 3 18 2 19 1 20
REMARK H PARENT
REMARK Flexibility Score: inf
ROOT
ATOM      1  C   UNL     1      26.935  20.939  58.685  1.00  0.00    -0.031 C 
ATOM      2  C   UNL     1      26.027  21.724  59.294  1.00  0.00    -0.031 C 
ENDROOT
BRANCH   1   3
ATOM      3  C   UNL     1      26.685  20.179  57.407  1.00  0.00     0.027 C 
BRANCH   3   4
ATOM      4  C   UNL     1      27.341  20.886  56.215  1.00  0.00     0.004 C 
BRANCH   4   5
ATOM      5  C   UNL     1      26.533  22.125  55.802  1.00  0.00     0.000 C 
BRANCH   5   6
ATOM      6  C   UNL     1      26.129  22.107  54.319  1.00  0.00     0.000 C 
BRANCH   6   7
ATOM      7  C   UNL     1      24.605  22.035  54.120  1.00  0.00     0.000 C 
BRANCH   7   8
ATOM      8  C   UNL     1      23.934  21.027  55.069  1.00  0.00     0.006 C 
BRANCH   8   9
ATOM      9  C   UNL     1      24.169  19.572  54.644  1.00  0.00     0.053 C 
BRANCH   9  10
ATOM     10  C   UNL     1      23.808  18.637  55.754  1.00  0.00     0.041 C 
ATOM     11  O   UNL     1      23.796  17.393  55.556  1.00  0.00    -0.550 OA
ATOM     12  O   UNL     1      23.436  19.140  56.995  1.00  0.00    -0.550 OA
ENDBRANCH   9  10
ENDBRANCH   8   9
ENDBRANCH   7   8
ENDBRANCH   6   7
ENDBRANCH   5   6
ENDBRANCH   4   5
ENDBRANCH   3   4
ENDBRANCH   1   3
BRANCH   2  13
ATOM     13  C   UNL     1      24.657  22.031  58.744  1.00  0.00     0.027 C 
BRANCH  13  14
ATOM     14  C   UNL     1      23.591  21.902  59.838  1.00  0.00     0.004 C 
BRANCH  14  15
ATOM     15  C   UNL     1      24.188  21.294  61.117  1.00  0.00     0.000 C 
BRANCH  15  16
ATOM     16  C   UNL     1      23.350  21.599  62.373  1.00  0.00     0.000 C 
BRANCH  16  17
ATOM     17  C   UNL     1      24.063  21.341  63.712  1.00  0.00    -0.000 C 
BRANCH  17  18
ATOM     18  C   UNL     1      25.566  21.672  63.662  1.00  0.00    -0.000 C 
BRANCH  18  19
ATOM     19  C   UNL     1      26.413  20.490  63.162  1.00  0.00    -0.003 C 
ATOM     20  C   UNL     1      26.404  19.304  64.128  1.00  0.00     0.004 C 
ENDBRANCH  18  19
ENDBRANCH  17  18
ENDBRANCH  16  17
ENDBRANCH  15  16
ENDBRANCH  14  15
ENDBRANCH  13  14
ENDBRANCH   2  13
TORSDOF 15
ENDMDL
