MODEL 1
REMARK VINA RESULT:    -2.896      0.000      0.000
REMARK INTER + INTRA:          -4.679
REMARK INTER:                  -4.420
REMARK INTRA:                  -0.260
REMARK UNBOUND:                -0.260
REMARK SMILES CC1=CCC[C@@H](C)C(=O)C[C@@H](C(C)C)C(=O)C1
REMARK SMILES IDX 8 1 9 2 6 3 7 4 5 5 4 6 3 7 2 8 1 9 10 11 11 12 15 13 16 14
REMARK SMILES IDX 17 15 12 17 13 18 14 19
REMARK H PARENT
REMARK Flexibility Score: 70.00
ROOT
ATOM      1  C   UNL     1     179.474 180.458 237.346  1.00  0.00     0.136 C 
ATOM      2  O   UNL     1     180.129 180.980 238.237  1.00  0.00    -0.299 OA
ENDROOT
BRANCH   1   3
ATOM      3  C   UNL     1     178.446 181.274 236.589  1.00  0.00     0.053 C 
ATOM      4  C   UNL     1     178.845 182.752 236.621  1.00  0.00     0.016 C 
BRANCH   3   5
ATOM      5  C   UNL     1     177.018 181.096 237.160  1.00  0.00     0.015 C 
BRANCH   5   6
ATOM      6  C   UNL     1     176.414 179.707 236.901  1.00  0.00     0.028 C 
BRANCH   6   7
ATOM      7  C   UNL     1     176.172 179.478 235.429  1.00  0.00    -0.028 C 
ATOM      8  C   UNL     1     176.793 178.541 234.677  1.00  0.00    -0.070 CG0
ATOM      9  C   UNL     1     176.428 178.445 233.217  1.00  0.00     0.039 C 
ATOM     10  G   UNL     1     177.824 177.582 235.243  1.00  0.00     0.000 G0
ENDBRANCH   6   7
ENDBRANCH   5   6
ENDBRANCH   3   5
ENDBRANCH   1   3
BRANCH   1  11
ATOM     11  C   UNL     1     179.748 179.021 236.974  1.00  0.00     0.087 C 
BRANCH  11  12
ATOM     12  C   UNL     1     180.175 178.825 235.494  1.00  0.00     0.066 C 
BRANCH  12  13
ATOM     13  C   UNL     1     179.259 177.816 234.806  1.00  0.00     0.140 C 
ATOM     14  O   UNL     1     179.664 177.242 233.806  1.00  0.00    -0.299 OA
BRANCH  13  15
ATOM     15  C   UNL     1     177.831 177.558 235.246  1.00  0.00     0.106 CG0
ATOM     16  G   UNL     1     176.815 178.529 234.675  1.00  0.00     0.000 G0
ENDBRANCH  13  15
ENDBRANCH  12  13
BRANCH  12  17
ATOM     17  C   UNL     1     181.665 178.365 235.386  1.00  0.00    -0.006 C 
ATOM     18  C   UNL     1     182.549 179.454 234.754  1.00  0.00     0.008 C 
ATOM     19  C   UNL     1     182.255 177.981 236.756  1.00  0.00     0.008 C 
ENDBRANCH  12  17
ENDBRANCH  11  12
ENDBRANCH   1  11
TORSDOF 1
ENDMDL
MODEL 2
REMARK VINA RESULT:    -2.825     14.497     15.725
REMARK INTER + INTRA:          -4.572
REMARK INTER:                  -4.592
REMARK INTRA:                   0.021
REMARK UNBOUND:                -0.260
REMARK SMILES CC1=CCC[C@@H](C)C(=O)C[C@@H](C(C)C)C(=O)C1
REMARK SMILES IDX 8 1 9 2 6 3 7 4 5 5 4 6 3 7 2 8 1 9 10 11 11 12 15 13 16 14
REMARK SMILES IDX 17 15 12 17 13 18 14 19
REMARK H PARENT
REMARK Flexibility Score: 70.00
ROOT
ATOM      1  C   UNL     1     184.629 190.429 226.986  1.00  0.00     0.136 C 
ATOM      2  O   UNL     1     185.429 190.333 227.905  1.00  0.00    -0.299 OA
ENDROOT
BRANCH   1   3
ATOM      3  C   UNL     1     183.335 191.191 227.189  1.00  0.00     0.053 C 
ATOM      4  C   UNL     1     183.646 192.581 227.752  1.00  0.00     0.016 C 
BRANCH   3   5
ATOM      5  C   UNL     1     182.354 190.445 228.125  1.00  0.00     0.015 C 
BRANCH   5   6
ATOM      6  C   UNL     1     181.972 189.040 227.633  1.00  0.00     0.028 C 
BRANCH   6   7
ATOM      7  C   UNL     1     180.900 189.102 226.571  1.00  0.00    -0.028 C 
ATOM      8  C   UNL     1     181.113 188.960 225.243  1.00  0.00    -0.070 CG0
ATOM      9  C   UNL     1     179.925 189.045 224.320  1.00  0.00     0.039 C 
ATOM     10  G   UNL     1     182.488 188.707 224.653  1.00  0.00     0.000 G0
ENDBRANCH   6   7
ENDBRANCH   5   6
ENDBRANCH   3   5
ENDBRANCH   1   3
BRANCH   1  11
ATOM     11  C   UNL     1     184.975 189.837 225.641  1.00  0.00     0.087 C 
BRANCH  11  12
ATOM     12  C   UNL     1     184.371 190.612 224.438  1.00  0.00     0.066 C 
BRANCH  12  13
ATOM     13  C   UNL     1     183.107 189.917 223.940  1.00  0.00     0.140 C 
ATOM     14  O   UNL     1     182.516 190.391 222.980  1.00  0.00    -0.299 OA
BRANCH  13  15
ATOM     15  C   UNL     1     182.490 188.719 224.635  1.00  0.00     0.106 CG0
ATOM     16  G   UNL     1     181.119 188.978 225.231  1.00  0.00     0.000 G0
ENDBRANCH  13  15
ENDBRANCH  12  13
BRANCH  12  17
ATOM     17  C   UNL     1     185.404 190.755 223.274  1.00  0.00    -0.006 C 
ATOM     18  C   UNL     1     186.006 192.171 223.223  1.00  0.00     0.008 C 
ATOM     19  C   UNL     1     186.552 189.733 223.387  1.00  0.00     0.008 C 
ENDBRANCH  12  17
ENDBRANCH  11  12
ENDBRANCH   1  11
TORSDOF 1
ENDMDL
MODEL 3
REMARK VINA RESULT:    -2.816     13.983     16.425
REMARK INTER + INTRA:          -4.557
REMARK INTER:                  -4.217
REMARK INTRA:                  -0.340
REMARK UNBOUND:                -0.260
REMARK SMILES CC1=CCC[C@@H](C)C(=O)C[C@@H](C(C)C)C(=O)C1
REMARK SMILES IDX 8 1 9 2 6 3 7 4 5 5 4 6 3 7 2 8 1 9 10 11 11 12 15 13 16 14
REMARK SMILES IDX 17 15 12 17 13 18 14 19
REMARK H PARENT
REMARK Flexibility Score: 70.00
ROOT
ATOM      1  C   UNL     1     191.068 186.577 240.038  1.00  0.00     0.136 C 
ATOM      2  O   UNL     1     190.471 185.699 239.432  1.00  0.00    -0.299 OA
ENDROOT
BRANCH   1   3
ATOM      3  C   UNL     1     192.539 186.813 239.767  1.00  0.00     0.053 C 
ATOM      4  C   UNL     1     193.135 187.661 240.895  1.00  0.00     0.016 C 
BRANCH   3   5
ATOM      5  C   UNL     1     192.784 187.497 238.400  1.00  0.00     0.015 C 
BRANCH   5   6
ATOM      6  C   UNL     1     193.271 188.950 238.510  1.00  0.00     0.028 C 
BRANCH   6   7
ATOM      7  C   UNL     1     192.266 189.913 237.924  1.00  0.00    -0.028 C 
ATOM      8  C   UNL     1     191.325 190.579 238.630  1.00  0.00    -0.070 CG0
ATOM      9  C   UNL     1     190.402 191.507 237.884  1.00  0.00     0.039 C 
ATOM     10  G   UNL     1     191.171 190.437 240.133  1.00  0.00     0.000 G0
ENDBRANCH   6   7
ENDBRANCH   5   6
ENDBRANCH   3   5
ENDBRANCH   1   3
BRANCH   1  11
ATOM     11  C   UNL     1     190.308 187.455 241.004  1.00  0.00     0.087 C 
BRANCH  11  12
ATOM     12  C   UNL     1     189.339 188.454 240.317  1.00  0.00     0.066 C 
BRANCH  12  13
ATOM     13  C   UNL     1     189.789 189.890 240.570  1.00  0.00     0.140 C 
ATOM     14  O   UNL     1     189.001 190.671 241.082  1.00  0.00    -0.299 OA
BRANCH  13  15
ATOM     15  C   UNL     1     191.139 190.426 240.131  1.00  0.00     0.106 CG0
ATOM     16  G   UNL     1     191.300 190.561 238.629  1.00  0.00     0.000 G0
ENDBRANCH  13  15
ENDBRANCH  12  13
BRANCH  12  17
ATOM     17  C   UNL     1     187.869 188.254 240.809  1.00  0.00    -0.006 C 
ATOM     18  C   UNL     1     186.909 187.998 239.634  1.00  0.00     0.008 C 
ATOM     19  C   UNL     1     187.745 187.090 241.811  1.00  0.00     0.008 C 
ENDBRANCH  12  17
ENDBRANCH  11  12
ENDBRANCH   1  11
TORSDOF 1
ENDMDL
MODEL 4
REMARK VINA RESULT:    -2.741     14.644     16.430
REMARK INTER + INTRA:          -4.443
REMARK INTER:                  -4.527
REMARK INTRA:                   0.083
REMARK UNBOUND:                -0.260
REMARK SMILES CC1=CCC[C@@H](C)C(=O)C[C@@H](C(C)C)C(=O)C1
REMARK SMILES IDX 8 1 9 2 6 3 7 4 5 5 4 6 3 7 2 8 1 9 10 11 11 12 15 13 16 14
REMARK SMILES IDX 17 15 12 17 13 18 14 19
REMARK H PARENT
REMARK Flexibility Score: 70.00
ROOT
ATOM      1  C   UNL     1     184.146 191.185 223.976  1.00  0.00     0.136 C 
ATOM      2  O   UNL     1     183.486 191.485 222.992  1.00  0.00    -0.299 OA
ENDROOT
BRANCH   1   3
ATOM      3  C   UNL     1     185.652 191.352 223.954  1.00  0.00     0.053 C 
ATOM      4  C   UNL     1     186.007 192.673 223.265  1.00  0.00     0.016 C 
BRANCH   3   5
ATOM      5  C   UNL     1     186.364 190.174 223.246  1.00  0.00     0.015 C 
BRANCH   5   6
ATOM      6  C   UNL     1     187.096 189.224 224.205  1.00  0.00     0.028 C 
BRANCH   6   7
ATOM      7  C   UNL     1     186.543 187.821 224.119  1.00  0.00    -0.028 C 
ATOM      8  C   UNL     1     185.865 187.192 225.104  1.00  0.00    -0.070 CG0
ATOM      9  C   UNL     1     185.378 185.789 224.848  1.00  0.00     0.039 C 
ATOM     10  G   UNL     1     185.566 187.842 226.443  1.00  0.00     0.000 G0
ENDBRANCH   6   7
ENDBRANCH   5   6
ENDBRANCH   3   5
ENDBRANCH   1   3
BRANCH   1  11
ATOM     11  C   UNL     1     183.439 190.710 225.223  1.00  0.00     0.087 C 
BRANCH  11  12
ATOM     12  C   UNL     1     184.399 190.239 226.349  1.00  0.00     0.066 C 
BRANCH  12  13
ATOM     13  C   UNL     1     184.341 188.720 226.495  1.00  0.00     0.140 C 
ATOM     14  O   UNL     1     183.265 188.194 226.736  1.00  0.00    -0.299 OA
BRANCH  13  15
ATOM     15  C   UNL     1     185.572 187.836 226.449  1.00  0.00     0.106 CG0
ATOM     16  G   UNL     1     185.830 187.190 225.101  1.00  0.00     0.000 G0
ENDBRANCH  13  15
ENDBRANCH  12  13
BRANCH  12  17
ATOM     17  C   UNL     1     184.061 190.925 227.712  1.00  0.00    -0.006 C 
ATOM     18  C   UNL     1     184.315 192.442 227.659  1.00  0.00     0.008 C 
ATOM     19  C   UNL     1     182.600 190.683 228.138  1.00  0.00     0.008 C 
ENDBRANCH  12  17
ENDBRANCH  11  12
ENDBRANCH   1  11
TORSDOF 1
ENDMDL
MODEL 5
REMARK VINA RESULT:    -2.733     14.591     16.330
REMARK INTER + INTRA:          -4.430
REMARK INTER:                  -3.954
REMARK INTRA:                  -0.476
REMARK UNBOUND:                -0.260
REMARK SMILES CC1=CCC[C@@H](C)C(=O)C[C@@H](C(C)C)C(=O)C1
REMARK SMILES IDX 8 1 9 2 6 3 7 4 5 5 4 6 3 7 2 8 1 9 10 11 11 12 15 13 16 14
REMARK SMILES IDX 17 15 12 17 13 18 14 19
REMARK H PARENT
REMARK Flexibility Score: 70.00
ROOT
ATOM      1  C   UNL     1     183.702 190.197 223.637  1.00  0.00     0.136 C 
ATOM      2  O   UNL     1     183.311 191.109 222.924  1.00  0.00    -0.299 OA
ENDROOT
BRANCH   1   3
ATOM      3  C   UNL     1     184.338 190.506 224.976  1.00  0.00     0.053 C 
ATOM      4  C   UNL     1     183.407 191.416 225.784  1.00  0.00     0.016 C 
BRANCH   3   5
ATOM      5  C   UNL     1     185.730 191.167 224.828  1.00  0.00     0.015 C 
BRANCH   5   6
ATOM      6  C   UNL     1     186.782 190.260 224.172  1.00  0.00     0.028 C 
BRANCH   6   7
ATOM      7  C   UNL     1     187.232 189.168 225.113  1.00  0.00    -0.028 C 
ATOM      8  C   UNL     1     186.931 187.856 224.981  1.00  0.00    -0.070 CG0
ATOM      9  C   UNL     1     187.467 186.897 226.013  1.00  0.00     0.039 C 
ATOM     10  G   UNL     1     186.091 187.316 223.838  1.00  0.00     0.000 G0
ENDBRANCH   6   7
ENDBRANCH   5   6
ENDBRANCH   3   5
ENDBRANCH   1   3
BRANCH   1  11
ATOM     11  C   UNL     1     183.488 188.769 223.193  1.00  0.00     0.087 C 
BRANCH  11  12
ATOM     12  C   UNL     1     183.494 187.742 224.358  1.00  0.00     0.066 C 
BRANCH  12  13
ATOM     13  C   UNL     1     184.699 186.813 224.240  1.00  0.00     0.140 C 
ATOM     14  O   UNL     1     184.570 185.639 224.558  1.00  0.00    -0.299 OA
BRANCH  13  15
ATOM     15  C   UNL     1     186.081 187.292 223.837  1.00  0.00     0.106 CG0
ATOM     16  G   UNL     1     186.909 187.847 224.981  1.00  0.00     0.000 G0
ENDBRANCH  13  15
ENDBRANCH  12  13
BRANCH  12  17
ATOM     17  C   UNL     1     182.171 186.910 224.392  1.00  0.00    -0.006 C 
ATOM     18  C   UNL     1     181.455 187.043 225.747  1.00  0.00     0.008 C 
ATOM     19  C   UNL     1     181.196 187.324 223.274  1.00  0.00     0.008 C 
ENDBRANCH  12  17
ENDBRANCH  11  12
ENDBRANCH   1  11
TORSDOF 1
ENDMDL
MODEL 6
REMARK VINA RESULT:    -2.668      2.026      4.500
REMARK INTER + INTRA:          -4.332
REMARK INTER:                  -3.895
REMARK INTRA:                  -0.437
REMARK UNBOUND:                -0.260
REMARK SMILES CC1=CCC[C@@H](C)C(=O)C[C@@H](C(C)C)C(=O)C1
REMARK SMILES IDX 8 1 9 2 6 3 7 4 5 5 4 6 3 7 2 8 1 9 10 11 11 12 15 13 16 14
REMARK SMILES IDX 17 15 12 17 13 18 14 19
REMARK H PARENT
REMARK Flexibility Score: 70.00
ROOT
ATOM      1  C   UNL     1     179.934 180.904 235.780  1.00  0.00     0.136 C 
ATOM      2  O   UNL     1     179.830 182.079 235.458  1.00  0.00    -0.299 OA
ENDROOT
BRANCH   1   3
ATOM      3  C   UNL     1     180.637 180.536 237.071  1.00  0.00     0.053 C 
ATOM      4  C   UNL     1     180.170 181.470 238.190  1.00  0.00     0.016 C 
BRANCH   3   5
ATOM      5  C   UNL     1     182.178 180.593 236.938  1.00  0.00     0.015 C 
BRANCH   5   6
ATOM      6  C   UNL     1     182.707 180.064 235.596  1.00  0.00     0.028 C 
BRANCH   6   7
ATOM      7  C   UNL     1     183.141 178.622 235.706  1.00  0.00    -0.028 C 
ATOM      8  C   UNL     1     182.540 177.582 235.086  1.00  0.00    -0.070 CG0
ATOM      9  C   UNL     1     183.107 176.202 235.303  1.00  0.00     0.039 C 
ATOM     10  G   UNL     1     181.334 177.748 234.180  1.00  0.00     0.000 G0
ENDBRANCH   6   7
ENDBRANCH   5   6
ENDBRANCH   3   5
ENDBRANCH   1   3
BRANCH   1  11
ATOM     11  C   UNL     1     179.302 179.842 234.913  1.00  0.00     0.087 C 
BRANCH  11  12
ATOM     12  C   UNL     1     179.202 178.451 235.595  1.00  0.00     0.066 C 
BRANCH  12  13
ATOM     13  C   UNL     1     180.002 177.415 234.810  1.00  0.00     0.140 C 
ATOM     14  O   UNL     1     179.590 176.265 234.766  1.00  0.00    -0.299 OA
BRANCH  13  15
ATOM     15  C   UNL     1     181.337 177.719 234.157  1.00  0.00     0.106 CG0
ATOM     16  G   UNL     1     182.531 177.587 235.083  1.00  0.00     0.000 G0
ENDBRANCH  13  15
ENDBRANCH  12  13
BRANCH  12  17
ATOM     17  C   UNL     1     177.715 177.991 235.739  1.00  0.00    -0.006 C 
ATOM     18  C   UNL     1     177.067 178.560 237.013  1.00  0.00     0.008 C 
ATOM     19  C   UNL     1     176.861 178.400 234.524  1.00  0.00     0.008 C 
ENDBRANCH  12  17
ENDBRANCH  11  12
ENDBRANCH   1  11
TORSDOF 1
ENDMDL
MODEL 7
REMARK VINA RESULT:    -2.592     13.696     15.808
REMARK INTER + INTRA:          -4.216
REMARK INTER:                  -4.200
REMARK INTRA:                  -0.016
REMARK UNBOUND:                -0.260
REMARK SMILES CC1=CCC[C@@H](C)C(=O)C[C@@H](C(C)C)C(=O)C1
REMARK SMILES IDX 8 1 9 2 6 3 7 4 5 5 4 6 3 7 2 8 1 9 10 11 11 12 15 13 16 14
REMARK SMILES IDX 17 15 12 17 13 18 14 19
REMARK H PARENT
REMARK Flexibility Score: 70.00
ROOT
ATOM      1  C   UNL     1     188.810 181.951 225.037  1.00  0.00     0.136 C 
ATOM      2  O   UNL     1     189.556 181.698 225.971  1.00  0.00    -0.299 OA
ENDROOT
BRANCH   1   3
ATOM      3  C   UNL     1     187.424 181.341 224.992  1.00  0.00     0.053 C 
ATOM      4  C   UNL     1     187.070 180.985 223.545  1.00  0.00     0.016 C 
BRANCH   3   5
ATOM      5  C   UNL     1     186.348 182.280 225.588  1.00  0.00     0.015 C 
BRANCH   5   6
ATOM      6  C   UNL     1     185.554 183.066 224.532  1.00  0.00     0.028 C 
BRANCH   6   7
ATOM      7  C   UNL     1     185.478 184.533 224.881  1.00  0.00    -0.028 C 
ATOM      8  C   UNL     1     186.319 185.485 224.420  1.00  0.00    -0.070 CG0
ATOM      9  C   UNL     1     186.096 186.907 224.868  1.00  0.00     0.039 C 
ATOM     10  G   UNL     1     187.462 185.183 223.469  1.00  0.00     0.000 G0
ENDBRANCH   6   7
ENDBRANCH   5   6
ENDBRANCH   3   5
ENDBRANCH   1   3
BRANCH   1  11
ATOM     11  C   UNL     1     189.263 182.921 223.972  1.00  0.00     0.087 C 
BRANCH  11  12
ATOM     12  C   UNL     1     189.749 184.286 224.531  1.00  0.00     0.066 C 
BRANCH  12  13
ATOM     13  C   UNL     1     188.855 185.415 224.026  1.00  0.00     0.140 C 
ATOM     14  O   UNL     1     189.241 186.569 224.145  1.00  0.00    -0.299 OA
BRANCH  13  15
ATOM     15  C   UNL     1     187.464 185.185 223.467  1.00  0.00     0.106 CG0
ATOM     16  G   UNL     1     186.340 185.489 224.440  1.00  0.00     0.000 G0
ENDBRANCH  13  15
ENDBRANCH  12  13
BRANCH  12  17
ATOM     17  C   UNL     1     191.238 184.562 224.146  1.00  0.00    -0.006 C 
ATOM     18  C   UNL     1     192.001 185.246 225.295  1.00  0.00     0.008 C 
ATOM     19  C   UNL     1     191.986 183.274 223.753  1.00  0.00     0.008 C 
ENDBRANCH  12  17
ENDBRANCH  11  12
ENDBRANCH   1  11
TORSDOF 1
ENDMDL
MODEL 8
REMARK VINA RESULT:    -2.528     14.886     16.467
REMARK INTER + INTRA:          -4.117
REMARK INTER:                  -3.874
REMARK INTRA:                  -0.243
REMARK UNBOUND:                -0.260
REMARK SMILES CC1=CCC[C@@H](C)C(=O)C[C@@H](C(C)C)C(=O)C1
REMARK SMILES IDX 8 1 9 2 6 3 7 4 5 5 4 6 3 7 2 8 1 9 10 11 11 12 15 13 16 14
REMARK SMILES IDX 17 15 12 17 13 18 14 19
REMARK H PARENT
REMARK Flexibility Score: 70.00
ROOT
ATOM      1  C   UNL     1     183.255 190.087 227.332  1.00  0.00     0.136 C 
ATOM      2  O   UNL     1     183.359 188.891 227.563  1.00  0.00    -0.299 OA
ENDROOT
BRANCH   1   3
ATOM      3  C   UNL     1     183.442 191.090 228.452  1.00  0.00     0.053 C 
ATOM      4  C   UNL     1     183.296 192.509 227.894  1.00  0.00     0.016 C 
BRANCH   3   5
ATOM      5  C   UNL     1     184.810 190.934 229.159  1.00  0.00     0.015 C 
BRANCH   5   6
ATOM      6  C   UNL     1     185.969 191.635 228.434  1.00  0.00     0.028 C 
BRANCH   6   7
ATOM      7  C   UNL     1     186.794 190.652 227.639  1.00  0.00    -0.028 C 
ATOM      8  C   UNL     1     186.773 190.530 226.292  1.00  0.00    -0.070 CG0
ATOM      9  C   UNL     1     187.667 189.495 225.659  1.00  0.00     0.039 C 
ATOM     10  G   UNL     1     185.900 191.394 225.402  1.00  0.00     0.000 G0
ENDBRANCH   6   7
ENDBRANCH   5   6
ENDBRANCH   3   5
ENDBRANCH   1   3
BRANCH   1  11
ATOM     11  C   UNL     1     183.000 190.546 225.916  1.00  0.00     0.087 C 
BRANCH  11  12
ATOM     12  C   UNL     1     183.828 189.780 224.849  1.00  0.00     0.066 C 
BRANCH  12  13
ATOM     13  C   UNL     1     185.040 190.605 224.426  1.00  0.00     0.140 C 
ATOM     14  O   UNL     1     185.391 190.577 223.255  1.00  0.00    -0.299 OA
BRANCH  13  15
ATOM     15  C   UNL     1     185.894 191.388 225.405  1.00  0.00     0.106 CG0
ATOM     16  G   UNL     1     186.791 190.531 226.278  1.00  0.00     0.000 G0
ENDBRANCH  13  15
ENDBRANCH  12  13
BRANCH  12  17
ATOM     17  C   UNL     1     182.958 189.419 223.602  1.00  0.00    -0.006 C 
ATOM     18  C   UNL     1     182.996 187.909 223.305  1.00  0.00     0.008 C 
ATOM     19  C   UNL     1     181.490 189.852 223.773  1.00  0.00     0.008 C 
ENDBRANCH  12  17
ENDBRANCH  11  12
ENDBRANCH   1  11
TORSDOF 1
ENDMDL
MODEL 9
REMARK VINA RESULT:    -2.478     13.607     15.729
REMARK INTER + INTRA:          -4.042
REMARK INTER:                  -3.597
REMARK INTRA:                  -0.445
REMARK UNBOUND:                -0.260
REMARK SMILES CC1=CCC[C@@H](C)C(=O)C[C@@H](C(C)C)C(=O)C1
REMARK SMILES IDX 8 1 9 2 6 3 7 4 5 5 4 6 3 7 2 8 1 9 10 11 11 12 15 13 16 14
REMARK SMILES IDX 17 15 12 17 13 18 14 19
REMARK H PARENT
REMARK Flexibility Score: 70.00
ROOT
ATOM      1  C   UNL     1     188.370 182.900 227.600  1.00  0.00     0.136 C 
ATOM      2  O   UNL     1     187.792 182.904 228.677  1.00  0.00    -0.299 OA
ENDROOT
BRANCH   1   3
ATOM      3  C   UNL     1     189.657 182.118 227.437  1.00  0.00     0.053 C 
ATOM      4  C   UNL     1     189.505 180.744 228.098  1.00  0.00     0.016 C 
BRANCH   3   5
ATOM      5  C   UNL     1     190.877 182.862 228.031  1.00  0.00     0.015 C 
BRANCH   5   6
ATOM      6  C   UNL     1     191.869 183.373 226.974  1.00  0.00     0.028 C 
BRANCH   6   7
ATOM      7  C   UNL     1     191.562 184.797 226.575  1.00  0.00    -0.028 C 
ATOM      8  C   UNL     1     190.947 185.167 225.429  1.00  0.00    -0.070 CG0
ATOM      9  C   UNL     1     190.715 186.637 225.190  1.00  0.00     0.039 C 
ATOM     10  G   UNL     1     190.475 184.168 224.389  1.00  0.00     0.000 G0
ENDBRANCH   6   7
ENDBRANCH   5   6
ENDBRANCH   3   5
ENDBRANCH   1   3
BRANCH   1  11
ATOM     11  C   UNL     1     187.754 183.629 226.429  1.00  0.00     0.087 C 
BRANCH  11  12
ATOM     12  C   UNL     1     188.148 183.043 225.046  1.00  0.00     0.066 C 
BRANCH  12  13
ATOM     13  C   UNL     1     188.969 184.056 224.254  1.00  0.00     0.140 C 
ATOM     14  O   UNL     1     188.401 184.749 223.422  1.00  0.00    -0.299 OA
BRANCH  13  15
ATOM     15  C   UNL     1     190.475 184.183 224.377  1.00  0.00     0.106 CG0
ATOM     16  G   UNL     1     190.935 185.172 225.432  1.00  0.00     0.000 G0
ENDBRANCH  13  15
ENDBRANCH  12  13
BRANCH  12  17
ATOM     17  C   UNL     1     186.887 182.611 224.230  1.00  0.00    -0.006 C 
ATOM     18  C   UNL     1     186.897 181.102 223.929  1.00  0.00     0.008 C 
ATOM     19  C   UNL     1     185.575 182.962 224.958  1.00  0.00     0.008 C 
ENDBRANCH  12  17
ENDBRANCH  11  12
ENDBRANCH   1  11
TORSDOF 1
ENDMDL
