MODEL 1
REMARK VINA RESULT:    -4.767      0.000      0.000
REMARK INTER + INTRA:          -6.102
REMARK INTER:                  -5.882
REMARK INTRA:                  -0.220
REMARK UNBOUND:                -0.220
REMARK SMILES C=CC[C@@H](C)C(=O)CC
REMARK SMILES IDX 4 1 5 2 6 3 7 4 8 5 9 6 3 7 2 8 1 9
REMARK H PARENT
REMARK Flexibility Score: inf
ROOT
ATOM      1  C   UNL     1     -12.447 -15.214  28.644  1.00  0.00     0.057 C 
ATOM      2  C   UNL     1     -11.267 -15.544  29.566  1.00  0.00     0.016 C 
ENDROOT
BRANCH   1   3
ATOM      3  C   UNL     1     -12.917 -16.456  27.912  1.00  0.00     0.135 C 
ATOM      4  O   UNL     1     -13.405 -17.375  28.554  1.00  0.00    -0.299 OA
BRANCH   3   5
ATOM      5  C   UNL     1     -12.778 -16.606  26.416  1.00  0.00     0.072 C 
ATOM      6  C   UNL     1     -11.355 -17.007  26.039  1.00  0.00     0.012 C 
ENDBRANCH   3   5
ENDBRANCH   1   3
BRANCH   1   7
ATOM      7  C   UNL     1     -13.589 -14.540  29.430  1.00  0.00     0.038 C 
BRANCH   7   8
ATOM      8  C   UNL     1     -14.358 -13.575  28.567  1.00  0.00    -0.034 C 
ATOM      9  C   UNL     1     -15.253 -12.728  29.083  1.00  0.00     0.004 C 
ENDBRANCH   7   8
ENDBRANCH   1   7
TORSDOF 4
ENDMDL
MODEL 2
REMARK VINA RESULT:    -4.591      1.277      3.780
REMARK INTER + INTRA:          -5.884
REMARK INTER:                  -5.511
REMARK INTRA:                  -0.373
REMARK UNBOUND:                -0.220
REMARK SMILES C=CC[C@@H](C)C(=O)CC
REMARK SMILES IDX 4 1 5 2 6 3 7 4 8 5 9 6 3 7 2 8 1 9
REMARK H PARENT
REMARK Flexibility Score: inf
ROOT
ATOM      1  C   UNL     1     -12.772 -15.122  28.660  1.00  0.00     0.057 C 
ATOM      2  C   UNL     1     -13.829 -14.014  28.725  1.00  0.00     0.016 C 
ENDROOT
BRANCH   1   3
ATOM      3  C   UNL     1     -12.530 -15.712  30.035  1.00  0.00     0.135 C 
ATOM      4  O   UNL     1     -13.489 -16.054  30.711  1.00  0.00    -0.299 OA
BRANCH   3   5
ATOM      5  C   UNL     1     -11.141 -15.867  30.608  1.00  0.00     0.072 C 
ATOM      6  C   UNL     1     -10.107 -15.178  29.724  1.00  0.00     0.012 C 
ENDBRANCH   3   5
ENDBRANCH   1   3
BRANCH   1   7
ATOM      7  C   UNL     1     -13.166 -16.199  27.629  1.00  0.00     0.038 C 
BRANCH   7   8
ATOM      8  C   UNL     1     -12.001 -17.092  27.292  1.00  0.00    -0.034 C 
ATOM      9  C   UNL     1     -11.372 -17.015  26.117  1.00  0.00     0.004 C 
ENDBRANCH   7   8
ENDBRANCH   1   7
TORSDOF 4
ENDMDL
MODEL 3
REMARK VINA RESULT:    -4.554      1.322      4.022
REMARK INTER + INTRA:          -5.838
REMARK INTER:                  -5.622
REMARK INTRA:                  -0.217
REMARK UNBOUND:                -0.220
REMARK SMILES C=CC[C@@H](C)C(=O)CC
REMARK SMILES IDX 4 1 5 2 6 3 7 4 8 5 9 6 3 7 2 8 1 9
REMARK H PARENT
REMARK Flexibility Score: inf
ROOT
ATOM      1  C   UNL     1     -12.628 -15.864  29.239  1.00  0.00     0.057 C 
ATOM      2  C   UNL     1     -11.186 -15.359  29.361  1.00  0.00     0.016 C 
ENDROOT
BRANCH   1   3
ATOM      3  C   UNL     1     -13.613 -14.752  29.545  1.00  0.00     0.135 C 
ATOM      4  O   UNL     1     -14.022 -14.620  30.689  1.00  0.00    -0.299 OA
BRANCH   3   5
ATOM      5  C   UNL     1     -14.125 -13.818  28.475  1.00  0.00     0.072 C 
ATOM      6  C   UNL     1     -15.125 -12.822  29.054  1.00  0.00     0.012 C 
ENDBRANCH   3   5
ENDBRANCH   1   3
BRANCH   1   7
ATOM      7  C   UNL     1     -12.876 -16.492  27.853  1.00  0.00     0.038 C 
BRANCH   7   8
ATOM      8  C   UNL     1     -11.610 -17.060  27.271  1.00  0.00    -0.034 C 
ATOM      9  C   UNL     1     -11.353 -17.010  25.961  1.00  0.00     0.004 C 
ENDBRANCH   7   8
ENDBRANCH   1   7
TORSDOF 4
ENDMDL
MODEL 4
REMARK VINA RESULT:    -4.475      1.949      2.440
REMARK INTER + INTRA:          -5.742
REMARK INTER:                  -5.568
REMARK INTRA:                  -0.174
REMARK UNBOUND:                -0.220
REMARK SMILES C=CC[C@@H](C)C(=O)CC
REMARK SMILES IDX 4 1 5 2 6 3 7 4 8 5 9 6 3 7 2 8 1 9
REMARK H PARENT
REMARK Flexibility Score: inf
ROOT
ATOM      1  C   UNL     1     -13.171 -15.635  29.297  1.00  0.00     0.057 C 
ATOM      2  C   UNL     1     -13.526 -14.278  28.679  1.00  0.00     0.016 C 
ENDROOT
BRANCH   1   3
ATOM      3  C   UNL     1     -11.863 -16.155  28.733  1.00  0.00     0.135 C 
ATOM      4  O   UNL     1     -10.828 -15.556  28.986  1.00  0.00    -0.299 OA
BRANCH   3   5
ATOM      5  C   UNL     1     -11.801 -17.376  27.846  1.00  0.00     0.072 C 
ATOM      6  C   UNL     1     -11.516 -16.984  26.400  1.00  0.00     0.012 C 
ENDBRANCH   3   5
ENDBRANCH   1   3
BRANCH   1   7
ATOM      7  C   UNL     1     -13.144 -15.549  30.836  1.00  0.00     0.038 C 
BRANCH   7   8
ATOM      8  C   UNL     1     -14.266 -14.692  31.360  1.00  0.00    -0.034 C 
ATOM      9  C   UNL     1     -14.592 -14.674  32.655  1.00  0.00     0.004 C 
ENDBRANCH   7   8
ENDBRANCH   1   7
TORSDOF 4
ENDMDL
MODEL 5
REMARK VINA RESULT:    -4.385      1.952      3.952
REMARK INTER + INTRA:          -5.631
REMARK INTER:                  -5.319
REMARK INTRA:                  -0.312
REMARK UNBOUND:                -0.220
REMARK SMILES C=CC[C@@H](C)C(=O)CC
REMARK SMILES IDX 4 1 5 2 6 3 7 4 8 5 9 6 3 7 2 8 1 9
REMARK H PARENT
REMARK Flexibility Score: inf
ROOT
ATOM      1  C   UNL     1     -12.581 -15.270  28.750  1.00  0.00     0.057 C 
ATOM      2  C   UNL     1     -13.660 -14.186  28.856  1.00  0.00     0.016 C 
ENDROOT
BRANCH   1   3
ATOM      3  C   UNL     1     -12.394 -15.971  30.081  1.00  0.00     0.135 C 
ATOM      4  O   UNL     1     -11.439 -15.668  30.782  1.00  0.00    -0.299 OA
BRANCH   3   5
ATOM      5  C   UNL     1     -13.334 -17.051  30.558  1.00  0.00     0.072 C 
ATOM      6  C   UNL     1     -12.606 -18.384  30.700  1.00  0.00     0.012 C 
ENDBRANCH   3   5
ENDBRANCH   1   3
BRANCH   1   7
ATOM      7  C   UNL     1     -12.906 -16.261  27.615  1.00  0.00     0.038 C 
BRANCH   7   8
ATOM      8  C   UNL     1     -11.694 -17.058  27.215  1.00  0.00    -0.034 C 
ATOM      9  C   UNL     1     -11.269 -17.107  25.949  1.00  0.00     0.004 C 
ENDBRANCH   7   8
ENDBRANCH   1   7
TORSDOF 4
ENDMDL
MODEL 6
REMARK VINA RESULT:    -4.369      1.338      2.423
REMARK INTER + INTRA:          -5.611
REMARK INTER:                  -5.398
REMARK INTRA:                  -0.213
REMARK UNBOUND:                -0.220
REMARK SMILES C=CC[C@@H](C)C(=O)CC
REMARK SMILES IDX 4 1 5 2 6 3 7 4 8 5 9 6 3 7 2 8 1 9
REMARK H PARENT
REMARK Flexibility Score: inf
ROOT
ATOM      1  C   UNL     1     -13.208 -15.902  28.101  1.00  0.00     0.057 C 
ATOM      2  C   UNL     1     -13.904 -15.846  26.735  1.00  0.00     0.016 C 
ENDROOT
BRANCH   1   3
ATOM      3  C   UNL     1     -11.785 -16.404  27.956  1.00  0.00     0.135 C 
ATOM      4  O   UNL     1     -11.451 -16.951  26.916  1.00  0.00    -0.299 OA
BRANCH   3   5
ATOM      5  C   UNL     1     -10.772 -16.274  29.069  1.00  0.00     0.072 C 
ATOM      6  C   UNL     1     -10.928 -17.404  30.082  1.00  0.00     0.012 C 
ENDBRANCH   3   5
ENDBRANCH   1   3
BRANCH   1   7
ATOM      7  C   UNL     1     -13.270 -14.533  28.806  1.00  0.00     0.038 C 
BRANCH   7   8
ATOM      8  C   UNL     1     -14.423 -13.705  28.303  1.00  0.00    -0.034 C 
ATOM      9  C   UNL     1     -15.129 -12.913  29.115  1.00  0.00     0.004 C 
ENDBRANCH   7   8
ENDBRANCH   1   7
TORSDOF 4
ENDMDL
MODEL 7
REMARK VINA RESULT:    -4.339      2.269      4.232
REMARK INTER + INTRA:          -5.574
REMARK INTER:                  -5.221
REMARK INTRA:                  -0.353
REMARK UNBOUND:                -0.220
REMARK SMILES C=CC[C@@H](C)C(=O)CC
REMARK SMILES IDX 4 1 5 2 6 3 7 4 8 5 9 6 3 7 2 8 1 9
REMARK H PARENT
REMARK Flexibility Score: inf
ROOT
ATOM      1  C   UNL     1     -11.709 -17.323  28.108  1.00  0.00     0.057 C 
ATOM      2  C   UNL     1     -11.689 -17.001  26.609  1.00  0.00     0.016 C 
ENDROOT
BRANCH   1   3
ATOM      3  C   UNL     1     -11.617 -16.053  28.930  1.00  0.00     0.135 C 
ATOM      4  O   UNL     1     -10.531 -15.506  29.057  1.00  0.00    -0.299 OA
BRANCH   3   5
ATOM      5  C   UNL     1     -12.820 -15.454  29.618  1.00  0.00     0.072 C 
ATOM      6  C   UNL     1     -13.489 -14.407  28.733  1.00  0.00     0.012 C 
ENDBRANCH   3   5
ENDBRANCH   1   3
BRANCH   1   7
ATOM      7  C   UNL     1     -12.950 -18.161  28.474  1.00  0.00     0.038 C 
BRANCH   7   8
ATOM      8  C   UNL     1     -12.619 -19.223  29.488  1.00  0.00    -0.034 C 
ATOM      9  C   UNL     1     -13.247 -19.293  30.665  1.00  0.00     0.004 C 
ENDBRANCH   7   8
ENDBRANCH   1   7
TORSDOF 4
ENDMDL
MODEL 8
REMARK VINA RESULT:    -4.332      1.884      2.915
REMARK INTER + INTRA:          -5.564
REMARK INTER:                  -5.280
REMARK INTRA:                  -0.285
REMARK UNBOUND:                -0.220
REMARK SMILES C=CC[C@@H](C)C(=O)CC
REMARK SMILES IDX 4 1 5 2 6 3 7 4 8 5 9 6 3 7 2 8 1 9
REMARK H PARENT
REMARK Flexibility Score: inf
ROOT
ATOM      1  C   UNL     1     -12.757 -16.735  27.968  1.00  0.00     0.057 C 
ATOM      2  C   UNL     1     -11.822 -17.016  26.786  1.00  0.00     0.016 C 
ENDROOT
BRANCH   1   3
ATOM      3  C   UNL     1     -13.099 -18.020  28.697  1.00  0.00     0.135 C 
ATOM      4  O   UNL     1     -14.080 -18.659  28.345  1.00  0.00    -0.299 OA
BRANCH   3   5
ATOM      5  C   UNL     1     -12.281 -18.523  29.863  1.00  0.00     0.072 C 
ATOM      6  C   UNL     1     -13.176 -19.160  30.921  1.00  0.00     0.012 C 
ENDBRANCH   3   5
ENDBRANCH   1   3
BRANCH   1   7
ATOM      7  C   UNL     1     -12.150 -15.678  28.912  1.00  0.00     0.038 C 
BRANCH   7   8
ATOM      8  C   UNL     1     -13.201 -14.735  29.433  1.00  0.00    -0.034 C 
ATOM      9  C   UNL     1     -13.940 -13.982  28.613  1.00  0.00     0.004 C 
ENDBRANCH   7   8
ENDBRANCH   1   7
TORSDOF 4
ENDMDL
MODEL 9
REMARK VINA RESULT:    -4.318      0.975      3.095
REMARK INTER + INTRA:          -5.548
REMARK INTER:                  -5.169
REMARK INTRA:                  -0.379
REMARK UNBOUND:                -0.220
REMARK SMILES C=CC[C@@H](C)C(=O)CC
REMARK SMILES IDX 4 1 5 2 6 3 7 4 8 5 9 6 3 7 2 8 1 9
REMARK H PARENT
REMARK Flexibility Score: inf
ROOT
ATOM      1  C   UNL     1     -12.837 -15.612  29.096  1.00  0.00     0.057 C 
ATOM      2  C   UNL     1     -13.608 -14.370  28.634  1.00  0.00     0.016 C 
ENDROOT
BRANCH   1   3
ATOM      3  C   UNL     1     -12.997 -16.743  28.099  1.00  0.00     0.135 C 
ATOM      4  O   UNL     1     -13.275 -17.860  28.509  1.00  0.00    -0.299 OA
BRANCH   3   5
ATOM      5  C   UNL     1     -12.799 -16.539  26.616  1.00  0.00     0.072 C 
ATOM      6  C   UNL     1     -11.420 -17.024  26.179  1.00  0.00     0.012 C 
ENDBRANCH   3   5
ENDBRANCH   1   3
BRANCH   1   7
ATOM      7  C   UNL     1     -11.355 -15.275  29.355  1.00  0.00     0.038 C 
BRANCH   7   8
ATOM      8  C   UNL     1     -10.765 -16.163  30.418  1.00  0.00    -0.034 C 
ATOM      9  C   UNL     1      -9.957 -17.183  30.115  1.00  0.00     0.004 C 
ENDBRANCH   7   8
ENDBRANCH   1   7
TORSDOF 4
ENDMDL
