MODEL 1
REMARK VINA RESULT:    -5.612      0.000      0.000
REMARK INTER + INTRA:          -5.612
REMARK INTER:                  -5.612
REMARK INTRA:                   0.000
REMARK UNBOUND:                 0.000
REMARK SMILES CC1=CC(=O)[C@@H]2C[C@H]1C2(C)C
REMARK SMILES IDX 1 1 2 2 3 3 4 4 5 5 6 6 7 7 8 8 9 9 10 10 11 11
REMARK H PARENT
REMARK Flexibility Score: inf
ROOT
ATOM      1  C   UNL     1      -8.612  33.556  25.220  1.00  0.00     0.040 C 
ATOM      2  C   UNL     1      -8.551  33.113  23.792  1.00  0.00    -0.066 C 
ATOM      3  C   UNL     1      -7.872  33.816  22.841  1.00  0.00     0.047 C 
ATOM      4  C   UNL     1      -7.898  33.248  21.453  1.00  0.00     0.159 C 
ATOM      5  O   UNL     1      -7.275  33.781  20.499  1.00  0.00    -0.295 OA
ATOM      6  C   UNL     1      -8.735  31.980  21.281  1.00  0.00     0.067 C 
ATOM      7  C   UNL     1     -10.049  32.290  22.032  1.00  0.00     0.021 C 
ATOM      8  C   UNL     1      -9.311  31.858  23.320  1.00  0.00     0.022 C 
ATOM      9  C   UNL     1      -8.377  30.991  22.427  1.00  0.00    -0.019 C 
ATOM     10  C   UNL     1      -6.885  30.852  22.843  1.00  0.00     0.012 C 
ATOM     11  C   UNL     1      -8.946  29.571  22.179  1.00  0.00     0.012 C 
ENDROOT
TORSDOF 0
ENDMDL
MODEL 2
REMARK VINA RESULT:    -5.565      1.561      2.131
REMARK INTER + INTRA:          -5.565
REMARK INTER:                  -5.565
REMARK INTRA:                   0.000
REMARK UNBOUND:                 0.000
REMARK SMILES CC1=CC(=O)[C@@H]2C[C@H]1C2(C)C
REMARK SMILES IDX 1 1 2 2 3 3 4 4 5 5 6 6 7 7 8 8 9 9 10 10 11 11
REMARK H PARENT
REMARK Flexibility Score: inf
ROOT
ATOM      1  C   UNL     1      -7.124  34.850  23.491  1.00  0.00     0.040 C 
ATOM      2  C   UNL     1      -7.969  33.636  23.264  1.00  0.00    -0.066 C 
ATOM      3  C   UNL     1      -8.452  33.305  22.033  1.00  0.00     0.047 C 
ATOM      4  C   UNL     1      -9.283  32.059  21.960  1.00  0.00     0.159 C 
ATOM      5  O   UNL     1      -9.750  31.625  20.875  1.00  0.00    -0.295 OA
ATOM      6  C   UNL     1      -9.523  31.354  23.296  1.00  0.00     0.067 C 
ATOM      7  C   UNL     1      -9.899  32.498  24.264  1.00  0.00     0.021 C 
ATOM      8  C   UNL     1      -8.381  32.728  24.441  1.00  0.00     0.022 C 
ATOM      9  C   UNL     1      -8.166  31.239  24.046  1.00  0.00    -0.019 C 
ATOM     10  C   UNL     1      -6.897  30.872  23.225  1.00  0.00     0.012 C 
ATOM     11  C   UNL     1      -8.246  30.287  25.267  1.00  0.00     0.012 C 
ENDROOT
TORSDOF 0
ENDMDL
MODEL 3
REMARK VINA RESULT:    -5.486      1.791      3.628
REMARK INTER + INTRA:          -5.486
REMARK INTER:                  -5.486
REMARK INTRA:                   0.000
REMARK UNBOUND:                 0.000
REMARK SMILES CC1=CC(=O)[C@@H]2C[C@H]1C2(C)C
REMARK SMILES IDX 1 1 2 2 3 3 4 4 5 5 6 6 7 7 8 8 9 9 10 10 11 11
REMARK H PARENT
REMARK Flexibility Score: inf
ROOT
ATOM      1  C   UNL     1      -8.250  28.272  22.123  1.00  0.00     0.040 C 
ATOM      2  C   UNL     1      -8.401  29.666  22.644  1.00  0.00    -0.066 C 
ATOM      3  C   UNL     1      -9.137  30.610  21.994  1.00  0.00     0.047 C 
ATOM      4  C   UNL     1      -9.199  31.963  22.638  1.00  0.00     0.159 C 
ATOM      5  O   UNL     1      -9.881  32.905  22.158  1.00  0.00    -0.295 OA
ATOM      6  C   UNL     1      -8.375  32.115  23.918  1.00  0.00     0.067 C 
ATOM      7  C   UNL     1      -7.017  31.467  23.572  1.00  0.00     0.021 C 
ATOM      8  C   UNL     1      -7.672  30.113  23.928  1.00  0.00     0.022 C 
ATOM      9  C   UNL     1      -8.661  30.896  24.839  1.00  0.00    -0.019 C 
ATOM     10  C   UNL     1     -10.124  30.380  24.949  1.00  0.00     0.012 C 
ATOM     11  C   UNL     1      -8.109  31.098  26.273  1.00  0.00     0.012 C 
ENDROOT
TORSDOF 0
ENDMDL
MODEL 4
REMARK VINA RESULT:    -5.475     17.081     18.725
REMARK INTER + INTRA:          -5.475
REMARK INTER:                  -5.475
REMARK INTRA:                   0.000
REMARK UNBOUND:                 0.000
REMARK SMILES CC1=CC(=O)[C@@H]2C[C@H]1C2(C)C
REMARK SMILES IDX 1 1 2 2 3 3 4 4 5 5 6 6 7 7 8 8 9 9 10 10 11 11
REMARK H PARENT
REMARK Flexibility Score: inf
ROOT
ATOM      1  C   UNL     1       2.368  43.258  20.748  1.00  0.00     0.040 C 
ATOM      2  C   UNL     1       3.554  44.157  20.596  1.00  0.00    -0.066 C 
ATOM      3  C   UNL     1       4.209  44.301  19.409  1.00  0.00     0.047 C 
ATOM      4  C   UNL     1       5.379  45.239  19.408  1.00  0.00     0.159 C 
ATOM      5  O   UNL     1       6.039  45.489  18.366  1.00  0.00    -0.295 OA
ATOM      6  C   UNL     1       5.714  45.868  20.762  1.00  0.00     0.067 C 
ATOM      7  C   UNL     1       5.651  44.685  21.754  1.00  0.00     0.021 C 
ATOM      8  C   UNL     1       4.125  44.924  21.805  1.00  0.00     0.022 C 
ATOM      9  C   UNL     1       4.400  46.401  21.399  1.00  0.00    -0.019 C 
ATOM     10  C   UNL     1       3.368  47.114  20.479  1.00  0.00     0.012 C 
ATOM     11  C   UNL     1       4.665  47.311  22.625  1.00  0.00     0.012 C 
ENDROOT
TORSDOF 0
ENDMDL
MODEL 5
REMARK VINA RESULT:    -5.468     17.086     18.688
REMARK INTER + INTRA:          -5.468
REMARK INTER:                  -5.468
REMARK INTRA:                   0.000
REMARK UNBOUND:                 0.000
REMARK SMILES CC1=CC(=O)[C@@H]2C[C@H]1C2(C)C
REMARK SMILES IDX 1 1 2 2 3 3 4 4 5 5 6 6 7 7 8 8 9 9 10 10 11 11
REMARK H PARENT
REMARK Flexibility Score: inf
ROOT
ATOM      1  C   UNL     1       2.930  48.069  19.757  1.00  0.00     0.040 C 
ATOM      2  C   UNL     1       3.402  46.742  20.263  1.00  0.00    -0.066 C 
ATOM      3  C   UNL     1       2.673  45.602  20.102  1.00  0.00     0.047 C 
ATOM      4  C   UNL     1       3.276  44.346  20.659  1.00  0.00     0.159 C 
ATOM      5  O   UNL     1       2.721  43.223  20.537  1.00  0.00    -0.295 OA
ATOM      6  C   UNL     1       4.608  44.528  21.387  1.00  0.00     0.067 C 
ATOM      7  C   UNL     1       4.381  45.763  22.288  1.00  0.00     0.021 C 
ATOM      8  C   UNL     1       4.723  46.620  21.048  1.00  0.00     0.022 C 
ATOM      9  C   UNL     1       5.538  45.410  20.506  1.00  0.00    -0.019 C 
ATOM     10  C   UNL     1       5.552  45.163  18.971  1.00  0.00     0.012 C 
ATOM     11  C   UNL     1       7.003  45.410  21.011  1.00  0.00     0.012 C 
ENDROOT
TORSDOF 0
ENDMDL
MODEL 6
REMARK VINA RESULT:    -5.458      2.156      3.364
REMARK INTER + INTRA:          -5.458
REMARK INTER:                  -5.458
REMARK INTRA:                   0.000
REMARK UNBOUND:                 0.000
REMARK SMILES CC1=CC(=O)[C@@H]2C[C@H]1C2(C)C
REMARK SMILES IDX 1 1 2 2 3 3 4 4 5 5 6 6 7 7 8 8 9 9 10 10 11 11
REMARK H PARENT
REMARK Flexibility Score: inf
ROOT
ATOM      1  C   UNL     1      -9.404  32.062  25.821  1.00  0.00     0.040 C 
ATOM      2  C   UNL     1      -8.874  31.365  24.608  1.00  0.00    -0.066 C 
ATOM      3  C   UNL     1      -9.213  30.082  24.300  1.00  0.00     0.047 C 
ATOM      4  C   UNL     1      -8.605  29.517  23.050  1.00  0.00     0.159 C 
ATOM      5  O   UNL     1      -8.874  28.359  22.637  1.00  0.00    -0.295 OA
ATOM      6  C   UNL     1      -7.637  30.446  22.317  1.00  0.00     0.067 C 
ATOM      7  C   UNL     1      -6.744  31.023  23.439  1.00  0.00     0.021 C 
ATOM      8  C   UNL     1      -7.864  32.062  23.674  1.00  0.00     0.022 C 
ATOM      9  C   UNL     1      -8.294  31.850  22.194  1.00  0.00    -0.019 C 
ATOM     10  C   UNL     1      -9.809  31.928  21.851  1.00  0.00     0.012 C 
ATOM     11  C   UNL     1      -7.528  32.777  21.217  1.00  0.00     0.012 C 
ENDROOT
TORSDOF 0
ENDMDL
MODEL 7
REMARK VINA RESULT:    -5.331     16.806     18.246
REMARK INTER + INTRA:          -5.331
REMARK INTER:                  -5.331
REMARK INTRA:                   0.000
REMARK UNBOUND:                 0.000
REMARK SMILES CC1=CC(=O)[C@@H]2C[C@H]1C2(C)C
REMARK SMILES IDX 1 1 2 2 3 3 4 4 5 5 6 6 7 7 8 8 9 9 10 10 11 11
REMARK H PARENT
REMARK Flexibility Score: inf
ROOT
ATOM      1  C   UNL     1       4.428  47.261  22.865  1.00  0.00     0.040 C 
ATOM      2  C   UNL     1       4.458  46.371  21.662  1.00  0.00    -0.066 C 
ATOM      3  C   UNL     1       5.623  45.911  21.127  1.00  0.00     0.047 C 
ATOM      4  C   UNL     1       5.496  45.027  19.922  1.00  0.00     0.159 C 
ATOM      5  O   UNL     1       6.495  44.504  19.363  1.00  0.00    -0.295 OA
ATOM      6  C   UNL     1       4.068  44.807  19.421  1.00  0.00     0.067 C 
ATOM      7  C   UNL     1       3.441  46.218  19.434  1.00  0.00     0.021 C 
ATOM      8  C   UNL     1       3.155  45.981  20.935  1.00  0.00     0.022 C 
ATOM      9  C   UNL     1       3.165  44.454  20.637  1.00  0.00    -0.019 C 
ATOM     10  C   UNL     1       3.731  43.498  21.725  1.00  0.00     0.012 C 
ATOM     11  C   UNL     1       1.773  43.927  20.206  1.00  0.00     0.012 C 
ENDROOT
TORSDOF 0
ENDMDL
MODEL 8
REMARK VINA RESULT:    -5.280      2.145      3.530
REMARK INTER + INTRA:          -5.280
REMARK INTER:                  -5.280
REMARK INTRA:                   0.000
REMARK UNBOUND:                 0.000
REMARK SMILES CC1=CC(=O)[C@@H]2C[C@H]1C2(C)C
REMARK SMILES IDX 1 1 2 2 3 3 4 4 5 5 6 6 7 7 8 8 9 9 10 10 11 11
REMARK H PARENT
REMARK Flexibility Score: inf
ROOT
ATOM      1  C   UNL     1      -6.757  29.776  22.752  1.00  0.00     0.040 C 
ATOM      2  C   UNL     1      -7.782  30.821  23.062  1.00  0.00    -0.066 C 
ATOM      3  C   UNL     1      -8.467  30.842  24.240  1.00  0.00     0.047 C 
ATOM      4  C   UNL     1      -9.462  31.951  24.410  1.00  0.00     0.159 C 
ATOM      5  O   UNL     1     -10.125  32.102  25.468  1.00  0.00    -0.295 OA
ATOM      6  C   UNL     1      -9.614  32.882  23.206  1.00  0.00     0.067 C 
ATOM      7  C   UNL     1      -9.697  31.925  21.996  1.00  0.00     0.021 C 
ATOM      8  C   UNL     1      -8.151  31.899  22.023  1.00  0.00     0.022 C 
ATOM      9  C   UNL     1      -8.196  33.292  22.715  1.00  0.00    -0.019 C 
ATOM     10  C   UNL     1      -7.111  33.619  23.780  1.00  0.00     0.012 C 
ATOM     11  C   UNL     1      -8.240  34.457  21.694  1.00  0.00     0.012 C 
ENDROOT
TORSDOF 0
ENDMDL
MODEL 9
REMARK VINA RESULT:    -5.181     16.819     18.389
REMARK INTER + INTRA:          -5.181
REMARK INTER:                  -5.181
REMARK INTRA:                   0.000
REMARK UNBOUND:                 0.000
REMARK SMILES CC1=CC(=O)[C@@H]2C[C@H]1C2(C)C
REMARK SMILES IDX 1 1 2 2 3 3 4 4 5 5 6 6 7 7 8 8 9 9 10 10 11 11
REMARK H PARENT
REMARK Flexibility Score: inf
ROOT
ATOM      1  C   UNL     1       2.615  42.881  21.607  1.00  0.00     0.040 C 
ATOM      2  C   UNL     1       3.335  44.000  20.923  1.00  0.00    -0.066 C 
ATOM      3  C   UNL     1       2.674  45.007  20.285  1.00  0.00     0.047 C 
ATOM      4  C   UNL     1       3.528  46.062  19.647  1.00  0.00     0.159 C 
ATOM      5  O   UNL     1       3.037  47.064  19.066  1.00  0.00    -0.295 OA
ATOM      6  C   UNL     1       5.037  45.831  19.751  1.00  0.00     0.067 C 
ATOM      7  C   UNL     1       5.217  44.341  19.387  1.00  0.00     0.021 C 
ATOM      8  C   UNL     1       4.875  44.030  20.862  1.00  0.00     0.022 C 
ATOM      9  C   UNL     1       5.381  45.457  21.221  1.00  0.00    -0.019 C 
ATOM     10  C   UNL     1       4.661  46.225  22.366  1.00  0.00     0.012 C 
ATOM     11  C   UNL     1       6.905  45.492  21.496  1.00  0.00     0.012 C 
ENDROOT
TORSDOF 0
ENDMDL
