MODEL 1
REMARK VINA RESULT:    -6.227      0.000      0.000
REMARK INTER + INTRA:          -8.780
REMARK INTER:                  -7.683
REMARK INTRA:                  -1.097
REMARK UNBOUND:                -1.097
REMARK SMILES CC(C)=CCC[C@H](C)c1ccc(C)cc1
REMARK SMILES IDX 6 1 7 2 8 3 9 4 13 5 12 6 11 7 14 8 10 9 15 10 5 11 4 12
REMARK SMILES IDX 2 13 1 14 3 15
REMARK H PARENT
REMARK Flexibility Score: inf
ROOT
ATOM      1  C   UNL     1       1.272   5.609  20.218  1.00  0.00     0.012 C 
ENDROOT
BRANCH   1   2
ATOM      2  C   UNL     1       1.884   7.029  20.316  1.00  0.00     0.016 C 
ATOM      3  C   UNL     1       2.485   7.502  18.984  1.00  0.00     0.013 C 
BRANCH   2   4
ATOM      4  C   UNL     1       2.930   7.073  21.415  1.00  0.00    -0.045 A 
ATOM      5  C   UNL     1       5.909   7.232  24.541  1.00  0.00     0.044 C 
ATOM      6  C   UNL     1       4.852   7.179  23.477  1.00  0.00    -0.051 A 
ATOM      7  C   UNL     1       4.329   5.946  23.061  1.00  0.00     0.004 A 
ATOM      8  C   UNL     1       4.427   8.355  22.844  1.00  0.00     0.004 A 
ATOM      9  C   UNL     1       3.371   5.893  22.045  1.00  0.00     0.004 A 
ATOM     10  C   UNL     1       3.470   8.305  21.827  1.00  0.00     0.004 A 
ENDBRANCH   2   4
ENDBRANCH   1   2
BRANCH   1  11
ATOM     11  C   UNL     1       1.630   4.855  18.925  1.00  0.00     0.028 C 
BRANCH  11  12
ATOM     12  C   UNL     1       2.501   3.649  19.184  1.00  0.00    -0.028 C 
ATOM     13  C   UNL     1       3.801   3.548  18.826  1.00  0.00    -0.080 C 
ATOM     14  C   UNL     1       4.509   4.639  18.057  1.00  0.00     0.039 C 
ATOM     15  C   UNL     1       4.549   2.292  19.190  1.00  0.00     0.039 C 
ENDBRANCH  11  12
ENDBRANCH   1  11
TORSDOF 4
ENDMDL
MODEL 2
REMARK VINA RESULT:    -6.090      1.848      3.192
REMARK INTER + INTRA:          -8.611
REMARK INTER:                  -7.665
REMARK INTRA:                  -0.947
REMARK UNBOUND:                -1.097
REMARK SMILES CC(C)=CCC[C@H](C)c1ccc(C)cc1
REMARK SMILES IDX 6 1 7 2 8 3 9 4 13 5 12 6 11 7 14 8 10 9 15 10 5 11 4 12
REMARK SMILES IDX 2 13 1 14 3 15
REMARK H PARENT
REMARK Flexibility Score: inf
ROOT
ATOM      1  C   UNL     1       2.512   7.944  19.325  1.00  0.00     0.012 C 
ENDROOT
BRANCH   1   2
ATOM      2  C   UNL     1       2.797   6.633  20.099  1.00  0.00     0.016 C 
ATOM      3  C   UNL     1       1.524   5.809  20.344  1.00  0.00     0.013 C 
BRANCH   2   4
ATOM      4  C   UNL     1       3.491   6.942  21.413  1.00  0.00    -0.045 A 
ATOM      5  C   UNL     1       5.468   7.786  25.161  1.00  0.00     0.044 C 
ATOM      6  C   UNL     1       4.809   7.492  23.845  1.00  0.00    -0.051 A 
ATOM      7  C   UNL     1       4.421   8.540  22.999  1.00  0.00     0.004 A 
ATOM      8  C   UNL     1       4.516   6.169  23.482  1.00  0.00     0.004 A 
ATOM      9  C   UNL     1       3.774   8.268  21.790  1.00  0.00     0.004 A 
ATOM     10  C   UNL     1       3.870   5.896  22.274  1.00  0.00     0.004 A 
ENDBRANCH   2   4
ENDBRANCH   1   2
BRANCH   1  11
ATOM     11  C   UNL     1       3.333   8.106  18.033  1.00  0.00     0.028 C 
BRANCH  11  12
ATOM     12  C   UNL     1       4.773   8.467  18.307  1.00  0.00    -0.028 C 
ATOM     13  C   UNL     1       5.834   7.692  17.990  1.00  0.00    -0.080 C 
ATOM     14  C   UNL     1       5.671   6.325  17.367  1.00  0.00     0.039 C 
ATOM     15  C   UNL     1       7.216   8.208  18.295  1.00  0.00     0.039 C 
ENDBRANCH  11  12
ENDBRANCH   1  11
TORSDOF 4
ENDMDL
MODEL 3
REMARK VINA RESULT:    -6.035      1.773      2.838
REMARK INTER + INTRA:          -8.544
REMARK INTER:                  -7.649
REMARK INTRA:                  -0.894
REMARK UNBOUND:                -1.097
REMARK SMILES CC(C)=CCC[C@H](C)c1ccc(C)cc1
REMARK SMILES IDX 6 1 7 2 8 3 9 4 13 5 12 6 11 7 14 8 10 9 15 10 5 11 4 12
REMARK SMILES IDX 2 13 1 14 3 15
REMARK H PARENT
REMARK Flexibility Score: inf
ROOT
ATOM      1  C   UNL     1       2.305   7.603  19.225  1.00  0.00     0.012 C 
ENDROOT
BRANCH   1   2
ATOM      2  C   UNL     1       2.605   6.319  20.037  1.00  0.00     0.016 C 
ATOM      3  C   UNL     1       1.338   5.505  20.337  1.00  0.00     0.013 C 
BRANCH   2   4
ATOM      4  C   UNL     1       3.327   6.670  21.325  1.00  0.00    -0.045 A 
ATOM      5  C   UNL     1       5.377   7.704  24.985  1.00  0.00     0.044 C 
ATOM      6  C   UNL     1       4.638   7.345  23.730  1.00  0.00    -0.051 A 
ATOM      7  C   UNL     1       4.453   6.000  23.379  1.00  0.00     0.004 A 
ATOM      8  C   UNL     1       4.185   8.350  22.864  1.00  0.00     0.004 A 
ATOM      9  C   UNL     1       3.797   5.665  22.191  1.00  0.00     0.004 A 
ATOM     10  C   UNL     1       3.528   8.017  21.676  1.00  0.00     0.004 A 
ENDBRANCH   2   4
ENDBRANCH   1   2
BRANCH   1  11
ATOM     11  C   UNL     1       3.156   7.761  17.953  1.00  0.00     0.028 C 
BRANCH  11  12
ATOM     12  C   UNL     1       4.557   8.238  18.253  1.00  0.00    -0.028 C 
ATOM     13  C   UNL     1       5.685   7.575  17.914  1.00  0.00    -0.080 C 
ATOM     14  C   UNL     1       5.649   6.225  17.235  1.00  0.00     0.039 C 
ATOM     15  C   UNL     1       7.014   8.201  18.251  1.00  0.00     0.039 C 
ENDBRANCH  11  12
ENDBRANCH   1  11
TORSDOF 4
ENDMDL
MODEL 4
REMARK VINA RESULT:    -6.008      0.777      1.945
REMARK INTER + INTRA:          -8.510
REMARK INTER:                  -7.448
REMARK INTRA:                  -1.062
REMARK UNBOUND:                -1.097
REMARK SMILES CC(C)=CCC[C@H](C)c1ccc(C)cc1
REMARK SMILES IDX 6 1 7 2 8 3 9 4 13 5 12 6 11 7 14 8 10 9 15 10 5 11 4 12
REMARK SMILES IDX 2 13 1 14 3 15
REMARK H PARENT
REMARK Flexibility Score: inf
ROOT
ATOM      1  C   UNL     1       3.606   7.183  18.676  1.00  0.00     0.012 C 
ENDROOT
BRANCH   1   2
ATOM      2  C   UNL     1       2.646   7.040  19.883  1.00  0.00     0.016 C 
ATOM      3  C   UNL     1       1.528   8.093  19.871  1.00  0.00     0.013 C 
BRANCH   2   4
ATOM      4  C   UNL     1       3.426   7.108  21.183  1.00  0.00    -0.045 A 
ATOM      5  C   UNL     1       5.644   7.268  24.887  1.00  0.00     0.044 C 
ATOM      6  C   UNL     1       4.901   7.211  23.585  1.00  0.00    -0.051 A 
ATOM      7  C   UNL     1       4.572   8.393  22.907  1.00  0.00     0.004 A 
ATOM      8  C   UNL     1       4.471   5.979  23.070  1.00  0.00     0.004 A 
ATOM      9  C   UNL     1       3.847   8.342  21.713  1.00  0.00     0.004 A 
ATOM     10  C   UNL     1       3.747   5.927  21.876  1.00  0.00     0.004 A 
ENDBRANCH   2   4
ENDBRANCH   1   2
BRANCH   1  11
ATOM     11  C   UNL     1       3.556   6.008  17.684  1.00  0.00     0.028 C 
BRANCH  11  12
ATOM     12  C   UNL     1       4.274   4.786  18.203  1.00  0.00    -0.028 C 
ATOM     13  C   UNL     1       3.663   3.687  18.700  1.00  0.00    -0.080 C 
ATOM     14  C   UNL     1       2.162   3.600  18.843  1.00  0.00     0.039 C 
ATOM     15  C   UNL     1       4.520   2.530  19.145  1.00  0.00     0.039 C 
ENDBRANCH  11  12
ENDBRANCH   1  11
TORSDOF 4
ENDMDL
MODEL 5
REMARK VINA RESULT:    -5.878     15.105     16.324
REMARK INTER + INTRA:          -8.350
REMARK INTER:                  -7.692
REMARK INTRA:                  -0.657
REMARK UNBOUND:                -1.097
REMARK SMILES CC(C)=CCC[C@H](C)c1ccc(C)cc1
REMARK SMILES IDX 6 1 7 2 8 3 9 4 13 5 12 6 11 7 14 8 10 9 15 10 5 11 4 12
REMARK SMILES IDX 2 13 1 14 3 15
REMARK H PARENT
REMARK Flexibility Score: inf
ROOT
ATOM      1  C   UNL     1      13.605  -1.306  31.186  1.00  0.00     0.012 C 
ENDROOT
BRANCH   1   2
ATOM      2  C   UNL     1      14.724  -0.561  30.417  1.00  0.00     0.016 C 
ATOM      3  C   UNL     1      14.319   0.870  30.033  1.00  0.00     0.013 C 
BRANCH   2   4
ATOM      4  C   UNL     1      15.126  -1.348  29.183  1.00  0.00    -0.045 A 
ATOM      5  C   UNL     1      16.269  -3.561  25.653  1.00  0.00     0.044 C 
ATOM      6  C   UNL     1      15.902  -2.790  26.887  1.00  0.00    -0.051 A 
ATOM      7  C   UNL     1      15.660  -3.461  28.094  1.00  0.00     0.004 A 
ATOM      8  C   UNL     1      15.733  -1.399  26.826  1.00  0.00     0.004 A 
ATOM      9  C   UNL     1      15.283  -2.746  29.234  1.00  0.00     0.004 A 
ATOM     10  C   UNL     1      15.356  -0.683  27.966  1.00  0.00     0.004 A 
ENDBRANCH   2   4
ENDBRANCH   1   2
BRANCH   1  11
ATOM     11  C   UNL     1      12.227  -1.257  30.501  1.00  0.00     0.028 C 
BRANCH  11  12
ATOM     12  C   UNL     1      11.095  -1.509  31.467  1.00  0.00    -0.028 C 
ATOM     13  C   UNL     1      10.529  -2.716  31.691  1.00  0.00    -0.080 C 
ATOM     14  C   UNL     1      10.949  -3.953  30.931  1.00  0.00     0.039 C 
ATOM     15  C   UNL     1       9.430  -2.813  32.718  1.00  0.00     0.039 C 
ENDBRANCH  11  12
ENDBRANCH   1  11
TORSDOF 4
ENDMDL
MODEL 6
REMARK VINA RESULT:    -5.876      1.357      2.922
REMARK INTER + INTRA:          -8.347
REMARK INTER:                  -7.024
REMARK INTRA:                  -1.323
REMARK UNBOUND:                -1.097
REMARK SMILES CC(C)=CCC[C@H](C)c1ccc(C)cc1
REMARK SMILES IDX 6 1 7 2 8 3 9 4 13 5 12 6 11 7 14 8 10 9 15 10 5 11 4 12
REMARK SMILES IDX 2 13 1 14 3 15
REMARK H PARENT
REMARK Flexibility Score: inf
ROOT
ATOM      1  C   UNL     1       3.351   4.329  19.617  1.00  0.00     0.012 C 
ENDROOT
BRANCH   1   2
ATOM      2  C   UNL     1       2.429   4.892  20.727  1.00  0.00     0.016 C 
ATOM      3  C   UNL     1       1.186   5.593  20.158  1.00  0.00     0.013 C 
BRANCH   2   4
ATOM      4  C   UNL     1       3.207   5.837  21.625  1.00  0.00    -0.045 A 
ATOM      5  C   UNL     1       5.436   8.502  24.194  1.00  0.00     0.044 C 
ATOM      6  C   UNL     1       4.684   7.579  23.280  1.00  0.00    -0.051 A 
ATOM      7  C   UNL     1       3.750   8.092  22.369  1.00  0.00     0.004 A 
ATOM      8  C   UNL     1       4.861   6.191  23.376  1.00  0.00     0.004 A 
ATOM      9  C   UNL     1       3.023   7.231  21.543  1.00  0.00     0.004 A 
ATOM     10  C   UNL     1       4.135   5.328  22.551  1.00  0.00     0.004 A 
ENDBRANCH   2   4
ENDBRANCH   1   2
BRANCH   1  11
ATOM     11  C   UNL     1       3.330   5.138  18.308  1.00  0.00     0.028 C 
BRANCH  11  12
ATOM     12  C   UNL     1       4.464   6.131  18.226  1.00  0.00    -0.028 C 
ATOM     13  C   UNL     1       4.309   7.472  18.156  1.00  0.00    -0.080 C 
ATOM     14  C   UNL     1       2.945   8.119  18.093  1.00  0.00     0.039 C 
ATOM     15  C   UNL     1       5.543   8.336  18.119  1.00  0.00     0.039 C 
ENDBRANCH  11  12
ENDBRANCH   1  11
TORSDOF 4
ENDMDL
MODEL 7
REMARK VINA RESULT:    -5.783      1.155      5.192
REMARK INTER + INTRA:          -8.232
REMARK INTER:                  -7.643
REMARK INTRA:                  -0.589
REMARK UNBOUND:                -1.097
REMARK SMILES CC(C)=CCC[C@H](C)c1ccc(C)cc1
REMARK SMILES IDX 6 1 7 2 8 3 9 4 13 5 12 6 11 7 14 8 10 9 15 10 5 11 4 12
REMARK SMILES IDX 2 13 1 14 3 15
REMARK H PARENT
REMARK Flexibility Score: inf
ROOT
ATOM      1  C   UNL     1       2.915   7.296  21.150  1.00  0.00     0.012 C 
ENDROOT
BRANCH   1   2
ATOM      2  C   UNL     1       2.636   6.652  19.770  1.00  0.00     0.016 C 
ATOM      3  C   UNL     1       1.138   6.614  19.433  1.00  0.00     0.013 C 
BRANCH   2   4
ATOM      4  C   UNL     1       3.228   5.255  19.715  1.00  0.00    -0.045 A 
ATOM      5  C   UNL     1       4.915   1.283  19.524  1.00  0.00     0.044 C 
ATOM      6  C   UNL     1       4.358   2.674  19.595  1.00  0.00    -0.051 A 
ATOM      7  C   UNL     1       3.945   3.208  20.823  1.00  0.00     0.004 A 
ATOM      8  C   UNL     1       4.184   3.426  18.424  1.00  0.00     0.004 A 
ATOM      9  C   UNL     1       3.391   4.490  20.885  1.00  0.00     0.004 A 
ATOM     10  C   UNL     1       3.631   4.708  18.483  1.00  0.00     0.004 A 
ENDBRANCH   2   4
ENDBRANCH   1   2
BRANCH   1  11
ATOM     11  C   UNL     1       4.259   8.041  21.240  1.00  0.00     0.028 C 
BRANCH  11  12
ATOM     12  C   UNL     1       4.568   8.503  22.644  1.00  0.00    -0.028 C 
ATOM     13  C   UNL     1       4.953   7.692  23.654  1.00  0.00    -0.080 C 
ATOM     14  C   UNL     1       5.056   6.194  23.485  1.00  0.00     0.039 C 
ATOM     15  C   UNL     1       5.263   8.310  24.993  1.00  0.00     0.039 C 
ENDBRANCH  11  12
ENDBRANCH   1  11
TORSDOF 4
ENDMDL
MODEL 8
REMARK VINA RESULT:    -5.776     14.931     16.902
REMARK INTER + INTRA:          -8.224
REMARK INTER:                  -7.220
REMARK INTRA:                  -1.004
REMARK UNBOUND:                -1.097
REMARK SMILES CC(C)=CCC[C@H](C)c1ccc(C)cc1
REMARK SMILES IDX 6 1 7 2 8 3 9 4 13 5 12 6 11 7 14 8 10 9 15 10 5 11 4 12
REMARK SMILES IDX 2 13 1 14 3 15
REMARK H PARENT
REMARK Flexibility Score: inf
ROOT
ATOM      1  C   UNL     1      13.155  -4.965  31.079  1.00  0.00     0.012 C 
ENDROOT
BRANCH   1   2
ATOM      2  C   UNL     1      14.311  -4.005  31.456  1.00  0.00     0.016 C 
ATOM      3  C   UNL     1      13.958  -3.102  32.648  1.00  0.00     0.013 C 
BRANCH   2   4
ATOM      4  C   UNL     1      14.709  -3.167  30.255  1.00  0.00    -0.045 A 
ATOM      5  C   UNL     1      15.831  -0.755  26.851  1.00  0.00     0.044 C 
ATOM      6  C   UNL     1      15.470  -1.589  28.044  1.00  0.00    -0.051 A 
ATOM      7  C   UNL     1      15.653  -2.979  28.017  1.00  0.00     0.004 A 
ATOM      8  C   UNL     1      14.885  -0.994  29.172  1.00  0.00     0.004 A 
ATOM      9  C   UNL     1      15.283  -3.761  29.115  1.00  0.00     0.004 A 
ATOM     10  C   UNL     1      14.515  -1.774  30.270  1.00  0.00     0.004 A 
ENDBRANCH   2   4
ENDBRANCH   1   2
BRANCH   1  11
ATOM     11  C   UNL     1      11.926  -4.266  30.472  1.00  0.00     0.028 C 
BRANCH  11  12
ATOM     12  C   UNL     1      10.830  -4.045  31.486  1.00  0.00    -0.028 C 
ATOM     13  C   UNL     1      10.281  -2.845  31.777  1.00  0.00    -0.080 C 
ATOM     14  C   UNL     1      10.767  -1.564  31.139  1.00  0.00     0.039 C 
ATOM     15  C   UNL     1       9.165  -2.793  32.789  1.00  0.00     0.039 C 
ENDBRANCH  11  12
ENDBRANCH   1  11
TORSDOF 4
ENDMDL
MODEL 9
REMARK VINA RESULT:    -5.185     14.162     16.416
REMARK INTER + INTRA:          -7.495
REMARK INTER:                  -6.936
REMARK INTRA:                  -0.560
REMARK UNBOUND:                -1.097
REMARK SMILES CC(C)=CCC[C@H](C)c1ccc(C)cc1
REMARK SMILES IDX 6 1 7 2 8 3 9 4 13 5 12 6 11 7 14 8 10 9 15 10 5 11 4 12
REMARK SMILES IDX 2 13 1 14 3 15
REMARK H PARENT
REMARK Flexibility Score: inf
ROOT
ATOM      1  C   UNL     1      16.918  -4.086  23.752  1.00  0.00     0.012 C 
ENDROOT
BRANCH   1   2
ATOM      2  C   UNL     1      17.015  -4.775  25.136  1.00  0.00     0.016 C 
ATOM      3  C   UNL     1      16.283  -6.125  25.171  1.00  0.00     0.013 C 
BRANCH   2   4
ATOM      4  C   UNL     1      16.482  -3.854  26.218  1.00  0.00    -0.045 A 
ATOM      5  C   UNL     1      14.962  -1.258  29.320  1.00  0.00     0.044 C 
ATOM      6  C   UNL     1      15.519  -2.154  28.252  1.00  0.00    -0.051 A 
ATOM      7  C   UNL     1      15.840  -1.634  26.990  1.00  0.00     0.004 A 
ATOM      8  C   UNL     1      15.660  -3.529  28.487  1.00  0.00     0.004 A 
ATOM      9  C   UNL     1      16.324  -2.475  25.984  1.00  0.00     0.004 A 
ATOM     10  C   UNL     1      16.144  -4.371  27.482  1.00  0.00     0.004 A 
ENDBRANCH   2   4
ENDBRANCH   1   2
BRANCH   1  11
ATOM     11  C   UNL     1      15.828  -4.665  22.833  1.00  0.00     0.028 C 
BRANCH  11  12
ATOM     12  C   UNL     1      16.010  -4.249  21.393  1.00  0.00    -0.028 C 
ATOM     13  C   UNL     1      15.044  -3.698  20.623  1.00  0.00    -0.080 C 
ATOM     14  C   UNL     1      13.634  -3.495  21.128  1.00  0.00     0.039 C 
ATOM     15  C   UNL     1      15.391  -3.300  19.212  1.00  0.00     0.039 C 
ENDBRANCH  11  12
ENDBRANCH   1  11
TORSDOF 4
ENDMDL
