MODEL 1
REMARK VINA RESULT:    -4.196      0.000      0.000
REMARK INTER + INTRA:          -6.967
REMARK INTER:                  -6.158
REMARK INTRA:                  -0.809
REMARK UNBOUND:                -0.809
REMARK SMILES O=C([O-])CCCCCCCC(=O)[O-]
REMARK SMILES IDX 7 1 6 2 5 3 4 4 2 5 1 6 3 7 8 8 9 9 10 10 11 11 12 12 13 13
REMARK H PARENT
REMARK Flexibility Score: inf
ROOT
ATOM      1  C   UNL     1     -33.936  11.886  12.969  1.00  0.00     0.000 C 
ENDROOT
BRANCH   1   2
ATOM      2  C   UNL     1     -34.046  13.124  13.872  1.00  0.00     0.000 C 
BRANCH   2   3
ATOM      3  C   UNL     1     -33.180  14.295  13.380  1.00  0.00     0.006 C 
BRANCH   3   4
ATOM      4  C   UNL     1     -31.859  14.416  14.149  1.00  0.00     0.053 C 
BRANCH   4   5
ATOM      5  C   UNL     1     -30.711  14.006  13.280  1.00  0.00     0.041 C 
ATOM      6  O   UNL     1     -30.910  13.668  12.084  1.00  0.00    -0.550 OA
ATOM      7  O   UNL     1     -29.414  14.045  13.778  1.00  0.00    -0.550 OA
ENDBRANCH   4   5
ENDBRANCH   3   4
ENDBRANCH   2   3
ENDBRANCH   1   2
BRANCH   1   8
ATOM      8  C   UNL     1     -33.168  10.760  13.672  1.00  0.00     0.000 C 
BRANCH   8   9
ATOM      9  C   UNL     1     -32.076  10.186  12.762  1.00  0.00     0.006 C 
BRANCH   9  10
ATOM     10  C   UNL     1     -30.688  10.384  13.377  1.00  0.00     0.053 C 
BRANCH  10  11
ATOM     11  C   UNL     1     -29.638  10.386  12.311  1.00  0.00     0.041 C 
ATOM     12  O   UNL     1     -29.861   9.836  11.201  1.00  0.00    -0.550 OA
ATOM     13  O   UNL     1     -28.395  10.952  12.561  1.00  0.00    -0.550 OA
ENDBRANCH  10  11
ENDBRANCH   9  10
ENDBRANCH   8   9
ENDBRANCH   1   8
TORSDOF 8
ENDMDL
MODEL 2
REMARK VINA RESULT:    -4.119      0.536      3.608
REMARK INTER + INTRA:          -6.854
REMARK INTER:                  -5.994
REMARK INTRA:                  -0.860
REMARK UNBOUND:                -0.809
REMARK SMILES O=C([O-])CCCCCCCC(=O)[O-]
REMARK SMILES IDX 7 1 6 2 5 3 4 4 2 5 1 6 3 7 8 8 9 9 10 10 11 11 12 12 13 13
REMARK H PARENT
REMARK Flexibility Score: inf
ROOT
ATOM      1  C   UNL     1     -33.497  12.041  14.496  1.00  0.00     0.000 C 
ENDROOT
BRANCH   1   2
ATOM      2  C   UNL     1     -33.197  10.635  13.955  1.00  0.00     0.000 C 
BRANCH   2   3
ATOM      3  C   UNL     1     -32.035  10.624  12.948  1.00  0.00     0.006 C 
BRANCH   3   4
ATOM      4  C   UNL     1     -30.663  10.563  13.632  1.00  0.00     0.053 C 
BRANCH   4   5
ATOM      5  C   UNL     1     -29.569  10.681  12.618  1.00  0.00     0.041 C 
ATOM      6  O   UNL     1     -29.659  10.081  11.516  1.00  0.00    -0.550 OA
ATOM      7  O   UNL     1     -28.472  11.495  12.871  1.00  0.00    -0.550 OA
ENDBRANCH   4   5
ENDBRANCH   3   4
ENDBRANCH   2   3
ENDBRANCH   1   2
BRANCH   1   8
ATOM      8  C   UNL     1     -34.049  12.949  13.391  1.00  0.00     0.000 C 
BRANCH   8   9
ATOM      9  C   UNL     1     -33.281  14.275  13.332  1.00  0.00     0.006 C 
BRANCH   9  10
ATOM     10  C   UNL     1     -32.020  14.218  14.198  1.00  0.00     0.053 C 
BRANCH  10  11
ATOM     11  C   UNL     1     -30.795  14.212  13.340  1.00  0.00     0.041 C 
ATOM     12  O   UNL     1     -30.882  13.949  12.112  1.00  0.00    -0.550 OA
ATOM     13  O   UNL     1     -29.548  14.448  13.906  1.00  0.00    -0.550 OA
ENDBRANCH  10  11
ENDBRANCH   9  10
ENDBRANCH   8   9
ENDBRANCH   1   8
TORSDOF 8
ENDMDL
MODEL 3
REMARK VINA RESULT:    -4.021      1.234      4.135
REMARK INTER + INTRA:          -6.711
REMARK INTER:                  -6.209
REMARK INTRA:                  -0.501
REMARK UNBOUND:                -0.809
REMARK SMILES O=C([O-])CCCCCCCC(=O)[O-]
REMARK SMILES IDX 7 1 6 2 5 3 4 4 2 5 1 6 3 7 8 8 9 9 10 10 11 11 12 12 13 13
REMARK H PARENT
REMARK Flexibility Score: inf
ROOT
ATOM      1  C   UNL     1     -32.730  10.379  13.495  1.00  0.00     0.000 C 
ENDROOT
BRANCH   1   2
ATOM      2  C   UNL     1     -32.207   9.621  12.266  1.00  0.00     0.000 C 
BRANCH   2   3
ATOM      3  C   UNL     1     -30.681   9.441  12.287  1.00  0.00     0.006 C 
BRANCH   3   4
ATOM      4  C   UNL     1     -29.930  10.743  11.980  1.00  0.00     0.053 C 
BRANCH   4   5
ATOM      5  C   UNL     1     -28.815  10.944  12.958  1.00  0.00     0.041 C 
ATOM      6  O   UNL     1     -28.096   9.972  13.308  1.00  0.00    -0.550 OA
ATOM      7  O   UNL     1     -28.538  12.216  13.444  1.00  0.00    -0.550 OA
ENDBRANCH   4   5
ENDBRANCH   3   4
ENDBRANCH   2   3
ENDBRANCH   1   2
BRANCH   1   8
ATOM      8  C   UNL     1     -33.568  11.594  13.075  1.00  0.00     0.000 C 
BRANCH   8   9
ATOM      9  C   UNL     1     -33.400  12.749  14.069  1.00  0.00     0.006 C 
BRANCH   9  10
ATOM     10  C   UNL     1     -33.185  14.077  13.337  1.00  0.00     0.053 C 
BRANCH  10  11
ATOM     11  C   UNL     1     -31.727  14.403  13.262  1.00  0.00     0.041 C 
ATOM     12  O   UNL     1     -31.171  15.043  14.192  1.00  0.00    -0.550 OA
ATOM     13  O   UNL     1     -30.992  14.042  12.140  1.00  0.00    -0.550 OA
ENDBRANCH  10  11
ENDBRANCH   9  10
ENDBRANCH   8   9
ENDBRANCH   1   8
TORSDOF 8
ENDMDL
MODEL 4
REMARK VINA RESULT:    -3.940      1.867      2.361
REMARK INTER + INTRA:          -6.592
REMARK INTER:                  -6.055
REMARK INTRA:                  -0.537
REMARK UNBOUND:                -0.809
REMARK SMILES O=C([O-])CCCCCCCC(=O)[O-]
REMARK SMILES IDX 7 1 6 2 5 3 4 4 2 5 1 6 3 7 8 8 9 9 10 10 11 11 12 12 13 13
REMARK H PARENT
REMARK Flexibility Score: inf
ROOT
ATOM      1  C   UNL     1     -32.406  13.032  14.183  1.00  0.00     0.000 C 
ENDROOT
BRANCH   1   2
ATOM      2  C   UNL     1     -32.158  14.319  13.382  1.00  0.00     0.000 C 
BRANCH   2   3
ATOM      3  C   UNL     1     -31.129  15.244  14.050  1.00  0.00     0.006 C 
BRANCH   3   4
ATOM      4  C   UNL     1     -30.675  14.728  15.422  1.00  0.00     0.053 C 
BRANCH   4   5
ATOM      5  C   UNL     1     -29.237  15.069  15.658  1.00  0.00     0.041 C 
ATOM      6  O   UNL     1     -28.386  14.889  14.747  1.00  0.00    -0.550 OA
ATOM      7  O   UNL     1     -28.845  15.631  16.866  1.00  0.00    -0.550 OA
ENDBRANCH   4   5
ENDBRANCH   3   4
ENDBRANCH   2   3
ENDBRANCH   1   2
BRANCH   1   8
ATOM      8  C   UNL     1     -31.855  11.808  13.441  1.00  0.00     0.000 C 
BRANCH   8   9
ATOM      9  C   UNL     1     -30.676  12.195  12.540  1.00  0.00     0.006 C 
BRANCH   9  10
ATOM     10  C   UNL     1     -29.340  11.928  13.239  1.00  0.00     0.053 C 
BRANCH  10  11
ATOM     11  C   UNL     1     -28.789  10.600  12.827  1.00  0.00     0.041 C 
ATOM     12  O   UNL     1     -29.314   9.963  11.876  1.00  0.00    -0.550 OA
ATOM     13  O   UNL     1     -27.724  10.043  13.523  1.00  0.00    -0.550 OA
ENDBRANCH  10  11
ENDBRANCH   9  10
ENDBRANCH   8   9
ENDBRANCH   1   8
TORSDOF 8
ENDMDL
MODEL 5
REMARK VINA RESULT:    -3.930      2.085      4.745
REMARK INTER + INTRA:          -6.577
REMARK INTER:                  -6.039
REMARK INTRA:                  -0.538
REMARK UNBOUND:                -0.809
REMARK SMILES O=C([O-])CCCCCCCC(=O)[O-]
REMARK SMILES IDX 7 1 6 2 5 3 4 4 2 5 1 6 3 7 8 8 9 9 10 10 11 11 12 12 13 13
REMARK H PARENT
REMARK Flexibility Score: inf
ROOT
ATOM      1  C   UNL     1     -32.299  12.957  13.023  1.00  0.00     0.000 C 
ENDROOT
BRANCH   1   2
ATOM      2  C   UNL     1     -30.842  12.901  12.540  1.00  0.00     0.000 C 
BRANCH   2   3
ATOM      3  C   UNL     1     -30.215  11.508  12.706  1.00  0.00     0.006 C 
BRANCH   3   4
ATOM      4  C   UNL     1     -28.800  11.564  13.296  1.00  0.00     0.053 C 
BRANCH   4   5
ATOM      5  C   UNL     1     -28.427  10.241  13.886  1.00  0.00     0.041 C 
ATOM      6  O   UNL     1     -29.311   9.507  14.402  1.00  0.00    -0.550 OA
ATOM      7  O   UNL     1     -27.113   9.796  13.823  1.00  0.00    -0.550 OA
ENDBRANCH   4   5
ENDBRANCH   3   4
ENDBRANCH   2   3
ENDBRANCH   1   2
BRANCH   1   8
ATOM      8  C   UNL     1     -32.484  14.051  14.082  1.00  0.00     0.000 C 
BRANCH   8   9
ATOM      9  C   UNL     1     -31.218  14.905  14.220  1.00  0.00     0.006 C 
BRANCH   9  10
ATOM     10  C   UNL     1     -30.676  14.857  15.651  1.00  0.00     0.053 C 
BRANCH  10  11
ATOM     11  C   UNL     1     -29.199  15.091  15.660  1.00  0.00     0.041 C 
ATOM     12  O   UNL     1     -28.497  14.754  14.670  1.00  0.00    -0.550 OA
ATOM     13  O   UNL     1     -28.588  15.636  16.782  1.00  0.00    -0.550 OA
ENDBRANCH  10  11
ENDBRANCH   9  10
ENDBRANCH   8   9
ENDBRANCH   1   8
TORSDOF 8
ENDMDL
MODEL 6
REMARK VINA RESULT:    -3.859      1.258      4.031
REMARK INTER + INTRA:          -6.473
REMARK INTER:                  -5.744
REMARK INTRA:                  -0.729
REMARK UNBOUND:                -0.809
REMARK SMILES O=C([O-])CCCCCCCC(=O)[O-]
REMARK SMILES IDX 7 1 6 2 5 3 4 4 2 5 1 6 3 7 8 8 9 9 10 10 11 11 12 12 13 13
REMARK H PARENT
REMARK Flexibility Score: inf
ROOT
ATOM      1  C   UNL     1     -33.412  12.844  14.081  1.00  0.00     0.000 C 
ENDROOT
BRANCH   1   2
ATOM      2  C   UNL     1     -33.117  11.691  13.111  1.00  0.00     0.000 C 
BRANCH   2   3
ATOM      3  C   UNL     1     -31.774  11.001  13.402  1.00  0.00     0.006 C 
BRANCH   3   4
ATOM      4  C   UNL     1     -30.668  11.430  12.430  1.00  0.00     0.053 C 
BRANCH   4   5
ATOM      5  C   UNL     1     -29.644  10.346  12.295  1.00  0.00     0.041 C 
ATOM      6  O   UNL     1     -28.458  10.544  12.667  1.00  0.00    -0.550 OA
ATOM      7  O   UNL     1     -30.013   9.100  11.803  1.00  0.00    -0.550 OA
ENDBRANCH   4   5
ENDBRANCH   3   4
ENDBRANCH   2   3
ENDBRANCH   1   2
BRANCH   1   8
ATOM      8  C   UNL     1     -33.225  14.202  13.393  1.00  0.00     0.000 C 
BRANCH   8   9
ATOM      9  C   UNL     1     -31.798  14.727  13.590  1.00  0.00     0.006 C 
BRANCH   9  10
ATOM     10  C   UNL     1     -31.313  14.476  15.020  1.00  0.00     0.053 C 
BRANCH  10  11
ATOM     11  C   UNL     1     -29.916  13.942  15.013  1.00  0.00     0.041 C 
ATOM     12  O   UNL     1     -29.661  12.824  15.533  1.00  0.00    -0.550 OA
ATOM     13  O   UNL     1     -28.884  14.700  14.473  1.00  0.00    -0.550 OA
ENDBRANCH  10  11
ENDBRANCH   9  10
ENDBRANCH   8   9
ENDBRANCH   1   8
TORSDOF 8
ENDMDL
MODEL 7
REMARK VINA RESULT:    -3.857      1.899      4.454
REMARK INTER + INTRA:          -6.470
REMARK INTER:                  -5.707
REMARK INTRA:                  -0.764
REMARK UNBOUND:                -0.809
REMARK SMILES O=C([O-])CCCCCCCC(=O)[O-]
REMARK SMILES IDX 7 1 6 2 5 3 4 4 2 5 1 6 3 7 8 8 9 9 10 10 11 11 12 12 13 13
REMARK H PARENT
REMARK Flexibility Score: inf
ROOT
ATOM      1  C   UNL     1     -30.065  12.317  16.399  1.00  0.00     0.000 C 
ENDROOT
BRANCH   1   2
ATOM      2  C   UNL     1     -31.279  11.672  15.714  1.00  0.00     0.000 C 
BRANCH   2   3
ATOM      3  C   UNL     1     -30.881  10.740  14.558  1.00  0.00     0.006 C 
BRANCH   3   4
ATOM      4  C   UNL     1     -29.368  10.500  14.489  1.00  0.00     0.053 C 
BRANCH   4   5
ATOM      5  C   UNL     1     -28.793  11.141  13.265  1.00  0.00     0.041 C 
ATOM      6  O   UNL     1     -28.287  12.291  13.330  1.00  0.00    -0.550 OA
ATOM      7  O   UNL     1     -28.773  10.447  12.061  1.00  0.00    -0.550 OA
ENDBRANCH   4   5
ENDBRANCH   3   4
ENDBRANCH   2   3
ENDBRANCH   1   2
BRANCH   1   8
ATOM      8  C   UNL     1     -30.086  13.842  16.231  1.00  0.00     0.000 C 
BRANCH   8   9
ATOM      9  C   UNL     1     -31.315  14.291  15.432  1.00  0.00     0.006 C 
BRANCH   9  10
ATOM     10  C   UNL     1     -30.902  14.948  14.111  1.00  0.00     0.053 C 
BRANCH  10  11
ATOM     11  C   UNL     1     -31.537  14.243  12.955  1.00  0.00     0.041 C 
ATOM     12  O   UNL     1     -30.825  13.785  12.022  1.00  0.00    -0.550 OA
ATOM     13  O   UNL     1     -32.919  14.133  12.882  1.00  0.00    -0.550 OA
ENDBRANCH  10  11
ENDBRANCH   9  10
ENDBRANCH   8   9
ENDBRANCH   1   8
TORSDOF 8
ENDMDL
MODEL 8
REMARK VINA RESULT:    -3.821      2.808      5.326
REMARK INTER + INTRA:          -6.417
REMARK INTER:                  -5.972
REMARK INTRA:                  -0.444
REMARK UNBOUND:                -0.809
REMARK SMILES O=C([O-])CCCCCCCC(=O)[O-]
REMARK SMILES IDX 7 1 6 2 5 3 4 4 2 5 1 6 3 7 8 8 9 9 10 10 11 11 12 12 13 13
REMARK H PARENT
REMARK Flexibility Score: inf
ROOT
ATOM      1  C   UNL     1     -31.351  14.885  13.685  1.00  0.00     0.000 C 
ENDROOT
BRANCH   1   2
ATOM      2  C   UNL     1     -31.823  13.529  13.139  1.00  0.00     0.000 C 
BRANCH   2   3
ATOM      3  C   UNL     1     -30.690  12.733  12.471  1.00  0.00     0.006 C 
BRANCH   3   4
ATOM      4  C   UNL     1     -30.146  11.614  13.369  1.00  0.00     0.053 C 
BRANCH   4   5
ATOM      5  C   UNL     1     -29.310  10.665  12.570  1.00  0.00     0.041 C 
ATOM      6  O   UNL     1     -29.711  10.258  11.447  1.00  0.00    -0.550 OA
ATOM      7  O   UNL     1     -28.066  10.267  13.042  1.00  0.00    -0.550 OA
ENDBRANCH   4   5
ENDBRANCH   3   4
ENDBRANCH   2   3
ENDBRANCH   1   2
BRANCH   1   8
ATOM      8  C   UNL     1     -30.908  14.763  15.149  1.00  0.00     0.000 C 
BRANCH   8   9
ATOM      9  C   UNL     1     -29.399  14.997  15.289  1.00  0.00     0.006 C 
BRANCH   9  10
ATOM     10  C   UNL     1     -28.883  14.471  16.631  1.00  0.00     0.053 C 
BRANCH  10  11
ATOM     11  C   UNL     1     -28.142  15.543  17.364  1.00  0.00     0.041 C 
ATOM     12  O   UNL     1     -28.740  16.586  17.739  1.00  0.00    -0.550 OA
ATOM     13  O   UNL     1     -26.777  15.414  17.591  1.00  0.00    -0.550 OA
ENDBRANCH  10  11
ENDBRANCH   9  10
ENDBRANCH   8   9
ENDBRANCH   1   8
TORSDOF 8
ENDMDL
MODEL 9
REMARK VINA RESULT:    -3.761      4.173      5.733
REMARK INTER + INTRA:          -6.328
REMARK INTER:                  -5.815
REMARK INTRA:                  -0.513
REMARK UNBOUND:                -0.809
REMARK SMILES O=C([O-])CCCCCCCC(=O)[O-]
REMARK SMILES IDX 7 1 6 2 5 3 4 4 2 5 1 6 3 7 8 8 9 9 10 10 11 11 12 12 13 13
REMARK H PARENT
REMARK Flexibility Score: inf
ROOT
ATOM      1  C   UNL     1     -29.611  13.779  16.906  1.00  0.00     0.000 C 
ENDROOT
BRANCH   1   2
ATOM      2  C   UNL     1     -30.048  15.183  17.349  1.00  0.00     0.000 C 
BRANCH   2   3
ATOM      3  C   UNL     1     -28.858  16.086  17.713  1.00  0.00     0.006 C 
BRANCH   3   4
ATOM      4  C   UNL     1     -27.505  15.416  17.442  1.00  0.00     0.053 C 
BRANCH   4   5
ATOM      5  C   UNL     1     -26.751  15.228  18.721  1.00  0.00     0.041 C 
ATOM      6  O   UNL     1     -27.065  14.300  19.511  1.00  0.00    -0.550 OA
ATOM      7  O   UNL     1     -25.669  16.048  19.016  1.00  0.00    -0.550 OA
ENDBRANCH   4   5
ENDBRANCH   3   4
ENDBRANCH   2   3
ENDBRANCH   1   2
BRANCH   1   8
ATOM      8  C   UNL     1     -30.067  13.490  15.470  1.00  0.00     0.000 C 
BRANCH   8   9
ATOM      9  C   UNL     1     -30.131  14.779  14.642  1.00  0.00     0.006 C 
BRANCH   9  10
ATOM     10  C   UNL     1     -31.461  14.884  13.890  1.00  0.00     0.053 C 
BRANCH  10  11
ATOM     11  C   UNL     1     -31.612  13.744  12.933  1.00  0.00     0.041 C 
ATOM     12  O   UNL     1     -30.832  13.632  11.951  1.00  0.00    -0.550 OA
ATOM     13  O   UNL     1     -32.646  12.831  13.097  1.00  0.00    -0.550 OA
ENDBRANCH  10  11
ENDBRANCH   9  10
ENDBRANCH   8   9
ENDBRANCH   1   8
TORSDOF 8
ENDMDL
