MODEL 1
REMARK VINA RESULT:    -6.519      0.000      0.000
REMARK INTER + INTRA:         -10.550
REMARK INTER:                  -9.187
REMARK INTRA:                  -1.363
REMARK UNBOUND:                -1.363
REMARK SMILES OCC1=C[C@@H](O)[C@@H]2C=CO[C@H](O[C@H]3O[C@H](CO)[C@@H](O)[C@@H](O)[C@H]3O)[C@@H]12
REMARK SMILES IDX 12 1 11 2 8 3 9 4 7 5 10 6 24 7 5 8 3 9 4 10 6 11 2 13 1 14
REMARK SMILES IDX 13 16 22 17 14 18 20 19 15 20 18 21 23 22 21 24 16 26 17 27
REMARK SMILES IDX 19 29
REMARK H PARENT 6 12 1 15 23 23 21 25 17 28 19 30
REMARK Flexibility Score: inf
ROOT
ATOM      1  O   UNL     1      -6.803  -0.247  -5.127  1.00  0.00    -0.310 OA
ENDROOT
BRANCH   1   2
ATOM      2  C   UNL     1      -8.102   0.210  -5.486  1.00  0.00     0.316 C 
ATOM      3  C   UNL     1     -10.791   0.747  -4.490  1.00  0.00     0.018 C 
ATOM      4  C   UNL     1     -10.394  -0.517  -4.696  1.00  0.00     0.186 C 
ATOM      5  C   UNL     1      -9.917   1.823  -5.042  1.00  0.00     0.061 C 
ATOM      6  O   UNL     1      -9.125  -0.795  -5.259  1.00  0.00    -0.472 OA
ATOM      7  C   UNL     1      -8.466   1.499  -4.724  1.00  0.00     0.096 C 
ATOM      8  C   UNL     1     -10.071   3.260  -4.555  1.00  0.00     0.145 C 
ATOM      9  C   UNL     1      -7.814   2.808  -5.041  1.00  0.00    -0.036 C 
ATOM     10  C   UNL     1      -8.697   3.797  -4.859  1.00  0.00     0.007 C 
BRANCH   8  11
ATOM     11  O   UNL     1     -11.051   3.934  -5.295  1.00  0.00    -0.388 OA
ATOM     12  H   UNL     1     -10.620   4.207  -6.146  1.00  0.00     0.211 HD
ENDBRANCH   8  11
BRANCH   9  13
ATOM     13  C   UNL     1      -6.361   3.031  -5.360  1.00  0.00     0.187 C 
BRANCH  13  14
ATOM     14  O   UNL     1      -5.558   2.505  -4.340  1.00  0.00    -0.392 OA
ATOM     15  H   UNL     1      -5.160   1.665  -4.690  1.00  0.00     0.211 HD
ENDBRANCH  13  14
ENDBRANCH   9  13
ENDBRANCH   1   2
BRANCH   1  16
ATOM     16  C   UNL     1      -6.203  -1.063  -6.126  1.00  0.00     0.286 C 
ATOM     17  C   UNL     1      -5.808  -2.444  -5.553  1.00  0.00     0.202 C 
ATOM     18  O   UNL     1      -5.065  -0.423  -6.689  1.00  0.00    -0.341 OA
ATOM     19  C   UNL     1      -4.681  -2.317  -4.512  1.00  0.00     0.179 C 
ATOM     20  C   UNL     1      -4.063  -0.174  -5.712  1.00  0.00     0.178 C 
ATOM     21  C   UNL     1      -3.523  -1.500  -5.119  1.00  0.00     0.177 C 
BRANCH  17  22
ATOM     22  O   UNL     1      -6.921  -3.136  -5.043  1.00  0.00    -0.385 OA
ATOM     23  H   UNL     1      -6.968  -2.969  -4.068  1.00  0.00     0.211 HD
ENDBRANCH  17  22
BRANCH  19  24
ATOM     24  O   UNL     1      -5.162  -1.694  -3.346  1.00  0.00    -0.387 OA
ATOM     25  H   UNL     1      -6.086  -2.026  -3.199  1.00  0.00     0.211 HD
ENDBRANCH  19  24
BRANCH  20  26
ATOM     26  C   UNL     1      -2.941   0.642  -6.368  1.00  0.00     0.191 C 
BRANCH  26  27
ATOM     27  O   UNL     1      -2.997   1.978  -5.948  1.00  0.00    -0.394 OA
ATOM     28  H   UNL     1      -3.433   2.481  -6.685  1.00  0.00     0.210 HD
ENDBRANCH  26  27
ENDBRANCH  20  26
BRANCH  21  29
ATOM     29  O   UNL     1      -2.555  -1.227  -4.137  1.00  0.00    -0.387 OA
ATOM     30  H   UNL     1      -3.046  -1.080  -3.286  1.00  0.00     0.211 HD
ENDBRANCH  21  29
ENDBRANCH   1  16
TORSDOF 10
ENDMDL
MODEL 2
REMARK VINA RESULT:    -6.120     12.712     14.721
REMARK INTER + INTRA:          -9.987
REMARK INTER:                  -8.533
REMARK INTRA:                  -1.455
REMARK UNBOUND:                -1.363
REMARK SMILES OCC1=C[C@@H](O)[C@@H]2C=CO[C@H](O[C@H]3O[C@H](CO)[C@@H](O)[C@@H](O)[C@H]3O)[C@@H]12
REMARK SMILES IDX 12 1 11 2 8 3 9 4 7 5 10 6 24 7 5 8 3 9 4 10 6 11 2 13 1 14
REMARK SMILES IDX 13 16 22 17 14 18 20 19 15 20 18 21 23 22 21 24 16 26 17 27
REMARK SMILES IDX 19 29
REMARK H PARENT 6 12 1 15 23 23 21 25 17 28 19 30
REMARK Flexibility Score: inf
ROOT
ATOM      1  O   UNL     1       7.033   2.812  -4.094  1.00  0.00    -0.310 OA
ENDROOT
BRANCH   1   2
ATOM      2  C   UNL     1       6.894   3.637  -5.245  1.00  0.00     0.316 C 
ATOM      3  C   UNL     1       5.171   5.571  -6.588  1.00  0.00     0.018 C 
ATOM      4  C   UNL     1       4.849   4.269  -6.596  1.00  0.00     0.186 C 
ATOM      5  C   UNL     1       6.544   5.919  -6.118  1.00  0.00     0.061 C 
ATOM      6  O   UNL     1       5.714   3.305  -6.025  1.00  0.00    -0.472 OA
ATOM      7  C   UNL     1       6.855   5.127  -4.858  1.00  0.00     0.096 C 
ATOM      8  C   UNL     1       6.877   7.353  -5.723  1.00  0.00     0.145 C 
ATOM      9  C   UNL     1       8.077   5.844  -4.375  1.00  0.00    -0.036 C 
ATOM     10  C   UNL     1       8.036   7.116  -4.792  1.00  0.00     0.007 C 
BRANCH   8  11
ATOM     11  O   UNL     1       7.273   8.099  -6.842  1.00  0.00    -0.388 OA
ATOM     12  H   UNL     1       8.133   8.531  -6.599  1.00  0.00     0.211 HD
ENDBRANCH   8  11
BRANCH   9  13
ATOM     13  C   UNL     1       9.121   5.303  -3.438  1.00  0.00     0.187 C 
BRANCH  13  14
ATOM     14  O   UNL     1       8.510   4.741  -2.309  1.00  0.00    -0.392 OA
ATOM     15  H   UNL     1       9.186   4.154  -1.879  1.00  0.00     0.211 HD
ENDBRANCH  13  14
ENDBRANCH   9  13
ENDBRANCH   1   2
BRANCH   1  16
ATOM     16  C   UNL     1       8.052   1.829  -4.231  1.00  0.00     0.286 C 
ATOM     17  C   UNL     1       7.457   0.465  -4.649  1.00  0.00     0.202 C 
ATOM     18  O   UNL     1       8.792   1.691  -3.025  1.00  0.00    -0.341 OA
ATOM     19  C   UNL     1       6.578  -0.128  -3.533  1.00  0.00     0.179 C 
ATOM     20  C   UNL     1       7.967   1.274  -1.945  1.00  0.00     0.178 C 
ATOM     21  C   UNL     1       7.373  -0.132  -2.212  1.00  0.00     0.177 C 
BRANCH  17  22
ATOM     22  O   UNL     1       6.770   0.547  -5.873  1.00  0.00    -0.385 OA
ATOM     23  H   UNL     1       7.261   1.174  -6.461  1.00  0.00     0.211 HD
ENDBRANCH  17  22
BRANCH  19  24
ATOM     24  O   UNL     1       5.397   0.624  -3.391  1.00  0.00    -0.387 OA
ATOM     25  H   UNL     1       4.641   0.025  -3.626  1.00  0.00     0.211 HD
ENDBRANCH  19  24
BRANCH  20  26
ATOM     26  C   UNL     1       8.807   1.291  -0.661  1.00  0.00     0.191 C 
BRANCH  26  27
ATOM     27  O   UNL     1       7.985   1.144   0.464  1.00  0.00    -0.394 OA
ATOM     28  H   UNL     1       8.555   1.351   1.250  1.00  0.00     0.210 HD
ENDBRANCH  26  27
ENDBRANCH  20  26
BRANCH  21  29
ATOM     29  O   UNL     1       6.540  -0.512  -1.146  1.00  0.00    -0.387 OA
ATOM     30  H   UNL     1       7.137  -0.730  -0.382  1.00  0.00     0.211 HD
ENDBRANCH  21  29
ENDBRANCH   1  16
TORSDOF 10
ENDMDL
MODEL 3
REMARK VINA RESULT:    -6.009      2.093      3.364
REMARK INTER + INTRA:          -9.831
REMARK INTER:                  -8.419
REMARK INTRA:                  -1.412
REMARK UNBOUND:                -1.363
REMARK SMILES OCC1=C[C@@H](O)[C@@H]2C=CO[C@H](O[C@H]3O[C@H](CO)[C@@H](O)[C@@H](O)[C@H]3O)[C@@H]12
REMARK SMILES IDX 12 1 11 2 8 3 9 4 7 5 10 6 24 7 5 8 3 9 4 10 6 11 2 13 1 14
REMARK SMILES IDX 13 16 22 17 14 18 20 19 15 20 18 21 23 22 21 24 16 26 17 27
REMARK SMILES IDX 19 29
REMARK H PARENT 6 12 1 15 23 23 21 25 17 28 19 30
REMARK Flexibility Score: inf
ROOT
ATOM      1  O   UNL     1      -5.265  -1.391  -6.307  1.00  0.00    -0.310 OA
ENDROOT
BRANCH   1   2
ATOM      2  C   UNL     1      -6.524  -0.736  -6.211  1.00  0.00     0.316 C 
ATOM      3  C   UNL     1      -8.631   0.103  -4.376  1.00  0.00     0.018 C 
ATOM      4  C   UNL     1      -8.519  -1.188  -4.720  1.00  0.00     0.186 C 
ATOM      5  C   UNL     1      -7.830   1.081  -5.170  1.00  0.00     0.061 C 
ATOM      6  O   UNL     1      -7.559  -1.602  -5.674  1.00  0.00    -0.472 OA
ATOM      7  C   UNL     1      -6.422   0.539  -5.353  1.00  0.00     0.096 C 
ATOM      8  C   UNL     1      -7.598   2.491  -4.638  1.00  0.00     0.145 C 
ATOM      9  C   UNL     1      -5.716   1.763  -5.848  1.00  0.00    -0.036 C 
ATOM     10  C   UNL     1      -6.332   2.851  -5.369  1.00  0.00     0.007 C 
BRANCH   8  11
ATOM     11  O   UNL     1      -8.651   3.341  -5.003  1.00  0.00    -0.388 OA
ATOM     12  H   UNL     1      -8.235   4.128  -5.441  1.00  0.00     0.211 HD
ENDBRANCH   8  11
BRANCH   9  13
ATOM     13  C   UNL     1      -4.429   1.803  -6.624  1.00  0.00     0.187 C 
BRANCH  13  14
ATOM     14  O   UNL     1      -3.337   1.708  -5.752  1.00  0.00    -0.392 OA
ATOM     15  H   UNL     1      -3.128   0.742  -5.656  1.00  0.00     0.211 HD
ENDBRANCH  13  14
ENDBRANCH   9  13
ENDBRANCH   1   2
BRANCH   1  16
ATOM     16  C   UNL     1      -4.995  -2.246  -5.202  1.00  0.00     0.286 C 
ATOM     17  C   UNL     1      -3.676  -1.849  -4.501  1.00  0.00     0.202 C 
ATOM     18  O   UNL     1      -4.941  -3.606  -5.613  1.00  0.00    -0.341 OA
ATOM     19  C   UNL     1      -2.460  -2.097  -5.412  1.00  0.00     0.179 C 
ATOM     20  C   UNL     1      -3.906  -3.829  -6.562  1.00  0.00     0.178 C 
ATOM     21  C   UNL     1      -2.515  -3.543  -5.944  1.00  0.00     0.177 C 
BRANCH  17  22
ATOM     22  O   UNL     1      -3.714  -0.527  -4.023  1.00  0.00    -0.385 OA
ATOM     23  H   UNL     1      -4.520  -0.088  -4.396  1.00  0.00     0.211 HD
ENDBRANCH  17  22
BRANCH  19  24
ATOM     24  O   UNL     1      -2.457  -1.182  -6.481  1.00  0.00    -0.387 OA
ATOM     25  H   UNL     1      -1.572  -0.733  -6.477  1.00  0.00     0.211 HD
ENDBRANCH  19  24
BRANCH  20  26
ATOM     26  C   UNL     1      -4.011  -5.278  -7.057  1.00  0.00     0.191 C 
BRANCH  26  27
ATOM     27  O   UNL     1      -3.127  -6.103  -6.348  1.00  0.00    -0.394 OA
ATOM     28  H   UNL     1      -3.345  -7.034  -6.615  1.00  0.00     0.210 HD
ENDBRANCH  26  27
ENDBRANCH  20  26
BRANCH  21  29
ATOM     29  O   UNL     1      -1.511  -3.744  -6.907  1.00  0.00    -0.387 OA
ATOM     30  H   UNL     1      -1.739  -3.164  -7.681  1.00  0.00     0.211 HD
ENDBRANCH  21  29
ENDBRANCH   1  16
TORSDOF 10
ENDMDL
MODEL 4
REMARK VINA RESULT:    -5.908     17.181     20.024
REMARK INTER + INTRA:          -9.689
REMARK INTER:                  -8.161
REMARK INTRA:                  -1.528
REMARK UNBOUND:                -1.363
REMARK SMILES OCC1=C[C@@H](O)[C@@H]2C=CO[C@H](O[C@H]3O[C@H](CO)[C@@H](O)[C@@H](O)[C@H]3O)[C@@H]12
REMARK SMILES IDX 12 1 11 2 8 3 9 4 7 5 10 6 24 7 5 8 3 9 4 10 6 11 2 13 1 14
REMARK SMILES IDX 13 16 22 17 14 18 20 19 15 20 18 21 23 22 21 24 16 26 17 27
REMARK SMILES IDX 19 29
REMARK H PARENT 6 12 1 15 23 23 21 25 17 28 19 30
REMARK Flexibility Score: inf
ROOT
ATOM      1  O   UNL     1       2.998  -8.071  10.220  1.00  0.00    -0.310 OA
ENDROOT
BRANCH   1   2
ATOM      2  C   UNL     1       1.810  -8.553   9.602  1.00  0.00     0.316 C 
ATOM      3  C   UNL     1      -0.734  -7.766   8.410  1.00  0.00     0.018 C 
ATOM      4  C   UNL     1      -0.581  -7.734   9.741  1.00  0.00     0.186 C 
ATOM      5  C   UNL     1       0.330  -8.464   7.629  1.00  0.00     0.061 C 
ATOM      6  O   UNL     1       0.615  -8.192  10.345  1.00  0.00    -0.472 OA
ATOM      7  C   UNL     1       1.692  -8.041   8.154  1.00  0.00     0.096 C 
ATOM      8  C   UNL     1       0.447  -8.241   6.126  1.00  0.00     0.145 C 
ATOM      9  C   UNL     1       2.580  -8.556   7.065  1.00  0.00    -0.036 C 
ATOM     10  C   UNL     1       1.898  -8.581   5.914  1.00  0.00     0.007 C 
BRANCH   8  11
ATOM     11  O   UNL     1      -0.387  -9.123   5.425  1.00  0.00    -0.388 OA
ATOM     12  H   UNL     1      -1.226  -8.626   5.241  1.00  0.00     0.211 HD
ENDBRANCH   8  11
BRANCH   9  13
ATOM     13  C   UNL     1       4.050  -8.854   7.174  1.00  0.00     0.187 C 
BRANCH  13  14
ATOM     14  O   UNL     1       4.709  -7.799   7.817  1.00  0.00    -0.392 OA
ATOM     15  H   UNL     1       5.679  -7.911   7.635  1.00  0.00     0.211 HD
ENDBRANCH  13  14
ENDBRANCH   9  13
ENDBRANCH   1   2
BRANCH   1  16
ATOM     16  C   UNL     1       3.698  -9.076  10.944  1.00  0.00     0.286 C 
ATOM     17  C   UNL     1       3.515  -8.893  12.468  1.00  0.00     0.202 C 
ATOM     18  O   UNL     1       5.080  -9.073  10.613  1.00  0.00    -0.341 OA
ATOM     19  C   UNL     1       4.192  -7.602  12.962  1.00  0.00     0.179 C 
ATOM     20  C   UNL     1       5.697  -7.834  10.939  1.00  0.00     0.178 C 
ATOM     21  C   UNL     1       5.651  -7.575  12.465  1.00  0.00     0.177 C 
BRANCH  17  22
ATOM     22  O   UNL     1       2.161  -8.955  12.844  1.00  0.00    -0.385 OA
ATOM     23  H   UNL     1       2.119  -9.123  13.819  1.00  0.00     0.211 HD
ENDBRANCH  17  22
BRANCH  19  24
ATOM     24  O   UNL     1       3.494  -6.474  12.492  1.00  0.00    -0.387 OA
ATOM     25  H   UNL     1       4.154  -5.896  12.027  1.00  0.00     0.211 HD
ENDBRANCH  19  24
BRANCH  20  26
ATOM     26  C   UNL     1       7.141  -7.863  10.420  1.00  0.00     0.191 C 
BRANCH  26  27
ATOM     27  O   UNL     1       7.164  -8.176   9.054  1.00  0.00    -0.394 OA
ATOM     28  H   UNL     1       6.401  -7.688   8.647  1.00  0.00     0.210 HD
ENDBRANCH  26  27
ENDBRANCH  20  26
BRANCH  21  29
ATOM     29  O   UNL     1       6.241  -6.334  12.760  1.00  0.00    -0.387 OA
ATOM     30  H   UNL     1       6.202  -5.795  11.927  1.00  0.00     0.211 HD
ENDBRANCH  21  29
ENDBRANCH   1  16
TORSDOF 10
ENDMDL
MODEL 5
REMARK VINA RESULT:    -5.842     12.084     14.725
REMARK INTER + INTRA:          -9.595
REMARK INTER:                  -8.657
REMARK INTRA:                  -0.939
REMARK UNBOUND:                -1.363
REMARK SMILES OCC1=C[C@@H](O)[C@@H]2C=CO[C@H](O[C@H]3O[C@H](CO)[C@@H](O)[C@@H](O)[C@H]3O)[C@@H]12
REMARK SMILES IDX 12 1 11 2 8 3 9 4 7 5 10 6 24 7 5 8 3 9 4 10 6 11 2 13 1 14
REMARK SMILES IDX 13 16 22 17 14 18 20 19 15 20 18 21 23 22 21 24 16 26 17 27
REMARK SMILES IDX 19 29
REMARK H PARENT 6 12 1 15 23 23 21 25 17 28 19 30
REMARK Flexibility Score: inf
ROOT
ATOM      1  O   UNL     1       6.763   2.751  -3.542  1.00  0.00    -0.310 OA
ENDROOT
BRANCH   1   2
ATOM      2  C   UNL     1       6.980   4.142  -3.752  1.00  0.00     0.316 C 
ATOM      3  C   UNL     1       8.822   6.119  -4.853  1.00  0.00     0.018 C 
ATOM      4  C   UNL     1       9.105   5.517  -3.689  1.00  0.00     0.186 C 
ATOM      5  C   UNL     1       7.440   5.934  -5.385  1.00  0.00     0.061 C 
ATOM      6  O   UNL     1       8.185   4.619  -3.095  1.00  0.00    -0.472 OA
ATOM      7  C   UNL     1       7.047   4.472  -5.255  1.00  0.00     0.096 C 
ATOM      8  C   UNL     1       7.133   6.253  -6.844  1.00  0.00     0.145 C 
ATOM      9  C   UNL     1       5.826   4.435  -6.120  1.00  0.00    -0.036 C 
ATOM     10  C   UNL     1       5.925   5.381  -7.063  1.00  0.00     0.007 C 
BRANCH   8  11
ATOM     11  O   UNL     1       6.812   7.608  -7.001  1.00  0.00    -0.388 OA
ATOM     12  H   UNL     1       6.781   7.995  -6.088  1.00  0.00     0.211 HD
ENDBRANCH   8  11
BRANCH   9  13
ATOM     13  C   UNL     1       4.724   3.414  -6.072  1.00  0.00     0.187 C 
BRANCH  13  14
ATOM     14  O   UNL     1       3.484   4.032  -6.282  1.00  0.00    -0.392 OA
ATOM     15  H   UNL     1       3.334   4.049  -7.264  1.00  0.00     0.211 HD
ENDBRANCH  13  14
ENDBRANCH   9  13
ENDBRANCH   1   2
BRANCH   1  16
ATOM     16  C   UNL     1       7.942   1.971  -3.707  1.00  0.00     0.286 C 
ATOM     17  C   UNL     1       7.651   0.688  -4.519  1.00  0.00     0.202 C 
ATOM     18  O   UNL     1       8.509   1.635  -2.447  1.00  0.00    -0.341 OA
ATOM     19  C   UNL     1       6.730  -0.270  -3.743  1.00  0.00     0.179 C 
ATOM     20  C   UNL     1       7.617   0.861  -1.657  1.00  0.00     0.178 C 
ATOM     21  C   UNL     1       7.313  -0.499  -2.334  1.00  0.00     0.177 C 
BRANCH  17  22
ATOM     22  O   UNL     1       7.148   0.982  -5.799  1.00  0.00    -0.385 OA
ATOM     23  H   UNL     1       7.497   0.305  -6.431  1.00  0.00     0.211 HD
ENDBRANCH  17  22
BRANCH  19  24
ATOM     24  O   UNL     1       5.432   0.266  -3.655  1.00  0.00    -0.387 OA
ATOM     25  H   UNL     1       5.047  -0.043  -2.793  1.00  0.00     0.211 HD
ENDBRANCH  19  24
BRANCH  20  26
ATOM     26  C   UNL     1       8.245   0.667  -0.270  1.00  0.00     0.191 C 
BRANCH  26  27
ATOM     27  O   UNL     1       7.248   0.482   0.697  1.00  0.00    -0.394 OA
ATOM     28  H   UNL     1       7.283   1.282   1.284  1.00  0.00     0.210 HD
ENDBRANCH  26  27
ENDBRANCH  20  26
BRANCH  21  29
ATOM     29  O   UNL     1       6.408  -1.235  -1.549  1.00  0.00    -0.387 OA
ATOM     30  H   UNL     1       6.952  -1.838  -0.977  1.00  0.00     0.211 HD
ENDBRANCH  21  29
ENDBRANCH   1  16
TORSDOF 10
ENDMDL
MODEL 6
REMARK VINA RESULT:    -5.802     11.895     14.959
REMARK INTER + INTRA:          -9.540
REMARK INTER:                  -8.007
REMARK INTRA:                  -1.533
REMARK UNBOUND:                -1.363
REMARK SMILES OCC1=C[C@@H](O)[C@@H]2C=CO[C@H](O[C@H]3O[C@H](CO)[C@@H](O)[C@@H](O)[C@H]3O)[C@@H]12
REMARK SMILES IDX 12 1 11 2 8 3 9 4 7 5 10 6 24 7 5 8 3 9 4 10 6 11 2 13 1 14
REMARK SMILES IDX 13 16 22 17 14 18 20 19 15 20 18 21 23 22 21 24 16 26 17 27
REMARK SMILES IDX 19 29
REMARK H PARENT 6 12 1 15 23 23 21 25 17 28 19 30
REMARK Flexibility Score: inf
ROOT
ATOM      1  O   UNL     1       6.292   5.507  -4.904  1.00  0.00    -0.310 OA
ENDROOT
BRANCH   1   2
ATOM      2  C   UNL     1       7.176   4.417  -4.670  1.00  0.00     0.316 C 
ATOM      3  C   UNL     1       8.081   2.476  -2.688  1.00  0.00     0.018 C 
ATOM      4  C   UNL     1       8.481   3.753  -2.605  1.00  0.00     0.186 C 
ATOM      5  C   UNL     1       7.407   2.066  -3.955  1.00  0.00     0.061 C 
ATOM      6  O   UNL     1       8.123   4.691  -3.603  1.00  0.00    -0.472 OA
ATOM      7  C   UNL     1       6.394   3.129  -4.348  1.00  0.00     0.096 C 
ATOM      8  C   UNL     1       6.599   0.774  -4.009  1.00  0.00     0.145 C 
ATOM      9  C   UNL     1       5.619   2.399  -5.400  1.00  0.00    -0.036 C 
ATOM     10  C   UNL     1       5.668   1.084  -5.150  1.00  0.00     0.007 C 
BRANCH   8  11
ATOM     11  O   UNL     1       7.424  -0.317  -4.313  1.00  0.00    -0.388 OA
ATOM     12  H   UNL     1       7.998  -0.030  -5.070  1.00  0.00     0.211 HD
ENDBRANCH   8  11
BRANCH   9  13
ATOM     13  C   UNL     1       4.777   3.015  -6.482  1.00  0.00     0.187 C 
BRANCH  13  14
ATOM     14  O   UNL     1       3.838   3.891  -5.922  1.00  0.00    -0.392 OA
ATOM     15  H   UNL     1       2.943   3.586  -6.224  1.00  0.00     0.211 HD
ENDBRANCH  13  14
ENDBRANCH   9  13
ENDBRANCH   1   2
BRANCH   1  16
ATOM     16  C   UNL     1       6.567   6.198  -6.117  1.00  0.00     0.286 C 
ATOM     17  C   UNL     1       7.329   7.515  -5.847  1.00  0.00     0.202 C 
ATOM     18  O   UNL     1       5.368   6.465  -6.833  1.00  0.00    -0.341 OA
ATOM     19  C   UNL     1       6.451   8.525  -5.086  1.00  0.00     0.179 C 
ATOM     20  C   UNL     1       4.481   7.289  -6.088  1.00  0.00     0.178 C 
ATOM     21  C   UNL     1       5.107   8.681  -5.824  1.00  0.00     0.177 C 
BRANCH  17  22
ATOM     22  O   UNL     1       8.554   7.286  -5.195  1.00  0.00    -0.385 OA
ATOM     23  H   UNL     1       9.233   7.886  -5.595  1.00  0.00     0.211 HD
ENDBRANCH  17  22
BRANCH  19  24
ATOM     24  O   UNL     1       6.237   8.088  -3.765  1.00  0.00    -0.387 OA
ATOM     25  H   UNL     1       5.846   7.177  -3.820  1.00  0.00     0.211 HD
ENDBRANCH  19  24
BRANCH  20  26
ATOM     26  C   UNL     1       3.163   7.406  -6.866  1.00  0.00     0.191 C 
BRANCH  26  27
ATOM     27  O   UNL     1       2.478   6.184  -6.856  1.00  0.00    -0.394 OA
ATOM     28  H   UNL     1       1.817   6.232  -7.595  1.00  0.00     0.210 HD
ENDBRANCH  26  27
ENDBRANCH  20  26
BRANCH  21  29
ATOM     29  O   UNL     1       4.224   9.467  -5.064  1.00  0.00    -0.387 OA
ATOM     30  H   UNL     1       3.771  10.082  -5.699  1.00  0.00     0.211 HD
ENDBRANCH  21  29
ENDBRANCH   1  16
TORSDOF 10
ENDMDL
MODEL 7
REMARK VINA RESULT:    -5.743      1.972      6.659
REMARK INTER + INTRA:          -9.456
REMARK INTER:                  -8.000
REMARK INTRA:                  -1.456
REMARK UNBOUND:                -1.363
REMARK SMILES OCC1=C[C@@H](O)[C@@H]2C=CO[C@H](O[C@H]3O[C@H](CO)[C@@H](O)[C@@H](O)[C@H]3O)[C@@H]12
REMARK SMILES IDX 12 1 11 2 8 3 9 4 7 5 10 6 24 7 5 8 3 9 4 10 6 11 2 13 1 14
REMARK SMILES IDX 13 16 22 17 14 18 20 19 15 20 18 21 23 22 21 24 16 26 17 27
REMARK SMILES IDX 19 29
REMARK H PARENT 6 12 1 15 23 23 21 25 17 28 19 30
REMARK Flexibility Score: inf
ROOT
ATOM      1  O   UNL     1      -5.602  -0.680  -5.285  1.00  0.00    -0.310 OA
ENDROOT
BRANCH   1   2
ATOM      2  C   UNL     1      -4.686  -1.678  -5.721  1.00  0.00     0.316 C 
ATOM      3  C   UNL     1      -2.641  -3.568  -4.850  1.00  0.00     0.018 C 
ATOM      4  C   UNL     1      -2.358  -2.259  -4.913  1.00  0.00     0.186 C 
ATOM      5  C   UNL     1      -3.914  -4.011  -5.491  1.00  0.00     0.061 C 
ATOM      6  O   UNL     1      -3.308  -1.336  -5.414  1.00  0.00    -0.472 OA
ATOM      7  C   UNL     1      -5.026  -3.049  -5.107  1.00  0.00     0.096 C 
ATOM      8  C   UNL     1      -4.502  -5.378  -5.161  1.00  0.00     0.145 C 
ATOM      9  C   UNL     1      -6.228  -3.827  -5.544  1.00  0.00    -0.036 C 
ATOM     10  C   UNL     1      -5.952  -5.136  -5.487  1.00  0.00     0.007 C 
BRANCH   8  11
ATOM     11  O   UNL     1      -3.957  -6.368  -5.991  1.00  0.00    -0.388 OA
ATOM     12  H   UNL     1      -4.356  -7.228  -5.698  1.00  0.00     0.211 HD
ENDBRANCH   8  11
BRANCH   9  13
ATOM     13  C   UNL     1      -7.592  -3.272  -5.849  1.00  0.00     0.187 C 
BRANCH  13  14
ATOM     14  O   UNL     1      -7.549  -2.506  -7.021  1.00  0.00    -0.392 OA
ATOM     15  H   UNL     1      -8.364  -2.731  -7.543  1.00  0.00     0.211 HD
ENDBRANCH  13  14
ENDBRANCH   9  13
ENDBRANCH   1   2
BRANCH   1  16
ATOM     16  C   UNL     1      -5.793   0.358  -6.239  1.00  0.00     0.286 C 
ATOM     17  C   UNL     1      -5.247   1.705  -5.712  1.00  0.00     0.202 C 
ATOM     18  O   UNL     1      -7.166   0.487  -6.583  1.00  0.00    -0.341 OA
ATOM     19  C   UNL     1      -6.067   2.210  -4.511  1.00  0.00     0.179 C 
ATOM     20  C   UNL     1      -7.963   0.821  -5.455  1.00  0.00     0.178 C 
ATOM     21  C   UNL     1      -7.563   2.204  -4.883  1.00  0.00     0.177 C 
BRANCH  17  22
ATOM     22  O   UNL     1      -3.874   1.635  -5.420  1.00  0.00    -0.385 OA
ATOM     23  H   UNL     1      -3.499   2.550  -5.479  1.00  0.00     0.211 HD
ENDBRANCH  17  22
BRANCH  19  24
ATOM     24  O   UNL     1      -5.839   1.394  -3.387  1.00  0.00    -0.387 OA
ATOM     25  H   UNL     1      -5.901   0.452  -3.694  1.00  0.00     0.211 HD
ENDBRANCH  19  24
BRANCH  20  26
ATOM     26  C   UNL     1      -9.437   0.797  -5.882  1.00  0.00     0.191 C 
BRANCH  26  27
ATOM     27  O   UNL     1     -10.261   0.519  -4.783  1.00  0.00    -0.394 OA
ATOM     28  H   UNL     1     -10.635  -0.386  -4.941  1.00  0.00     0.210 HD
ENDBRANCH  26  27
ENDBRANCH  20  26
BRANCH  21  29
ATOM     29  O   UNL     1      -8.345   2.500  -3.753  1.00  0.00    -0.387 OA
ATOM     30  H   UNL     1      -9.086   3.084  -4.064  1.00  0.00     0.211 HD
ENDBRANCH  21  29
ENDBRANCH   1  16
TORSDOF 10
ENDMDL
MODEL 8
REMARK VINA RESULT:    -5.514      3.759      8.296
REMARK INTER + INTRA:          -9.134
REMARK INTER:                  -7.709
REMARK INTRA:                  -1.425
REMARK UNBOUND:                -1.363
REMARK SMILES OCC1=C[C@@H](O)[C@@H]2C=CO[C@H](O[C@H]3O[C@H](CO)[C@@H](O)[C@@H](O)[C@H]3O)[C@@H]12
REMARK SMILES IDX 12 1 11 2 8 3 9 4 7 5 10 6 24 7 5 8 3 9 4 10 6 11 2 13 1 14
REMARK SMILES IDX 13 16 22 17 14 18 20 19 15 20 18 21 23 22 21 24 16 26 17 27
REMARK SMILES IDX 19 29
REMARK H PARENT 6 12 1 15 23 23 21 25 17 28 19 30
REMARK Flexibility Score: inf
ROOT
ATOM      1  O   UNL     1      -3.487  -3.368  -5.508  1.00  0.00    -0.310 OA
ENDROOT
BRANCH   1   2
ATOM      2  C   UNL     1      -2.584  -4.312  -6.073  1.00  0.00     0.316 C 
ATOM      3  C   UNL     1      -0.311  -6.054  -5.513  1.00  0.00     0.018 C 
ATOM      4  C   UNL     1      -0.128  -4.730  -5.627  1.00  0.00     0.186 C 
ATOM      5  C   UNL     1      -1.635  -6.587  -5.949  1.00  0.00     0.061 C 
ATOM      6  O   UNL     1      -1.201  -3.878  -5.982  1.00  0.00    -0.472 OA
ATOM      7  C   UNL     1      -2.737  -5.692  -5.406  1.00  0.00     0.096 C 
ATOM      8  C   UNL     1      -2.075  -7.984  -5.526  1.00  0.00     0.145 C 
ATOM      9  C   UNL     1      -3.938  -6.552  -5.650  1.00  0.00    -0.036 C 
ATOM     10  C   UNL     1      -3.570  -7.839  -5.628  1.00  0.00     0.007 C 
BRANCH   8  11
ATOM     11  O   UNL     1      -1.599  -8.950  -6.423  1.00  0.00    -0.388 OA
ATOM     12  H   UNL     1      -1.054  -8.463  -7.094  1.00  0.00     0.211 HD
ENDBRANCH   8  11
BRANCH   9  13
ATOM     13  C   UNL     1      -5.365  -6.090  -5.747  1.00  0.00     0.187 C 
BRANCH  13  14
ATOM     14  O   UNL     1      -5.646  -5.176  -4.724  1.00  0.00    -0.392 OA
ATOM     15  H   UNL     1      -6.012  -4.361  -5.158  1.00  0.00     0.211 HD
ENDBRANCH  13  14
ENDBRANCH   9  13
ENDBRANCH   1   2
BRANCH   1  16
ATOM     16  C   UNL     1      -4.158  -2.583  -6.487  1.00  0.00     0.286 C 
ATOM     17  C   UNL     1      -3.443  -1.230  -6.701  1.00  0.00     0.202 C 
ATOM     18  O   UNL     1      -5.516  -2.368  -6.122  1.00  0.00    -0.341 OA
ATOM     19  C   UNL     1      -3.539  -0.342  -5.447  1.00  0.00     0.179 C 
ATOM     20  C   UNL     1      -5.626  -1.664  -4.892  1.00  0.00     0.178 C 
ATOM     21  C   UNL     1      -5.013  -0.246  -5.007  1.00  0.00     0.177 C 
BRANCH  17  22
ATOM     22  O   UNL     1      -2.114  -1.401  -7.125  1.00  0.00    -0.385 OA
ATOM     23  H   UNL     1      -1.524  -0.917  -6.494  1.00  0.00     0.211 HD
ENDBRANCH  17  22
BRANCH  19  24
ATOM     24  O   UNL     1      -2.751  -0.875  -4.410  1.00  0.00    -0.387 OA
ATOM     25  H   UNL     1      -3.091  -0.492  -3.560  1.00  0.00     0.211 HD
ENDBRANCH  19  24
BRANCH  20  26
ATOM     26  C   UNL     1      -7.109  -1.603  -4.503  1.00  0.00     0.191 C 
BRANCH  26  27
ATOM     27  O   UNL     1      -7.248  -1.224  -3.161  1.00  0.00    -0.394 OA
ATOM     28  H   UNL     1      -7.991  -1.771  -2.796  1.00  0.00     0.210 HD
ENDBRANCH  26  27
ENDBRANCH  20  26
BRANCH  21  29
ATOM     29  O   UNL     1      -5.109   0.419  -3.773  1.00  0.00    -0.387 OA
ATOM     30  H   UNL     1      -4.428   0.011  -3.176  1.00  0.00     0.211 HD
ENDBRANCH  21  29
ENDBRANCH   1  16
TORSDOF 10
ENDMDL
