MODEL 1
REMARK VINA RESULT:    -2.546      0.000      0.000
REMARK INTER + INTRA:          -2.546
REMARK INTER:                  -2.546
REMARK INTRA:                   0.000
REMARK UNBOUND:                 0.000
REMARK SMILES CC(=O)[O-]
REMARK SMILES IDX 1 1 2 2 3 3 4 4
REMARK H PARENT
REMARK Flexibility Score: inf
ROOT
ATOM      1  C   UNL     1       1.801 -36.373  16.111  1.00  0.00     0.063 C 
ATOM      2  C   UNL     1       2.961 -37.282  16.337  1.00  0.00     0.038 C 
ATOM      3  O   UNL     1       3.517 -37.850  15.360  1.00  0.00    -0.550 OA
ATOM      4  O   UNL     1       3.466 -37.462  17.618  1.00  0.00    -0.550 OA
ENDROOT
TORSDOF 0
ENDMDL
MODEL 2
REMARK VINA RESULT:    -2.477      1.322      1.766
REMARK INTER + INTRA:          -2.477
REMARK INTER:                  -2.477
REMARK INTRA:                   0.000
REMARK UNBOUND:                 0.000
REMARK SMILES CC(=O)[O-]
REMARK SMILES IDX 1 1 2 2 3 3 4 4
REMARK H PARENT
REMARK Flexibility Score: inf
ROOT
ATOM      1  C   UNL     1       3.159 -37.155  17.629  1.00  0.00     0.063 C 
ATOM      2  C   UNL     1       2.830 -37.175  16.176  1.00  0.00     0.038 C 
ATOM      3  O   UNL     1       3.550 -37.824  15.374  1.00  0.00    -0.550 OA
ATOM      4  O   UNL     1       1.696 -36.521  15.710  1.00  0.00    -0.550 OA
ENDROOT
TORSDOF 0
ENDMDL
MODEL 3
REMARK VINA RESULT:    -2.359      1.981      2.352
REMARK INTER + INTRA:          -2.359
REMARK INTER:                  -2.359
REMARK INTRA:                   0.000
REMARK UNBOUND:                 0.000
REMARK SMILES CC(=O)[O-]
REMARK SMILES IDX 1 1 2 2 3 3 4 4
REMARK H PARENT
REMARK Flexibility Score: inf
ROOT
ATOM      1  C   UNL     1       2.755 -37.030  16.804  1.00  0.00     0.063 C 
ATOM      2  C   UNL     1       2.871 -37.544  18.198  1.00  0.00     0.038 C 
ATOM      3  O   UNL     1       3.992 -37.570  18.770  1.00  0.00    -0.550 OA
ATOM      4  O   UNL     1       1.735 -37.945  18.889  1.00  0.00    -0.550 OA
ENDROOT
TORSDOF 0
ENDMDL
MODEL 4
REMARK VINA RESULT:    -2.326      2.195      2.422
REMARK INTER + INTRA:          -2.326
REMARK INTER:                  -2.326
REMARK INTRA:                   0.000
REMARK UNBOUND:                 0.000
REMARK SMILES CC(=O)[O-]
REMARK SMILES IDX 1 1 2 2 3 3 4 4
REMARK H PARENT
REMARK Flexibility Score: inf
ROOT
ATOM      1  C   UNL     1       3.053 -37.016  16.887  1.00  0.00     0.063 C 
ATOM      2  C   UNL     1       3.072 -37.504  18.295  1.00  0.00     0.038 C 
ATOM      3  O   UNL     1       2.005 -37.879  18.848  1.00  0.00    -0.550 OA
ATOM      4  O   UNL     1       4.274 -37.598  18.984  1.00  0.00    -0.550 OA
ENDROOT
TORSDOF 0
ENDMDL
MODEL 5
REMARK VINA RESULT:    -2.276      2.183      2.650
REMARK INTER + INTRA:          -2.276
REMARK INTER:                  -2.276
REMARK INTRA:                   0.000
REMARK UNBOUND:                 0.000
REMARK SMILES CC(=O)[O-]
REMARK SMILES IDX 1 1 2 2 3 3 4 4
REMARK H PARENT
REMARK Flexibility Score: inf
ROOT
ATOM      1  C   UNL     1       4.154 -37.124  19.303  1.00  0.00     0.063 C 
ATOM      2  C   UNL     1       3.067 -37.506  18.357  1.00  0.00     0.038 C 
ATOM      3  O   UNL     1       3.268 -37.466  17.115  1.00  0.00    -0.550 OA
ATOM      4  O   UNL     1       1.849 -37.962  18.844  1.00  0.00    -0.550 OA
ENDROOT
TORSDOF 0
ENDMDL
MODEL 6
REMARK VINA RESULT:    -2.259      2.181      2.947
REMARK INTER + INTRA:          -2.259
REMARK INTER:                  -2.259
REMARK INTRA:                   0.000
REMARK UNBOUND:                 0.000
REMARK SMILES CC(=O)[O-]
REMARK SMILES IDX 1 1 2 2 3 3 4 4
REMARK H PARENT
REMARK Flexibility Score: inf
ROOT
ATOM      1  C   UNL     1       3.928 -37.075  19.333  1.00  0.00     0.063 C 
ATOM      2  C   UNL     1       2.895 -37.534  18.361  1.00  0.00     0.038 C 
ATOM      3  O   UNL     1       1.762 -37.899  18.770  1.00  0.00    -0.550 OA
ATOM      4  O   UNL     1       3.161 -37.508  16.998  1.00  0.00    -0.550 OA
ENDROOT
TORSDOF 0
ENDMDL
MODEL 7
REMARK VINA RESULT:    -2.200      3.320      3.981
REMARK INTER + INTRA:          -2.200
REMARK INTER:                  -2.200
REMARK INTRA:                   0.000
REMARK UNBOUND:                 0.000
REMARK SMILES CC(=O)[O-]
REMARK SMILES IDX 1 1 2 2 3 3 4 4
REMARK H PARENT
REMARK Flexibility Score: inf
ROOT
ATOM      1  C   UNL     1       4.301 -36.051  20.355  1.00  0.00     0.063 C 
ATOM      2  C   UNL     1       4.509 -37.321  19.603  1.00  0.00     0.038 C 
ATOM      3  O   UNL     1       5.333 -38.175  20.022  1.00  0.00    -0.550 OA
ATOM      4  O   UNL     1       3.755 -37.590  18.468  1.00  0.00    -0.550 OA
ENDROOT
TORSDOF 0
ENDMDL
MODEL 8
REMARK VINA RESULT:    -2.195      4.859      5.103
REMARK INTER + INTRA:          -2.195
REMARK INTER:                  -2.195
REMARK INTRA:                   0.000
REMARK UNBOUND:                 0.000
REMARK SMILES CC(=O)[O-]
REMARK SMILES IDX 1 1 2 2 3 3 4 4
REMARK H PARENT
REMARK Flexibility Score: inf
ROOT
ATOM      1  C   UNL     1       4.940 -37.534  19.876  1.00  0.00     0.063 C 
ATOM      2  C   UNL     1       5.016 -36.218  20.573  1.00  0.00     0.038 C 
ATOM      3  O   UNL     1       6.125 -35.637  20.704  1.00  0.00    -0.550 OA
ATOM      4  O   UNL     1       3.857 -35.603  21.029  1.00  0.00    -0.550 OA
ENDROOT
TORSDOF 0
ENDMDL
MODEL 9
REMARK VINA RESULT:    -2.171      4.448      4.912
REMARK INTER + INTRA:          -2.171
REMARK INTER:                  -2.171
REMARK INTRA:                   0.000
REMARK UNBOUND:                 0.000
REMARK SMILES CC(=O)[O-]
REMARK SMILES IDX 1 1 2 2 3 3 4 4
REMARK H PARENT
REMARK Flexibility Score: inf
ROOT
ATOM      1  C   UNL     1       5.711 -35.961  21.526  1.00  0.00     0.063 C 
ATOM      2  C   UNL     1       5.132 -36.480  20.255  1.00  0.00     0.038 C 
ATOM      3  O   UNL     1       4.622 -35.685  19.423  1.00  0.00    -0.550 OA
ATOM      4  O   UNL     1       5.202 -37.835  19.959  1.00  0.00    -0.550 OA
ENDROOT
TORSDOF 0
ENDMDL
