MODEL 1
REMARK VINA RESULT:    -3.718      0.000      0.000
REMARK INTER + INTRA:          -8.773
REMARK INTER:                  -6.869
REMARK INTRA:                  -1.904
REMARK UNBOUND:                -1.904
REMARK SMILES CCCCCCCCCCCCCCCCO
REMARK SMILES IDX 9 1 8 2 7 3 6 4 5 5 4 6 3 7 2 8 1 9 10 10 11 11 12 12 13 13
REMARK SMILES IDX 14 14 15 15 16 16 17 17
REMARK H PARENT 17 18
REMARK Flexibility Score: inf
ROOT
ATOM      1  C   UNL     1      10.381  -0.884  33.564  1.00  0.00     0.000 C 
ENDROOT
BRANCH   1   2
ATOM      2  C   UNL     1      10.743  -2.294  34.062  1.00  0.00    -0.000 C 
BRANCH   2   3
ATOM      3  C   UNL     1       9.608  -3.308  33.847  1.00  0.00    -0.000 C 
BRANCH   3   4
ATOM      4  C   UNL     1       9.077  -3.889  35.165  1.00  0.00    -0.000 C 
BRANCH   4   5
ATOM      5  C   UNL     1       9.594  -3.088  36.367  1.00  0.00    -0.000 C 
BRANCH   5   6
ATOM      6  C   UNL     1       8.449  -2.356  37.077  1.00  0.00    -0.000 C 
BRANCH   6   7
ATOM      7  C   UNL     1       8.401  -0.879  36.663  1.00  0.00    -0.000 C 
BRANCH   7   8
ATOM      8  C   UNL     1       6.997  -0.432  36.229  1.00  0.00    -0.003 C 
ATOM      9  C   UNL     1       6.381  -1.355  35.179  1.00  0.00     0.004 C 
ENDBRANCH   7   8
ENDBRANCH   6   7
ENDBRANCH   5   6
ENDBRANCH   4   5
ENDBRANCH   3   4
ENDBRANCH   2   3
ENDBRANCH   1   2
BRANCH   1  10
ATOM     10  C   UNL     1       9.142  -0.891  32.643  1.00  0.00     0.000 C 
BRANCH  10  11
ATOM     11  C   UNL     1       9.239   0.107  31.475  1.00  0.00     0.000 C 
BRANCH  11  12
ATOM     12  C   UNL     1      10.613   0.084  30.785  1.00  0.00     0.000 C 
BRANCH  12  13
ATOM     13  C   UNL     1      11.095   1.485  30.375  1.00  0.00     0.000 C 
BRANCH  13  14
ATOM     14  C   UNL     1      10.881   2.530  31.484  1.00  0.00     0.002 C 
BRANCH  14  15
ATOM     15  C   UNL     1      11.932   2.428  32.602  1.00  0.00     0.028 C 
BRANCH  15  16
ATOM     16  C   UNL     1      12.610   3.767  32.905  1.00  0.00     0.156 C 
BRANCH  16  17
ATOM     17  O   UNL     1      13.507   4.076  31.876  1.00  0.00    -0.396 OA
ATOM     18  H   UNL     1      13.254   3.502  31.108  1.00  0.00     0.210 HD
ENDBRANCH  16  17
ENDBRANCH  15  16
ENDBRANCH  14  15
ENDBRANCH  13  14
ENDBRANCH  12  13
ENDBRANCH  11  12
ENDBRANCH  10  11
ENDBRANCH   1  10
TORSDOF 15
ENDMDL
MODEL 2
REMARK VINA RESULT:    -3.579      3.063      6.581
REMARK INTER + INTRA:          -8.517
REMARK INTER:                  -6.389
REMARK INTRA:                  -2.128
REMARK UNBOUND:                -1.904
REMARK SMILES CCCCCCCCCCCCCCCCO
REMARK SMILES IDX 9 1 8 2 7 3 6 4 5 5 4 6 3 7 2 8 1 9 10 10 11 11 12 12 13 13
REMARK SMILES IDX 14 14 15 15 16 16 17 17
REMARK H PARENT 17 18
REMARK Flexibility Score: inf
ROOT
ATOM      1  C   UNL     1      10.303  -0.125  30.640  1.00  0.00     0.000 C 
ENDROOT
BRANCH   1   2
ATOM      2  C   UNL     1      10.986   1.222  30.350  1.00  0.00    -0.000 C 
BRANCH   2   3
ATOM      3  C   UNL     1      10.843   2.222  31.508  1.00  0.00    -0.000 C 
BRANCH   3   4
ATOM      4  C   UNL     1      12.192   2.591  32.142  1.00  0.00    -0.000 C 
BRANCH   4   5
ATOM      5  C   UNL     1      12.292   2.052  33.574  1.00  0.00    -0.000 C 
BRANCH   5   6
ATOM      6  C   UNL     1      12.983   0.683  33.602  1.00  0.00    -0.000 C 
BRANCH   6   7
ATOM      7  C   UNL     1      14.001   0.557  32.460  1.00  0.00    -0.000 C 
BRANCH   7   8
ATOM      8  C   UNL     1      13.869  -0.769  31.695  1.00  0.00    -0.003 C 
ATOM      9  C   UNL     1      13.063  -1.816  32.462  1.00  0.00     0.004 C 
ENDBRANCH   7   8
ENDBRANCH   6   7
ENDBRANCH   5   6
ENDBRANCH   4   5
ENDBRANCH   3   4
ENDBRANCH   2   3
ENDBRANCH   1   2
BRANCH   1  10
ATOM     10  C   UNL     1       9.256  -0.016  31.770  1.00  0.00     0.000 C 
BRANCH  10  11
ATOM     11  C   UNL     1       9.241  -1.231  32.713  1.00  0.00     0.000 C 
BRANCH  11  12
ATOM     12  C   UNL     1       9.837  -0.919  34.096  1.00  0.00     0.000 C 
BRANCH  12  13
ATOM     13  C   UNL     1       9.141  -1.689  35.230  1.00  0.00     0.000 C 
BRANCH  13  14
ATOM     14  C   UNL     1       7.667  -1.997  34.914  1.00  0.00     0.002 C 
BRANCH  14  15
ATOM     15  C   UNL     1       6.705  -0.962  35.520  1.00  0.00     0.028 C 
BRANCH  15  16
ATOM     16  C   UNL     1       5.857  -1.532  36.660  1.00  0.00     0.156 C 
BRANCH  16  17
ATOM     17  O   UNL     1       6.658  -1.696  37.796  1.00  0.00    -0.396 OA
ATOM     18  H   UNL     1       7.337  -0.973  37.762  1.00  0.00     0.210 HD
ENDBRANCH  16  17
ENDBRANCH  15  16
ENDBRANCH  14  15
ENDBRANCH  13  14
ENDBRANCH  12  13
ENDBRANCH  11  12
ENDBRANCH  10  11
ENDBRANCH   1  10
TORSDOF 15
ENDMDL
MODEL 3
REMARK VINA RESULT:    -3.542      3.044      6.380
REMARK INTER + INTRA:          -8.448
REMARK INTER:                  -6.455
REMARK INTRA:                  -1.993
REMARK UNBOUND:                -1.904
REMARK SMILES CCCCCCCCCCCCCCCCO
REMARK SMILES IDX 9 1 8 2 7 3 6 4 5 5 4 6 3 7 2 8 1 9 10 10 11 11 12 12 13 13
REMARK SMILES IDX 14 14 15 15 16 16 17 17
REMARK H PARENT 17 18
REMARK Flexibility Score: inf
ROOT
ATOM      1  C   UNL     1      10.986   1.237  30.392  1.00  0.00     0.000 C 
ENDROOT
BRANCH   1   2
ATOM      2  C   UNL     1      11.592   2.620  30.687  1.00  0.00    -0.000 C 
BRANCH   2   3
ATOM      3  C   UNL     1      11.417   3.043  32.154  1.00  0.00    -0.000 C 
BRANCH   3   4
ATOM      4  C   UNL     1      12.649   2.725  33.012  1.00  0.00    -0.000 C 
BRANCH   4   5
ATOM      5  C   UNL     1      12.392   1.510  33.913  1.00  0.00    -0.000 C 
BRANCH   5   6
ATOM      6  C   UNL     1      13.648   0.640  34.039  1.00  0.00    -0.000 C 
BRANCH   6   7
ATOM      7  C   UNL     1      13.984  -0.038  32.704  1.00  0.00    -0.000 C 
BRANCH   7   8
ATOM      8  C   UNL     1      13.202  -1.344  32.491  1.00  0.00    -0.003 C 
ATOM      9  C   UNL     1      13.174  -1.784  31.029  1.00  0.00     0.004 C 
ENDBRANCH   7   8
ENDBRANCH   6   7
ENDBRANCH   5   6
ENDBRANCH   4   5
ENDBRANCH   3   4
ENDBRANCH   2   3
ENDBRANCH   1   2
BRANCH   1  10
ATOM     10  C   UNL     1       9.852   0.876  31.376  1.00  0.00     0.000 C 
BRANCH  10  11
ATOM     11  C   UNL     1       9.768  -0.628  31.693  1.00  0.00     0.000 C 
BRANCH  11  12
ATOM     12  C   UNL     1       8.946  -0.925  32.958  1.00  0.00     0.000 C 
BRANCH  12  13
ATOM     13  C   UNL     1       9.827  -1.210  34.185  1.00  0.00     0.000 C 
BRANCH  13  14
ATOM     14  C   UNL     1       9.006  -1.646  35.411  1.00  0.00     0.002 C 
BRANCH  14  15
ATOM     15  C   UNL     1       7.899  -0.640  35.768  1.00  0.00     0.028 C 
BRANCH  15  16
ATOM     16  C   UNL     1       6.512  -1.283  35.840  1.00  0.00     0.156 C 
BRANCH  16  17
ATOM     17  O   UNL     1       5.765  -0.663  36.849  1.00  0.00    -0.396 OA
ATOM     18  H   UNL     1       5.358   0.142  36.435  1.00  0.00     0.210 HD
ENDBRANCH  16  17
ENDBRANCH  15  16
ENDBRANCH  14  15
ENDBRANCH  13  14
ENDBRANCH  12  13
ENDBRANCH  11  12
ENDBRANCH  10  11
ENDBRANCH   1  10
TORSDOF 15
ENDMDL
MODEL 4
REMARK VINA RESULT:    -3.457      8.855     10.881
REMARK INTER + INTRA:          -8.291
REMARK INTER:                  -6.457
REMARK INTRA:                  -1.834
REMARK UNBOUND:                -1.904
REMARK SMILES CCCCCCCCCCCCCCCCO
REMARK SMILES IDX 9 1 8 2 7 3 6 4 5 5 4 6 3 7 2 8 1 9 10 10 11 11 12 12 13 13
REMARK SMILES IDX 14 14 15 15 16 16 17 17
REMARK H PARENT 17 18
REMARK Flexibility Score: inf
ROOT
ATOM      1  C   UNL     1       9.307   8.352  43.112  1.00  0.00     0.000 C 
ENDROOT
BRANCH   1   2
ATOM      2  C   UNL     1       8.778   7.945  44.499  1.00  0.00    -0.000 C 
BRANCH   2   3
ATOM      3  C   UNL     1       8.177   6.530  44.512  1.00  0.00    -0.000 C 
BRANCH   3   4
ATOM      4  C   UNL     1       6.673   6.530  44.818  1.00  0.00    -0.000 C 
BRANCH   4   5
ATOM      5  C   UNL     1       5.901   5.708  43.779  1.00  0.00    -0.000 C 
BRANCH   5   6
ATOM      6  C   UNL     1       6.067   6.298  42.373  1.00  0.00    -0.000 C 
BRANCH   6   7
ATOM      7  C   UNL     1       5.582   5.311  41.302  1.00  0.00    -0.000 C 
BRANCH   7   8
ATOM      8  C   UNL     1       6.155   5.621  39.910  1.00  0.00    -0.003 C 
ATOM      9  C   UNL     1       6.968   4.463  39.334  1.00  0.00     0.004 C 
ENDBRANCH   7   8
ENDBRANCH   6   7
ENDBRANCH   5   6
ENDBRANCH   4   5
ENDBRANCH   3   4
ENDBRANCH   2   3
ENDBRANCH   1   2
BRANCH   1  10
ATOM     10  C   UNL     1      10.017   7.185  42.393  1.00  0.00     0.000 C 
BRANCH  10  11
ATOM     11  C   UNL     1       9.509   6.947  40.960  1.00  0.00     0.000 C 
BRANCH  11  12
ATOM     12  C   UNL     1       8.706   8.137  40.408  1.00  0.00     0.000 C 
BRANCH  12  13
ATOM     13  C   UNL     1       8.852   8.295  38.886  1.00  0.00     0.000 C 
BRANCH  13  14
ATOM     14  C   UNL     1       9.580   7.106  38.236  1.00  0.00     0.002 C 
BRANCH  14  15
ATOM     15  C   UNL     1       9.935   7.365  36.762  1.00  0.00     0.028 C 
BRANCH  15  16
ATOM     16  C   UNL     1      11.021   8.430  36.589  1.00  0.00     0.156 C 
BRANCH  16  17
ATOM     17  O   UNL     1      12.280   7.818  36.627  1.00  0.00    -0.396 OA
ATOM     18  H   UNL     1      12.153   6.905  36.260  1.00  0.00     0.210 HD
ENDBRANCH  16  17
ENDBRANCH  15  16
ENDBRANCH  14  15
ENDBRANCH  13  14
ENDBRANCH  12  13
ENDBRANCH  11  12
ENDBRANCH  10  11
ENDBRANCH   1  10
TORSDOF 15
ENDMDL
MODEL 5
REMARK VINA RESULT:    -3.449      1.974      2.865
REMARK INTER + INTRA:          -8.277
REMARK INTER:                  -6.881
REMARK INTRA:                  -1.396
REMARK UNBOUND:                -1.904
REMARK SMILES CCCCCCCCCCCCCCCCO
REMARK SMILES IDX 9 1 8 2 7 3 6 4 5 5 4 6 3 7 2 8 1 9 10 10 11 11 12 12 13 13
REMARK SMILES IDX 14 14 15 15 16 16 17 17
REMARK H PARENT 17 18
REMARK Flexibility Score: inf
ROOT
ATOM      1  C   UNL     1       9.416  -0.039  31.715  1.00  0.00     0.000 C 
ENDROOT
BRANCH   1   2
ATOM      2  C   UNL     1       9.439  -1.431  32.370  1.00  0.00    -0.000 C 
BRANCH   2   3
ATOM      3  C   UNL     1       9.995  -1.404  33.802  1.00  0.00    -0.000 C 
BRANCH   3   4
ATOM      4  C   UNL     1       8.915  -1.102  34.851  1.00  0.00    -0.000 C 
BRANCH   4   5
ATOM      5  C   UNL     1       7.686  -1.995  34.646  1.00  0.00    -0.000 C 
BRANCH   5   6
ATOM      6  C   UNL     1       6.441  -1.379  35.297  1.00  0.00    -0.000 C 
BRANCH   6   7
ATOM      7  C   UNL     1       6.831  -0.300  36.318  1.00  0.00    -0.000 C 
BRANCH   7   8
ATOM      8  C   UNL     1       6.329  -0.619  37.734  1.00  0.00    -0.003 C 
ATOM      9  C   UNL     1       5.130  -1.566  37.738  1.00  0.00     0.004 C 
ENDBRANCH   7   8
ENDBRANCH   6   7
ENDBRANCH   5   6
ENDBRANCH   4   5
ENDBRANCH   3   4
ENDBRANCH   2   3
ENDBRANCH   1   2
BRANCH   1  10
ATOM     10  C   UNL     1      10.509   0.114  30.635  1.00  0.00     0.000 C 
BRANCH  10  11
ATOM     11  C   UNL     1      11.010   1.559  30.468  1.00  0.00     0.000 C 
BRANCH  11  12
ATOM     12  C   UNL     1      10.897   2.381  31.763  1.00  0.00     0.000 C 
BRANCH  12  13
ATOM     13  C   UNL     1      12.226   2.464  32.531  1.00  0.00     0.000 C 
BRANCH  13  14
ATOM     14  C   UNL     1      12.369   1.352  33.585  1.00  0.00     0.002 C 
BRANCH  14  15
ATOM     15  C   UNL     1      13.836   0.979  33.855  1.00  0.00     0.028 C 
BRANCH  15  16
ATOM     16  C   UNL     1      14.167  -0.461  33.455  1.00  0.00     0.156 C 
BRANCH  16  17
ATOM     17  O   UNL     1      13.219  -0.916  32.532  1.00  0.00    -0.396 OA
ATOM     18  H   UNL     1      12.436  -0.311  32.620  1.00  0.00     0.210 HD
ENDBRANCH  16  17
ENDBRANCH  15  16
ENDBRANCH  14  15
ENDBRANCH  13  14
ENDBRANCH  12  13
ENDBRANCH  11  12
ENDBRANCH  10  11
ENDBRANCH   1  10
TORSDOF 15
ENDMDL
MODEL 6
REMARK VINA RESULT:    -3.429      2.642      6.576
REMARK INTER + INTRA:          -8.239
REMARK INTER:                  -6.708
REMARK INTRA:                  -1.532
REMARK UNBOUND:                -1.904
REMARK SMILES CCCCCCCCCCCCCCCCO
REMARK SMILES IDX 9 1 8 2 7 3 6 4 5 5 4 6 3 7 2 8 1 9 10 10 11 11 12 12 13 13
REMARK SMILES IDX 14 14 15 15 16 16 17 17
REMARK H PARENT 17 18
REMARK Flexibility Score: inf
ROOT
ATOM      1  C   UNL     1       9.217  -1.094  32.746  1.00  0.00     0.000 C 
ENDROOT
BRANCH   1   2
ATOM      2  C   UNL     1       9.157  -0.136  31.543  1.00  0.00    -0.000 C 
BRANCH   2   3
ATOM      3  C   UNL     1      10.433  -0.179  30.688  1.00  0.00    -0.000 C 
BRANCH   3   4
ATOM      4  C   UNL     1      11.003   1.219  30.404  1.00  0.00    -0.000 C 
BRANCH   4   5
ATOM      5  C   UNL     1      10.557   2.221  31.476  1.00  0.00    -0.000 C 
BRANCH   5   6
ATOM      6  C   UNL     1      11.691   3.189  31.834  1.00  0.00    -0.000 C 
BRANCH   6   7
ATOM      7  C   UNL     1      12.252   2.885  33.230  1.00  0.00    -0.000 C 
BRANCH   7   8
ATOM      8  C   UNL     1      13.420   1.887  33.193  1.00  0.00    -0.003 C 
ATOM      9  C   UNL     1      13.056   0.529  33.793  1.00  0.00     0.004 C 
ENDBRANCH   7   8
ENDBRANCH   6   7
ENDBRANCH   5   6
ENDBRANCH   4   5
ENDBRANCH   3   4
ENDBRANCH   2   3
ENDBRANCH   1   2
BRANCH   1  10
ATOM     10  C   UNL     1      10.556  -1.859  32.815  1.00  0.00     0.000 C 
BRANCH  10  11
ATOM     11  C   UNL     1      10.493  -3.129  33.683  1.00  0.00     0.000 C 
BRANCH  11  12
ATOM     12  C   UNL     1       9.179  -3.246  34.472  1.00  0.00     0.000 C 
BRANCH  12  13
ATOM     13  C   UNL     1       9.350  -2.912  35.963  1.00  0.00     0.000 C 
BRANCH  13  14
ATOM     14  C   UNL     1       8.539  -1.675  36.386  1.00  0.00     0.002 C 
BRANCH  14  15
ATOM     15  C   UNL     1       7.211  -1.550  35.621  1.00  0.00     0.028 C 
BRANCH  15  16
ATOM     16  C   UNL     1       6.005  -1.374  36.547  1.00  0.00     0.156 C 
BRANCH  16  17
ATOM     17  O   UNL     1       5.938  -0.043  36.974  1.00  0.00    -0.396 OA
ATOM     18  H   UNL     1       6.875   0.279  37.019  1.00  0.00     0.210 HD
ENDBRANCH  16  17
ENDBRANCH  15  16
ENDBRANCH  14  15
ENDBRANCH  13  14
ENDBRANCH  12  13
ENDBRANCH  11  12
ENDBRANCH  10  11
ENDBRANCH   1  10
TORSDOF 15
ENDMDL
MODEL 7
REMARK VINA RESULT:    -3.422      2.386      4.176
REMARK INTER + INTRA:          -8.227
REMARK INTER:                  -6.242
REMARK INTRA:                  -1.985
REMARK UNBOUND:                -1.904
REMARK SMILES CCCCCCCCCCCCCCCCO
REMARK SMILES IDX 9 1 8 2 7 3 6 4 5 5 4 6 3 7 2 8 1 9 10 10 11 11 12 12 13 13
REMARK SMILES IDX 14 14 15 15 16 16 17 17
REMARK H PARENT 17 18
REMARK Flexibility Score: inf
ROOT
ATOM      1  C   UNL     1      10.605   1.823  31.134  1.00  0.00     0.000 C 
ENDROOT
BRANCH   1   2
ATOM      2  C   UNL     1      10.647   0.534  30.295  1.00  0.00    -0.000 C 
BRANCH   2   3
ATOM      3  C   UNL     1      10.033  -0.670  31.026  1.00  0.00    -0.000 C 
BRANCH   3   4
ATOM      4  C   UNL     1       9.092  -0.253  32.166  1.00  0.00    -0.000 C 
BRANCH   4   5
ATOM      5  C   UNL     1       9.471  -0.953  33.476  1.00  0.00    -0.000 C 
BRANCH   5   6
ATOM      6  C   UNL     1       8.744  -2.296  33.616  1.00  0.00    -0.000 C 
BRANCH   6   7
ATOM      7  C   UNL     1       7.976  -2.369  34.943  1.00  0.00    -0.000 C 
BRANCH   7   8
ATOM      8  C   UNL     1       6.795  -1.388  34.997  1.00  0.00    -0.003 C 
ATOM      9  C   UNL     1       6.875  -0.430  36.184  1.00  0.00     0.004 C 
ENDBRANCH   7   8
ENDBRANCH   6   7
ENDBRANCH   5   6
ENDBRANCH   4   5
ENDBRANCH   3   4
ENDBRANCH   2   3
ENDBRANCH   1   2
BRANCH   1  10
ATOM     10  C   UNL     1      11.790   2.761  30.820  1.00  0.00     0.000 C 
BRANCH  10  11
ATOM     11  C   UNL     1      12.753   2.952  32.005  1.00  0.00     0.000 C 
BRANCH  11  12
ATOM     12  C   UNL     1      12.318   2.173  33.257  1.00  0.00     0.000 C 
BRANCH  12  13
ATOM     13  C   UNL     1      13.374   1.156  33.721  1.00  0.00     0.000 C 
BRANCH  13  14
ATOM     14  C   UNL     1      13.013  -0.287  33.331  1.00  0.00     0.002 C 
BRANCH  14  15
ATOM     15  C   UNL     1      13.689  -0.732  32.023  1.00  0.00     0.028 C 
BRANCH  15  16
ATOM     16  C   UNL     1      13.352  -2.175  31.639  1.00  0.00     0.156 C 
BRANCH  16  17
ATOM     17  O   UNL     1      12.494  -2.722  32.600  1.00  0.00    -0.396 OA
ATOM     18  H   UNL     1      11.889  -1.986  32.880  1.00  0.00     0.210 HD
ENDBRANCH  16  17
ENDBRANCH  15  16
ENDBRANCH  14  15
ENDBRANCH  13  14
ENDBRANCH  12  13
ENDBRANCH  11  12
ENDBRANCH  10  11
ENDBRANCH   1  10
TORSDOF 15
ENDMDL
MODEL 8
REMARK VINA RESULT:    -3.409      2.557      6.646
REMARK INTER + INTRA:          -8.202
REMARK INTER:                  -6.298
REMARK INTRA:                  -1.904
REMARK UNBOUND:                -1.904
REMARK SMILES CCCCCCCCCCCCCCCCO
REMARK SMILES IDX 9 1 8 2 7 3 6 4 5 5 4 6 3 7 2 8 1 9 10 10 11 11 12 12 13 13
REMARK SMILES IDX 14 14 15 15 16 16 17 17
REMARK H PARENT 17 18
REMARK Flexibility Score: inf
ROOT
ATOM      1  C   UNL     1       9.434   0.216  31.586  1.00  0.00     0.000 C 
ENDROOT
BRANCH   1   2
ATOM      2  C   UNL     1      10.595   0.273  30.579  1.00  0.00    -0.000 C 
BRANCH   2   3
ATOM      3  C   UNL     1      11.230   1.669  30.484  1.00  0.00    -0.000 C 
BRANCH   3   4
ATOM      4  C   UNL     1      10.655   2.652  31.514  1.00  0.00    -0.000 C 
BRANCH   4   5
ATOM      5  C   UNL     1      11.723   3.069  32.531  1.00  0.00    -0.000 C 
BRANCH   5   6
ATOM      6  C   UNL     1      13.120   2.625  32.080  1.00  0.00    -0.000 C 
BRANCH   6   7
ATOM      7  C   UNL     1      13.842   1.863  33.200  1.00  0.00    -0.000 C 
BRANCH   7   8
ATOM      8  C   UNL     1      12.987   0.732  33.793  1.00  0.00    -0.003 C 
ATOM      9  C   UNL     1      13.244  -0.617  33.123  1.00  0.00     0.004 C 
ENDBRANCH   7   8
ENDBRANCH   6   7
ENDBRANCH   5   6
ENDBRANCH   4   5
ENDBRANCH   3   4
ENDBRANCH   2   3
ENDBRANCH   1   2
BRANCH   1  10
ATOM     10  C   UNL     1       9.415  -1.110  32.378  1.00  0.00     0.000 C 
BRANCH  10  11
ATOM     11  C   UNL     1       9.661  -0.927  33.886  1.00  0.00     0.000 C 
BRANCH  11  12
ATOM     12  C   UNL     1       8.388  -1.129  34.726  1.00  0.00     0.000 C 
BRANCH  12  13
ATOM     13  C   UNL     1       8.148  -2.602  35.095  1.00  0.00     0.000 C 
BRANCH  13  14
ATOM     14  C   UNL     1       9.215  -3.149  36.058  1.00  0.00     0.002 C 
BRANCH  14  15
ATOM     15  C   UNL     1       9.804  -4.489  35.586  1.00  0.00     0.028 C 
BRANCH  15  16
ATOM     16  C   UNL     1       9.663  -4.703  34.077  1.00  0.00     0.156 C 
BRANCH  16  17
ATOM     17  O   UNL     1      10.851  -4.321  33.442  1.00  0.00    -0.396 OA
ATOM     18  H   UNL     1      10.721  -3.379  33.158  1.00  0.00     0.210 HD
ENDBRANCH  16  17
ENDBRANCH  15  16
ENDBRANCH  14  15
ENDBRANCH  13  14
ENDBRANCH  12  13
ENDBRANCH  11  12
ENDBRANCH  10  11
ENDBRANCH   1  10
TORSDOF 15
ENDMDL
MODEL 9
REMARK VINA RESULT:    -3.395      3.427      7.166
REMARK INTER + INTRA:          -8.178
REMARK INTER:                  -6.931
REMARK INTRA:                  -1.247
REMARK UNBOUND:                -1.904
REMARK SMILES CCCCCCCCCCCCCCCCO
REMARK SMILES IDX 9 1 8 2 7 3 6 4 5 5 4 6 3 7 2 8 1 9 10 10 11 11 12 12 13 13
REMARK SMILES IDX 14 14 15 15 16 16 17 17
REMARK H PARENT 17 18
REMARK Flexibility Score: inf
ROOT
ATOM      1  C   UNL     1       8.183  -2.187  34.577  1.00  0.00     0.000 C 
ENDROOT
BRANCH   1   2
ATOM      2  C   UNL     1       9.082  -1.584  33.483  1.00  0.00    -0.000 C 
BRANCH   2   3
ATOM      3  C   UNL     1      10.469  -1.184  34.009  1.00  0.00    -0.000 C 
BRANCH   3   4
ATOM      4  C   UNL     1      11.312  -0.450  32.956  1.00  0.00    -0.000 C 
BRANCH   4   5
ATOM      5  C   UNL     1      10.937  -0.901  31.539  1.00  0.00    -0.000 C 
BRANCH   5   6
ATOM      6  C   UNL     1      10.615   0.300  30.643  1.00  0.00    -0.000 C 
BRANCH   6   7
ATOM      7  C   UNL     1      10.184   1.512  31.481  1.00  0.00    -0.000 C 
BRANCH   7   8
ATOM      8  C   UNL     1      11.028   2.762  31.190  1.00  0.00    -0.003 C 
ATOM      9  C   UNL     1      11.862   2.629  29.917  1.00  0.00     0.004 C 
ENDBRANCH   7   8
ENDBRANCH   6   7
ENDBRANCH   5   6
ENDBRANCH   4   5
ENDBRANCH   3   4
ENDBRANCH   2   3
ENDBRANCH   1   2
BRANCH   1  10
ATOM     10  C   UNL     1       6.901  -1.357  34.799  1.00  0.00     0.000 C 
BRANCH  10  11
ATOM     11  C   UNL     1       6.442  -1.318  36.268  1.00  0.00     0.000 C 
BRANCH  11  12
ATOM     12  C   UNL     1       6.915  -0.055  37.006  1.00  0.00     0.000 C 
BRANCH  12  13
ATOM     13  C   UNL     1       8.348  -0.187  37.549  1.00  0.00     0.000 C 
BRANCH  13  14
ATOM     14  C   UNL     1       8.613  -1.562  38.185  1.00  0.00     0.002 C 
BRANCH  14  15
ATOM     15  C   UNL     1       8.024  -1.681  39.601  1.00  0.00     0.028 C 
BRANCH  15  16
ATOM     16  C   UNL     1       6.885  -2.699  39.688  1.00  0.00     0.156 C 
BRANCH  16  17
ATOM     17  O   UNL     1       5.704  -2.044  40.055  1.00  0.00    -0.396 OA
ATOM     18  H   UNL     1       5.778  -1.864  41.028  1.00  0.00     0.210 HD
ENDBRANCH  16  17
ENDBRANCH  15  16
ENDBRANCH  14  15
ENDBRANCH  13  14
ENDBRANCH  12  13
ENDBRANCH  11  12
ENDBRANCH  10  11
ENDBRANCH   1  10
TORSDOF 15
ENDMDL
