MODEL 1
REMARK VINA RESULT:    -4.276      0.000      0.000
REMARK INTER + INTRA:         -12.326
REMARK INTER:                  -9.276
REMARK INTRA:                  -3.050
REMARK UNBOUND:                -3.050
REMARK SMILES CCCCCCCCCCCCCCCCCCCCCC(=O)[O-]
REMARK SMILES IDX 12 1 11 2 10 3 9 4 8 5 7 6 6 7 5 8 4 9 3 10 2 11 1 12 13 13
REMARK SMILES IDX 14 14 15 15 16 16 17 17 18 18 19 19 20 20 21 21 22 22 23 23
REMARK SMILES IDX 24 24
REMARK H PARENT
REMARK Flexibility Score: inf
ROOT
ATOM      1  C   UNL     1       2.980  -1.834  53.604  1.00  0.00     0.000 C 
ENDROOT
BRANCH   1   2
ATOM      2  C   UNL     1       3.813  -2.180  54.851  1.00  0.00     0.000 C 
BRANCH   2   3
ATOM      3  C   UNL     1       3.770  -3.660  55.270  1.00  0.00     0.000 C 
BRANCH   3   4
ATOM      4  C   UNL     1       2.810  -3.924  56.445  1.00  0.00    -0.000 C 
BRANCH   4   5
ATOM      5  C   UNL     1       1.391  -4.310  55.980  1.00  0.00    -0.000 C 
BRANCH   5   6
ATOM      6  C   UNL     1       1.362  -5.164  54.697  1.00  0.00    -0.000 C 
BRANCH   6   7
ATOM      7  C   UNL     1       0.599  -4.544  53.511  1.00  0.00    -0.000 C 
BRANCH   7   8
ATOM      8  C   UNL     1      -0.318  -3.358  53.866  1.00  0.00    -0.000 C 
BRANCH   8   9
ATOM      9  C   UNL     1      -0.491  -2.365  52.704  1.00  0.00    -0.000 C 
BRANCH   9  10
ATOM     10  C   UNL     1      -1.416  -2.898  51.595  1.00  0.00    -0.000 C 
BRANCH  10  11
ATOM     11  C   UNL     1      -2.809  -2.245  51.537  1.00  0.00    -0.003 C 
ATOM     12  C   UNL     1      -2.880  -1.072  50.561  1.00  0.00     0.004 C 
ENDBRANCH  10  11
ENDBRANCH   9  10
ENDBRANCH   8   9
ENDBRANCH   7   8
ENDBRANCH   6   7
ENDBRANCH   5   6
ENDBRANCH   4   5
ENDBRANCH   3   4
ENDBRANCH   2   3
ENDBRANCH   1   2
BRANCH   1  13
ATOM     13  C   UNL     1       2.849  -0.318  53.373  1.00  0.00     0.000 C 
BRANCH  13  14
ATOM     14  C   UNL     1       3.051   0.492  54.663  1.00  0.00     0.000 C 
BRANCH  14  15
ATOM     15  C   UNL     1       1.946   1.542  54.877  1.00  0.00     0.000 C 
BRANCH  15  16
ATOM     16  C   UNL     1       1.025   1.198  56.058  1.00  0.00     0.000 C 
BRANCH  16  17
ATOM     17  C   UNL     1       0.816  -0.318  56.223  1.00  0.00     0.000 C 
BRANCH  17  18
ATOM     18  C   UNL     1       1.109  -0.795  57.662  1.00  0.00     0.000 C 
BRANCH  18  19
ATOM     19  C   UNL     1       2.487  -0.354  58.191  1.00  0.00     0.000 C 
BRANCH  19  20
ATOM     20  C   UNL     1       2.516   0.025  59.685  1.00  0.00     0.006 C 
BRANCH  20  21
ATOM     21  C   UNL     1       1.905   1.400  60.000  1.00  0.00     0.053 C 
BRANCH  21  22
ATOM     22  C   UNL     1       0.661   1.284  60.826  1.00  0.00     0.041 C 
ATOM     23  O   UNL     1       0.112   2.317  61.290  1.00  0.00    -0.550 OA
ATOM     24  O   UNL     1       0.092   0.038  61.057  1.00  0.00    -0.550 OA
ENDBRANCH  21  22
ENDBRANCH  20  21
ENDBRANCH  19  20
ENDBRANCH  18  19
ENDBRANCH  17  18
ENDBRANCH  16  17
ENDBRANCH  15  16
ENDBRANCH  14  15
ENDBRANCH  13  14
ENDBRANCH   1  13
TORSDOF 20
ENDMDL
MODEL 2
REMARK VINA RESULT:    -4.224      3.669      6.654
REMARK INTER + INTRA:         -12.214
REMARK INTER:                  -8.235
REMARK INTRA:                  -3.979
REMARK UNBOUND:                -3.050
REMARK SMILES CCCCCCCCCCCCCCCCCCCCCC(=O)[O-]
REMARK SMILES IDX 12 1 11 2 10 3 9 4 8 5 7 6 6 7 5 8 4 9 3 10 2 11 1 12 13 13
REMARK SMILES IDX 14 14 15 15 16 16 17 17 18 18 19 19 20 20 21 21 22 22 23 23
REMARK SMILES IDX 24 24
REMARK H PARENT
REMARK Flexibility Score: inf
ROOT
ATOM      1  C   UNL     1       0.623   0.018  56.139  1.00  0.00     0.000 C 
ENDROOT
BRANCH   1   2
ATOM      2  C   UNL     1       1.278  -0.888  57.197  1.00  0.00     0.000 C 
BRANCH   2   3
ATOM      3  C   UNL     1       2.467  -0.257  57.944  1.00  0.00     0.000 C 
BRANCH   3   4
ATOM      4  C   UNL     1       3.231  -1.268  58.817  1.00  0.00    -0.000 C 
BRANCH   4   5
ATOM      5  C   UNL     1       2.791  -1.230  60.296  1.00  0.00    -0.000 C 
BRANCH   5   6
ATOM      6  C   UNL     1       2.054  -2.500  60.763  1.00  0.00    -0.000 C 
BRANCH   6   7
ATOM      7  C   UNL     1       0.520  -2.464  60.611  1.00  0.00    -0.000 C 
BRANCH   7   8
ATOM      8  C   UNL     1      -0.156  -1.162  61.080  1.00  0.00    -0.000 C 
BRANCH   8   9
ATOM      9  C   UNL     1      -0.926  -0.449  59.955  1.00  0.00    -0.000 C 
BRANCH   9  10
ATOM     10  C   UNL     1      -0.563   1.042  59.832  1.00  0.00    -0.000 C 
BRANCH  10  11
ATOM     11  C   UNL     1       0.463   1.550  60.860  1.00  0.00    -0.003 C 
ATOM     12  C   UNL     1       1.566   2.403  60.235  1.00  0.00     0.004 C 
ENDBRANCH  10  11
ENDBRANCH   9  10
ENDBRANCH   8   9
ENDBRANCH   7   8
ENDBRANCH   6   7
ENDBRANCH   5   6
ENDBRANCH   4   5
ENDBRANCH   3   4
ENDBRANCH   2   3
ENDBRANCH   1   2
BRANCH   1  13
ATOM     13  C   UNL     1       1.288   1.403  56.043  1.00  0.00     0.000 C 
BRANCH  13  14
ATOM     14  C   UNL     1       2.156   1.551  54.782  1.00  0.00     0.000 C 
BRANCH  14  15
ATOM     15  C   UNL     1       1.876   0.452  53.743  1.00  0.00     0.000 C 
BRANCH  15  16
ATOM     16  C   UNL     1       3.125  -0.378  53.407  1.00  0.00     0.000 C 
BRANCH  16  17
ATOM     17  C   UNL     1       2.998  -1.845  53.853  1.00  0.00     0.000 C 
BRANCH  17  18
ATOM     18  C   UNL     1       3.924  -2.176  55.043  1.00  0.00     0.000 C 
BRANCH  18  19
ATOM     19  C   UNL     1       4.000  -3.680  55.367  1.00  0.00     0.000 C 
BRANCH  19  20
ATOM     20  C   UNL     1       3.048  -4.152  56.483  1.00  0.00     0.006 C 
BRANCH  20  21
ATOM     21  C   UNL     1       1.602  -4.394  56.020  1.00  0.00     0.053 C 
BRANCH  21  22
ATOM     22  C   UNL     1       1.507  -5.535  55.054  1.00  0.00     0.041 C 
ATOM     23  O   UNL     1       0.906  -5.388  53.958  1.00  0.00    -0.550 OA
ATOM     24  O   UNL     1       2.110  -6.751  55.350  1.00  0.00    -0.550 OA
ENDBRANCH  21  22
ENDBRANCH  20  21
ENDBRANCH  19  20
ENDBRANCH  18  19
ENDBRANCH  17  18
ENDBRANCH  16  17
ENDBRANCH  15  16
ENDBRANCH  14  15
ENDBRANCH  13  14
ENDBRANCH   1  13
TORSDOF 20
ENDMDL
MODEL 3
REMARK VINA RESULT:    -4.184      3.248      6.823
REMARK INTER + INTRA:         -12.127
REMARK INTER:                  -8.539
REMARK INTRA:                  -3.587
REMARK UNBOUND:                -3.050
REMARK SMILES CCCCCCCCCCCCCCCCCCCCCC(=O)[O-]
REMARK SMILES IDX 12 1 11 2 10 3 9 4 8 5 7 6 6 7 5 8 4 9 3 10 2 11 1 12 13 13
REMARK SMILES IDX 14 14 15 15 16 16 17 17 18 18 19 19 20 20 21 21 22 22 23 23
REMARK SMILES IDX 24 24
REMARK H PARENT
REMARK Flexibility Score: inf
ROOT
ATOM      1  C   UNL     1       1.639   1.821  55.138  1.00  0.00     0.000 C 
ENDROOT
BRANCH   1   2
ATOM      2  C   UNL     1       1.094   1.421  56.520  1.00  0.00     0.000 C 
BRANCH   2   3
ATOM      3  C   UNL     1       0.472   0.015  56.590  1.00  0.00     0.000 C 
BRANCH   3   4
ATOM      4  C   UNL     1       1.176  -0.902  57.606  1.00  0.00    -0.000 C 
BRANCH   4   5
ATOM      5  C   UNL     1       2.528  -0.334  58.086  1.00  0.00    -0.000 C 
BRANCH   5   6
ATOM      6  C   UNL     1       2.614  -0.123  59.610  1.00  0.00    -0.000 C 
BRANCH   6   7
ATOM      7  C   UNL     1       1.297   0.294  60.292  1.00  0.00    -0.000 C 
BRANCH   7   8
ATOM      8  C   UNL     1       1.120   1.808  60.508  1.00  0.00    -0.000 C 
BRANCH   8   9
ATOM      9  C   UNL     1      -0.100   2.381  59.765  1.00  0.00    -0.000 C 
BRANCH   9  10
ATOM     10  C   UNL     1      -1.238   1.356  59.606  1.00  0.00    -0.000 C 
BRANCH  10  11
ATOM     11  C   UNL     1      -2.298   1.716  58.550  1.00  0.00    -0.003 C 
ATOM     12  C   UNL     1      -3.643   2.108  59.160  1.00  0.00     0.004 C 
ENDBRANCH  10  11
ENDBRANCH   9  10
ENDBRANCH   8   9
ENDBRANCH   7   8
ENDBRANCH   6   7
ENDBRANCH   5   6
ENDBRANCH   4   5
ENDBRANCH   3   4
ENDBRANCH   2   3
ENDBRANCH   1   2
BRANCH   1  13
ATOM     13  C   UNL     1       2.822   0.946  54.685  1.00  0.00     0.000 C 
BRANCH  13  14
ATOM     14  C   UNL     1       2.530   0.196  53.375  1.00  0.00     0.000 C 
BRANCH  14  15
ATOM     15  C   UNL     1       3.078  -1.242  53.387  1.00  0.00     0.000 C 
BRANCH  15  16
ATOM     16  C   UNL     1       3.409  -1.738  54.803  1.00  0.00     0.000 C 
BRANCH  16  17
ATOM     17  C   UNL     1       3.461  -3.273  54.896  1.00  0.00     0.000 C 
BRANCH  17  18
ATOM     18  C   UNL     1       2.175  -3.935  54.356  1.00  0.00     0.000 C 
BRANCH  18  19
ATOM     19  C   UNL     1       0.990  -3.875  55.338  1.00  0.00     0.000 C 
BRANCH  19  20
ATOM     20  C   UNL     1      -0.339  -3.394  54.722  1.00  0.00     0.006 C 
BRANCH  20  21
ATOM     21  C   UNL     1      -0.176  -2.353  53.602  1.00  0.00     0.053 C 
BRANCH  21  22
ATOM     22  C   UNL     1      -0.679  -2.863  52.286  1.00  0.00     0.041 C 
ATOM     23  O   UNL     1      -0.456  -4.052  51.942  1.00  0.00    -0.550 OA
ATOM     24  O   UNL     1      -1.421  -2.032  51.456  1.00  0.00    -0.550 OA
ENDBRANCH  21  22
ENDBRANCH  20  21
ENDBRANCH  19  20
ENDBRANCH  18  19
ENDBRANCH  17  18
ENDBRANCH  16  17
ENDBRANCH  15  16
ENDBRANCH  14  15
ENDBRANCH  13  14
ENDBRANCH   1  13
TORSDOF 20
ENDMDL
MODEL 4
REMARK VINA RESULT:    -4.158      2.713      5.442
REMARK INTER + INTRA:         -12.071
REMARK INTER:                  -8.896
REMARK INTRA:                  -3.174
REMARK UNBOUND:                -3.050
REMARK SMILES CCCCCCCCCCCCCCCCCCCCCC(=O)[O-]
REMARK SMILES IDX 12 1 11 2 10 3 9 4 8 5 7 6 6 7 5 8 4 9 3 10 2 11 1 12 13 13
REMARK SMILES IDX 14 14 15 15 16 16 17 17 18 18 19 19 20 20 21 21 22 22 23 23
REMARK SMILES IDX 24 24
REMARK H PARENT
REMARK Flexibility Score: inf
ROOT
ATOM      1  C   UNL     1       2.333  -3.506  54.466  1.00  0.00     0.000 C 
ENDROOT
BRANCH   1   2
ATOM      2  C   UNL     1       3.868  -3.443  54.558  1.00  0.00     0.000 C 
BRANCH   2   3
ATOM      3  C   UNL     1       4.532  -4.688  55.173  1.00  0.00     0.000 C 
BRANCH   3   4
ATOM      4  C   UNL     1       4.834  -4.527  56.674  1.00  0.00    -0.000 C 
BRANCH   4   5
ATOM      5  C   UNL     1       5.064  -3.056  57.081  1.00  0.00    -0.000 C 
BRANCH   5   6
ATOM      6  C   UNL     1       4.154  -2.574  58.228  1.00  0.00    -0.000 C 
BRANCH   6   7
ATOM      7  C   UNL     1       3.141  -1.477  57.849  1.00  0.00    -0.000 C 
BRANCH   7   8
ATOM      8  C   UNL     1       1.946  -1.327  58.808  1.00  0.00    -0.000 C 
BRANCH   8   9
ATOM      9  C   UNL     1       1.997  -0.026  59.629  1.00  0.00    -0.000 C 
BRANCH   9  10
ATOM     10  C   UNL     1       0.662   0.295  60.324  1.00  0.00    -0.000 C 
BRANCH  10  11
ATOM     11  C   UNL     1       0.479   1.765  60.740  1.00  0.00    -0.003 C 
ATOM     12  C   UNL     1       1.175   2.746  59.796  1.00  0.00     0.004 C 
ENDBRANCH  10  11
ENDBRANCH   9  10
ENDBRANCH   8   9
ENDBRANCH   7   8
ENDBRANCH   6   7
ENDBRANCH   5   6
ENDBRANCH   4   5
ENDBRANCH   3   4
ENDBRANCH   2   3
ENDBRANCH   1   2
BRANCH   1  13
ATOM     13  C   UNL     1       1.669  -2.122  54.579  1.00  0.00     0.000 C 
BRANCH  13  14
ATOM     14  C   UNL     1       1.761  -1.319  53.271  1.00  0.00     0.000 C 
BRANCH  14  15
ATOM     15  C   UNL     1       2.805  -0.191  53.346  1.00  0.00     0.000 C 
BRANCH  15  16
ATOM     16  C   UNL     1       2.917   0.420  54.752  1.00  0.00     0.000 C 
BRANCH  16  17
ATOM     17  C   UNL     1       2.007   1.647  54.937  1.00  0.00     0.000 C 
BRANCH  17  18
ATOM     18  C   UNL     1       1.302   1.650  56.311  1.00  0.00     0.000 C 
BRANCH  18  19
ATOM     19  C   UNL     1       0.046   0.759  56.364  1.00  0.00     0.000 C 
BRANCH  19  20
ATOM     20  C   UNL     1      -1.134   1.350  57.161  1.00  0.00     0.006 C 
BRANCH  20  21
ATOM     21  C   UNL     1      -2.422   0.515  57.094  1.00  0.00     0.053 C 
BRANCH  21  22
ATOM     22  C   UNL     1      -3.640   1.376  56.949  1.00  0.00     0.041 C 
ATOM     23  O   UNL     1      -3.581   2.605  57.211  1.00  0.00    -0.550 OA
ATOM     24  O   UNL     1      -4.832   0.825  56.494  1.00  0.00    -0.550 OA
ENDBRANCH  21  22
ENDBRANCH  20  21
ENDBRANCH  19  20
ENDBRANCH  18  19
ENDBRANCH  17  18
ENDBRANCH  16  17
ENDBRANCH  15  16
ENDBRANCH  14  15
ENDBRANCH  13  14
ENDBRANCH   1  13
TORSDOF 20
ENDMDL
MODEL 5
REMARK VINA RESULT:    -4.158      3.422      7.512
REMARK INTER + INTRA:         -12.069
REMARK INTER:                  -9.057
REMARK INTRA:                  -3.012
REMARK UNBOUND:                -3.050
REMARK SMILES CCCCCCCCCCCCCCCCCCCCCC(=O)[O-]
REMARK SMILES IDX 12 1 11 2 10 3 9 4 8 5 7 6 6 7 5 8 4 9 3 10 2 11 1 12 13 13
REMARK SMILES IDX 14 14 15 15 16 16 17 17 18 18 19 19 20 20 21 21 22 22 23 23
REMARK SMILES IDX 24 24
REMARK H PARENT
REMARK Flexibility Score: inf
ROOT
ATOM      1  C   UNL     1       0.943   1.763  56.583  1.00  0.00     0.000 C 
ENDROOT
BRANCH   1   2
ATOM      2  C   UNL     1      -0.361   0.946  56.614  1.00  0.00     0.000 C 
BRANCH   2   3
ATOM      3  C   UNL     1      -1.456   1.508  57.539  1.00  0.00     0.000 C 
BRANCH   3   4
ATOM      4  C   UNL     1      -1.343   0.990  58.984  1.00  0.00    -0.000 C 
BRANCH   4   5
ATOM      5  C   UNL     1      -0.747   2.038  59.948  1.00  0.00    -0.000 C 
BRANCH   5   6
ATOM      6  C   UNL     1       0.409   1.503  60.816  1.00  0.00    -0.000 C 
BRANCH   6   7
ATOM      7  C   UNL     1       1.781   1.442  60.119  1.00  0.00    -0.000 C 
BRANCH   7   8
ATOM      8  C   UNL     1       2.449   0.054  60.104  1.00  0.00    -0.000 C 
BRANCH   8   9
ATOM      9  C   UNL     1       2.938  -0.360  58.705  1.00  0.00    -0.000 C 
BRANCH   9  10
ATOM     10  C   UNL     1       3.350  -1.842  58.629  1.00  0.00    -0.000 C 
BRANCH  10  11
ATOM     11  C   UNL     1       2.448  -2.726  57.750  1.00  0.00    -0.003 C 
ATOM     12  C   UNL     1       1.098  -2.082  57.438  1.00  0.00     0.004 C 
ENDBRANCH  10  11
ENDBRANCH   9  10
ENDBRANCH   8   9
ENDBRANCH   7   8
ENDBRANCH   6   7
ENDBRANCH   5   6
ENDBRANCH   4   5
ENDBRANCH   3   4
ENDBRANCH   2   3
ENDBRANCH   1   2
BRANCH   1  13
ATOM     13  C   UNL     1       1.684   1.656  55.238  1.00  0.00     0.000 C 
BRANCH  13  14
ATOM     14  C   UNL     1       2.842   0.646  55.284  1.00  0.00     0.000 C 
BRANCH  14  15
ATOM     15  C   UNL     1       2.943  -0.192  53.998  1.00  0.00     0.000 C 
BRANCH  15  16
ATOM     16  C   UNL     1       3.277  -1.666  54.276  1.00  0.00     0.000 C 
BRANCH  16  17
ATOM     17  C   UNL     1       2.101  -2.608  53.966  1.00  0.00     0.000 C 
BRANCH  17  18
ATOM     18  C   UNL     1       0.918  -1.867  53.305  1.00  0.00     0.000 C 
BRANCH  18  19
ATOM     19  C   UNL     1      -0.462  -2.417  53.713  1.00  0.00     0.000 C 
BRANCH  19  20
ATOM     20  C   UNL     1      -1.354  -2.864  52.539  1.00  0.00     0.006 C 
BRANCH  20  21
ATOM     21  C   UNL     1      -0.669  -3.825  51.554  1.00  0.00     0.053 C 
BRANCH  21  22
ATOM     22  C   UNL     1      -0.542  -5.207  52.118  1.00  0.00     0.041 C 
ATOM     23  O   UNL     1       0.425  -5.498  52.868  1.00  0.00    -0.550 OA
ATOM     24  O   UNL     1      -1.509  -6.165  51.838  1.00  0.00    -0.550 OA
ENDBRANCH  21  22
ENDBRANCH  20  21
ENDBRANCH  19  20
ENDBRANCH  18  19
ENDBRANCH  17  18
ENDBRANCH  16  17
ENDBRANCH  15  16
ENDBRANCH  14  15
ENDBRANCH  13  14
ENDBRANCH   1  13
TORSDOF 20
ENDMDL
MODEL 6
REMARK VINA RESULT:    -4.118      8.386     11.213
REMARK INTER + INTRA:         -11.983
REMARK INTER:                  -7.982
REMARK INTRA:                  -4.001
REMARK UNBOUND:                -3.050
REMARK SMILES CCCCCCCCCCCCCCCCCCCCCC(=O)[O-]
REMARK SMILES IDX 12 1 11 2 10 3 9 4 8 5 7 6 6 7 5 8 4 9 3 10 2 11 1 12 13 13
REMARK SMILES IDX 14 14 15 15 16 16 17 17 18 18 19 19 20 20 21 21 22 22 23 23
REMARK SMILES IDX 24 24
REMARK H PARENT
REMARK Flexibility Score: inf
ROOT
ATOM      1  C   UNL     1      -7.452   3.041  53.326  1.00  0.00     0.000 C 
ENDROOT
BRANCH   1   2
ATOM      2  C   UNL     1      -7.623   3.233  51.808  1.00  0.00     0.000 C 
BRANCH   2   3
ATOM      3  C   UNL     1      -7.143   4.593  51.270  1.00  0.00     0.000 C 
BRANCH   3   4
ATOM      4  C   UNL     1      -8.023   5.767  51.735  1.00  0.00    -0.000 C 
BRANCH   4   5
ATOM      5  C   UNL     1      -9.427   5.749  51.094  1.00  0.00    -0.000 C 
BRANCH   5   6
ATOM      6  C   UNL     1     -10.576   5.971  52.098  1.00  0.00    -0.000 C 
BRANCH   6   7
ATOM      7  C   UNL     1     -10.264   5.572  53.553  1.00  0.00    -0.000 C 
BRANCH   7   8
ATOM      8  C   UNL     1     -10.794   4.192  53.985  1.00  0.00    -0.000 C 
BRANCH   8   9
ATOM      9  C   UNL     1     -10.672   3.951  55.500  1.00  0.00    -0.000 C 
BRANCH   9  10
ATOM     10  C   UNL     1     -10.078   2.572  55.840  1.00  0.00    -0.000 C 
BRANCH  10  11
ATOM     11  C   UNL     1      -9.111   2.555  57.037  1.00  0.00    -0.003 C 
ATOM     12  C   UNL     1      -7.891   1.663  56.809  1.00  0.00     0.004 C 
ENDBRANCH  10  11
ENDBRANCH   9  10
ENDBRANCH   8   9
ENDBRANCH   7   8
ENDBRANCH   6   7
ENDBRANCH   5   6
ENDBRANCH   4   5
ENDBRANCH   3   4
ENDBRANCH   2   3
ENDBRANCH   1   2
BRANCH   1  13
ATOM     13  C   UNL     1      -5.995   3.213  53.791  1.00  0.00     0.000 C 
BRANCH  13  14
ATOM     14  C   UNL     1      -5.845   4.306  54.862  1.00  0.00     0.000 C 
BRANCH  14  15
ATOM     15  C   UNL     1      -7.175   5.020  55.164  1.00  0.00     0.000 C 
BRANCH  15  16
ATOM     16  C   UNL     1      -7.038   6.083  56.264  1.00  0.00     0.000 C 
BRANCH  16  17
ATOM     17  C   UNL     1      -8.111   5.943  57.358  1.00  0.00     0.000 C 
BRANCH  17  18
ATOM     18  C   UNL     1      -7.541   6.193  58.771  1.00  0.00     0.000 C 
BRANCH  18  19
ATOM     19  C   UNL     1      -6.105   5.668  58.961  1.00  0.00     0.000 C 
BRANCH  19  20
ATOM     20  C   UNL     1      -6.002   4.163  59.277  1.00  0.00     0.006 C 
BRANCH  20  21
ATOM     21  C   UNL     1      -5.009   3.397  58.387  1.00  0.00     0.053 C 
BRANCH  21  22
ATOM     22  C   UNL     1      -4.249   2.363  59.160  1.00  0.00     0.041 C 
ATOM     23  O   UNL     1      -3.300   2.706  59.912  1.00  0.00    -0.550 OA
ATOM     24  O   UNL     1      -4.608   1.024  59.071  1.00  0.00    -0.550 OA
ENDBRANCH  21  22
ENDBRANCH  20  21
ENDBRANCH  19  20
ENDBRANCH  18  19
ENDBRANCH  17  18
ENDBRANCH  16  17
ENDBRANCH  15  16
ENDBRANCH  14  15
ENDBRANCH  13  14
ENDBRANCH   1  13
TORSDOF 20
ENDMDL
MODEL 7
REMARK VINA RESULT:    -4.117      2.814      5.808
REMARK INTER + INTRA:         -11.981
REMARK INTER:                  -8.430
REMARK INTRA:                  -3.551
REMARK UNBOUND:                -3.050
REMARK SMILES CCCCCCCCCCCCCCCCCCCCCC(=O)[O-]
REMARK SMILES IDX 12 1 11 2 10 3 9 4 8 5 7 6 6 7 5 8 4 9 3 10 2 11 1 12 13 13
REMARK SMILES IDX 14 14 15 15 16 16 17 17 18 18 19 19 20 20 21 21 22 22 23 23
REMARK SMILES IDX 24 24
REMARK H PARENT
REMARK Flexibility Score: inf
ROOT
ATOM      1  C   UNL     1       2.160  -0.895  53.232  1.00  0.00     0.000 C 
ENDROOT
BRANCH   1   2
ATOM      2  C   UNL     1       3.097   0.194  53.783  1.00  0.00     0.000 C 
BRANCH   2   3
ATOM      3  C   UNL     1       2.397   1.311  54.578  1.00  0.00     0.000 C 
BRANCH   3   4
ATOM      4  C   UNL     1       1.955   0.860  55.982  1.00  0.00    -0.000 C 
BRANCH   4   5
ATOM      5  C   UNL     1       0.687   1.591  56.471  1.00  0.00    -0.000 C 
BRANCH   5   6
ATOM      6  C   UNL     1      -0.545   0.678  56.619  1.00  0.00    -0.000 C 
BRANCH   6   7
ATOM      7  C   UNL     1      -1.669   1.229  57.517  1.00  0.00    -0.000 C 
BRANCH   7   8
ATOM      8  C   UNL     1      -1.872   0.483  58.849  1.00  0.00    -0.000 C 
BRANCH   8   9
ATOM      9  C   UNL     1      -0.745   0.749  59.862  1.00  0.00    -0.000 C 
BRANCH   9  10
ATOM     10  C   UNL     1      -0.482   2.250  60.083  1.00  0.00    -0.000 C 
BRANCH  10  11
ATOM     11  C   UNL     1       1.001   2.659  60.086  1.00  0.00    -0.003 C 
ATOM     12  C   UNL     1       1.953   1.463  60.069  1.00  0.00     0.004 C 
ENDBRANCH  10  11
ENDBRANCH   9  10
ENDBRANCH   8   9
ENDBRANCH   7   8
ENDBRANCH   6   7
ENDBRANCH   5   6
ENDBRANCH   4   5
ENDBRANCH   3   4
ENDBRANCH   2   3
ENDBRANCH   1   2
BRANCH   1  13
ATOM     13  C   UNL     1       2.348  -2.254  53.930  1.00  0.00     0.000 C 
BRANCH  13  14
ATOM     14  C   UNL     1       3.627  -2.306  54.781  1.00  0.00     0.000 C 
BRANCH  14  15
ATOM     15  C   UNL     1       3.369  -2.851  56.197  1.00  0.00     0.000 C 
BRANCH  15  16
ATOM     16  C   UNL     1       1.882  -3.132  56.461  1.00  0.00     0.000 C 
BRANCH  16  17
ATOM     17  C   UNL     1       1.331  -2.329  57.653  1.00  0.00     0.000 C 
BRANCH  17  18
ATOM     18  C   UNL     1       2.456  -1.780  58.557  1.00  0.00     0.000 C 
BRANCH  18  19
ATOM     19  C   UNL     1       2.360  -2.253  60.020  1.00  0.00     0.000 C 
BRANCH  19  20
ATOM     20  C   UNL     1       0.925  -2.400  60.561  1.00  0.00     0.006 C 
BRANCH  20  21
ATOM     21  C   UNL     1       0.746  -1.934  62.015  1.00  0.00     0.053 C 
BRANCH  21  22
ATOM     22  C   UNL     1       1.365  -2.890  62.989  1.00  0.00     0.041 C 
ATOM     23  O   UNL     1       0.814  -3.996  63.226  1.00  0.00    -0.550 OA
ATOM     24  O   UNL     1       2.565  -2.571  63.610  1.00  0.00    -0.550 OA
ENDBRANCH  21  22
ENDBRANCH  20  21
ENDBRANCH  19  20
ENDBRANCH  18  19
ENDBRANCH  17  18
ENDBRANCH  16  17
ENDBRANCH  15  16
ENDBRANCH  14  15
ENDBRANCH  13  14
ENDBRANCH   1  13
TORSDOF 20
ENDMDL
MODEL 8
REMARK VINA RESULT:    -4.091      8.170     10.918
REMARK INTER + INTRA:         -11.925
REMARK INTER:                  -8.702
REMARK INTRA:                  -3.223
REMARK UNBOUND:                -3.050
REMARK SMILES CCCCCCCCCCCCCCCCCCCCCC(=O)[O-]
REMARK SMILES IDX 12 1 11 2 10 3 9 4 8 5 7 6 6 7 5 8 4 9 3 10 2 11 1 12 13 13
REMARK SMILES IDX 14 14 15 15 16 16 17 17 18 18 19 19 20 20 21 21 22 22 23 23
REMARK SMILES IDX 24 24
REMARK H PARENT
REMARK Flexibility Score: inf
ROOT
ATOM      1  C   UNL     1      -5.927   3.903  54.648  1.00  0.00     0.000 C 
ENDROOT
BRANCH   1   2
ATOM      2  C   UNL     1      -5.913   3.292  53.235  1.00  0.00     0.000 C 
BRANCH   2   3
ATOM      3  C   UNL     1      -7.225   2.609  52.812  1.00  0.00     0.000 C 
BRANCH   3   4
ATOM      4  C   UNL     1      -7.776   3.141  51.477  1.00  0.00    -0.000 C 
BRANCH   4   5
ATOM      5  C   UNL     1      -7.063   4.428  51.009  1.00  0.00    -0.000 C 
BRANCH   5   6
ATOM      6  C   UNL     1      -7.810   5.726  51.375  1.00  0.00    -0.000 C 
BRANCH   6   7
ATOM      7  C   UNL     1      -9.326   5.711  51.102  1.00  0.00    -0.000 C 
BRANCH   7   8
ATOM      8  C   UNL     1     -10.211   6.148  52.284  1.00  0.00    -0.000 C 
BRANCH   8   9
ATOM      9  C   UNL     1     -11.269   5.097  52.661  1.00  0.00    -0.000 C 
BRANCH   9  10
ATOM     10  C   UNL     1     -10.712   3.987  53.571  1.00  0.00    -0.000 C 
BRANCH  10  11
ATOM     11  C   UNL     1     -11.108   2.555  53.171  1.00  0.00    -0.003 C 
ATOM     12  C   UNL     1     -11.453   2.420  51.688  1.00  0.00     0.004 C 
ENDBRANCH  10  11
ENDBRANCH   9  10
ENDBRANCH   8   9
ENDBRANCH   7   8
ENDBRANCH   6   7
ENDBRANCH   5   6
ENDBRANCH   4   5
ENDBRANCH   3   4
ENDBRANCH   2   3
ENDBRANCH   1   2
BRANCH   1  13
ATOM     13  C   UNL     1      -7.346   4.231  55.144  1.00  0.00     0.000 C 
BRANCH  13  14
ATOM     14  C   UNL     1      -7.706   5.713  54.957  1.00  0.00     0.000 C 
BRANCH  14  15
ATOM     15  C   UNL     1      -7.469   6.542  56.232  1.00  0.00     0.000 C 
BRANCH  15  16
ATOM     16  C   UNL     1      -8.442   6.178  57.364  1.00  0.00     0.000 C 
BRANCH  16  17
ATOM     17  C   UNL     1      -7.752   6.107  58.738  1.00  0.00     0.000 C 
BRANCH  17  18
ATOM     18  C   UNL     1      -6.244   5.797  58.619  1.00  0.00     0.000 C 
BRANCH  18  19
ATOM     19  C   UNL     1      -5.916   4.293  58.666  1.00  0.00     0.000 C 
BRANCH  19  20
ATOM     20  C   UNL     1      -4.412   3.959  58.720  1.00  0.00     0.006 C 
BRANCH  20  21
ATOM     21  C   UNL     1      -4.046   2.853  59.723  1.00  0.00     0.053 C 
BRANCH  21  22
ATOM     22  C   UNL     1      -3.945   1.511  59.064  1.00  0.00     0.041 C 
ATOM     23  O   UNL     1      -4.934   0.734  59.058  1.00  0.00    -0.550 OA
ATOM     24  O   UNL     1      -2.767   1.134  58.430  1.00  0.00    -0.550 OA
ENDBRANCH  21  22
ENDBRANCH  20  21
ENDBRANCH  19  20
ENDBRANCH  18  19
ENDBRANCH  17  18
ENDBRANCH  16  17
ENDBRANCH  15  16
ENDBRANCH  14  15
ENDBRANCH  13  14
ENDBRANCH   1  13
TORSDOF 20
ENDMDL
MODEL 9
REMARK VINA RESULT:    -4.059      8.268     11.264
REMARK INTER + INTRA:         -11.855
REMARK INTER:                  -7.728
REMARK INTRA:                  -4.128
REMARK UNBOUND:                -3.050
REMARK SMILES CCCCCCCCCCCCCCCCCCCCCC(=O)[O-]
REMARK SMILES IDX 12 1 11 2 10 3 9 4 8 5 7 6 6 7 5 8 4 9 3 10 2 11 1 12 13 13
REMARK SMILES IDX 14 14 15 15 16 16 17 17 18 18 19 19 20 20 21 21 22 22 23 23
REMARK SMILES IDX 24 24
REMARK H PARENT
REMARK Flexibility Score: inf
ROOT
ATOM      1  C   UNL     1      -9.499   5.517  52.638  1.00  0.00     0.000 C 
ENDROOT
BRANCH   1   2
ATOM      2  C   UNL     1      -8.233   5.084  51.879  1.00  0.00     0.000 C 
BRANCH   2   3
ATOM      3  C   UNL     1      -8.107   3.568  51.641  1.00  0.00     0.000 C 
BRANCH   3   4
ATOM      4  C   UNL     1      -7.020   2.913  52.511  1.00  0.00    -0.000 C 
BRANCH   4   5
ATOM      5  C   UNL     1      -6.147   3.946  53.253  1.00  0.00    -0.000 C 
BRANCH   5   6
ATOM      6  C   UNL     1      -5.832   3.567  54.713  1.00  0.00    -0.000 C 
BRANCH   6   7
ATOM      7  C   UNL     1      -6.140   4.658  55.757  1.00  0.00    -0.000 C 
BRANCH   7   8
ATOM      8  C   UNL     1      -7.025   5.815  55.257  1.00  0.00    -0.000 C 
BRANCH   8   9
ATOM      9  C   UNL     1      -7.791   6.517  56.392  1.00  0.00    -0.000 C 
BRANCH   9  10
ATOM     10  C   UNL     1      -7.302   6.100  57.790  1.00  0.00    -0.000 C 
BRANCH  10  11
ATOM     11  C   UNL     1      -8.370   6.150  58.897  1.00  0.00    -0.003 C 
ATOM     12  C   UNL     1      -7.781   6.384  60.288  1.00  0.00     0.004 C 
ENDBRANCH  10  11
ENDBRANCH   9  10
ENDBRANCH   8   9
ENDBRANCH   7   8
ENDBRANCH   6   7
ENDBRANCH   5   6
ENDBRANCH   4   5
ENDBRANCH   3   4
ENDBRANCH   2   3
ENDBRANCH   1   2
BRANCH   1  13
ATOM     13  C   UNL     1     -10.310   4.326  53.179  1.00  0.00     0.000 C 
BRANCH  13  14
ATOM     14  C   UNL     1     -10.350   4.291  54.715  1.00  0.00     0.000 C 
BRANCH  14  15
ATOM     15  C   UNL     1      -9.590   3.086  55.296  1.00  0.00     0.000 C 
BRANCH  15  16
ATOM     16  C   UNL     1      -9.422   3.172  56.822  1.00  0.00     0.000 C 
BRANCH  16  17
ATOM     17  C   UNL     1      -8.300   2.258  57.345  1.00  0.00     0.000 C 
BRANCH  17  18
ATOM     18  C   UNL     1      -8.151   2.337  58.880  1.00  0.00     0.000 C 
BRANCH  18  19
ATOM     19  C   UNL     1      -6.707   2.121  59.373  1.00  0.00     0.000 C 
BRANCH  19  20
ATOM     20  C   UNL     1      -5.801   3.364  59.289  1.00  0.00     0.006 C 
BRANCH  20  21
ATOM     21  C   UNL     1      -4.344   3.115  59.710  1.00  0.00     0.053 C 
BRANCH  21  22
ATOM     22  C   UNL     1      -3.635   2.201  58.758  1.00  0.00     0.041 C 
ATOM     23  O   UNL     1      -3.588   2.478  57.532  1.00  0.00    -0.550 OA
ATOM     24  O   UNL     1      -3.000   1.059  59.232  1.00  0.00    -0.550 OA
ENDBRANCH  21  22
ENDBRANCH  20  21
ENDBRANCH  19  20
ENDBRANCH  18  19
ENDBRANCH  17  18
ENDBRANCH  16  17
ENDBRANCH  15  16
ENDBRANCH  14  15
ENDBRANCH  13  14
ENDBRANCH   1  13
TORSDOF 20
ENDMDL
