MODEL 1
REMARK VINA RESULT:    -4.817      0.000      0.000
REMARK INTER + INTRA:          -9.239
REMARK INTER:                  -8.197
REMARK INTRA:                  -1.042
REMARK UNBOUND:                -1.042
REMARK SMILES CCCCCCCCCCCCCC(=O)[O-]
REMARK SMILES IDX 8 1 9 2 10 3 11 4 12 5 13 6 14 7 15 8 16 9 7 10 6 11 5 12
REMARK SMILES IDX 4 13 3 14 2 15 1 16
REMARK H PARENT
REMARK Flexibility Score: inf
ROOT
ATOM      1  C   UNL     1      14.659  30.325  58.638  1.00  0.00     0.000 C 
ENDROOT
BRANCH   1   2
ATOM      2  C   UNL     1      13.419  30.937  59.309  1.00  0.00     0.000 C 
BRANCH   2   3
ATOM      3  C   UNL     1      12.244  29.946  59.392  1.00  0.00     0.000 C 
BRANCH   3   4
ATOM      4  C   UNL     1      12.079  29.329  60.793  1.00  0.00     0.000 C 
BRANCH   4   5
ATOM      5  C   UNL     1      10.686  29.508  61.430  1.00  0.00     0.006 C 
BRANCH   5   6
ATOM      6  C   UNL     1       9.518  29.006  60.565  1.00  0.00     0.053 C 
BRANCH   6   7
ATOM      7  C   UNL     1       8.504  30.079  60.315  1.00  0.00     0.041 C 
ATOM      8  O   UNL     1       8.637  30.860  59.337  1.00  0.00    -0.550 OA
ATOM      9  O   UNL     1       7.394  30.194  61.142  1.00  0.00    -0.550 OA
ENDBRANCH   6   7
ENDBRANCH   5   6
ENDBRANCH   4   5
ENDBRANCH   3   4
ENDBRANCH   2   3
ENDBRANCH   1   2
BRANCH   1  10
ATOM     10  C   UNL     1      15.939  30.522  59.465  1.00  0.00     0.000 C 
BRANCH  10  11
ATOM     11  C   UNL     1      15.977  29.557  60.657  1.00  0.00    -0.000 C 
BRANCH  11  12
ATOM     12  C   UNL     1      16.758  30.165  61.832  1.00  0.00    -0.000 C 
BRANCH  12  13
ATOM     13  C   UNL     1      16.217  29.717  63.200  1.00  0.00    -0.000 C 
BRANCH  13  14
ATOM     14  C   UNL     1      15.019  28.760  63.078  1.00  0.00    -0.000 C 
BRANCH  14  15
ATOM     15  C   UNL     1      15.143  27.542  64.007  1.00  0.00    -0.003 C 
ATOM     16  C   UNL     1      16.587  27.076  64.186  1.00  0.00     0.004 C 
ENDBRANCH  14  15
ENDBRANCH  13  14
ENDBRANCH  12  13
ENDBRANCH  11  12
ENDBRANCH  10  11
ENDBRANCH   1  10
TORSDOF 12
ENDMDL
MODEL 2
REMARK VINA RESULT:    -4.717      3.680      6.496
REMARK INTER + INTRA:          -9.068
REMARK INTER:                  -7.837
REMARK INTRA:                  -1.231
REMARK UNBOUND:                -1.042
REMARK SMILES CCCCCCCCCCCCCC(=O)[O-]
REMARK SMILES IDX 8 1 9 2 10 3 11 4 12 5 13 6 14 7 15 8 16 9 7 10 6 11 5 12
REMARK SMILES IDX 4 13 3 14 2 15 1 16
REMARK H PARENT
REMARK Flexibility Score: inf
ROOT
ATOM      1  C   UNL     1      11.516  29.627  61.181  1.00  0.00     0.000 C 
ENDROOT
BRANCH   1   2
ATOM      2  C   UNL     1      12.784  29.026  61.807  1.00  0.00     0.000 C 
BRANCH   2   3
ATOM      3  C   UNL     1      13.867  30.085  62.079  1.00  0.00     0.000 C 
BRANCH   3   4
ATOM      4  C   UNL     1      15.189  29.793  61.345  1.00  0.00     0.000 C 
BRANCH   4   5
ATOM      5  C   UNL     1      16.336  29.279  62.238  1.00  0.00     0.006 C 
BRANCH   5   6
ATOM      6  C   UNL     1      15.963  29.098  63.718  1.00  0.00     0.053 C 
BRANCH   6   7
ATOM      7  C   UNL     1      15.805  27.654  64.084  1.00  0.00     0.041 C 
ATOM      8  O   UNL     1      14.663  27.125  64.094  1.00  0.00    -0.550 OA
ATOM      9  O   UNL     1      16.923  26.885  64.381  1.00  0.00    -0.550 OA
ENDBRANCH   6   7
ENDBRANCH   5   6
ENDBRANCH   4   5
ENDBRANCH   3   4
ENDBRANCH   2   3
ENDBRANCH   1   2
BRANCH   1  10
ATOM     10  C   UNL     1      11.440  29.403  59.663  1.00  0.00     0.000 C 
BRANCH  10  11
ATOM     11  C   UNL     1      11.760  30.695  58.900  1.00  0.00    -0.000 C 
BRANCH  11  12
ATOM     12  C   UNL     1      13.156  30.625  58.263  1.00  0.00    -0.000 C 
BRANCH  12  13
ATOM     13  C   UNL     1      13.976  31.906  58.487  1.00  0.00    -0.000 C 
BRANCH  13  14
ATOM     14  C   UNL     1      14.444  32.546  57.169  1.00  0.00    -0.000 C 
BRANCH  14  15
ATOM     15  C   UNL     1      15.976  32.628  57.068  1.00  0.00    -0.003 C 
ATOM     16  C   UNL     1      16.685  32.029  58.282  1.00  0.00     0.004 C 
ENDBRANCH  14  15
ENDBRANCH  13  14
ENDBRANCH  12  13
ENDBRANCH  11  12
ENDBRANCH  10  11
ENDBRANCH   1  10
TORSDOF 12
ENDMDL
MODEL 3
REMARK VINA RESULT:    -4.715      3.541      7.266
REMARK INTER + INTRA:          -9.064
REMARK INTER:                  -8.446
REMARK INTRA:                  -0.618
REMARK UNBOUND:                -1.042
REMARK SMILES CCCCCCCCCCCCCC(=O)[O-]
REMARK SMILES IDX 8 1 9 2 10 3 11 4 12 5 13 6 14 7 15 8 16 9 7 10 6 11 5 12
REMARK SMILES IDX 4 13 3 14 2 15 1 16
REMARK H PARENT
REMARK Flexibility Score: inf
ROOT
ATOM      1  C   UNL     1      12.789  29.883  59.563  1.00  0.00     0.000 C 
ENDROOT
BRANCH   1   2
ATOM      2  C   UNL     1      14.273  30.215  59.788  1.00  0.00     0.000 C 
BRANCH   2   3
ATOM      3  C   UNL     1      14.776  29.762  61.169  1.00  0.00     0.000 C 
BRANCH   3   4
ATOM      4  C   UNL     1      16.312  29.742  61.270  1.00  0.00     0.000 C 
BRANCH   4   5
ATOM      5  C   UNL     1      16.877  29.723  62.705  1.00  0.00     0.006 C 
BRANCH   5   6
ATOM      6  C   UNL     1      15.875  29.273  63.780  1.00  0.00     0.053 C 
BRANCH   6   7
ATOM      7  C   UNL     1      15.877  27.786  63.961  1.00  0.00     0.041 C 
ATOM      8  O   UNL     1      14.794  27.167  64.133  1.00  0.00    -0.550 OA
ATOM      9  O   UNL     1      17.072  27.080  63.907  1.00  0.00    -0.550 OA
ENDBRANCH   6   7
ENDBRANCH   5   6
ENDBRANCH   4   5
ENDBRANCH   3   4
ENDBRANCH   2   3
ENDBRANCH   1   2
BRANCH   1  10
ATOM     10  C   UNL     1      12.243  28.879  60.591  1.00  0.00     0.000 C 
BRANCH  10  11
ATOM     11  C   UNL     1      10.995  29.433  61.289  1.00  0.00    -0.000 C 
BRANCH  11  12
ATOM     12  C   UNL     1       9.817  29.539  60.308  1.00  0.00    -0.000 C 
BRANCH  12  13
ATOM     13  C   UNL     1       8.458  29.296  60.983  1.00  0.00    -0.000 C 
BRANCH  13  14
ATOM     14  C   UNL     1       7.493  30.482  60.813  1.00  0.00    -0.000 C 
BRANCH  14  15
ATOM     15  C   UNL     1       7.791  31.306  59.551  1.00  0.00    -0.003 C 
ATOM     16  C   UNL     1       6.716  32.352  59.257  1.00  0.00     0.004 C 
ENDBRANCH  14  15
ENDBRANCH  13  14
ENDBRANCH  12  13
ENDBRANCH  11  12
ENDBRANCH  10  11
ENDBRANCH   1  10
TORSDOF 12
ENDMDL
MODEL 4
REMARK VINA RESULT:    -4.674      0.955      1.470
REMARK INTER + INTRA:          -8.995
REMARK INTER:                  -7.868
REMARK INTRA:                  -1.127
REMARK UNBOUND:                -1.042
REMARK SMILES CCCCCCCCCCCCCC(=O)[O-]
REMARK SMILES IDX 8 1 9 2 10 3 11 4 12 5 13 6 14 7 15 8 16 9 7 10 6 11 5 12
REMARK SMILES IDX 4 13 3 14 2 15 1 16
REMARK H PARENT
REMARK Flexibility Score: inf
ROOT
ATOM      1  C   UNL     1      13.581  31.628  58.708  1.00  0.00     0.000 C 
ENDROOT
BRANCH   1   2
ATOM      2  C   UNL     1      12.553  30.814  57.905  1.00  0.00     0.000 C 
BRANCH   2   3
ATOM      3  C   UNL     1      11.284  30.502  58.717  1.00  0.00     0.000 C 
BRANCH   3   4
ATOM      4  C   UNL     1      11.531  29.491  59.851  1.00  0.00     0.000 C 
BRANCH   4   5
ATOM      5  C   UNL     1      10.492  29.514  60.990  1.00  0.00     0.006 C 
BRANCH   5   6
ATOM      6  C   UNL     1       9.100  28.993  60.597  1.00  0.00     0.053 C 
BRANCH   6   7
ATOM      7  C   UNL     1       8.057  30.066  60.676  1.00  0.00     0.041 C 
ATOM      8  O   UNL     1       7.318  30.156  61.691  1.00  0.00    -0.550 OA
ATOM      9  O   UNL     1       7.925  30.985  59.643  1.00  0.00    -0.550 OA
ENDBRANCH   6   7
ENDBRANCH   5   6
ENDBRANCH   4   5
ENDBRANCH   3   4
ENDBRANCH   2   3
ENDBRANCH   1   2
BRANCH   1  10
ATOM     10  C   UNL     1      15.003  31.058  58.602  1.00  0.00     0.000 C 
BRANCH  10  11
ATOM     11  C   UNL     1      15.166  29.820  59.494  1.00  0.00    -0.000 C 
BRANCH  11  12
ATOM     12  C   UNL     1      16.230  30.059  60.576  1.00  0.00    -0.000 C 
BRANCH  12  13
ATOM     13  C   UNL     1      15.898  29.355  61.902  1.00  0.00    -0.000 C 
BRANCH  13  14
ATOM     14  C   UNL     1      14.384  29.214  62.134  1.00  0.00    -0.000 C 
BRANCH  14  15
ATOM     15  C   UNL     1      14.023  27.928  62.895  1.00  0.00    -0.003 C 
ATOM     16  C   UNL     1      15.095  27.512  63.901  1.00  0.00     0.004 C 
ENDBRANCH  14  15
ENDBRANCH  13  14
ENDBRANCH  12  13
ENDBRANCH  11  12
ENDBRANCH  10  11
ENDBRANCH   1  10
TORSDOF 12
ENDMDL
MODEL 5
REMARK VINA RESULT:    -4.655      1.730      3.882
REMARK INTER + INTRA:          -8.963
REMARK INTER:                  -7.581
REMARK INTRA:                  -1.381
REMARK UNBOUND:                -1.042
REMARK SMILES CCCCCCCCCCCCCC(=O)[O-]
REMARK SMILES IDX 8 1 9 2 10 3 11 4 12 5 13 6 14 7 15 8 16 9 7 10 6 11 5 12
REMARK SMILES IDX 4 13 3 14 2 15 1 16
REMARK H PARENT
REMARK Flexibility Score: inf
ROOT
ATOM      1  C   UNL     1      12.436  30.015  61.960  1.00  0.00     0.000 C 
ENDROOT
BRANCH   1   2
ATOM      2  C   UNL     1      12.417  28.551  61.491  1.00  0.00     0.000 C 
BRANCH   2   3
ATOM      3  C   UNL     1      11.848  28.394  60.071  1.00  0.00     0.000 C 
BRANCH   3   4
ATOM      4  C   UNL     1      11.409  29.733  59.449  1.00  0.00     0.000 C 
BRANCH   4   5
ATOM      5  C   UNL     1       9.886  29.922  59.305  1.00  0.00     0.006 C 
BRANCH   5   6
ATOM      6  C   UNL     1       9.038  28.909  60.091  1.00  0.00     0.053 C 
BRANCH   6   7
ATOM      7  C   UNL     1       8.333  29.546  61.249  1.00  0.00     0.041 C 
ATOM      8  O   UNL     1       7.220  30.109  61.081  1.00  0.00    -0.550 OA
ATOM      9  O   UNL     1       8.891  29.489  62.520  1.00  0.00    -0.550 OA
ENDBRANCH   6   7
ENDBRANCH   5   6
ENDBRANCH   4   5
ENDBRANCH   3   4
ENDBRANCH   2   3
ENDBRANCH   1   2
BRANCH   1  10
ATOM     10  C   UNL     1      13.839  30.639  61.902  1.00  0.00     0.000 C 
BRANCH  10  11
ATOM     11  C   UNL     1      14.924  29.556  61.967  1.00  0.00    -0.000 C 
BRANCH  11  12
ATOM     12  C   UNL     1      15.742  29.519  60.667  1.00  0.00    -0.000 C 
BRANCH  12  13
ATOM     13  C   UNL     1      15.096  30.335  59.535  1.00  0.00    -0.000 C 
BRANCH  13  14
ATOM     14  C   UNL     1      16.120  31.173  58.752  1.00  0.00    -0.000 C 
BRANCH  14  15
ATOM     15  C   UNL     1      15.484  31.927  57.573  1.00  0.00    -0.003 C 
ATOM     16  C   UNL     1      13.969  31.739  57.495  1.00  0.00     0.004 C 
ENDBRANCH  14  15
ENDBRANCH  13  14
ENDBRANCH  12  13
ENDBRANCH  11  12
ENDBRANCH  10  11
ENDBRANCH   1  10
TORSDOF 12
ENDMDL
MODEL 6
REMARK VINA RESULT:    -4.636      1.875      4.404
REMARK INTER + INTRA:          -8.931
REMARK INTER:                  -7.848
REMARK INTRA:                  -1.083
REMARK UNBOUND:                -1.042
REMARK SMILES CCCCCCCCCCCCCC(=O)[O-]
REMARK SMILES IDX 8 1 9 2 10 3 11 4 12 5 13 6 14 7 15 8 16 9 7 10 6 11 5 12
REMARK SMILES IDX 4 13 3 14 2 15 1 16
REMARK H PARENT
REMARK Flexibility Score: inf
ROOT
ATOM      1  C   UNL     1      13.692  29.962  61.247  1.00  0.00     0.000 C 
ENDROOT
BRANCH   1   2
ATOM      2  C   UNL     1      12.841  28.732  61.604  1.00  0.00     0.000 C 
BRANCH   2   3
ATOM      3  C   UNL     1      11.801  28.400  60.519  1.00  0.00     0.000 C 
BRANCH   3   4
ATOM      4  C   UNL     1      11.362  29.636  59.712  1.00  0.00     0.000 C 
BRANCH   4   5
ATOM      5  C   UNL     1       9.888  29.636  59.259  1.00  0.00     0.006 C 
BRANCH   5   6
ATOM      6  C   UNL     1       8.951  28.788  60.134  1.00  0.00     0.053 C 
BRANCH   6   7
ATOM      7  C   UNL     1       8.289  29.604  61.201  1.00  0.00     0.041 C 
ATOM      8  O   UNL     1       8.671  29.512  62.397  1.00  0.00    -0.550 OA
ATOM      9  O   UNL     1       7.272  30.490  60.870  1.00  0.00    -0.550 OA
ENDBRANCH   6   7
ENDBRANCH   5   6
ENDBRANCH   4   5
ENDBRANCH   3   4
ENDBRANCH   2   3
ENDBRANCH   1   2
BRANCH   1  10
ATOM     10  C   UNL     1      15.199  29.664  61.257  1.00  0.00     0.000 C 
BRANCH  10  11
ATOM     11  C   UNL     1      15.849  30.080  59.931  1.00  0.00    -0.000 C 
BRANCH  11  12
ATOM     12  C   UNL     1      14.789  30.535  58.918  1.00  0.00    -0.000 C 
BRANCH  12  13
ATOM     13  C   UNL     1      14.811  29.708  57.622  1.00  0.00    -0.000 C 
BRANCH  13  14
ATOM     14  C   UNL     1      14.967  30.581  56.366  1.00  0.00    -0.000 C 
BRANCH  14  15
ATOM     15  C   UNL     1      16.344  31.260  56.290  1.00  0.00    -0.003 C 
ATOM     16  C   UNL     1      17.242  30.663  55.207  1.00  0.00     0.004 C 
ENDBRANCH  14  15
ENDBRANCH  13  14
ENDBRANCH  12  13
ENDBRANCH  11  12
ENDBRANCH  10  11
ENDBRANCH   1  10
TORSDOF 12
ENDMDL
MODEL 7
REMARK VINA RESULT:    -4.636      3.357      6.060
REMARK INTER + INTRA:          -8.931
REMARK INTER:                  -7.501
REMARK INTRA:                  -1.430
REMARK UNBOUND:                -1.042
REMARK SMILES CCCCCCCCCCCCCC(=O)[O-]
REMARK SMILES IDX 8 1 9 2 10 3 11 4 12 5 13 6 14 7 15 8 16 9 7 10 6 11 5 12
REMARK SMILES IDX 4 13 3 14 2 15 1 16
REMARK H PARENT
REMARK Flexibility Score: inf
ROOT
ATOM      1  C   UNL     1      14.881  29.693  62.157  1.00  0.00     0.000 C 
ENDROOT
BRANCH   1   2
ATOM      2  C   UNL     1      15.732  29.507  60.891  1.00  0.00     0.000 C 
BRANCH   2   3
ATOM      3  C   UNL     1      15.343  30.487  59.770  1.00  0.00     0.000 C 
BRANCH   3   4
ATOM      4  C   UNL     1      14.998  29.778  58.448  1.00  0.00     0.000 C 
BRANCH   4   5
ATOM      5  C   UNL     1      14.539  30.706  57.305  1.00  0.00     0.006 C 
BRANCH   5   6
ATOM      6  C   UNL     1      14.089  32.104  57.758  1.00  0.00     0.053 C 
BRANCH   6   7
ATOM      7  C   UNL     1      14.718  33.188  56.937  1.00  0.00     0.041 C 
ATOM      8  O   UNL     1      15.699  33.836  57.389  1.00  0.00    -0.550 OA
ATOM      9  O   UNL     1      14.242  33.460  55.661  1.00  0.00    -0.550 OA
ENDBRANCH   6   7
ENDBRANCH   5   6
ENDBRANCH   4   5
ENDBRANCH   3   4
ENDBRANCH   2   3
ENDBRANCH   1   2
BRANCH   1  10
ATOM     10  C   UNL     1      13.374  29.723  61.860  1.00  0.00     0.000 C 
BRANCH  10  11
ATOM     11  C   UNL     1      12.829  28.306  61.641  1.00  0.00    -0.000 C 
BRANCH  11  12
ATOM     12  C   UNL     1      11.843  28.272  60.463  1.00  0.00    -0.000 C 
BRANCH  12  13
ATOM     13  C   UNL     1      11.578  29.666  59.870  1.00  0.00    -0.000 C 
BRANCH  13  14
ATOM     14  C   UNL     1      10.120  29.849  59.419  1.00  0.00    -0.000 C 
BRANCH  14  15
ATOM     15  C   UNL     1       9.159  28.879  60.127  1.00  0.00    -0.003 C 
ATOM     16  C   UNL     1       8.452  29.512  61.325  1.00  0.00     0.004 C 
ENDBRANCH  14  15
ENDBRANCH  13  14
ENDBRANCH  12  13
ENDBRANCH  11  12
ENDBRANCH  10  11
ENDBRANCH   1  10
TORSDOF 12
ENDMDL
MODEL 8
REMARK VINA RESULT:    -4.601      4.576      7.758
REMARK INTER + INTRA:          -8.871
REMARK INTER:                  -8.050
REMARK INTRA:                  -0.821
REMARK UNBOUND:                -1.042
REMARK SMILES CCCCCCCCCCCCCC(=O)[O-]
REMARK SMILES IDX 8 1 9 2 10 3 11 4 12 5 13 6 14 7 15 8 16 9 7 10 6 11 5 12
REMARK SMILES IDX 4 13 3 14 2 15 1 16
REMARK H PARENT
REMARK Flexibility Score: inf
ROOT
ATOM      1  C   UNL     1      13.064  28.129  61.902  1.00  0.00     0.000 C 
ENDROOT
BRANCH   1   2
ATOM      2  C   UNL     1      14.200  29.161  61.823  1.00  0.00     0.000 C 
BRANCH   2   3
ATOM      3  C   UNL     1      14.916  29.354  63.171  1.00  0.00     0.000 C 
BRANCH   3   4
ATOM      4  C   UNL     1      16.443  29.489  63.024  1.00  0.00     0.000 C 
BRANCH   4   5
ATOM      5  C   UNL     1      17.172  28.217  62.544  1.00  0.00     0.006 C 
BRANCH   5   6
ATOM      6  C   UNL     1      17.282  27.106  63.600  1.00  0.00     0.053 C 
BRANCH   6   7
ATOM      7  C   UNL     1      18.419  26.173  63.316  1.00  0.00     0.041 C 
ATOM      8  O   UNL     1      18.770  25.322  64.175  1.00  0.00    -0.550 OA
ATOM      9  O   UNL     1      19.069  26.221  62.089  1.00  0.00    -0.550 OA
ENDBRANCH   6   7
ENDBRANCH   5   6
ENDBRANCH   4   5
ENDBRANCH   3   4
ENDBRANCH   2   3
ENDBRANCH   1   2
BRANCH   1  10
ATOM     10  C   UNL     1      12.027  28.301  60.782  1.00  0.00     0.000 C 
BRANCH  10  11
ATOM     11  C   UNL     1      11.965  29.760  60.310  1.00  0.00    -0.000 C 
BRANCH  11  12
ATOM     12  C   UNL     1      11.067  29.899  59.071  1.00  0.00    -0.000 C 
BRANCH  12  13
ATOM     13  C   UNL     1       9.655  29.335  59.295  1.00  0.00    -0.000 C 
BRANCH  13  14
ATOM     14  C   UNL     1       8.611  30.436  59.546  1.00  0.00    -0.000 C 
BRANCH  14  15
ATOM     15  C   UNL     1       7.804  30.198  60.833  1.00  0.00    -0.003 C 
ATOM     16  C   UNL     1       8.600  29.455  61.905  1.00  0.00     0.004 C 
ENDBRANCH  14  15
ENDBRANCH  13  14
ENDBRANCH  12  13
ENDBRANCH  11  12
ENDBRANCH  10  11
ENDBRANCH   1  10
TORSDOF 12
ENDMDL
MODEL 9
REMARK VINA RESULT:    -4.570      3.270      5.339
REMARK INTER + INTRA:          -8.818
REMARK INTER:                  -7.463
REMARK INTRA:                  -1.355
REMARK UNBOUND:                -1.042
REMARK SMILES CCCCCCCCCCCCCC(=O)[O-]
REMARK SMILES IDX 8 1 9 2 10 3 11 4 12 5 13 6 14 7 15 8 16 9 7 10 6 11 5 12
REMARK SMILES IDX 4 13 3 14 2 15 1 16
REMARK H PARENT
REMARK Flexibility Score: inf
ROOT
ATOM      1  C   UNL     1      11.300  29.307  59.758  1.00  0.00     0.000 C 
ENDROOT
BRANCH   1   2
ATOM      2  C   UNL     1      11.077  30.393  58.693  1.00  0.00     0.000 C 
BRANCH   2   3
ATOM      3  C   UNL     1      12.390  30.850  58.034  1.00  0.00     0.000 C 
BRANCH   3   4
ATOM      4  C   UNL     1      13.617  30.651  58.941  1.00  0.00     0.000 C 
BRANCH   4   5
ATOM      5  C   UNL     1      14.823  29.960  58.273  1.00  0.00     0.006 C 
BRANCH   5   6
ATOM      6  C   UNL     1      15.677  30.880  57.385  1.00  0.00     0.053 C 
BRANCH   6   7
ATOM      7  C   UNL     1      15.665  30.445  55.952  1.00  0.00     0.041 C 
ATOM      8  O   UNL     1      14.614  29.974  55.442  1.00  0.00    -0.550 OA
ATOM      9  O   UNL     1      16.804  30.592  55.170  1.00  0.00    -0.550 OA
ENDBRANCH   6   7
ENDBRANCH   5   6
ENDBRANCH   4   5
ENDBRANCH   3   4
ENDBRANCH   2   3
ENDBRANCH   1   2
BRANCH   1  10
ATOM     10  C   UNL     1      10.799  29.727  61.148  1.00  0.00     0.000 C 
BRANCH  10  11
ATOM     11  C   UNL     1      11.862  29.455  62.221  1.00  0.00    -0.000 C 
BRANCH  11  12
ATOM     12  C   UNL     1      12.793  28.310  61.794  1.00  0.00    -0.000 C 
BRANCH  12  13
ATOM     13  C   UNL     1      14.144  28.339  62.526  1.00  0.00    -0.000 C 
BRANCH  13  14
ATOM     14  C   UNL     1      15.055  29.479  62.040  1.00  0.00    -0.000 C 
BRANCH  14  15
ATOM     15  C   UNL     1      16.512  29.026  61.847  1.00  0.00    -0.003 C 
ATOM     16  C   UNL     1      17.512  30.176  61.964  1.00  0.00     0.004 C 
ENDBRANCH  14  15
ENDBRANCH  13  14
ENDBRANCH  12  13
ENDBRANCH  11  12
ENDBRANCH  10  11
ENDBRANCH   1  10
TORSDOF 12
ENDMDL
