MODEL 1
REMARK VINA RESULT:     6.186      0.000      0.000
REMARK INTER + INTRA:           6.652
REMARK INTER:                   6.729
REMARK INTRA:                  -0.077
REMARK UNBOUND:                -0.077
REMARK SMILES C[C@H]1[C@H]2C3=CC[C@@H]4[C@]5(C)CC[C@@H](O)C(C)(C)[C@H]5CC[C@@]4(C)[C@]3(C)CC[C@@]2(C(=O)[O-])CC[C@@H]1C
REMARK SMILES IDX 26 1 30 2 25 3 3 4 31 5 24 6 4 7 2 8 32 9 22 10 5 11 1 12
REMARK SMILES IDX 33 13 23 14 20 15 6 16 7 17 19 18 21 19 8 20 18 21 17 22
REMARK SMILES IDX 10 23 9 24 14 25 11 26 12 27 15 28 16 29 27 30 28 31 29 32
REMARK SMILES IDX 13 33
REMARK H PARENT 13 34
REMARK Flexibility Score: inf
ROOT
ATOM      1  C   UNL     1     -45.045  95.818  27.790  1.00  0.00     0.017 C 
ATOM      2  C   UNL     1     -44.697  95.831  29.305  1.00  0.00     0.014 C 
ATOM      3  C   UNL     1     -46.439  96.445  27.557  1.00  0.00     0.014 C 
ATOM      4  C   UNL     1     -45.021  94.366  27.180  1.00  0.00     0.030 C 
ATOM      5  C   UNL     1     -45.384  94.735  30.117  1.00  0.00     0.004 C 
ATOM      6  C   UNL     1     -46.738  96.623  26.062  1.00  0.00     0.013 C 
ATOM      7  C   UNL     1     -45.610  94.300  25.756  1.00  0.00    -0.063 C 
ATOM      8  C   UNL     1     -45.515  93.188  28.106  1.00  0.00    -0.003 C 
ATOM      9  C   UNL     1     -45.054  93.337  29.578  1.00  0.00    -0.011 C 
ATOM     10  C   UNL     1     -46.667  95.302  25.217  1.00  0.00    -0.006 C 
ATOM     11  C   UNL     1     -45.157  93.305  24.952  1.00  0.00    -0.027 C 
ATOM     12  C   UNL     1     -47.020  92.875  28.048  1.00  0.00     0.008 C 
ATOM     13  C   UNL     1     -43.569  92.973  29.759  1.00  0.00     0.008 C 
ATOM     14  C   UNL     1     -48.062  94.607  25.379  1.00  0.00     0.017 C 
ATOM     15  C   UNL     1     -46.334  95.636  23.675  1.00  0.00    -0.020 C 
ATOM     16  C   UNL     1     -45.305  93.277  23.448  1.00  0.00     0.032 C 
ATOM     17  C   UNL     1     -46.345  94.273  22.872  1.00  0.00     0.006 C 
ATOM     18  C   UNL     1     -47.381  96.666  23.079  1.00  0.00     0.008 C 
ATOM     19  C   UNL     1     -44.897  96.269  23.573  1.00  0.00     0.012 C 
ATOM     20  C   UNL     1     -46.396  94.328  21.265  1.00  0.00    -0.025 C 
ATOM     21  C   UNL     1     -47.934  96.321  21.684  1.00  0.00     0.005 C 
ATOM     22  C   UNL     1     -46.799  95.774  20.798  1.00  0.00     0.003 C 
ATOM     23  C   UNL     1     -45.038  93.995  20.577  1.00  0.00     0.010 C 
ATOM     24  C   UNL     1     -47.427  93.233  20.832  1.00  0.00     0.012 C 
ATOM     25  C   UNL     1     -46.902  96.017  19.243  1.00  0.00    -0.006 C 
ATOM     26  C   UNL     1     -45.069  94.166  19.044  1.00  0.00     0.033 C 
ATOM     27  C   UNL     1     -45.550  95.558  18.591  1.00  0.00     0.120 C 
ATOM     28  C   UNL     1     -47.041  97.542  18.964  1.00  0.00     0.014 C 
ATOM     29  C   UNL     1     -48.123  95.318  18.586  1.00  0.00     0.014 C 
ENDROOT
BRANCH   1  30
ATOM     30  C   UNL     1     -43.984  96.709  27.132  1.00  0.00     0.048 C 
ATOM     31  O   UNL     1     -43.017  96.188  26.514  1.00  0.00    -0.550 OA
ATOM     32  O   UNL     1     -44.116  98.094  27.107  1.00  0.00    -0.550 OA
ENDBRANCH   1  30
BRANCH  27  33
ATOM     33  O   UNL     1     -45.651  95.559  17.187  1.00  0.00    -0.393 OA
ATOM     34  H   UNL     1     -45.628  96.504  16.884  1.00  0.00     0.210 HD
ENDBRANCH  27  33
TORSDOF 2
ENDMDL
