MODEL 1
REMARK VINA RESULT:    24.086      0.000      0.000
REMARK INTER + INTRA:          34.772
REMARK INTER:                  33.942
REMARK INTRA:                   0.830
REMARK UNBOUND:                 0.830
REMARK SMILES CC1=CCC(=C(C)C)C(=O)CC(C)=CCC1
REMARK SMILES IDX 12 1 14 2 13 3 15 4 16 5 2 6 1 7 3 8 11 10 9 11 10 12 5 13
REMARK SMILES IDX 6 14 7 15 8 16 4 17
REMARK H PARENT
REMARK Flexibility Score: 60.00
ROOT
ATOM      1  C   UNL     1      86.064  14.696 107.920  1.00  0.00    -0.070 C 
ATOM      2  C   UNL     1      85.629  15.795 107.261  1.00  0.00    -0.027 C 
ATOM      3  C   UNL     1      87.200  13.910 107.317  1.00  0.00     0.039 C 
ENDROOT
BRANCH   2   4
ATOM      4  C   UNL     1      84.466  16.663 107.686  1.00  0.00     0.032 C 
BRANCH   4   5
ATOM      5  C   UNL     1      83.298  16.571 106.693  1.00  0.00     0.034 C 
BRANCH   5   6
ATOM      6  C   UNL     1      82.999  15.150 106.236  1.00  0.00    -0.077 C 
ATOM      7  C   UNL     1      83.404  14.733 104.845  1.00  0.00     0.039 C 
ATOM      8  C   UNL     1      82.367  14.237 107.010  1.00  0.00    -0.023 CG0
ATOM      9  G   UNL     1      81.950  14.445 108.447  1.00  0.00     0.000 G0
ENDBRANCH   5   6
ENDBRANCH   4   5
ENDBRANCH   2   4
BRANCH   1  10
ATOM     10  C   UNL     1      85.462  14.228 109.231  1.00  0.00     0.111 C 
BRANCH  10  11
ATOM     11  C   UNL     1      84.240  13.387 108.996  1.00  0.00     0.163 C 
ATOM     12  O   UNL     1      84.353  12.286 108.393  1.00  0.00    -0.294 OA
BRANCH  11  13
ATOM     13  C   UNL     1      82.895  13.837 109.440  1.00  0.00    -0.002 C 
ATOM     14  C   UNL     1      82.518  13.696 110.740  1.00  0.00    -0.069 C 
ATOM     15  C   UNL     1      81.176  14.196 111.222  1.00  0.00     0.039 C 
ATOM     16  C   UNL     1      83.411  12.997 111.742  1.00  0.00     0.039 C 
BRANCH  13  17
ATOM     17  C   UNL     1      81.946  14.458 108.420  1.00  0.00     0.066 CG0
ATOM     18  G   UNL     1      82.365  14.238 106.986  1.00  0.00     0.000 G0
ENDBRANCH  13  17
ENDBRANCH  11  13
ENDBRANCH  10  11
ENDBRANCH   1  10
TORSDOF 0
ENDMDL
MODEL 2
REMARK VINA RESULT:    25.038      1.908      4.695
REMARK INTER + INTRA:          36.115
REMARK INTER:                  32.814
REMARK INTRA:                   3.301
REMARK UNBOUND:                 0.830
REMARK SMILES CC1=CCC(=C(C)C)C(=O)CC(C)=CCC1
REMARK SMILES IDX 12 1 14 2 13 3 15 4 16 5 2 6 1 7 3 8 11 10 9 11 10 12 5 13
REMARK SMILES IDX 6 14 7 15 8 16 4 17
REMARK H PARENT
REMARK Flexibility Score: 60.00
ROOT
ATOM      1  C   UNL     1      83.089  14.092 106.596  1.00  0.00    -0.070 C 
ATOM      2  C   UNL     1      83.426  12.809 106.866  1.00  0.00    -0.027 C 
ATOM      3  C   UNL     1      82.761  14.454 105.170  1.00  0.00     0.039 C 
ENDROOT
BRANCH   2   4
ATOM      4  C   UNL     1      83.842  12.284 108.221  1.00  0.00     0.032 C 
BRANCH   4   5
ATOM      5  C   UNL     1      82.747  12.506 109.275  1.00  0.00     0.034 C 
BRANCH   5   6
ATOM      6  C   UNL     1      83.126  13.524 110.341  1.00  0.00    -0.077 C 
ATOM      7  C   UNL     1      82.111  13.883 111.397  1.00  0.00     0.039 C 
ATOM      8  C   UNL     1      84.328  14.143 110.385  1.00  0.00    -0.023 CG0
ATOM      9  G   UNL     1      85.491  13.865 109.462  1.00  0.00     0.000 G0
ENDBRANCH   5   6
ENDBRANCH   4   5
ENDBRANCH   2   4
BRANCH   1  10
ATOM     10  C   UNL     1      83.025  15.170 107.661  1.00  0.00     0.111 C 
BRANCH  10  11
ATOM     11  C   UNL     1      84.395  15.692 107.986  1.00  0.00     0.163 C 
ATOM     12  O   UNL     1      84.591  16.937 108.023  1.00  0.00    -0.294 OA
BRANCH  11  13
ATOM     13  C   UNL     1      85.532  14.770 108.243  1.00  0.00    -0.002 C 
ATOM     14  C   UNL     1      86.581  14.715 107.378  1.00  0.00    -0.069 C 
ATOM     15  C   UNL     1      87.770  13.822 107.649  1.00  0.00     0.039 C 
ATOM     16  C   UNL     1      86.576  15.512 106.092  1.00  0.00     0.039 C 
BRANCH  13  17
ATOM     17  C   UNL     1      85.506  13.889 109.488  1.00  0.00     0.066 CG0
ATOM     18  G   UNL     1      84.329  14.154 110.397  1.00  0.00     0.000 G0
ENDBRANCH  13  17
ENDBRANCH  11  13
ENDBRANCH  10  11
ENDBRANCH   1  10
TORSDOF 0
ENDMDL
MODEL 3
REMARK VINA RESULT:    25.710      2.172      4.968
REMARK INTER + INTRA:          37.061
REMARK INTER:                  35.245
REMARK INTRA:                   1.817
REMARK UNBOUND:                 0.830
REMARK SMILES CC1=CCC(=C(C)C)C(=O)CC(C)=CCC1
REMARK SMILES IDX 12 1 14 2 13 3 15 4 16 5 2 6 1 7 3 8 11 10 9 11 10 12 5 13
REMARK SMILES IDX 6 14 7 15 8 16 4 17
REMARK H PARENT
REMARK Flexibility Score: 60.00
ROOT
ATOM      1  C   UNL     1      82.145  14.474 107.103  1.00  0.00    -0.070 C 
ATOM      2  C   UNL     1      82.387  13.320 107.768  1.00  0.00    -0.027 C 
ATOM      3  C   UNL     1      80.815  15.150 107.315  1.00  0.00     0.039 C 
ENDROOT
BRANCH   2   4
ATOM      4  C   UNL     1      83.636  12.479 107.630  1.00  0.00     0.032 C 
BRANCH   4   5
ATOM      5  C   UNL     1      84.646  12.777 108.748  1.00  0.00     0.034 C 
BRANCH   5   6
ATOM      6  C   UNL     1      84.213  13.905 109.673  1.00  0.00    -0.077 C 
ATOM      7  C   UNL     1      83.439  13.565 110.922  1.00  0.00     0.039 C 
ATOM      8  C   UNL     1      84.472  15.210 109.427  1.00  0.00    -0.023 CG0
ATOM      9  G   UNL     1      85.290  15.738 108.272  1.00  0.00     0.000 G0
ENDBRANCH   5   6
ENDBRANCH   4   5
ENDBRANCH   2   4
BRANCH   1  10
ATOM     10  C   UNL     1      83.151  15.110 106.163  1.00  0.00     0.111 C 
BRANCH  10  11
ATOM     11  C   UNL     1      83.444  16.528 106.563  1.00  0.00     0.163 C 
ATOM     12  O   UNL     1      82.753  17.463 106.077  1.00  0.00    -0.294 OA
BRANCH  11  13
ATOM     13  C   UNL     1      84.547  16.853 107.504  1.00  0.00    -0.002 C 
ATOM     14  C   UNL     1      84.926  18.145 107.698  1.00  0.00    -0.069 C 
ATOM     15  C   UNL     1      86.010  18.500 108.690  1.00  0.00     0.039 C 
ATOM     16  C   UNL     1      84.306  19.270 106.898  1.00  0.00     0.039 C 
BRANCH  13  17
ATOM     17  C   UNL     1      85.247  15.719 108.247  1.00  0.00     0.066 CG0
ATOM     18  G   UNL     1      84.490  15.226 109.457  1.00  0.00     0.000 G0
ENDBRANCH  13  17
ENDBRANCH  11  13
ENDBRANCH  10  11
ENDBRANCH   1  10
TORSDOF 0
ENDMDL
MODEL 4
REMARK VINA RESULT:    26.143      1.543      3.185
REMARK INTER + INTRA:          37.672
REMARK INTER:                  36.823
REMARK INTRA:                   0.849
REMARK UNBOUND:                 0.830
REMARK SMILES CC1=CCC(=C(C)C)C(=O)CC(C)=CCC1
REMARK SMILES IDX 12 1 14 2 13 3 15 4 16 5 2 6 1 7 3 8 11 10 9 11 10 12 5 13
REMARK SMILES IDX 6 14 7 15 8 16 4 17
REMARK H PARENT
REMARK Flexibility Score: 60.00
ROOT
ATOM      1  C   UNL     1      82.672  14.460 107.203  1.00  0.00    -0.070 C 
ATOM      2  C   UNL     1      83.367  15.532 106.756  1.00  0.00    -0.027 C 
ATOM      3  C   UNL     1      81.298  14.695 107.778  1.00  0.00     0.039 C 
ENDROOT
BRANCH   2   4
ATOM      4  C   UNL     1      84.776  15.491 106.208  1.00  0.00     0.032 C 
BRANCH   4   5
ATOM      5  C   UNL     1      85.812  15.857 107.280  1.00  0.00     0.034 C 
BRANCH   5   6
ATOM      6  C   UNL     1      86.495  14.649 107.904  1.00  0.00    -0.077 C 
ATOM      7  C   UNL     1      87.751  14.113 107.264  1.00  0.00     0.039 C 
ATOM      8  C   UNL     1      86.025  14.012 109.001  1.00  0.00    -0.023 CG0
ATOM      9  G   UNL     1      84.827  14.439 109.817  1.00  0.00     0.000 G0
ENDBRANCH   5   6
ENDBRANCH   4   5
ENDBRANCH   2   4
BRANCH   1  10
ATOM     10  C   UNL     1      83.213  13.045 107.148  1.00  0.00     0.111 C 
BRANCH  10  11
ATOM     11  C   UNL     1      83.567  12.546 108.520  1.00  0.00     0.163 C 
ATOM     12  O   UNL     1      83.784  11.317 108.695  1.00  0.00    -0.294 OA
BRANCH  11  13
ATOM     13  C   UNL     1      83.643  13.470 109.682  1.00  0.00    -0.002 C 
ATOM     14  C   UNL     1      82.666  13.464 110.629  1.00  0.00    -0.069 C 
ATOM     15  C   UNL     1      82.753  14.359 111.845  1.00  0.00     0.039 C 
ATOM     16  C   UNL     1      81.438  12.593 110.481  1.00  0.00     0.039 C 
BRANCH  13  17
ATOM     17  C   UNL     1      84.829  14.422 109.796  1.00  0.00     0.066 CG0
ATOM     18  G   UNL     1      86.031  13.997 108.986  1.00  0.00     0.000 G0
ENDBRANCH  13  17
ENDBRANCH  11  13
ENDBRANCH  10  11
ENDBRANCH   1  10
TORSDOF 0
ENDMDL
MODEL 5
REMARK VINA RESULT:    26.541      1.821      4.507
REMARK INTER + INTRA:          38.233
REMARK INTER:                  37.257
REMARK INTRA:                   0.976
REMARK UNBOUND:                 0.830
REMARK SMILES CC1=CCC(=C(C)C)C(=O)CC(C)=CCC1
REMARK SMILES IDX 12 1 14 2 13 3 15 4 16 5 2 6 1 7 3 8 11 10 9 11 10 12 5 13
REMARK SMILES IDX 6 14 7 15 8 16 4 17
REMARK H PARENT
REMARK Flexibility Score: 60.00
ROOT
ATOM      1  C   UNL     1      82.707  14.774 106.854  1.00  0.00    -0.070 C 
ATOM      2  C   UNL     1      82.689  13.637 107.590  1.00  0.00    -0.027 C 
ATOM      3  C   UNL     1      81.436  15.578 106.759  1.00  0.00     0.039 C 
ENDROOT
BRANCH   2   4
ATOM      4  C   UNL     1      83.850  12.680 107.744  1.00  0.00     0.032 C 
BRANCH   4   5
ATOM      5  C   UNL     1      84.220  12.474 109.221  1.00  0.00     0.034 C 
BRANCH   5   6
ATOM      6  C   UNL     1      83.592  13.499 110.154  1.00  0.00    -0.077 C 
ATOM      7  C   UNL     1      82.382  13.101 110.962  1.00  0.00     0.039 C 
ATOM      8  C   UNL     1      84.052  14.764 110.288  1.00  0.00    -0.023 CG0
ATOM      9  G   UNL     1      85.286  15.323 109.620  1.00  0.00     0.000 G0
ENDBRANCH   5   6
ENDBRANCH   4   5
ENDBRANCH   2   4
BRANCH   1  10
ATOM     10  C   UNL     1      83.945  15.268 106.131  1.00  0.00     0.111 C 
BRANCH  10  11
ATOM     11  C   UNL     1      85.122  15.342 107.061  1.00  0.00     0.163 C 
ATOM     12  O   UNL     1      86.192  14.749 106.754  1.00  0.00    -0.294 OA
BRANCH  11  13
ATOM     13  C   UNL     1      85.045  16.082 108.347  1.00  0.00    -0.002 C 
ATOM     14  C   UNL     1      84.763  17.414 108.357  1.00  0.00    -0.069 C 
ATOM     15  C   UNL     1      84.628  18.172 109.658  1.00  0.00     0.039 C 
ATOM     16  C   UNL     1      84.614  18.192 107.068  1.00  0.00     0.039 C 
BRANCH  13  17
ATOM     17  C   UNL     1      85.287  15.331 109.652  1.00  0.00     0.066 CG0
ATOM     18  G   UNL     1      84.029  14.771 110.274  1.00  0.00     0.000 G0
ENDBRANCH  13  17
ENDBRANCH  11  13
ENDBRANCH  10  11
ENDBRANCH   1  10
TORSDOF 0
ENDMDL
MODEL 6
REMARK VINA RESULT:    26.690      8.544     10.197
REMARK INTER + INTRA:          38.442
REMARK INTER:                  36.860
REMARK INTRA:                   1.582
REMARK UNBOUND:                 0.830
REMARK SMILES CC1=CCC(=C(C)C)C(=O)CC(C)=CCC1
REMARK SMILES IDX 12 1 14 2 13 3 15 4 16 5 2 6 1 7 3 8 11 10 9 11 10 12 5 13
REMARK SMILES IDX 6 14 7 15 8 16 4 17
REMARK H PARENT
REMARK Flexibility Score: 60.00
ROOT
ATOM      1  C   UNL     1      90.351  23.246 111.887  1.00  0.00    -0.070 C 
ATOM      2  C   UNL     1      91.023  22.642 112.895  1.00  0.00    -0.027 C 
ATOM      3  C   UNL     1      91.150  23.988 110.846  1.00  0.00     0.039 C 
ENDROOT
BRANCH   2   4
ATOM      4  C   UNL     1      90.384  21.909 114.053  1.00  0.00     0.032 C 
BRANCH   4   5
ATOM      5  C   UNL     1      90.372  20.390 113.824  1.00  0.00     0.034 C 
BRANCH   5   6
ATOM      6  C   UNL     1      90.798  19.984 112.421  1.00  0.00    -0.077 C 
ATOM      7  C   UNL     1      92.249  19.660 112.167  1.00  0.00     0.039 C 
ATOM      8  C   UNL     1      89.944  19.913 111.374  1.00  0.00    -0.023 CG0
ATOM      9  G   UNL     1      88.451  20.131 111.446  1.00  0.00     0.000 G0
ENDBRANCH   5   6
ENDBRANCH   4   5
ENDBRANCH   2   4
BRANCH   1  10
ATOM     10  C   UNL     1      88.841  23.204 111.761  1.00  0.00     0.111 C 
BRANCH  10  11
ATOM     11  C   UNL     1      88.423  22.555 110.472  1.00  0.00     0.163 C 
ATOM     12  O   UNL     1      88.494  23.211 109.398  1.00  0.00    -0.294 OA
BRANCH  11  13
ATOM     13  C   UNL     1      87.905  21.163 110.441  1.00  0.00    -0.002 C 
ATOM     14  C   UNL     1      86.964  20.801 109.527  1.00  0.00    -0.069 C 
ATOM     15  C   UNL     1      86.464  19.376 109.444  1.00  0.00     0.039 C 
ATOM     16  C   UNL     1      86.354  21.818 108.587  1.00  0.00     0.039 C 
BRANCH  13  17
ATOM     17  C   UNL     1      88.442  20.148 111.445  1.00  0.00     0.066 CG0
ATOM     18  G   UNL     1      89.932  19.924 111.346  1.00  0.00     0.000 G0
ENDBRANCH  13  17
ENDBRANCH  11  13
ENDBRANCH  10  11
ENDBRANCH   1  10
TORSDOF 0
ENDMDL
MODEL 7
REMARK VINA RESULT:    26.750      1.812      4.168
REMARK INTER + INTRA:          38.527
REMARK INTER:                  33.159
REMARK INTRA:                   5.369
REMARK UNBOUND:                 0.830
REMARK SMILES CC1=CCC(=C(C)C)C(=O)CC(C)=CCC1
REMARK SMILES IDX 12 1 14 2 13 3 15 4 16 5 2 6 1 7 3 8 11 10 9 11 10 12 5 13
REMARK SMILES IDX 6 14 7 15 8 16 4 17
REMARK H PARENT
REMARK Flexibility Score: 60.00
ROOT
ATOM      1  C   UNL     1      82.815  15.364 106.675  1.00  0.00    -0.070 C 
ATOM      2  C   UNL     1      81.708  14.813 107.225  1.00  0.00    -0.027 C 
ATOM      3  C   UNL     1      82.938  15.358 105.172  1.00  0.00     0.039 C 
ENDROOT
BRANCH   2   4
ATOM      4  C   UNL     1      81.447  14.678 108.708  1.00  0.00     0.032 C 
BRANCH   4   5
ATOM      5  C   UNL     1      82.224  13.500 109.315  1.00  0.00     0.034 C 
BRANCH   5   6
ATOM      6  C   UNL     1      82.665  13.738 110.752  1.00  0.00    -0.077 C 
ATOM      7  C   UNL     1      81.628  13.699 111.847  1.00  0.00     0.039 C 
ATOM      8  C   UNL     1      83.944  14.003 111.104  1.00  0.00    -0.023 CG0
ATOM      9  G   UNL     1      85.127  14.015 110.164  1.00  0.00     0.000 G0
ENDBRANCH   5   6
ENDBRANCH   4   5
ENDBRANCH   2   4
BRANCH   1  10
ATOM     10  C   UNL     1      83.926  15.984 107.500  1.00  0.00     0.111 C 
BRANCH  10  11
ATOM     11  C   UNL     1      85.019  14.990 107.771  1.00  0.00     0.163 C 
ATOM     12  O   UNL     1      86.131  15.120 107.191  1.00  0.00    -0.294 OA
BRANCH  11  13
ATOM     13  C   UNL     1      84.809  13.842 108.690  1.00  0.00    -0.002 C 
ATOM     14  C   UNL     1      84.314  12.666 108.219  1.00  0.00    -0.069 C 
ATOM     15  C   UNL     1      84.143  11.470 109.129  1.00  0.00     0.039 C 
ATOM     16  C   UNL     1      83.877  12.523 106.777  1.00  0.00     0.039 C 
BRANCH  13  17
ATOM     17  C   UNL     1      85.156  14.002 110.167  1.00  0.00     0.066 CG0
ATOM     18  G   UNL     1      83.950  14.028 111.076  1.00  0.00     0.000 G0
ENDBRANCH  13  17
ENDBRANCH  11  13
ENDBRANCH  10  11
ENDBRANCH   1  10
TORSDOF 0
ENDMDL
MODEL 8
REMARK VINA RESULT:    26.843      9.598     11.230
REMARK INTER + INTRA:          38.658
REMARK INTER:                  37.824
REMARK INTRA:                   0.834
REMARK UNBOUND:                 0.830
REMARK SMILES CC1=CCC(=C(C)C)C(=O)CC(C)=CCC1
REMARK SMILES IDX 12 1 14 2 13 3 15 4 16 5 2 6 1 7 3 8 11 10 9 11 10 12 5 13
REMARK SMILES IDX 6 14 7 15 8 16 4 17
REMARK H PARENT
REMARK Flexibility Score: 60.00
ROOT
ATOM      1  C   UNL     1      88.222  20.608 113.086  1.00  0.00    -0.070 C 
ATOM      2  C   UNL     1      87.692  21.342 112.080  1.00  0.00    -0.027 C 
ATOM      3  C   UNL     1      87.525  20.627 114.422  1.00  0.00     0.039 C 
ENDROOT
BRANCH   2   4
ATOM      4  C   UNL     1      88.289  21.489 110.699  1.00  0.00     0.032 C 
BRANCH   4   5
ATOM      5  C   UNL     1      88.844  22.902 110.469  1.00  0.00     0.034 C 
BRANCH   5   6
ATOM      6  C   UNL     1      89.504  23.504 111.701  1.00  0.00    -0.077 C 
ATOM      7  C   UNL     1      88.727  24.497 112.530  1.00  0.00     0.039 C 
ATOM      8  C   UNL     1      90.766  23.209 112.089  1.00  0.00    -0.023 CG0
ATOM      9  G   UNL     1      91.669  22.192 111.432  1.00  0.00     0.000 G0
ENDBRANCH   5   6
ENDBRANCH   4   5
ENDBRANCH   2   4
BRANCH   1  10
ATOM     10  C   UNL     1      89.478  19.774 112.924  1.00  0.00     0.111 C 
BRANCH  10  11
ATOM     11  C   UNL     1      90.710  20.591 113.193  1.00  0.00     0.163 C 
ATOM     12  O   UNL     1      90.892  21.074 114.343  1.00  0.00    -0.294 OA
BRANCH  11  13
ATOM     13  C   UNL     1      91.707  20.859 112.125  1.00  0.00    -0.002 C 
ATOM     14  C   UNL     1      92.609  19.903 111.772  1.00  0.00    -0.069 C 
ATOM     15  C   UNL     1      93.597  20.138 110.652  1.00  0.00     0.039 C 
ATOM     16  C   UNL     1      92.685  18.587 112.515  1.00  0.00     0.039 C 
BRANCH  13  17
ATOM     17  C   UNL     1      91.704  22.218 111.432  1.00  0.00     0.066 CG0
ATOM     18  G   UNL     1      90.780  23.226 112.072  1.00  0.00     0.000 G0
ENDBRANCH  13  17
ENDBRANCH  11  13
ENDBRANCH  10  11
ENDBRANCH   1  10
TORSDOF 0
ENDMDL
