MODEL 1
REMARK VINA RESULT:    -4.098      0.000      0.000
REMARK INTER + INTRA:          -5.479
REMARK INTER:                  -5.296
REMARK INTRA:                  -0.183
REMARK UNBOUND:                -0.183
REMARK SMILES CCO[C@@H]1O[C@H](CO)[C@@H](O)[C@@H](O)[C@@H]1O
REMARK SMILES IDX 4 1 13 2 11 3 9 4 6 5 5 6 3 7 2 8 1 9 14 10 12 12 7 14 8 15
REMARK SMILES IDX 10 17
REMARK H PARENT 14 11 12 13 8 16 10 18
REMARK Flexibility Score: inf
ROOT
ATOM      1  C   UNL     1     -21.909 -11.774  40.248  1.00  0.00     0.281 C 
ATOM      2  C   UNL     1     -23.240 -11.584  39.424  1.00  0.00     0.202 C 
ATOM      3  C   UNL     1     -23.310 -12.533  38.192  1.00  0.00     0.179 C 
ATOM      4  C   UNL     1     -22.993 -14.023  38.569  1.00  0.00     0.177 C 
ATOM      5  C   UNL     1     -22.035 -14.129  39.798  1.00  0.00     0.178 C 
ATOM      6  O   UNL     1     -21.213 -12.963  39.896  1.00  0.00    -0.341 OA
ENDROOT
BRANCH   1   7
ATOM      7  O   UNL     1     -20.984 -10.668  40.122  1.00  0.00    -0.350 OA
BRANCH   7   8
ATOM      8  C   UNL     1     -19.584 -10.997  40.192  1.00  0.00     0.160 C 
ATOM      9  C   UNL     1     -18.936 -10.727  41.544  1.00  0.00     0.035 C 
ENDBRANCH   7   8
ENDBRANCH   1   7
BRANCH   2  10
ATOM     10  O   UNL     1     -23.397 -10.238  39.034  1.00  0.00    -0.385 OA
ATOM     11  H   UNL     1     -23.118  -9.663  39.806  1.00  0.00     0.211 HD
ENDBRANCH   2  10
BRANCH   3  12
ATOM     12  O   UNL     1     -24.585 -12.406  37.598  1.00  0.00    -0.387 OA
ATOM     13  H   UNL     1     -25.246 -12.123  38.311  1.00  0.00     0.211 HD
ENDBRANCH   3  12
BRANCH   5  14
ATOM     14  C   UNL     1     -21.081 -15.360  39.755  1.00  0.00     0.191 C 
BRANCH  14  15
ATOM     15  O   UNL     1     -19.895 -15.101  39.032  1.00  0.00    -0.394 OA
ATOM     16  H   UNL     1     -19.544 -15.960  38.681  1.00  0.00     0.210 HD
ENDBRANCH  14  15
ENDBRANCH   5  14
BRANCH   4  17
ATOM     17  O   UNL     1     -24.203 -14.716  38.851  1.00  0.00    -0.387 OA
ATOM     18  H   UNL     1     -24.952 -14.172  38.468  1.00  0.00     0.211 HD
ENDBRANCH   4  17
TORSDOF 7
ENDMDL
MODEL 2
REMARK VINA RESULT:    -4.071      1.800      3.706
REMARK INTER + INTRA:          -5.444
REMARK INTER:                  -5.308
REMARK INTRA:                  -0.136
REMARK UNBOUND:                -0.183
REMARK SMILES CCO[C@@H]1O[C@H](CO)[C@@H](O)[C@@H](O)[C@@H]1O
REMARK SMILES IDX 4 1 13 2 11 3 9 4 6 5 5 6 3 7 2 8 1 9 14 10 12 12 7 14 8 15
REMARK SMILES IDX 10 17
REMARK H PARENT 14 11 12 13 8 16 10 18
REMARK Flexibility Score: inf
ROOT
ATOM      1  C   UNL     1     -23.099 -11.859  39.456  1.00  0.00     0.281 C 
ATOM      2  C   UNL     1     -23.196 -13.077  38.458  1.00  0.00     0.202 C 
ATOM      3  C   UNL     1     -22.069 -13.049  37.384  1.00  0.00     0.179 C 
ATOM      4  C   UNL     1     -20.648 -12.848  38.018  1.00  0.00     0.177 C 
ATOM      5  C   UNL     1     -20.707 -12.042  39.356  1.00  0.00     0.178 C 
ATOM      6  O   UNL     1     -21.850 -11.183  39.374  1.00  0.00    -0.341 OA
ENDROOT
BRANCH   1   7
ATOM      7  O   UNL     1     -24.145 -10.875  39.276  1.00  0.00    -0.350 OA
BRANCH   7   8
ATOM      8  C   UNL     1     -24.201  -9.819  40.254  1.00  0.00     0.160 C 
ATOM      9  C   UNL     1     -25.609  -9.381  40.635  1.00  0.00     0.035 C 
ENDBRANCH   7   8
ENDBRANCH   1   7
BRANCH   2  10
ATOM     10  O   UNL     1     -24.468 -13.124  37.852  1.00  0.00    -0.385 OA
ATOM     11  H   UNL     1     -24.340 -13.005  36.866  1.00  0.00     0.211 HD
ENDBRANCH   2  10
BRANCH   3  12
ATOM     12  O   UNL     1     -22.139 -14.239  36.628  1.00  0.00    -0.387 OA
ATOM     13  H   UNL     1     -22.113 -15.027  37.264  1.00  0.00     0.211 HD
ENDBRANCH   3  12
BRANCH   5  14
ATOM     14  C   UNL     1     -19.458 -11.149  39.614  1.00  0.00     0.191 C 
BRANCH  14  15
ATOM     15  O   UNL     1     -19.705 -10.135  40.567  1.00  0.00    -0.394 OA
ATOM     16  H   UNL     1     -18.836  -9.835  40.942  1.00  0.00     0.210 HD
ENDBRANCH  14  15
ENDBRANCH   5  14
BRANCH   4  17
ATOM     17  O   UNL     1     -20.042 -14.113  38.253  1.00  0.00    -0.387 OA
ATOM     18  H   UNL     1     -19.549 -14.365  37.419  1.00  0.00     0.211 HD
ENDBRANCH   4  17
TORSDOF 7
ENDMDL
MODEL 3
REMARK VINA RESULT:    -4.015      1.197      3.381
REMARK INTER + INTRA:          -5.372
REMARK INTER:                  -5.299
REMARK INTRA:                  -0.073
REMARK UNBOUND:                -0.183
REMARK SMILES CCO[C@@H]1O[C@H](CO)[C@@H](O)[C@@H](O)[C@@H]1O
REMARK SMILES IDX 4 1 13 2 11 3 9 4 6 5 5 6 3 7 2 8 1 9 14 10 12 12 7 14 8 15
REMARK SMILES IDX 10 17
REMARK H PARENT 14 11 12 13 8 16 10 18
REMARK Flexibility Score: inf
ROOT
ATOM      1  C   UNL     1     -20.618 -12.441  39.185  1.00  0.00     0.281 C 
ATOM      2  C   UNL     1     -21.100 -13.769  38.484  1.00  0.00     0.202 C 
ATOM      3  C   UNL     1     -22.508 -14.216  38.975  1.00  0.00     0.179 C 
ATOM      4  C   UNL     1     -23.554 -13.047  38.930  1.00  0.00     0.177 C 
ATOM      5  C   UNL     1     -22.883 -11.648  39.112  1.00  0.00     0.178 C 
ATOM      6  O   UNL     1     -21.671 -11.767  39.862  1.00  0.00    -0.341 OA
ENDROOT
BRANCH   1   7
ATOM      7  O   UNL     1     -19.542 -12.642  40.132  1.00  0.00    -0.350 OA
BRANCH   7   8
ATOM      8  C   UNL     1     -19.652 -11.931  41.380  1.00  0.00     0.160 C 
ATOM      9  C   UNL     1     -19.055 -10.529  41.365  1.00  0.00     0.035 C 
ENDBRANCH   7   8
ENDBRANCH   1   7
BRANCH   2  10
ATOM     10  O   UNL     1     -20.154 -14.799  38.661  1.00  0.00    -0.385 OA
ATOM     11  H   UNL     1     -19.734 -14.673  39.562  1.00  0.00     0.211 HD
ENDBRANCH   2  10
BRANCH   3  12
ATOM     12  O   UNL     1     -22.926 -15.319  38.200  1.00  0.00    -0.387 OA
ATOM     13  H   UNL     1     -22.203 -16.028  38.231  1.00  0.00     0.211 HD
ENDBRANCH   3  12
BRANCH   5  14
ATOM     14  C   UNL     1     -23.777 -10.606  39.847  1.00  0.00     0.191 C 
BRANCH  14  15
ATOM     15  O   UNL     1     -23.440  -9.274  39.517  1.00  0.00    -0.394 OA
ATOM     16  H   UNL     1     -22.485  -9.124  39.745  1.00  0.00     0.210 HD
ENDBRANCH  14  15
ENDBRANCH   5  14
BRANCH   4  17
ATOM     17  O   UNL     1     -24.257 -13.078  37.693  1.00  0.00    -0.387 OA
ATOM     18  H   UNL     1     -23.889 -13.844  37.163  1.00  0.00     0.211 HD
ENDBRANCH   4  17
TORSDOF 7
ENDMDL
MODEL 4
REMARK VINA RESULT:    -3.991      2.476      2.617
REMARK INTER + INTRA:          -5.341
REMARK INTER:                  -5.011
REMARK INTRA:                  -0.329
REMARK UNBOUND:                -0.183
REMARK SMILES CCO[C@@H]1O[C@H](CO)[C@@H](O)[C@@H](O)[C@@H]1O
REMARK SMILES IDX 4 1 13 2 11 3 9 4 6 5 5 6 3 7 2 8 1 9 14 10 12 12 7 14 8 15
REMARK SMILES IDX 10 17
REMARK H PARENT 14 11 12 13 8 16 10 18
REMARK Flexibility Score: inf
ROOT
ATOM      1  C   UNL     1     -21.604 -12.387  38.969  1.00  0.00     0.281 C 
ATOM      2  C   UNL     1     -22.980 -12.362  38.200  1.00  0.00     0.202 C 
ATOM      3  C   UNL     1     -22.812 -11.963  36.704  1.00  0.00     0.179 C 
ATOM      4  C   UNL     1     -21.689 -12.793  35.990  1.00  0.00     0.177 C 
ATOM      5  C   UNL     1     -20.574 -13.255  36.982  1.00  0.00     0.178 C 
ATOM      6  O   UNL     1     -20.486 -12.357  38.091  1.00  0.00    -0.341 OA
ENDROOT
BRANCH   1   7
ATOM      7  O   UNL     1     -21.449 -11.304  39.918  1.00  0.00    -0.350 OA
BRANCH   7   8
ATOM      8  C   UNL     1     -20.386 -11.448  40.880  1.00  0.00     0.160 C 
ATOM      9  C   UNL     1     -19.327 -10.355  40.822  1.00  0.00     0.035 C 
ENDBRANCH   7   8
ENDBRANCH   1   7
BRANCH   2  10
ATOM     10  O   UNL     1     -23.899 -11.512  38.849  1.00  0.00    -0.385 OA
ATOM     11  H   UNL     1     -24.813 -11.905  38.729  1.00  0.00     0.211 HD
ENDBRANCH   2  10
BRANCH   3  12
ATOM     12  O   UNL     1     -24.058 -12.106  36.057  1.00  0.00    -0.387 OA
ATOM     13  H   UNL     1     -24.342 -11.202  35.700  1.00  0.00     0.211 HD
ENDBRANCH   3  12
BRANCH   5  14
ATOM     14  C   UNL     1     -19.154 -13.341  36.347  1.00  0.00     0.191 C 
BRANCH  14  15
ATOM     15  O   UNL     1     -19.189 -13.294  34.935  1.00  0.00    -0.394 OA
ATOM     16  H   UNL     1     -20.122 -13.114  34.647  1.00  0.00     0.210 HD
ENDBRANCH  14  15
ENDBRANCH   5  14
BRANCH   4  17
ATOM     17  O   UNL     1     -22.260 -13.932  35.356  1.00  0.00    -0.387 OA
ATOM     18  H   UNL     1     -22.435 -13.683  34.402  1.00  0.00     0.211 HD
ENDBRANCH   4  17
TORSDOF 7
ENDMDL
MODEL 5
REMARK VINA RESULT:    -3.988      1.852      4.155
REMARK INTER + INTRA:          -5.337
REMARK INTER:                  -5.111
REMARK INTRA:                  -0.225
REMARK UNBOUND:                -0.183
REMARK SMILES CCO[C@@H]1O[C@H](CO)[C@@H](O)[C@@H](O)[C@@H]1O
REMARK SMILES IDX 4 1 13 2 11 3 9 4 6 5 5 6 3 7 2 8 1 9 14 10 12 12 7 14 8 15
REMARK SMILES IDX 10 17
REMARK H PARENT 14 11 12 13 8 16 10 18
REMARK Flexibility Score: inf
ROOT
ATOM      1  C   UNL     1     -21.514 -13.077  40.610  1.00  0.00     0.281 C 
ATOM      2  C   UNL     1     -21.426 -13.832  39.228  1.00  0.00     0.202 C 
ATOM      3  C   UNL     1     -22.766 -13.770  38.437  1.00  0.00     0.179 C 
ATOM      4  C   UNL     1     -23.331 -12.309  38.339  1.00  0.00     0.177 C 
ATOM      5  C   UNL     1     -22.902 -11.427  39.555  1.00  0.00     0.178 C 
ATOM      6  O   UNL     1     -22.660 -12.242  40.705  1.00  0.00    -0.341 OA
ENDROOT
BRANCH   1   7
ATOM      7  O   UNL     1     -21.516 -13.961  41.757  1.00  0.00    -0.350 OA
BRANCH   7   8
ATOM      8  C   UNL     1     -22.802 -14.250  42.335  1.00  0.00     0.160 C 
ATOM      9  C   UNL     1     -22.799 -15.382  43.355  1.00  0.00     0.035 C 
ENDBRANCH   7   8
ENDBRANCH   1   7
BRANCH   2  10
ATOM     10  O   UNL     1     -21.013 -15.167  39.415  1.00  0.00    -0.385 OA
ATOM     11  H   UNL     1     -21.079 -15.633  38.530  1.00  0.00     0.211 HD
ENDBRANCH   2  10
BRANCH   3  12
ATOM     12  O   UNL     1     -22.562 -14.337  37.161  1.00  0.00    -0.387 OA
ATOM     13  H   UNL     1     -23.418 -14.249  36.628  1.00  0.00     0.211 HD
ENDBRANCH   3  12
BRANCH   5  14
ATOM     14  C   UNL     1     -23.956 -10.356  39.965  1.00  0.00     0.191 C 
BRANCH  14  15
ATOM     15  O   UNL     1     -23.591  -9.053  39.556  1.00  0.00    -0.394 OA
ATOM     16  H   UNL     1     -24.413  -8.561  39.296  1.00  0.00     0.210 HD
ENDBRANCH  14  15
ENDBRANCH   5  14
BRANCH   4  17
ATOM     17  O   UNL     1     -22.885 -11.701  37.132  1.00  0.00    -0.387 OA
ATOM     18  H   UNL     1     -22.329 -12.378  36.648  1.00  0.00     0.211 HD
ENDBRANCH   4  17
TORSDOF 7
ENDMDL
MODEL 6
REMARK VINA RESULT:    -3.970      1.929      2.998
REMARK INTER + INTRA:          -5.314
REMARK INTER:                  -4.808
REMARK INTRA:                  -0.505
REMARK UNBOUND:                -0.183
REMARK SMILES CCO[C@@H]1O[C@H](CO)[C@@H](O)[C@@H](O)[C@@H]1O
REMARK SMILES IDX 4 1 13 2 11 3 9 4 6 5 5 6 3 7 2 8 1 9 14 10 12 12 7 14 8 15
REMARK SMILES IDX 10 17
REMARK H PARENT 14 11 12 13 8 16 10 18
REMARK Flexibility Score: inf
ROOT
ATOM      1  C   UNL     1     -21.018 -13.442  38.990  1.00  0.00     0.281 C 
ATOM      2  C   UNL     1     -22.257 -12.655  39.569  1.00  0.00     0.202 C 
ATOM      3  C   UNL     1     -22.722 -11.511  38.621  1.00  0.00     0.179 C 
ATOM      4  C   UNL     1     -22.904 -12.001  37.141  1.00  0.00     0.177 C 
ATOM      5  C   UNL     1     -21.961 -13.198  36.796  1.00  0.00     0.178 C 
ATOM      6  O   UNL     1     -20.788 -13.166  37.615  1.00  0.00    -0.341 OA
ENDROOT
BRANCH   1   7
ATOM      7  O   UNL     1     -19.784 -13.188  39.703  1.00  0.00    -0.350 OA
BRANCH   7   8
ATOM      8  C   UNL     1     -18.875 -12.255  39.090  1.00  0.00     0.160 C 
ATOM      9  C   UNL     1     -18.881 -10.863  39.710  1.00  0.00     0.035 C 
ENDBRANCH   7   8
ENDBRANCH   1   7
BRANCH   2  10
ATOM     10  O   UNL     1     -21.974 -12.159  40.858  1.00  0.00    -0.385 OA
ATOM     11  H   UNL     1     -22.831 -12.159  41.378  1.00  0.00     0.211 HD
ENDBRANCH   2  10
BRANCH   3  12
ATOM     12  O   UNL     1     -23.913 -10.957  39.136  1.00  0.00    -0.387 OA
ATOM     13  H   UNL     1     -24.511 -11.712  39.451  1.00  0.00     0.211 HD
ENDBRANCH   3  12
BRANCH   5  14
ATOM     14  C   UNL     1     -21.484 -13.223  35.313  1.00  0.00     0.191 C 
BRANCH  14  15
ATOM     15  O   UNL     1     -22.490 -12.802  34.414  1.00  0.00    -0.394 OA
ATOM     16  H   UNL     1     -23.371 -13.096  34.765  1.00  0.00     0.210 HD
ENDBRANCH  14  15
ENDBRANCH   5  14
BRANCH   4  17
ATOM     17  O   UNL     1     -24.256 -12.385  36.924  1.00  0.00    -0.387 OA
ATOM     18  H   UNL     1     -24.329 -12.682  35.970  1.00  0.00     0.211 HD
ENDBRANCH   4  17
TORSDOF 7
ENDMDL
MODEL 7
REMARK VINA RESULT:    -3.953      1.708      3.300
REMARK INTER + INTRA:          -5.291
REMARK INTER:                  -4.783
REMARK INTRA:                  -0.509
REMARK UNBOUND:                -0.183
REMARK SMILES CCO[C@@H]1O[C@H](CO)[C@@H](O)[C@@H](O)[C@@H]1O
REMARK SMILES IDX 4 1 13 2 11 3 9 4 6 5 5 6 3 7 2 8 1 9 14 10 12 12 7 14 8 15
REMARK SMILES IDX 10 17
REMARK H PARENT 14 11 12 13 8 16 10 18
REMARK Flexibility Score: inf
ROOT
ATOM      1  C   UNL     1     -20.355 -13.411  38.802  1.00  0.00     0.281 C 
ATOM      2  C   UNL     1     -21.119 -14.145  39.971  1.00  0.00     0.202 C 
ATOM      3  C   UNL     1     -22.498 -13.489  40.275  1.00  0.00     0.179 C 
ATOM      4  C   UNL     1     -23.356 -13.279  38.978  1.00  0.00     0.177 C 
ATOM      5  C   UNL     1     -22.467 -13.079  37.709  1.00  0.00     0.178 C 
ATOM      6  O   UNL     1     -21.195 -12.530  38.068  1.00  0.00    -0.341 OA
ENDROOT
BRANCH   1   7
ATOM      7  O   UNL     1     -19.203 -12.655  39.244  1.00  0.00    -0.350 OA
BRANCH   7   8
ATOM      8  C   UNL     1     -19.370 -11.227  39.322  1.00  0.00     0.160 C 
ATOM      9  C   UNL     1     -19.648 -10.697  40.723  1.00  0.00     0.035 C 
ENDBRANCH   7   8
ENDBRANCH   1   7
BRANCH   2  10
ATOM     10  O   UNL     1     -20.320 -14.199  41.131  1.00  0.00    -0.385 OA
ATOM     11  H   UNL     1     -19.492 -14.718  40.906  1.00  0.00     0.211 HD
ENDBRANCH   2  10
BRANCH   3  12
ATOM     12  O   UNL     1     -23.175 -14.286  41.223  1.00  0.00    -0.387 OA
ATOM     13  H   UNL     1     -23.933 -14.770  40.757  1.00  0.00     0.211 HD
ENDBRANCH   3  12
BRANCH   5  14
ATOM     14  C   UNL     1     -23.090 -12.132  36.640  1.00  0.00     0.191 C 
BRANCH  14  15
ATOM     15  O   UNL     1     -24.502 -12.179  36.633  1.00  0.00    -0.394 OA
ATOM     16  H   UNL     1     -24.803 -12.495  35.741  1.00  0.00     0.210 HD
ENDBRANCH  14  15
ENDBRANCH   5  14
BRANCH   4  17
ATOM     17  O   UNL     1     -24.215 -14.395  38.782  1.00  0.00    -0.387 OA
ATOM     18  H   UNL     1     -24.947 -14.100  38.166  1.00  0.00     0.211 HD
ENDBRANCH   4  17
TORSDOF 7
ENDMDL
MODEL 8
REMARK VINA RESULT:    -3.929      1.558      4.067
REMARK INTER + INTRA:          -5.260
REMARK INTER:                  -4.808
REMARK INTRA:                  -0.452
REMARK UNBOUND:                -0.183
REMARK SMILES CCO[C@@H]1O[C@H](CO)[C@@H](O)[C@@H](O)[C@@H]1O
REMARK SMILES IDX 4 1 13 2 11 3 9 4 6 5 5 6 3 7 2 8 1 9 14 10 12 12 7 14 8 15
REMARK SMILES IDX 10 17
REMARK H PARENT 14 11 12 13 8 16 10 18
REMARK Flexibility Score: inf
ROOT
ATOM      1  C   UNL     1     -22.446 -13.769  40.754  1.00  0.00     0.281 C 
ATOM      2  C   UNL     1     -21.623 -12.477  41.130  1.00  0.00     0.202 C 
ATOM      3  C   UNL     1     -21.247 -11.632  39.877  1.00  0.00     0.179 C 
ATOM      4  C   UNL     1     -22.484 -11.362  38.950  1.00  0.00     0.177 C 
ATOM      5  C   UNL     1     -23.554 -12.496  39.047  1.00  0.00     0.178 C 
ATOM      6  O   UNL     1     -22.942 -13.733  39.422  1.00  0.00    -0.341 OA
ENDROOT
BRANCH   1   7
ATOM      7  O   UNL     1     -21.700 -15.000  40.914  1.00  0.00    -0.350 OA
BRANCH   7   8
ATOM      8  C   UNL     1     -21.167 -15.582  39.709  1.00  0.00     0.160 C 
ATOM      9  C   UNL     1     -19.699 -15.269  39.450  1.00  0.00     0.035 C 
ENDBRANCH   7   8
ENDBRANCH   1   7
BRANCH   2  10
ATOM     10  O   UNL     1     -20.473 -12.817  41.872  1.00  0.00    -0.385 OA
ATOM     11  H   UNL     1     -19.699 -12.846  41.236  1.00  0.00     0.211 HD
ENDBRANCH   2  10
BRANCH   3  12
ATOM     12  O   UNL     1     -20.646 -10.431  40.308  1.00  0.00    -0.387 OA
ATOM     13  H   UNL     1     -20.803  -9.720  39.604  1.00  0.00     0.211 HD
ENDBRANCH   3  12
BRANCH   5  14
ATOM     14  C   UNL     1     -24.330 -12.752  37.721  1.00  0.00     0.191 C 
BRANCH  14  15
ATOM     15  O   UNL     1     -23.969 -11.844  36.699  1.00  0.00    -0.394 OA
ATOM     16  H   UNL     1     -24.392 -12.139  35.851  1.00  0.00     0.210 HD
ENDBRANCH  14  15
ENDBRANCH   5  14
BRANCH   4  17
ATOM     17  O   UNL     1     -23.081 -10.117  39.294  1.00  0.00    -0.387 OA
ATOM     18  H   UNL     1     -22.340  -9.449  39.385  1.00  0.00     0.211 HD
ENDBRANCH   4  17
TORSDOF 7
ENDMDL
MODEL 9
REMARK VINA RESULT:    -3.858      2.589      3.659
REMARK INTER + INTRA:          -5.168
REMARK INTER:                  -4.787
REMARK INTRA:                  -0.382
REMARK UNBOUND:                -0.183
REMARK SMILES CCO[C@@H]1O[C@H](CO)[C@@H](O)[C@@H](O)[C@@H]1O
REMARK SMILES IDX 4 1 13 2 11 3 9 4 6 5 5 6 3 7 2 8 1 9 14 10 12 12 7 14 8 15
REMARK SMILES IDX 10 17
REMARK H PARENT 14 11 12 13 8 16 10 18
REMARK Flexibility Score: inf
ROOT
ATOM      1  C   UNL     1     -21.670 -13.182  36.589  1.00  0.00     0.281 C 
ATOM      2  C   UNL     1     -22.713 -12.095  37.058  1.00  0.00     0.202 C 
ATOM      3  C   UNL     1     -23.687 -12.643  38.142  1.00  0.00     0.179 C 
ATOM      4  C   UNL     1     -22.930 -13.359  39.315  1.00  0.00     0.177 C 
ATOM      5  C   UNL     1     -21.576 -13.985  38.849  1.00  0.00     0.178 C 
ATOM      6  O   UNL     1     -21.625 -14.307  37.457  1.00  0.00    -0.341 OA
ENDROOT
BRANCH   1   7
ATOM      7  O   UNL     1     -21.904 -13.670  35.246  1.00  0.00    -0.350 OA
BRANCH   7   8
ATOM      8  C   UNL     1     -20.843 -13.454  34.297  1.00  0.00     0.160 C 
ATOM      9  C   UNL     1     -19.477 -13.201  34.920  1.00  0.00     0.035 C 
ENDBRANCH   7   8
ENDBRANCH   1   7
BRANCH   2  10
ATOM     10  O   UNL     1     -23.424 -11.577  35.956  1.00  0.00    -0.385 OA
ATOM     11  H   UNL     1     -24.360 -11.931  36.005  1.00  0.00     0.211 HD
ENDBRANCH   2  10
BRANCH   3  12
ATOM     12  O   UNL     1     -24.485 -11.577  38.610  1.00  0.00    -0.387 OA
ATOM     13  H   UNL     1     -23.878 -10.874  39.016  1.00  0.00     0.211 HD
ENDBRANCH   3  12
BRANCH   5  14
ATOM     14  C   UNL     1     -21.185 -15.287  39.609  1.00  0.00     0.191 C 
BRANCH  14  15
ATOM     15  O   UNL     1     -21.541 -15.245  40.975  1.00  0.00    -0.394 OA
ATOM     16  H   UNL     1     -20.807 -14.806  41.480  1.00  0.00     0.210 HD
ENDBRANCH  14  15
ENDBRANCH   5  14
BRANCH   4  17
ATOM     17  O   UNL     1     -22.687 -12.433  40.367  1.00  0.00    -0.387 OA
ATOM     18  H   UNL     1     -23.403 -12.570  41.054  1.00  0.00     0.211 HD
ENDBRANCH   4  17
TORSDOF 7
ENDMDL
