MODEL 1
REMARK VINA RESULT:    -5.892      0.000      0.000
REMARK INTER + INTRA:          -7.285
REMARK INTER:                  -7.097
REMARK INTRA:                  -0.188
REMARK UNBOUND:                -0.188
REMARK SMILES O=c1c(O)c(-c2ccc(O)c(O)c2)oc2cc(O)cc(O)c12
REMARK SMILES IDX 5 1 3 2 2 3 1 4 22 5 20 6 19 7 17 8 16 9 15 10 14 11 6 12
REMARK SMILES IDX 7 13 8 14 9 15 13 16 11 17 10 18 12 20 4 22 21 24 18 26
REMARK H PARENT 10 19 12 21 4 23 21 25 18 27
REMARK Flexibility Score: inf
ROOT
ATOM      1  C   UNL     1      16.883   9.874  28.231  1.00  0.00     0.180 A 
ATOM      2  C   UNL     1      15.971   9.257  29.103  1.00  0.00     0.208 A 
ATOM      3  C   UNL     1      14.631   9.122  28.705  1.00  0.00     0.238 A 
ATOM      4  O   UNL     1      13.836   8.502  29.459  1.00  0.00    -0.285 OA
ATOM      5  C   UNL     1      14.207   9.657  27.464  1.00  0.00     0.111 A 
ATOM      6  C   UNL     1      12.865   9.619  26.978  1.00  0.00     0.134 A 
ATOM      7  C   UNL     1      12.584  10.086  25.688  1.00  0.00     0.093 A 
ATOM      8  C   UNL     1      13.584  10.648  24.891  1.00  0.00     0.123 A 
ATOM      9  C   UNL     1      14.886  10.739  25.377  1.00  0.00     0.094 A 
ATOM     10  C   UNL     1      15.205  10.248  26.645  1.00  0.00     0.146 A 
ATOM     11  O   UNL     1      16.464  10.337  27.059  1.00  0.00    -0.452 OA
ENDROOT
BRANCH   1  12
ATOM     12  C   UNL     1      18.314  10.039  28.575  1.00  0.00     0.025 A 
ATOM     13  C   UNL     1      18.680  10.929  29.596  1.00  0.00     0.016 A 
ATOM     14  C   UNL     1      20.026  11.117  29.923  1.00  0.00     0.051 A 
ATOM     15  C   UNL     1      21.025  10.429  29.224  1.00  0.00     0.157 A 
ATOM     16  C   UNL     1      19.322   9.365  27.860  1.00  0.00     0.062 A 
ATOM     17  C   UNL     1      20.671   9.553  28.184  1.00  0.00     0.158 A 
BRANCH  15  18
ATOM     18  O   UNL     1      22.367  10.616  29.553  1.00  0.00    -0.504 OA
ATOM     19  H   UNL     1      23.088  10.653  28.841  1.00  0.00     0.293 HD
ENDBRANCH  15  18
BRANCH  17  20
ATOM     20  O   UNL     1      21.642   8.864  27.459  1.00  0.00    -0.504 OA
ATOM     21  H   UNL     1      21.493   7.919  27.124  1.00  0.00     0.293 HD
ENDBRANCH  17  20
ENDBRANCH   1  12
BRANCH   2  22
ATOM     22  O   UNL     1      16.392   8.804  30.357  1.00  0.00    -0.502 OA
ATOM     23  H   UNL     1      15.978   9.133  31.221  1.00  0.00     0.293 HD
ENDBRANCH   2  22
BRANCH   6  24
ATOM     24  O   UNL     1      11.775   9.160  27.724  1.00  0.00    -0.507 OA
ATOM     25  H   UNL     1      11.836   8.527  28.506  1.00  0.00     0.293 HD
ENDBRANCH   6  24
BRANCH   8  26
ATOM     26  O   UNL     1      13.293  11.125  23.615  1.00  0.00    -0.508 OA
ATOM     27  H   UNL     1      13.859  10.873  22.813  1.00  0.00     0.293 HD
ENDBRANCH   8  26
TORSDOF 6
ENDMDL
MODEL 2
REMARK VINA RESULT:    -5.846      2.466      6.946
REMARK INTER + INTRA:          -7.231
REMARK INTER:                  -7.451
REMARK INTRA:                   0.220
REMARK UNBOUND:                -0.188
REMARK SMILES O=c1c(O)c(-c2ccc(O)c(O)c2)oc2cc(O)cc(O)c12
REMARK SMILES IDX 5 1 3 2 2 3 1 4 22 5 20 6 19 7 17 8 16 9 15 10 14 11 6 12
REMARK SMILES IDX 7 13 8 14 9 15 13 16 11 17 10 18 12 20 4 22 21 24 18 26
REMARK H PARENT 10 19 12 21 4 23 21 25 18 27
REMARK Flexibility Score: inf
ROOT
ATOM      1  C   UNL     1      14.617   9.319  27.394  1.00  0.00     0.180 A 
ATOM      2  C   UNL     1      15.980   9.658  27.358  1.00  0.00     0.208 A 
ATOM      3  C   UNL     1      16.733   9.580  28.542  1.00  0.00     0.238 A 
ATOM      4  O   UNL     1      17.969   9.813  28.487  1.00  0.00    -0.285 OA
ATOM      5  C   UNL     1      16.102   9.219  29.756  1.00  0.00     0.111 A 
ATOM      6  C   UNL     1      16.756   9.150  31.024  1.00  0.00     0.134 A 
ATOM      7  C   UNL     1      16.053   8.677  32.139  1.00  0.00     0.093 A 
ATOM      8  C   UNL     1      14.704   8.331  32.047  1.00  0.00     0.123 A 
ATOM      9  C   UNL     1      14.042   8.445  30.827  1.00  0.00     0.094 A 
ATOM     10  C   UNL     1      14.725   8.877  29.688  1.00  0.00     0.146 A 
ATOM     11  O   UNL     1      14.059   8.951  28.542  1.00  0.00    -0.452 OA
ENDROOT
BRANCH   1  12
ATOM     12  C   UNL     1      13.763   9.362  26.185  1.00  0.00     0.025 A 
ATOM     13  C   UNL     1      12.394   9.640  26.319  1.00  0.00     0.016 A 
ATOM     14  C   UNL     1      11.563   9.665  25.195  1.00  0.00     0.051 A 
ATOM     15  C   UNL     1      12.087   9.398  23.924  1.00  0.00     0.157 A 
ATOM     16  C   UNL     1      14.281   9.074  24.910  1.00  0.00     0.062 A 
ATOM     17  C   UNL     1      13.451   9.095  23.782  1.00  0.00     0.158 A 
BRANCH  15  18
ATOM     18  O   UNL     1      11.257   9.425  22.804  1.00  0.00    -0.504 OA
ATOM     19  H   UNL     1      10.285   9.704  22.871  1.00  0.00     0.293 HD
ENDBRANCH  15  18
BRANCH  17  20
ATOM     20  O   UNL     1      14.001   8.811  22.533  1.00  0.00    -0.504 OA
ATOM     21  H   UNL     1      14.932   9.116  22.273  1.00  0.00     0.293 HD
ENDBRANCH  17  20
ENDBRANCH   1  12
BRANCH   2  22
ATOM     22  O   UNL     1      16.568  10.087  26.165  1.00  0.00    -0.502 OA
ATOM     23  H   UNL     1      17.111  10.940  26.102  1.00  0.00     0.293 HD
ENDBRANCH   2  22
BRANCH   6  24
ATOM     24  O   UNL     1      18.075   9.556  31.246  1.00  0.00    -0.507 OA
ATOM     25  H   UNL     1      18.795   8.981  31.655  1.00  0.00     0.293 HD
ENDBRANCH   6  24
BRANCH   8  26
ATOM     26  O   UNL     1      14.008   7.877  33.166  1.00  0.00    -0.508 OA
ATOM     27  H   UNL     1      13.136   8.303  33.456  1.00  0.00     0.293 HD
ENDBRANCH   8  26
TORSDOF 6
ENDMDL
MODEL 3
REMARK VINA RESULT:    -5.827      1.600      3.164
REMARK INTER + INTRA:          -7.207
REMARK INTER:                  -6.989
REMARK INTRA:                  -0.218
REMARK UNBOUND:                -0.188
REMARK SMILES O=c1c(O)c(-c2ccc(O)c(O)c2)oc2cc(O)cc(O)c12
REMARK SMILES IDX 5 1 3 2 2 3 1 4 22 5 20 6 19 7 17 8 16 9 15 10 14 11 6 12
REMARK SMILES IDX 7 13 8 14 9 15 13 16 11 17 10 18 12 20 4 22 21 24 18 26
REMARK H PARENT 10 19 12 21 4 23 21 25 18 27
REMARK Flexibility Score: inf
ROOT
ATOM      1  C   UNL     1      17.778   9.699  28.518  1.00  0.00     0.180 A 
ATOM      2  C   UNL     1      17.332   9.898  27.200  1.00  0.00     0.208 A 
ATOM      3  C   UNL     1      15.964   9.758  26.916  1.00  0.00     0.238 A 
ATOM      4  O   UNL     1      15.562  10.010  25.750  1.00  0.00    -0.285 OA
ATOM      5  C   UNL     1      15.067   9.366  27.938  1.00  0.00     0.111 A 
ATOM      6  C   UNL     1      13.667   9.150  27.754  1.00  0.00     0.134 A 
ATOM      7  C   UNL     1      12.860   8.868  28.863  1.00  0.00     0.093 A 
ATOM      8  C   UNL     1      13.411   8.731  30.139  1.00  0.00     0.123 A 
ATOM      9  C   UNL     1      14.783   8.886  30.321  1.00  0.00     0.094 A 
ATOM     10  C   UNL     1      15.609   9.205  29.241  1.00  0.00     0.146 A 
ATOM     11  O   UNL     1      16.908   9.365  29.464  1.00  0.00    -0.452 OA
ENDROOT
BRANCH   1  12
ATOM     12  C   UNL     1      19.201   9.843  28.898  1.00  0.00     0.025 A 
ATOM     13  C   UNL     1      19.603  10.953  29.657  1.00  0.00     0.016 A 
ATOM     14  C   UNL     1      20.945  11.122  30.010  1.00  0.00     0.051 A 
ATOM     15  C   UNL     1      21.906  10.191  29.597  1.00  0.00     0.157 A 
ATOM     16  C   UNL     1      20.173   8.921  28.468  1.00  0.00     0.062 A 
ATOM     17  C   UNL     1      21.518   9.089  28.817  1.00  0.00     0.158 A 
BRANCH  15  18
ATOM     18  O   UNL     1      23.244  10.360  29.952  1.00  0.00    -0.504 OA
ATOM     19  H   UNL     1      23.994  10.179  29.295  1.00  0.00     0.293 HD
ENDBRANCH  15  18
BRANCH  17  20
ATOM     20  O   UNL     1      22.452   8.151  28.378  1.00  0.00    -0.504 OA
ATOM     21  H   UNL     1      22.304   7.594  27.546  1.00  0.00     0.293 HD
ENDBRANCH  17  20
ENDBRANCH   1  12
BRANCH   2  22
ATOM     22  O   UNL     1      18.244  10.209  26.188  1.00  0.00    -0.502 OA
ATOM     23  H   UNL     1      18.015  10.126  25.205  1.00  0.00     0.293 HD
ENDBRANCH   2  22
BRANCH   6  24
ATOM     24  O   UNL     1      13.029   9.176  26.511  1.00  0.00    -0.507 OA
ATOM     25  H   UNL     1      13.218   9.842  25.778  1.00  0.00     0.293 HD
ENDBRANCH   6  24
BRANCH   8  26
ATOM     26  O   UNL     1      12.602   8.433  31.234  1.00  0.00    -0.508 OA
ATOM     27  H   UNL     1      12.393   7.476  31.494  1.00  0.00     0.293 HD
ENDBRANCH   8  26
TORSDOF 6
ENDMDL
MODEL 4
REMARK VINA RESULT:    -5.679      1.591      3.204
REMARK INTER + INTRA:          -7.030
REMARK INTER:                  -7.273
REMARK INTRA:                   0.244
REMARK UNBOUND:                -0.188
REMARK SMILES O=c1c(O)c(-c2ccc(O)c(O)c2)oc2cc(O)cc(O)c12
REMARK SMILES IDX 5 1 3 2 2 3 1 4 22 5 20 6 19 7 17 8 16 9 15 10 14 11 6 12
REMARK SMILES IDX 7 13 8 14 9 15 13 16 11 17 10 18 12 20 4 22 21 24 18 26
REMARK H PARENT 10 19 12 21 4 23 21 25 18 27
REMARK Flexibility Score: inf
ROOT
ATOM      1  C   UNL     1      15.461  10.023  27.272  1.00  0.00     0.180 A 
ATOM      2  C   UNL     1      15.268   9.959  25.882  1.00  0.00     0.208 A 
ATOM      3  C   UNL     1      13.962   9.831  25.380  1.00  0.00     0.238 A 
ATOM      4  O   UNL     1      13.791   9.849  24.133  1.00  0.00    -0.285 OA
ATOM      5  C   UNL     1      12.872   9.711  26.275  1.00  0.00     0.111 A 
ATOM      6  C   UNL     1      11.511   9.532  25.880  1.00  0.00     0.134 A 
ATOM      7  C   UNL     1      10.504   9.533  26.853  1.00  0.00     0.093 A 
ATOM      8  C   UNL     1      10.812   9.643  28.210  1.00  0.00     0.123 A 
ATOM      9  C   UNL     1      12.141   9.764  28.610  1.00  0.00     0.094 A 
ATOM     10  C   UNL     1      13.165   9.804  27.662  1.00  0.00     0.146 A 
ATOM     11  O   UNL     1      14.416   9.942  28.087  1.00  0.00    -0.452 OA
ENDROOT
BRANCH   1  12
ATOM     12  C   UNL     1      16.805  10.173  27.875  1.00  0.00     0.025 A 
ATOM     13  C   UNL     1      16.955  10.932  29.045  1.00  0.00     0.016 A 
ATOM     14  C   UNL     1      18.217  11.106  29.620  1.00  0.00     0.051 A 
ATOM     15  C   UNL     1      19.349  10.535  29.025  1.00  0.00     0.157 A 
ATOM     16  C   UNL     1      17.947   9.619  27.268  1.00  0.00     0.062 A 
ATOM     17  C   UNL     1      19.213   9.792  27.840  1.00  0.00     0.158 A 
BRANCH  15  18
ATOM     18  O   UNL     1      20.607  10.708  29.602  1.00  0.00    -0.504 OA
ATOM     19  H   UNL     1      21.401  10.144  29.321  1.00  0.00     0.293 HD
ENDBRANCH  15  18
BRANCH  17  20
ATOM     20  O   UNL     1      20.321   9.223  27.215  1.00  0.00    -0.504 OA
ATOM     21  H   UNL     1      20.842   9.711  26.496  1.00  0.00     0.293 HD
ENDBRANCH  17  20
ENDBRANCH   1  12
BRANCH   2  22
ATOM     22  O   UNL     1      16.365  10.001  25.016  1.00  0.00    -0.502 OA
ATOM     23  H   UNL     1      17.275  10.336  25.308  1.00  0.00     0.293 HD
ENDBRANCH   2  22
BRANCH   6  24
ATOM     24  O   UNL     1      11.101   9.324  24.560  1.00  0.00    -0.507 OA
ATOM     25  H   UNL     1      10.215   8.930  24.285  1.00  0.00     0.293 HD
ENDBRANCH   6  24
BRANCH   8  26
ATOM     26  O   UNL     1       9.805   9.627  29.172  1.00  0.00    -0.508 OA
ATOM     27  H   UNL     1       8.826   9.688  28.915  1.00  0.00     0.293 HD
ENDBRANCH   8  26
TORSDOF 6
ENDMDL
MODEL 5
REMARK VINA RESULT:    -5.564      3.692      6.781
REMARK INTER + INTRA:          -6.891
REMARK INTER:                  -6.686
REMARK INTRA:                  -0.205
REMARK UNBOUND:                -0.188
REMARK SMILES O=c1c(O)c(-c2ccc(O)c(O)c2)oc2cc(O)cc(O)c12
REMARK SMILES IDX 5 1 3 2 2 3 1 4 22 5 20 6 19 7 17 8 16 9 15 10 14 11 6 12
REMARK SMILES IDX 7 13 8 14 9 15 13 16 11 17 10 18 12 20 4 22 21 24 18 26
REMARK H PARENT 10 19 12 21 4 23 21 25 18 27
REMARK Flexibility Score: inf
ROOT
ATOM      1  C   UNL     1      13.652   8.993  29.220  1.00  0.00     0.180 A 
ATOM      2  C   UNL     1      12.482   9.261  29.950  1.00  0.00     0.208 A 
ATOM      3  C   UNL     1      12.518   9.174  31.351  1.00  0.00     0.238 A 
ATOM      4  O   UNL     1      11.487   9.489  32.002  1.00  0.00    -0.285 OA
ATOM      5  C   UNL     1      13.707   8.765  32.002  1.00  0.00     0.111 A 
ATOM      6  C   UNL     1      13.845   8.598  33.414  1.00  0.00     0.134 A 
ATOM      7  C   UNL     1      15.101   8.291  33.953  1.00  0.00     0.093 A 
ATOM      8  C   UNL     1      16.208   8.083  33.128  1.00  0.00     0.123 A 
ATOM      9  C   UNL     1      16.071   8.190  31.746  1.00  0.00     0.094 A 
ATOM     10  C   UNL     1      14.841   8.532  31.180  1.00  0.00     0.146 A 
ATOM     11  O   UNL     1      14.762   8.643  29.860  1.00  0.00    -0.452 OA
ENDROOT
BRANCH   1  12
ATOM     12  C   UNL     1      13.696   9.078  27.742  1.00  0.00     0.025 A 
ATOM     13  C   UNL     1      13.021   8.116  26.975  1.00  0.00     0.016 A 
ATOM     14  C   UNL     1      13.067   8.164  25.579  1.00  0.00     0.051 A 
ATOM     15  C   UNL     1      13.799   9.166  24.930  1.00  0.00     0.157 A 
ATOM     16  C   UNL     1      14.447  10.071  27.087  1.00  0.00     0.062 A 
ATOM     17  C   UNL     1      14.497  10.121  25.689  1.00  0.00     0.158 A 
BRANCH  15  18
ATOM     18  O   UNL     1      13.841   9.214  23.538  1.00  0.00    -0.504 OA
ATOM     19  H   UNL     1      13.437   8.478  22.969  1.00  0.00     0.293 HD
ENDBRANCH  15  18
BRANCH  17  20
ATOM     20  O   UNL     1      15.246  11.122  25.074  1.00  0.00    -0.504 OA
ATOM     21  H   UNL     1      15.419  12.016  25.521  1.00  0.00     0.293 HD
ENDBRANCH  17  20
ENDBRANCH   1  12
BRANCH   2  22
ATOM     22  O   UNL     1      11.297   9.589  29.285  1.00  0.00    -0.502 OA
ATOM     23  H   UNL     1      10.413   9.697  29.769  1.00  0.00     0.293 HD
ENDBRANCH   2  22
BRANCH   6  24
ATOM     24  O   UNL     1      12.786   8.696  34.320  1.00  0.00    -0.507 OA
ATOM     25  H   UNL     1      11.828   8.886  34.071  1.00  0.00     0.293 HD
ENDBRANCH   6  24
BRANCH   8  26
ATOM     26  O   UNL     1      17.450   7.762  33.672  1.00  0.00    -0.508 OA
ATOM     27  H   UNL     1      17.530   7.275  34.557  1.00  0.00     0.293 HD
ENDBRANCH   8  26
TORSDOF 6
ENDMDL
MODEL 6
REMARK VINA RESULT:    -5.543      2.077      7.034
REMARK INTER + INTRA:          -6.866
REMARK INTER:                  -7.039
REMARK INTRA:                   0.173
REMARK UNBOUND:                -0.188
REMARK SMILES O=c1c(O)c(-c2ccc(O)c(O)c2)oc2cc(O)cc(O)c12
REMARK SMILES IDX 5 1 3 2 2 3 1 4 22 5 20 6 19 7 17 8 16 9 15 10 14 11 6 12
REMARK SMILES IDX 7 13 8 14 9 15 13 16 11 17 10 18 12 20 4 22 21 24 18 26
REMARK H PARENT 10 19 12 21 4 23 21 25 18 27
REMARK Flexibility Score: inf
ROOT
ATOM      1  C   UNL     1      15.923   9.264  28.101  1.00  0.00     0.180 A 
ATOM      2  C   UNL     1      17.247   9.624  27.798  1.00  0.00     0.208 A 
ATOM      3  C   UNL     1      18.206   9.615  28.824  1.00  0.00     0.238 A 
ATOM      4  O   UNL     1      19.405   9.867  28.531  1.00  0.00    -0.285 OA
ATOM      5  C   UNL     1      17.819   9.302  30.149  1.00  0.00     0.111 A 
ATOM      6  C   UNL     1      18.698   9.306  31.276  1.00  0.00     0.134 A 
ATOM      7  C   UNL     1      18.225   8.875  32.521  1.00  0.00     0.093 A 
ATOM      8  C   UNL     1      16.891   8.502  32.696  1.00  0.00     0.123 A 
ATOM      9  C   UNL     1      16.013   8.546  31.616  1.00  0.00     0.094 A 
ATOM     10  C   UNL     1      16.463   8.935  30.353  1.00  0.00     0.146 A 
ATOM     11  O   UNL     1      15.596   8.942  29.347  1.00  0.00    -0.452 OA
ENDROOT
BRANCH   1  12
ATOM     12  C   UNL     1      14.859   9.235  27.071  1.00  0.00     0.025 A 
ATOM     13  C   UNL     1      13.926   8.187  27.074  1.00  0.00     0.016 A 
ATOM     14  C   UNL     1      12.926   8.126  26.099  1.00  0.00     0.051 A 
ATOM     15  C   UNL     1      12.855   9.104  25.099  1.00  0.00     0.157 A 
ATOM     16  C   UNL     1      14.797  10.203  26.052  1.00  0.00     0.062 A 
ATOM     17  C   UNL     1      13.799  10.144  25.073  1.00  0.00     0.158 A 
BRANCH  15  18
ATOM     18  O   UNL     1      11.856   9.043  24.128  1.00  0.00    -0.504 OA
ATOM     19  H   UNL     1      11.674   8.193  23.606  1.00  0.00     0.293 HD
ENDBRANCH  15  18
BRANCH  17  20
ATOM     20  O   UNL     1      13.764  11.125  24.083  1.00  0.00    -0.504 OA
ATOM     21  H   UNL     1      13.026  11.164  23.390  1.00  0.00     0.293 HD
ENDBRANCH  17  20
ENDBRANCH   1  12
BRANCH   2  22
ATOM     22  O   UNL     1      17.593  10.005  26.499  1.00  0.00    -0.502 OA
ATOM     23  H   UNL     1      16.945   9.944  25.723  1.00  0.00     0.293 HD
ENDBRANCH   2  22
BRANCH   6  24
ATOM     24  O   UNL     1      20.025   9.744  31.231  1.00  0.00    -0.507 OA
ATOM     25  H   UNL     1      20.742   9.356  30.639  1.00  0.00     0.293 HD
ENDBRANCH   6  24
BRANCH   8  26
ATOM     26  O   UNL     1      16.425   8.090  33.943  1.00  0.00    -0.508 OA
ATOM     27  H   UNL     1      15.681   7.407  34.032  1.00  0.00     0.293 HD
ENDBRANCH   8  26
TORSDOF 6
ENDMDL
MODEL 7
REMARK VINA RESULT:    -5.431      1.518      6.649
REMARK INTER + INTRA:          -6.731
REMARK INTER:                  -6.803
REMARK INTRA:                   0.072
REMARK UNBOUND:                -0.188
REMARK SMILES O=c1c(O)c(-c2ccc(O)c(O)c2)oc2cc(O)cc(O)c12
REMARK SMILES IDX 5 1 3 2 2 3 1 4 22 5 20 6 19 7 17 8 16 9 15 10 14 11 6 12
REMARK SMILES IDX 7 13 8 14 9 15 13 16 11 17 10 18 12 20 4 22 21 24 18 26
REMARK H PARENT 10 19 12 21 4 23 21 25 18 27
REMARK Flexibility Score: inf
ROOT
ATOM      1  C   UNL     1      15.898   9.226  28.352  1.00  0.00     0.180 A 
ATOM      2  C   UNL     1      15.543   8.979  29.688  1.00  0.00     0.208 A 
ATOM      3  C   UNL     1      16.533   9.057  30.682  1.00  0.00     0.238 A 
ATOM      4  O   UNL     1      16.193   8.907  31.885  1.00  0.00    -0.285 OA
ATOM      5  C   UNL     1      17.875   9.326  30.321  1.00  0.00     0.111 A 
ATOM      6  C   UNL     1      18.968   9.385  31.238  1.00  0.00     0.134 A 
ATOM      7  C   UNL     1      20.235   9.766  30.779  1.00  0.00     0.093 A 
ATOM      8  C   UNL     1      20.463  10.027  29.426  1.00  0.00     0.123 A 
ATOM      9  C   UNL     1      19.416   9.920  28.515  1.00  0.00     0.094 A 
ATOM     10  C   UNL     1      18.132   9.580  28.947  1.00  0.00     0.146 A 
ATOM     11  O   UNL     1      17.159   9.510  28.047  1.00  0.00    -0.452 OA
ENDROOT
BRANCH   1  12
ATOM     12  C   UNL     1      14.909   9.177  27.252  1.00  0.00     0.025 A 
ATOM     13  C   UNL     1      14.044   8.076  27.151  1.00  0.00     0.016 A 
ATOM     14  C   UNL     1      13.116   7.997  26.109  1.00  0.00     0.051 A 
ATOM     15  C   UNL     1      13.050   9.010  25.144  1.00  0.00     0.157 A 
ATOM     16  C   UNL     1      14.853  10.182  26.269  1.00  0.00     0.062 A 
ATOM     17  C   UNL     1      13.927  10.105  25.223  1.00  0.00     0.158 A 
BRANCH  15  18
ATOM     18  O   UNL     1      12.122   8.931  24.106  1.00  0.00    -0.504 OA
ATOM     19  H   UNL     1      11.607   9.745  23.791  1.00  0.00     0.293 HD
ENDBRANCH  15  18
BRANCH  17  20
ATOM     20  O   UNL     1      13.896  11.123  24.271  1.00  0.00    -0.504 OA
ATOM     21  H   UNL     1      14.359  12.012  24.419  1.00  0.00     0.293 HD
ENDBRANCH  17  20
ENDBRANCH   1  12
BRANCH   2  22
ATOM     22  O   UNL     1      14.228   8.638  30.016  1.00  0.00    -0.502 OA
ATOM     23  H   UNL     1      13.918   7.677  30.094  1.00  0.00     0.293 HD
ENDBRANCH   2  22
BRANCH   6  24
ATOM     24  O   UNL     1      18.870   9.058  32.594  1.00  0.00    -0.507 OA
ATOM     25  H   UNL     1      19.227   8.213  33.011  1.00  0.00     0.293 HD
ENDBRANCH   6  24
BRANCH   8  26
ATOM     26  O   UNL     1      21.731  10.389  28.975  1.00  0.00    -0.508 OA
ATOM     27  H   UNL     1      22.483   9.712  28.909  1.00  0.00     0.293 HD
ENDBRANCH   8  26
TORSDOF 6
ENDMDL
MODEL 8
REMARK VINA RESULT:    -5.241      3.332      7.101
REMARK INTER + INTRA:          -6.501
REMARK INTER:                  -6.975
REMARK INTRA:                   0.474
REMARK UNBOUND:                -0.188
REMARK SMILES O=c1c(O)c(-c2ccc(O)c(O)c2)oc2cc(O)cc(O)c12
REMARK SMILES IDX 5 1 3 2 2 3 1 4 22 5 20 6 19 7 17 8 16 9 15 10 14 11 6 12
REMARK SMILES IDX 7 13 8 14 9 15 13 16 11 17 10 18 12 20 4 22 21 24 18 26
REMARK H PARENT 10 19 12 21 4 23 21 25 18 27
REMARK Flexibility Score: inf
ROOT
ATOM      1  C   UNL     1      13.690   8.941  28.740  1.00  0.00     0.180 A 
ATOM      2  C   UNL     1      15.067   8.820  28.989  1.00  0.00     0.208 A 
ATOM      3  C   UNL     1      15.509   8.655  30.312  1.00  0.00     0.238 A 
ATOM      4  O   UNL     1      16.738   8.474  30.519  1.00  0.00    -0.285 OA
ATOM      5  C   UNL     1      14.574   8.669  31.374  1.00  0.00     0.111 A 
ATOM      6  C   UNL     1      14.913   8.555  32.757  1.00  0.00     0.134 A 
ATOM      7  C   UNL     1      13.893   8.475  33.714  1.00  0.00     0.093 A 
ATOM      8  C   UNL     1      12.549   8.568  33.344  1.00  0.00     0.123 A 
ATOM      9  C   UNL     1      12.211   8.733  32.003  1.00  0.00     0.094 A 
ATOM     10  C   UNL     1      13.203   8.779  31.022  1.00  0.00     0.146 A 
ATOM     11  O   UNL     1      12.833   8.917  29.755  1.00  0.00    -0.452 OA
ENDROOT
BRANCH   1  12
ATOM     12  C   UNL     1      13.147   9.103  27.372  1.00  0.00     0.025 A 
ATOM     13  C   UNL     1      11.759   9.202  27.188  1.00  0.00     0.016 A 
ATOM     14  C   UNL     1      11.222   9.333  25.905  1.00  0.00     0.051 A 
ATOM     15  C   UNL     1      12.064   9.352  24.786  1.00  0.00     0.157 A 
ATOM     16  C   UNL     1      13.988   9.100  26.244  1.00  0.00     0.062 A 
ATOM     17  C   UNL     1      13.453   9.229  24.957  1.00  0.00     0.158 A 
BRANCH  15  18
ATOM     18  O   UNL     1      11.526   9.485  23.506  1.00  0.00    -0.504 OA
ATOM     19  H   UNL     1      12.039   9.193  22.682  1.00  0.00     0.293 HD
ENDBRANCH  15  18
BRANCH  17  20
ATOM     20  O   UNL     1      14.317   9.230  23.863  1.00  0.00    -0.504 OA
ATOM     21  H   UNL     1      15.129   9.835  23.820  1.00  0.00     0.293 HD
ENDBRANCH  17  20
ENDBRANCH   1  12
BRANCH   2  22
ATOM     22  O   UNL     1      15.981   8.886  27.933  1.00  0.00    -0.502 OA
ATOM     23  H   UNL     1      16.764   8.248  27.851  1.00  0.00     0.293 HD
ENDBRANCH   2  22
BRANCH   6  24
ATOM     24  O   UNL     1      16.223   8.543  33.243  1.00  0.00    -0.507 OA
ATOM     25  H   UNL     1      16.567   9.121  33.994  1.00  0.00     0.293 HD
ENDBRANCH   6  24
BRANCH   8  26
ATOM     26  O   UNL     1      11.542   8.503  34.304  1.00  0.00    -0.508 OA
ATOM     27  H   UNL     1      11.211   9.334  34.782  1.00  0.00     0.293 HD
ENDBRANCH   8  26
TORSDOF 6
ENDMDL
MODEL 9
REMARK VINA RESULT:    -5.083      3.474      6.269
REMARK INTER + INTRA:          -6.312
REMARK INTER:                  -6.068
REMARK INTRA:                  -0.244
REMARK UNBOUND:                -0.188
REMARK SMILES O=c1c(O)c(-c2ccc(O)c(O)c2)oc2cc(O)cc(O)c12
REMARK SMILES IDX 5 1 3 2 2 3 1 4 22 5 20 6 19 7 17 8 16 9 15 10 14 11 6 12
REMARK SMILES IDX 7 13 8 14 9 15 13 16 11 17 10 18 12 20 4 22 21 24 18 26
REMARK H PARENT 10 19 12 21 4 23 21 25 18 27
REMARK Flexibility Score: inf
ROOT
ATOM      1  C   UNL     1      12.987   9.723  29.244  1.00  0.00     0.180 A 
ATOM      2  C   UNL     1      14.333  10.104  29.111  1.00  0.00     0.208 A 
ATOM      3  C   UNL     1      14.878  10.240  27.823  1.00  0.00     0.238 A 
ATOM      4  O   UNL     1      16.062  10.653  27.711  1.00  0.00    -0.285 OA
ATOM      5  C   UNL     1      14.088   9.939  26.688  1.00  0.00     0.111 A 
ATOM      6  C   UNL     1      14.550   9.999  25.337  1.00  0.00     0.134 A 
ATOM      7  C   UNL     1      13.647   9.782  24.289  1.00  0.00     0.093 A 
ATOM      8  C   UNL     1      12.315   9.445  24.542  1.00  0.00     0.123 A 
ATOM      9  C   UNL     1      11.869   9.331  25.857  1.00  0.00     0.094 A 
ATOM     10  C   UNL     1      12.735   9.579  26.923  1.00  0.00     0.146 A 
ATOM     11  O   UNL     1      12.261   9.479  28.160  1.00  0.00    -0.452 OA
ENDROOT
BRANCH   1  12
ATOM     12  C   UNL     1      12.338   9.573  30.567  1.00  0.00     0.025 A 
ATOM     13  C   UNL     1      11.446  10.560  31.012  1.00  0.00     0.016 A 
ATOM     14  C   UNL     1      10.837  10.452  32.266  1.00  0.00     0.051 A 
ATOM     15  C   UNL     1      11.124   9.362  33.098  1.00  0.00     0.157 A 
ATOM     16  C   UNL     1      12.639   8.491  31.414  1.00  0.00     0.062 A 
ATOM     17  C   UNL     1      12.033   8.380  32.671  1.00  0.00     0.158 A 
BRANCH  15  18
ATOM     18  O   UNL     1      10.514   9.254  34.347  1.00  0.00    -0.504 OA
ATOM     19  H   UNL     1       9.786   9.897  34.639  1.00  0.00     0.293 HD
ENDBRANCH  15  18
BRANCH  17  20
ATOM     20  O   UNL     1      12.351   7.290  33.480  1.00  0.00    -0.504 OA
ATOM     21  H   UNL     1      11.741   6.485  33.561  1.00  0.00     0.293 HD
ENDBRANCH  17  20
ENDBRANCH   1  12
BRANCH   2  22
ATOM     22  O   UNL     1      15.118  10.322  30.246  1.00  0.00    -0.502 OA
ATOM     23  H   UNL     1      15.910   9.735  30.480  1.00  0.00     0.293 HD
ENDBRANCH   2  22
BRANCH   6  24
ATOM     24  O   UNL     1      15.878  10.239  24.975  1.00  0.00    -0.507 OA
ATOM     25  H   UNL     1      16.367   9.771  24.228  1.00  0.00     0.293 HD
ENDBRANCH   6  24
BRANCH   8  26
ATOM     26  O   UNL     1      11.428   9.215  23.493  1.00  0.00    -0.508 OA
ATOM     27  H   UNL     1      10.587   8.664  23.622  1.00  0.00     0.293 HD
ENDBRANCH   8  26
TORSDOF 6
ENDMDL
