MODEL 1
REMARK VINA RESULT:    -3.371      0.000      0.000
REMARK INTER + INTRA:         -10.744
REMARK INTER:                  -8.888
REMARK INTRA:                  -1.856
REMARK UNBOUND:                -1.856
REMARK SMILES CCCCCCCCCCCCCCCCCCCCCCCCCCCCCC(=O)[O-]
REMARK SMILES IDX 16 1 17 2 18 3 19 4 20 5 21 6 22 7 23 8 24 9 25 10 26 11
REMARK SMILES IDX 27 12 28 13 29 14 30 15 31 16 32 17 15 18 14 19 13 20 12 21
REMARK SMILES IDX 11 22 10 23 9 24 8 25 7 26 6 27 5 28 4 29 3 30 2 31 1 32
REMARK H PARENT
REMARK Flexibility Score: inf
ROOT
ATOM      1  C   UNL     1       5.113  25.584  23.384  1.00  0.00     0.000 C 
ENDROOT
BRANCH   1   2
ATOM      2  C   UNL     1       4.112  25.225  24.493  1.00  0.00     0.000 C 
BRANCH   2   3
ATOM      3  C   UNL     1       3.921  26.356  25.517  1.00  0.00     0.000 C 
BRANCH   3   4
ATOM      4  C   UNL     1       4.521  26.048  26.905  1.00  0.00     0.000 C 
BRANCH   4   5
ATOM      5  C   UNL     1       5.901  26.699  27.105  1.00  0.00     0.000 C 
BRANCH   5   6
ATOM      6  C   UNL     1       7.042  25.667  27.111  1.00  0.00     0.000 C 
BRANCH   6   7
ATOM      7  C   UNL     1       8.371  26.263  27.601  1.00  0.00     0.000 C 
BRANCH   7   8
ATOM      8  C   UNL     1       8.417  26.318  29.136  1.00  0.00     0.000 C 
BRANCH   8   9
ATOM      9  C   UNL     1       8.151  24.949  29.785  1.00  0.00     0.000 C 
BRANCH   9  10
ATOM     10  C   UNL     1       7.810  25.056  31.282  1.00  0.00     0.000 C 
BRANCH  10  11
ATOM     11  C   UNL     1       7.173  23.772  31.836  1.00  0.00     0.000 C 
BRANCH  11  12
ATOM     12  C   UNL     1       6.621  23.952  33.259  1.00  0.00     0.000 C 
BRANCH  12  13
ATOM     13  C   UNL     1       5.417  23.032  33.501  1.00  0.00     0.006 C 
BRANCH  13  14
ATOM     14  C   UNL     1       4.146  23.613  32.873  1.00  0.00     0.053 C 
BRANCH  14  15
ATOM     15  C   UNL     1       3.055  22.591  32.856  1.00  0.00     0.041 C 
ATOM     16  O   UNL     1       1.952  22.850  32.305  1.00  0.00    -0.550 OA
ATOM     17  O   UNL     1       3.272  21.334  33.405  1.00  0.00    -0.550 OA
ENDBRANCH  14  15
ENDBRANCH  13  14
ENDBRANCH  12  13
ENDBRANCH  11  12
ENDBRANCH  10  11
ENDBRANCH   9  10
ENDBRANCH   8   9
ENDBRANCH   7   8
ENDBRANCH   6   7
ENDBRANCH   5   6
ENDBRANCH   4   5
ENDBRANCH   3   4
ENDBRANCH   2   3
ENDBRANCH   1   2
BRANCH   1  18
ATOM     18  C   UNL     1       6.240  24.548  23.250  1.00  0.00     0.000 C 
BRANCH  18  19
ATOM     19  C   UNL     1       7.411  24.823  24.205  1.00  0.00     0.000 C 
BRANCH  19  20
ATOM     20  C   UNL     1       8.748  24.787  23.451  1.00  0.00     0.000 C 
BRANCH  20  21
ATOM     21  C   UNL     1       8.985  26.047  22.596  1.00  0.00     0.000 C 
BRANCH  21  22
ATOM     22  C   UNL     1       9.125  25.790  21.084  1.00  0.00     0.000 C 
BRANCH  22  23
ATOM     23  C   UNL     1       8.231  26.659  20.175  1.00  0.00     0.000 C 
BRANCH  23  24
ATOM     24  C   UNL     1       9.005  27.472  19.116  1.00  0.00    -0.000 C 
BRANCH  24  25
ATOM     25  C   UNL     1       8.508  27.199  17.688  1.00  0.00    -0.000 C 
BRANCH  25  26
ATOM     26  C   UNL     1       9.080  28.209  16.684  1.00  0.00    -0.000 C 
BRANCH  26  27
ATOM     27  C   UNL     1       8.637  29.657  16.962  1.00  0.00    -0.000 C 
BRANCH  27  28
ATOM     28  C   UNL     1       7.202  29.995  16.498  1.00  0.00    -0.000 C 
BRANCH  28  29
ATOM     29  C   UNL     1       6.319  28.790  16.101  1.00  0.00    -0.000 C 
BRANCH  29  30
ATOM     30  C   UNL     1       4.868  28.812  16.627  1.00  0.00    -0.000 C 
BRANCH  30  31
ATOM     31  C   UNL     1       4.603  27.893  17.832  1.00  0.00    -0.003 C 
ATOM     32  C   UNL     1       4.529  28.656  19.153  1.00  0.00     0.004 C 
ENDBRANCH  30  31
ENDBRANCH  29  30
ENDBRANCH  28  29
ENDBRANCH  27  28
ENDBRANCH  26  27
ENDBRANCH  25  26
ENDBRANCH  24  25
ENDBRANCH  23  24
ENDBRANCH  22  23
ENDBRANCH  21  22
ENDBRANCH  20  21
ENDBRANCH  19  20
ENDBRANCH  18  19
ENDBRANCH   1  18
TORSDOF 28
ENDMDL
MODEL 2
REMARK VINA RESULT:    -3.265      1.598      2.648
REMARK INTER + INTRA:         -10.465
REMARK INTER:                  -8.518
REMARK INTRA:                  -1.948
REMARK UNBOUND:                -1.856
REMARK SMILES CCCCCCCCCCCCCCCCCCCCCCCCCCCCCC(=O)[O-]
REMARK SMILES IDX 16 1 17 2 18 3 19 4 20 5 21 6 22 7 23 8 24 9 25 10 26 11
REMARK SMILES IDX 27 12 28 13 29 14 30 15 31 16 32 17 15 18 14 19 13 20 12 21
REMARK SMILES IDX 11 22 10 23 9 24 8 25 7 26 6 27 5 28 4 29 3 30 2 31 1 32
REMARK H PARENT
REMARK Flexibility Score: inf
ROOT
ATOM      1  C   UNL     1       7.654  24.928  24.381  1.00  0.00     0.000 C 
ENDROOT
BRANCH   1   2
ATOM      2  C   UNL     1       7.417  25.826  25.605  1.00  0.00     0.000 C 
BRANCH   2   3
ATOM      3  C   UNL     1       8.720  26.405  26.184  1.00  0.00     0.000 C 
BRANCH   3   4
ATOM      4  C   UNL     1       9.117  25.800  27.547  1.00  0.00     0.000 C 
BRANCH   4   5
ATOM      5  C   UNL     1       8.542  24.388  27.752  1.00  0.00     0.000 C 
BRANCH   5   6
ATOM      6  C   UNL     1       9.029  23.739  29.059  1.00  0.00     0.000 C 
BRANCH   6   7
ATOM      7  C   UNL     1       8.788  24.634  30.285  1.00  0.00     0.000 C 
BRANCH   7   8
ATOM      8  C   UNL     1       8.139  23.840  31.429  1.00  0.00     0.000 C 
BRANCH   8   9
ATOM      9  C   UNL     1       8.437  24.444  32.812  1.00  0.00     0.000 C 
BRANCH   9  10
ATOM     10  C   UNL     1       7.654  23.755  33.944  1.00  0.00     0.000 C 
BRANCH  10  11
ATOM     11  C   UNL     1       6.229  24.311  34.099  1.00  0.00     0.000 C 
BRANCH  11  12
ATOM     12  C   UNL     1       5.199  23.538  33.261  1.00  0.00     0.000 C 
BRANCH  12  13
ATOM     13  C   UNL     1       3.972  23.168  34.103  1.00  0.00     0.006 C 
BRANCH  13  14
ATOM     14  C   UNL     1       2.676  23.418  33.325  1.00  0.00     0.053 C 
BRANCH  14  15
ATOM     15  C   UNL     1       2.527  22.422  32.219  1.00  0.00     0.041 C 
ATOM     16  O   UNL     1       2.380  21.199  32.483  1.00  0.00    -0.550 OA
ATOM     17  O   UNL     1       2.500  22.849  30.898  1.00  0.00    -0.550 OA
ENDBRANCH  14  15
ENDBRANCH  13  14
ENDBRANCH  12  13
ENDBRANCH  11  12
ENDBRANCH  10  11
ENDBRANCH   9  10
ENDBRANCH   8   9
ENDBRANCH   7   8
ENDBRANCH   6   7
ENDBRANCH   5   6
ENDBRANCH   4   5
ENDBRANCH   3   4
ENDBRANCH   2   3
ENDBRANCH   1   2
BRANCH   1  18
ATOM     18  C   UNL     1       9.086  25.039  23.837  1.00  0.00     0.000 C 
BRANCH  18  19
ATOM     19  C   UNL     1       9.125  25.373  22.339  1.00  0.00     0.000 C 
BRANCH  19  20
ATOM     20  C   UNL     1       9.122  26.892  22.120  1.00  0.00     0.000 C 
BRANCH  20  21
ATOM     21  C   UNL     1       9.125  27.281  20.629  1.00  0.00     0.000 C 
BRANCH  21  22
ATOM     22  C   UNL     1       8.981  26.101  19.649  1.00  0.00     0.000 C 
BRANCH  22  23
ATOM     23  C   UNL     1       8.763  26.485  18.171  1.00  0.00     0.000 C 
BRANCH  23  24
ATOM     24  C   UNL     1       8.423  27.974  17.948  1.00  0.00    -0.000 C 
BRANCH  24  25
ATOM     25  C   UNL     1       8.793  28.456  16.537  1.00  0.00    -0.000 C 
BRANCH  25  26
ATOM     26  C   UNL     1       7.610  29.141  15.841  1.00  0.00    -0.000 C 
BRANCH  26  27
ATOM     27  C   UNL     1       6.478  28.165  15.468  1.00  0.00    -0.000 C 
BRANCH  27  28
ATOM     28  C   UNL     1       5.102  28.507  16.081  1.00  0.00    -0.000 C 
BRANCH  28  29
ATOM     29  C   UNL     1       5.051  29.773  16.966  1.00  0.00    -0.000 C 
BRANCH  29  30
ATOM     30  C   UNL     1       4.346  29.618  18.330  1.00  0.00    -0.000 C 
BRANCH  30  31
ATOM     31  C   UNL     1       4.053  28.166  18.745  1.00  0.00    -0.003 C 
ATOM     32  C   UNL     1       3.926  27.998  20.258  1.00  0.00     0.004 C 
ENDBRANCH  30  31
ENDBRANCH  29  30
ENDBRANCH  28  29
ENDBRANCH  27  28
ENDBRANCH  26  27
ENDBRANCH  25  26
ENDBRANCH  24  25
ENDBRANCH  23  24
ENDBRANCH  22  23
ENDBRANCH  21  22
ENDBRANCH  20  21
ENDBRANCH  19  20
ENDBRANCH  18  19
ENDBRANCH   1  18
TORSDOF 28
ENDMDL
MODEL 3
REMARK VINA RESULT:    -3.066      3.794     12.527
REMARK INTER + INTRA:          -9.940
REMARK INTER:                  -7.829
REMARK INTRA:                  -2.111
REMARK UNBOUND:                -1.856
REMARK SMILES CCCCCCCCCCCCCCCCCCCCCCCCCCCCCC(=O)[O-]
REMARK SMILES IDX 16 1 17 2 18 3 19 4 20 5 21 6 22 7 23 8 24 9 25 10 26 11
REMARK SMILES IDX 27 12 28 13 29 14 30 15 31 16 32 17 15 18 14 19 13 20 12 21
REMARK SMILES IDX 11 22 10 23 9 24 8 25 7 26 6 27 5 28 4 29 3 30 2 31 1 32
REMARK H PARENT
REMARK Flexibility Score: inf
ROOT
ATOM      1  C   UNL     1       3.869  25.531  24.415  1.00  0.00     0.000 C 
ENDROOT
BRANCH   1   2
ATOM      2  C   UNL     1       4.978  25.763  23.377  1.00  0.00     0.000 C 
BRANCH   2   3
ATOM      3  C   UNL     1       5.786  24.491  23.069  1.00  0.00     0.000 C 
BRANCH   3   4
ATOM      4  C   UNL     1       7.256  24.559  23.534  1.00  0.00     0.000 C 
BRANCH   4   5
ATOM      5  C   UNL     1       7.988  25.796  22.985  1.00  0.00     0.000 C 
BRANCH   5   6
ATOM      6  C   UNL     1       8.711  25.509  21.658  1.00  0.00     0.000 C 
BRANCH   6   7
ATOM      7  C   UNL     1       9.124  26.795  20.924  1.00  0.00     0.000 C 
BRANCH   7   8
ATOM      8  C   UNL     1       9.023  26.617  19.401  1.00  0.00     0.000 C 
BRANCH   8   9
ATOM      9  C   UNL     1       8.203  27.731  18.729  1.00  0.00     0.000 C 
BRANCH   9  10
ATOM     10  C   UNL     1       8.964  28.423  17.584  1.00  0.00     0.000 C 
BRANCH  10  11
ATOM     11  C   UNL     1       8.070  28.706  16.366  1.00  0.00     0.000 C 
BRANCH  11  12
ATOM     12  C   UNL     1       6.775  27.878  16.379  1.00  0.00     0.000 C 
BRANCH  12  13
ATOM     13  C   UNL     1       5.549  28.778  16.574  1.00  0.00     0.006 C 
BRANCH  13  14
ATOM     14  C   UNL     1       4.405  28.012  17.246  1.00  0.00     0.053 C 
BRANCH  14  15
ATOM     15  C   UNL     1       4.010  28.674  18.527  1.00  0.00     0.041 C 
ATOM     16  O   UNL     1       3.495  27.999  19.457  1.00  0.00    -0.550 OA
ATOM     17  O   UNL     1       4.258  30.028  18.714  1.00  0.00    -0.550 OA
ENDBRANCH  14  15
ENDBRANCH  13  14
ENDBRANCH  12  13
ENDBRANCH  11  12
ENDBRANCH  10  11
ENDBRANCH   9  10
ENDBRANCH   8   9
ENDBRANCH   7   8
ENDBRANCH   6   7
ENDBRANCH   5   6
ENDBRANCH   4   5
ENDBRANCH   3   4
ENDBRANCH   2   3
ENDBRANCH   1   2
BRANCH   1  18
ATOM     18  C   UNL     1       4.427  25.258  25.821  1.00  0.00     0.000 C 
BRANCH  18  19
ATOM     19  C   UNL     1       4.611  26.542  26.643  1.00  0.00     0.000 C 
BRANCH  19  20
ATOM     20  C   UNL     1       5.880  26.461  27.502  1.00  0.00     0.000 C 
BRANCH  20  21
ATOM     21  C   UNL     1       7.058  25.796  26.765  1.00  0.00     0.000 C 
BRANCH  21  22
ATOM     22  C   UNL     1       8.119  25.154  27.680  1.00  0.00     0.000 C 
BRANCH  22  23
ATOM     23  C   UNL     1       8.549  26.000  28.896  1.00  0.00     0.000 C 
BRANCH  23  24
ATOM     24  C   UNL     1       7.839  25.621  30.213  1.00  0.00    -0.000 C 
BRANCH  24  25
ATOM     25  C   UNL     1       8.223  24.217  30.705  1.00  0.00    -0.000 C 
BRANCH  25  26
ATOM     26  C   UNL     1       8.142  24.107  32.233  1.00  0.00    -0.000 C 
BRANCH  26  27
ATOM     27  C   UNL     1       7.799  22.688  32.722  1.00  0.00    -0.000 C 
BRANCH  27  28
ATOM     28  C   UNL     1       6.645  22.619  33.747  1.00  0.00    -0.000 C 
BRANCH  28  29
ATOM     29  C   UNL     1       5.710  23.849  33.797  1.00  0.00    -0.000 C 
BRANCH  29  30
ATOM     30  C   UNL     1       4.216  23.554  34.046  1.00  0.00    -0.000 C 
BRANCH  30  31
ATOM     31  C   UNL     1       3.729  22.192  33.522  1.00  0.00    -0.003 C 
ATOM     32  C   UNL     1       2.742  22.322  32.364  1.00  0.00     0.004 C 
ENDBRANCH  30  31
ENDBRANCH  29  30
ENDBRANCH  28  29
ENDBRANCH  27  28
ENDBRANCH  26  27
ENDBRANCH  25  26
ENDBRANCH  24  25
ENDBRANCH  23  24
ENDBRANCH  22  23
ENDBRANCH  21  22
ENDBRANCH  20  21
ENDBRANCH  19  20
ENDBRANCH  18  19
ENDBRANCH   1  18
TORSDOF 28
ENDMDL
MODEL 4
REMARK VINA RESULT:    -2.989      3.940     12.990
REMARK INTER + INTRA:          -9.739
REMARK INTER:                  -7.655
REMARK INTRA:                  -2.084
REMARK UNBOUND:                -1.856
REMARK SMILES CCCCCCCCCCCCCCCCCCCCCCCCCCCCCC(=O)[O-]
REMARK SMILES IDX 16 1 17 2 18 3 19 4 20 5 21 6 22 7 23 8 24 9 25 10 26 11
REMARK SMILES IDX 27 12 28 13 29 14 30 15 31 16 32 17 15 18 14 19 13 20 12 21
REMARK SMILES IDX 11 22 10 23 9 24 8 25 7 26 6 27 5 28 4 29 3 30 2 31 1 32
REMARK H PARENT
REMARK Flexibility Score: inf
ROOT
ATOM      1  C   UNL     1       7.214  25.529  25.696  1.00  0.00     0.000 C 
ENDROOT
BRANCH   1   2
ATOM      2  C   UNL     1       8.501  24.727  25.447  1.00  0.00     0.000 C 
BRANCH   2   3
ATOM      3  C   UNL     1       8.675  24.315  23.975  1.00  0.00     0.000 C 
BRANCH   3   4
ATOM      4  C   UNL     1       8.974  25.497  23.030  1.00  0.00     0.000 C 
BRANCH   4   5
ATOM      5  C   UNL     1       8.584  25.195  21.572  1.00  0.00     0.000 C 
BRANCH   5   6
ATOM      6  C   UNL     1       9.104  26.261  20.592  1.00  0.00     0.000 C 
BRANCH   6   7
ATOM      7  C   UNL     1       9.124  25.763  19.138  1.00  0.00     0.000 C 
BRANCH   7   8
ATOM      8  C   UNL     1       9.107  26.941  18.151  1.00  0.00     0.000 C 
BRANCH   8   9
ATOM      9  C   UNL     1       8.107  28.037  18.556  1.00  0.00     0.000 C 
BRANCH   9  10
ATOM     10  C   UNL     1       7.732  28.962  17.384  1.00  0.00     0.000 C 
BRANCH  10  11
ATOM     11  C   UNL     1       6.805  28.279  16.366  1.00  0.00     0.000 C 
BRANCH  11  12
ATOM     12  C   UNL     1       5.442  28.978  16.247  1.00  0.00     0.000 C 
BRANCH  12  13
ATOM     13  C   UNL     1       4.300  28.018  16.603  1.00  0.00     0.006 C 
BRANCH  13  14
ATOM     14  C   UNL     1       3.349  28.649  17.624  1.00  0.00     0.053 C 
BRANCH  14  15
ATOM     15  C   UNL     1       4.029  28.813  18.946  1.00  0.00     0.041 C 
ATOM     16  O   UNL     1       4.106  29.949  19.483  1.00  0.00    -0.550 OA
ATOM     17  O   UNL     1       4.535  27.702  19.609  1.00  0.00    -0.550 OA
ENDBRANCH  14  15
ENDBRANCH  13  14
ENDBRANCH  12  13
ENDBRANCH  11  12
ENDBRANCH  10  11
ENDBRANCH   9  10
ENDBRANCH   8   9
ENDBRANCH   7   8
ENDBRANCH   6   7
ENDBRANCH   5   6
ENDBRANCH   4   5
ENDBRANCH   3   4
ENDBRANCH   2   3
ENDBRANCH   1   2
BRANCH   1  18
ATOM     18  C   UNL     1       7.370  26.554  26.831  1.00  0.00     0.000 C 
BRANCH  18  19
ATOM     19  C   UNL     1       8.759  26.504  27.485  1.00  0.00     0.000 C 
BRANCH  19  20
ATOM     20  C   UNL     1       8.639  26.313  29.003  1.00  0.00     0.000 C 
BRANCH  20  21
ATOM     21  C   UNL     1       8.446  24.838  29.405  1.00  0.00     0.000 C 
BRANCH  21  22
ATOM     22  C   UNL     1       8.648  24.541  30.903  1.00  0.00     0.000 C 
BRANCH  22  23
ATOM     23  C   UNL     1       7.613  25.176  31.854  1.00  0.00     0.000 C 
BRANCH  23  24
ATOM     24  C   UNL     1       6.575  24.181  32.415  1.00  0.00    -0.000 C 
BRANCH  24  25
ATOM     25  C   UNL     1       7.220  22.879  32.915  1.00  0.00    -0.000 C 
BRANCH  25  26
ATOM     26  C   UNL     1       6.362  22.193  33.985  1.00  0.00    -0.000 C 
BRANCH  26  27
ATOM     27  C   UNL     1       4.902  22.682  33.997  1.00  0.00    -0.000 C 
BRANCH  27  28
ATOM     28  C   UNL     1       3.847  21.572  33.788  1.00  0.00    -0.000 C 
BRANCH  28  29
ATOM     29  C   UNL     1       2.580  21.983  33.003  1.00  0.00    -0.000 C 
BRANCH  29  30
ATOM     30  C   UNL     1       2.617  23.376  32.340  1.00  0.00    -0.000 C 
BRANCH  30  31
ATOM     31  C   UNL     1       2.867  23.364  30.822  1.00  0.00    -0.003 C 
ATOM     32  C   UNL     1       1.574  23.405  30.009  1.00  0.00     0.004 C 
ENDBRANCH  30  31
ENDBRANCH  29  30
ENDBRANCH  28  29
ENDBRANCH  27  28
ENDBRANCH  26  27
ENDBRANCH  25  26
ENDBRANCH  24  25
ENDBRANCH  23  24
ENDBRANCH  22  23
ENDBRANCH  21  22
ENDBRANCH  20  21
ENDBRANCH  19  20
ENDBRANCH  18  19
ENDBRANCH   1  18
TORSDOF 28
ENDMDL
MODEL 5
REMARK VINA RESULT:    -2.085      3.578     12.365
REMARK INTER + INTRA:          -7.354
REMARK INTER:                  -6.025
REMARK INTRA:                  -1.329
REMARK UNBOUND:                -1.856
REMARK SMILES CCCCCCCCCCCCCCCCCCCCCCCCCCCCCC(=O)[O-]
REMARK SMILES IDX 16 1 17 2 18 3 19 4 20 5 21 6 22 7 23 8 24 9 25 10 26 11
REMARK SMILES IDX 27 12 28 13 29 14 30 15 31 16 32 17 15 18 14 19 13 20 12 21
REMARK SMILES IDX 11 22 10 23 9 24 8 25 7 26 6 27 5 28 4 29 3 30 2 31 1 32
REMARK H PARENT
REMARK Flexibility Score: inf
ROOT
ATOM      1  C   UNL     1       4.574  24.367  23.955  1.00  0.00     0.000 C 
ENDROOT
BRANCH   1   2
ATOM      2  C   UNL     1       5.897  24.458  23.178  1.00  0.00     0.000 C 
BRANCH   2   3
ATOM      3  C   UNL     1       7.085  24.871  24.063  1.00  0.00     0.000 C 
BRANCH   3   4
ATOM      4  C   UNL     1       8.432  24.924  23.312  1.00  0.00     0.000 C 
BRANCH   4   5
ATOM      5  C   UNL     1       8.542  26.153  22.393  1.00  0.00     0.000 C 
BRANCH   5   6
ATOM      6  C   UNL     1       9.125  25.805  21.013  1.00  0.00     0.000 C 
BRANCH   6   7
ATOM      7  C   UNL     1       8.975  26.955  20.004  1.00  0.00     0.000 C 
BRANCH   7   8
ATOM      8  C   UNL     1       9.099  26.442  18.561  1.00  0.00     0.000 C 
BRANCH   8   9
ATOM      9  C   UNL     1       9.077  27.579  17.526  1.00  0.00     0.000 C 
BRANCH   9  10
ATOM     10  C   UNL     1       7.857  27.508  16.589  1.00  0.00     0.000 C 
BRANCH  10  11
ATOM     11  C   UNL     1       6.845  28.634  16.851  1.00  0.00     0.000 C 
BRANCH  11  12
ATOM     12  C   UNL     1       5.506  28.404  16.133  1.00  0.00     0.000 C 
BRANCH  12  13
ATOM     13  C   UNL     1       4.346  28.356  17.136  1.00  0.00     0.006 C 
BRANCH  13  14
ATOM     14  C   UNL     1       4.861  28.436  18.576  1.00  0.00     0.053 C 
BRANCH  14  15
ATOM     15  C   UNL     1       3.744  28.217  19.546  1.00  0.00     0.041 C 
ATOM     16  O   UNL     1       2.601  28.692  19.314  1.00  0.00    -0.550 OA
ATOM     17  O   UNL     1       3.951  27.445  20.682  1.00  0.00    -0.550 OA
ENDBRANCH  14  15
ENDBRANCH  13  14
ENDBRANCH  12  13
ENDBRANCH  11  12
ENDBRANCH  10  11
ENDBRANCH   9  10
ENDBRANCH   8   9
ENDBRANCH   7   8
ENDBRANCH   6   7
ENDBRANCH   5   6
ENDBRANCH   4   5
ENDBRANCH   3   4
ENDBRANCH   2   3
ENDBRANCH   1   2
BRANCH   1  18
ATOM     18  C   UNL     1       4.169  25.709  24.585  1.00  0.00     0.000 C 
BRANCH  18  19
ATOM     19  C   UNL     1       5.343  26.415  25.278  1.00  0.00     0.000 C 
BRANCH  19  20
ATOM     20  C   UNL     1       5.153  26.420  26.801  1.00  0.00     0.000 C 
BRANCH  20  21
ATOM     21  C   UNL     1       6.482  26.559  27.568  1.00  0.00     0.000 C 
BRANCH  21  22
ATOM     22  C   UNL     1       7.269  25.247  27.748  1.00  0.00     0.000 C 
BRANCH  22  23
ATOM     23  C   UNL     1       8.615  25.374  28.490  1.00  0.00     0.000 C 
BRANCH  23  24
ATOM     24  C   UNL     1       9.124  24.054  29.108  1.00  0.00    -0.000 C 
BRANCH  24  25
ATOM     25  C   UNL     1       8.883  23.984  30.624  1.00  0.00    -0.000 C 
BRANCH  25  26
ATOM     26  C   UNL     1       8.159  25.232  31.143  1.00  0.00    -0.000 C 
BRANCH  26  27
ATOM     27  C   UNL     1       6.819  24.914  31.831  1.00  0.00    -0.000 C 
BRANCH  27  28
ATOM     28  C   UNL     1       6.844  25.014  33.373  1.00  0.00    -0.000 C 
BRANCH  28  29
ATOM     29  C   UNL     1       7.326  23.752  34.124  1.00  0.00    -0.000 C 
BRANCH  29  30
ATOM     30  C   UNL     1       6.609  22.434  33.764  1.00  0.00    -0.000 C 
BRANCH  30  31
ATOM     31  C   UNL     1       7.534  21.214  33.611  1.00  0.00    -0.003 C 
ATOM     32  C   UNL     1       8.989  21.604  33.351  1.00  0.00     0.004 C 
ENDBRANCH  30  31
ENDBRANCH  29  30
ENDBRANCH  28  29
ENDBRANCH  27  28
ENDBRANCH  26  27
ENDBRANCH  25  26
ENDBRANCH  24  25
ENDBRANCH  23  24
ENDBRANCH  22  23
ENDBRANCH  21  22
ENDBRANCH  20  21
ENDBRANCH  19  20
ENDBRANCH  18  19
ENDBRANCH   1  18
TORSDOF 28
ENDMDL
MODEL 6
REMARK VINA RESULT:    -1.955      4.063     13.277
REMARK INTER + INTRA:          -7.011
REMARK INTER:                  -6.640
REMARK INTRA:                  -0.372
REMARK UNBOUND:                -1.856
REMARK SMILES CCCCCCCCCCCCCCCCCCCCCCCCCCCCCC(=O)[O-]
REMARK SMILES IDX 16 1 17 2 18 3 19 4 20 5 21 6 22 7 23 8 24 9 25 10 26 11
REMARK SMILES IDX 27 12 28 13 29 14 30 15 31 16 32 17 15 18 14 19 13 20 12 21
REMARK SMILES IDX 11 22 10 23 9 24 8 25 7 26 6 27 5 28 4 29 3 30 2 31 1 32
REMARK H PARENT
REMARK Flexibility Score: inf
ROOT
ATOM      1  C   UNL     1       6.415  24.874  24.460  1.00  0.00     0.000 C 
ENDROOT
BRANCH   1   2
ATOM      2  C   UNL     1       7.616  23.999  24.065  1.00  0.00     0.000 C 
BRANCH   2   3
ATOM      3  C   UNL     1       8.872  24.821  23.730  1.00  0.00     0.000 C 
BRANCH   3   4
ATOM      4  C   UNL     1       9.125  24.983  22.216  1.00  0.00     0.000 C 
BRANCH   4   5
ATOM      5  C   UNL     1       8.541  26.294  21.662  1.00  0.00     0.000 C 
BRANCH   5   6
ATOM      6  C   UNL     1       8.994  26.575  20.218  1.00  0.00     0.000 C 
BRANCH   6   7
ATOM      7  C   UNL     1       8.144  27.657  19.535  1.00  0.00     0.000 C 
BRANCH   7   8
ATOM      8  C   UNL     1       8.867  28.234  18.308  1.00  0.00     0.000 C 
BRANCH   8   9
ATOM      9  C   UNL     1       8.963  27.225  17.151  1.00  0.00     0.000 C 
BRANCH   9  10
ATOM     10  C   UNL     1       9.057  27.906  15.774  1.00  0.00     0.000 C 
BRANCH  10  11
ATOM     11  C   UNL     1       7.823  27.638  14.897  1.00  0.00     0.000 C 
BRANCH  11  12
ATOM     12  C   UNL     1       6.630  28.532  15.266  1.00  0.00     0.000 C 
BRANCH  12  13
ATOM     13  C   UNL     1       5.860  27.956  16.460  1.00  0.00     0.006 C 
BRANCH  13  14
ATOM     14  C   UNL     1       4.528  28.686  16.660  1.00  0.00     0.053 C 
BRANCH  14  15
ATOM     15  C   UNL     1       4.376  29.124  18.081  1.00  0.00     0.041 C 
ATOM     16  O   UNL     1       4.159  28.275  18.986  1.00  0.00    -0.550 OA
ATOM     17  O   UNL     1       4.525  30.464  18.415  1.00  0.00    -0.550 OA
ENDBRANCH  14  15
ENDBRANCH  13  14
ENDBRANCH  12  13
ENDBRANCH  11  12
ENDBRANCH  10  11
ENDBRANCH   9  10
ENDBRANCH   8   9
ENDBRANCH   7   8
ENDBRANCH   6   7
ENDBRANCH   5   6
ENDBRANCH   4   5
ENDBRANCH   3   4
ENDBRANCH   2   3
ENDBRANCH   1   2
BRANCH   1  18
ATOM     18  C   UNL     1       6.756  25.870  25.579  1.00  0.00     0.000 C 
BRANCH  18  19
ATOM     19  C   UNL     1       8.214  25.756  26.047  1.00  0.00     0.000 C 
BRANCH  19  20
ATOM     20  C   UNL     1       8.311  24.921  27.331  1.00  0.00     0.000 C 
BRANCH  20  21
ATOM     21  C   UNL     1       9.012  25.671  28.480  1.00  0.00     0.000 C 
BRANCH  21  22
ATOM     22  C   UNL     1       8.291  25.599  29.839  1.00  0.00     0.000 C 
BRANCH  22  23
ATOM     23  C   UNL     1       9.125  25.033  31.007  1.00  0.00     0.000 C 
BRANCH  23  24
ATOM     24  C   UNL     1       8.915  25.768  32.348  1.00  0.00    -0.000 C 
BRANCH  24  25
ATOM     25  C   UNL     1       8.620  24.802  33.507  1.00  0.00    -0.000 C 
BRANCH  25  26
ATOM     26  C   UNL     1       8.427  23.363  33.012  1.00  0.00    -0.000 C 
BRANCH  26  27
ATOM     27  C   UNL     1       6.968  22.881  33.104  1.00  0.00    -0.000 C 
BRANCH  27  28
ATOM     28  C   UNL     1       5.942  23.985  33.447  1.00  0.00    -0.000 C 
BRANCH  28  29
ATOM     29  C   UNL     1       4.467  23.533  33.538  1.00  0.00    -0.000 C 
BRANCH  29  30
ATOM     30  C   UNL     1       4.230  22.092  34.038  1.00  0.00    -0.000 C 
BRANCH  30  31
ATOM     31  C   UNL     1       2.956  21.421  33.497  1.00  0.00    -0.003 C 
ATOM     32  C   UNL     1       2.087  22.374  32.678  1.00  0.00     0.004 C 
ENDBRANCH  30  31
ENDBRANCH  29  30
ENDBRANCH  28  29
ENDBRANCH  27  28
ENDBRANCH  26  27
ENDBRANCH  25  26
ENDBRANCH  24  25
ENDBRANCH  23  24
ENDBRANCH  22  23
ENDBRANCH  21  22
ENDBRANCH  20  21
ENDBRANCH  19  20
ENDBRANCH  18  19
ENDBRANCH   1  18
TORSDOF 28
ENDMDL
MODEL 7
REMARK VINA RESULT:    -1.920      4.906     13.003
REMARK INTER + INTRA:          -6.919
REMARK INTER:                  -5.314
REMARK INTRA:                  -1.605
REMARK UNBOUND:                -1.856
REMARK SMILES CCCCCCCCCCCCCCCCCCCCCCCCCCCCCC(=O)[O-]
REMARK SMILES IDX 16 1 17 2 18 3 19 4 20 5 21 6 22 7 23 8 24 9 25 10 26 11
REMARK SMILES IDX 27 12 28 13 29 14 30 15 31 16 32 17 15 18 14 19 13 20 12 21
REMARK SMILES IDX 11 22 10 23 9 24 8 25 7 26 6 27 5 28 4 29 3 30 2 31 1 32
REMARK H PARENT
REMARK Flexibility Score: inf
ROOT
ATOM      1  C   UNL     1       6.945  26.592  27.159  1.00  0.00     0.000 C 
ENDROOT
BRANCH   1   2
ATOM      2  C   UNL     1       8.273  27.020  26.516  1.00  0.00     0.000 C 
BRANCH   2   3
ATOM      3  C   UNL     1       8.946  25.888  25.720  1.00  0.00     0.000 C 
BRANCH   3   4
ATOM      4  C   UNL     1       9.120  26.202  24.219  1.00  0.00     0.000 C 
BRANCH   4   5
ATOM      5  C   UNL     1       8.315  25.245  23.323  1.00  0.00     0.000 C 
BRANCH   5   6
ATOM      6  C   UNL     1       7.005  24.783  23.984  1.00  0.00     0.000 C 
BRANCH   6   7
ATOM      7  C   UNL     1       5.905  24.475  22.956  1.00  0.00     0.000 C 
BRANCH   7   8
ATOM      8  C   UNL     1       4.927  25.653  22.825  1.00  0.00     0.000 C 
BRANCH   8   9
ATOM      9  C   UNL     1       4.514  25.920  21.368  1.00  0.00     0.000 C 
BRANCH   9  10
ATOM     10  C   UNL     1       4.251  27.410  21.087  1.00  0.00     0.000 C 
BRANCH  10  11
ATOM     11  C   UNL     1       3.512  27.639  19.759  1.00  0.00     0.000 C 
BRANCH  11  12
ATOM     12  C   UNL     1       3.426  29.125  19.379  1.00  0.00     0.000 C 
BRANCH  12  13
ATOM     13  C   UNL     1       4.626  29.544  18.521  1.00  0.00     0.006 C 
BRANCH  13  14
ATOM     14  C   UNL     1       5.181  28.352  17.733  1.00  0.00     0.053 C 
BRANCH  14  15
ATOM     15  C   UNL     1       6.175  28.813  16.716  1.00  0.00     0.041 C 
ATOM     16  O   UNL     1       6.321  30.042  16.483  1.00  0.00    -0.550 OA
ATOM     17  O   UNL     1       6.977  27.888  16.059  1.00  0.00    -0.550 OA
ENDBRANCH  14  15
ENDBRANCH  13  14
ENDBRANCH  12  13
ENDBRANCH  11  12
ENDBRANCH  10  11
ENDBRANCH   9  10
ENDBRANCH   8   9
ENDBRANCH   7   8
ENDBRANCH   6   7
ENDBRANCH   5   6
ENDBRANCH   4   5
ENDBRANCH   3   4
ENDBRANCH   2   3
ENDBRANCH   1   2
BRANCH   1  18
ATOM     18  C   UNL     1       7.135  26.003  28.566  1.00  0.00     0.000 C 
BRANCH  18  19
ATOM     19  C   UNL     1       8.615  25.851  28.947  1.00  0.00     0.000 C 
BRANCH  19  20
ATOM     20  C   UNL     1       8.816  24.649  29.879  1.00  0.00     0.000 C 
BRANCH  20  21
ATOM     21  C   UNL     1       8.607  25.003  31.364  1.00  0.00     0.000 C 
BRANCH  21  22
ATOM     22  C   UNL     1       8.804  23.832  32.346  1.00  0.00     0.000 C 
BRANCH  22  23
ATOM     23  C   UNL     1       7.675  23.630  33.377  1.00  0.00     0.000 C 
BRANCH  23  24
ATOM     24  C   UNL     1       7.241  22.160  33.561  1.00  0.00    -0.000 C 
BRANCH  24  25
ATOM     25  C   UNL     1       5.764  22.030  33.966  1.00  0.00    -0.000 C 
BRANCH  25  26
ATOM     26  C   UNL     1       5.085  23.400  34.086  1.00  0.00    -0.000 C 
BRANCH  26  27
ATOM     27  C   UNL     1       3.579  23.361  33.766  1.00  0.00    -0.000 C 
BRANCH  27  28
ATOM     28  C   UNL     1       2.902  21.993  34.010  1.00  0.00    -0.000 C 
BRANCH  28  29
ATOM     29  C   UNL     1       2.426  21.240  32.747  1.00  0.00    -0.000 C 
BRANCH  29  30
ATOM     30  C   UNL     1       2.725  21.925  31.397  1.00  0.00    -0.000 C 
BRANCH  30  31
ATOM     31  C   UNL     1       1.627  22.881  30.899  1.00  0.00    -0.003 C 
ATOM     32  C   UNL     1       2.185  24.058  30.101  1.00  0.00     0.004 C 
ENDBRANCH  30  31
ENDBRANCH  29  30
ENDBRANCH  28  29
ENDBRANCH  27  28
ENDBRANCH  26  27
ENDBRANCH  25  26
ENDBRANCH  24  25
ENDBRANCH  23  24
ENDBRANCH  22  23
ENDBRANCH  21  22
ENDBRANCH  20  21
ENDBRANCH  19  20
ENDBRANCH  18  19
ENDBRANCH   1  18
TORSDOF 28
ENDMDL
MODEL 8
REMARK VINA RESULT:    -1.753      1.584      3.351
REMARK INTER + INTRA:          -6.479
REMARK INTER:                  -4.662
REMARK INTRA:                  -1.816
REMARK UNBOUND:                -1.856
REMARK SMILES CCCCCCCCCCCCCCCCCCCCCCCCCCCCCC(=O)[O-]
REMARK SMILES IDX 16 1 17 2 18 3 19 4 20 5 21 6 22 7 23 8 24 9 25 10 26 11
REMARK SMILES IDX 27 12 28 13 29 14 30 15 31 16 32 17 15 18 14 19 13 20 12 21
REMARK SMILES IDX 11 22 10 23 9 24 8 25 7 26 6 27 5 28 4 29 3 30 2 31 1 32
REMARK H PARENT
REMARK Flexibility Score: inf
ROOT
ATOM      1  C   UNL     1       6.931  24.373  23.802  1.00  0.00     0.000 C 
ENDROOT
BRANCH   1   2
ATOM      2  C   UNL     1       6.995  25.570  24.764  1.00  0.00     0.000 C 
BRANCH   2   3
ATOM      3  C   UNL     1       8.405  25.810  25.329  1.00  0.00     0.000 C 
BRANCH   3   4
ATOM      4  C   UNL     1       8.502  25.632  26.859  1.00  0.00     0.000 C 
BRANCH   4   5
ATOM      5  C   UNL     1       8.791  26.957  27.586  1.00  0.00     0.000 C 
BRANCH   5   6
ATOM      6  C   UNL     1       8.853  26.788  29.114  1.00  0.00     0.000 C 
BRANCH   6   7
ATOM      7  C   UNL     1       8.376  25.400  29.571  1.00  0.00     0.000 C 
BRANCH   7   8
ATOM      8  C   UNL     1       8.452  25.267  31.100  1.00  0.00     0.000 C 
BRANCH   8   9
ATOM      9  C   UNL     1       8.368  23.806  31.572  1.00  0.00     0.000 C 
BRANCH   9  10
ATOM     10  C   UNL     1       8.006  23.681  33.062  1.00  0.00     0.000 C 
BRANCH  10  11
ATOM     11  C   UNL     1       6.812  24.565  33.456  1.00  0.00     0.000 C 
BRANCH  11  12
ATOM     12  C   UNL     1       5.677  23.766  34.115  1.00  0.00     0.000 C 
BRANCH  12  13
ATOM     13  C   UNL     1       4.614  23.368  33.084  1.00  0.00     0.006 C 
BRANCH  13  14
ATOM     14  C   UNL     1       3.836  22.132  33.546  1.00  0.00     0.053 C 
BRANCH  14  15
ATOM     15  C   UNL     1       2.689  21.860  32.626  1.00  0.00     0.041 C 
ATOM     16  O   UNL     1       2.027  22.814  32.138  1.00  0.00    -0.550 OA
ATOM     17  O   UNL     1       2.381  20.554  32.265  1.00  0.00    -0.550 OA
ENDBRANCH  14  15
ENDBRANCH  13  14
ENDBRANCH  12  13
ENDBRANCH  11  12
ENDBRANCH  10  11
ENDBRANCH   9  10
ENDBRANCH   8   9
ENDBRANCH   7   8
ENDBRANCH   6   7
ENDBRANCH   5   6
ENDBRANCH   4   5
ENDBRANCH   3   4
ENDBRANCH   2   3
ENDBRANCH   1   2
BRANCH   1  18
ATOM     18  C   UNL     1       5.570  24.255  23.099  1.00  0.00     0.000 C 
BRANCH  18  19
ATOM     19  C   UNL     1       4.942  25.623  22.794  1.00  0.00     0.000 C 
BRANCH  19  20
ATOM     20  C   UNL     1       5.152  26.002  21.322  1.00  0.00     0.000 C 
BRANCH  20  21
ATOM     21  C   UNL     1       4.031  26.903  20.771  1.00  0.00     0.000 C 
BRANCH  21  22
ATOM     22  C   UNL     1       4.507  28.048  19.856  1.00  0.00     0.000 C 
BRANCH  22  23
ATOM     23  C   UNL     1       3.395  28.796  19.093  1.00  0.00     0.000 C 
BRANCH  23  24
ATOM     24  C   UNL     1       3.792  30.213  18.625  1.00  0.00    -0.000 C 
BRANCH  24  25
ATOM     25  C   UNL     1       5.236  30.276  18.104  1.00  0.00    -0.000 C 
BRANCH  25  26
ATOM     26  C   UNL     1       5.306  30.028  16.591  1.00  0.00    -0.000 C 
BRANCH  26  27
ATOM     27  C   UNL     1       5.188  28.540  16.214  1.00  0.00    -0.000 C 
BRANCH  27  28
ATOM     28  C   UNL     1       6.519  27.867  15.813  1.00  0.00    -0.000 C 
BRANCH  28  29
ATOM     29  C   UNL     1       7.738  28.808  15.676  1.00  0.00    -0.000 C 
BRANCH  29  30
ATOM     30  C   UNL     1       9.018  28.371  16.419  1.00  0.00    -0.000 C 
BRANCH  30  31
ATOM     31  C   UNL     1       9.035  28.693  17.923  1.00  0.00    -0.003 C 
ATOM     32  C   UNL     1       8.261  27.672  18.756  1.00  0.00     0.004 C 
ENDBRANCH  30  31
ENDBRANCH  29  30
ENDBRANCH  28  29
ENDBRANCH  27  28
ENDBRANCH  26  27
ENDBRANCH  25  26
ENDBRANCH  24  25
ENDBRANCH  23  24
ENDBRANCH  22  23
ENDBRANCH  21  22
ENDBRANCH  20  21
ENDBRANCH  19  20
ENDBRANCH  18  19
ENDBRANCH   1  18
TORSDOF 28
ENDMDL
MODEL 9
REMARK VINA RESULT:    -1.727      2.705     11.807
REMARK INTER + INTRA:          -6.411
REMARK INTER:                  -4.282
REMARK INTRA:                  -2.130
REMARK UNBOUND:                -1.856
REMARK SMILES CCCCCCCCCCCCCCCCCCCCCCCCCCCCCC(=O)[O-]
REMARK SMILES IDX 16 1 17 2 18 3 19 4 20 5 21 6 22 7 23 8 24 9 25 10 26 11
REMARK SMILES IDX 27 12 28 13 29 14 30 15 31 16 32 17 15 18 14 19 13 20 12 21
REMARK SMILES IDX 11 22 10 23 9 24 8 25 7 26 6 27 5 28 4 29 3 30 2 31 1 32
REMARK H PARENT
REMARK Flexibility Score: inf
ROOT
ATOM      1  C   UNL     1       9.125  26.712  21.810  1.00  0.00     0.000 C 
ENDROOT
BRANCH   1   2
ATOM      2  C   UNL     1       9.005  26.259  20.346  1.00  0.00     0.000 C 
BRANCH   2   3
ATOM      3  C   UNL     1       8.674  27.415  19.386  1.00  0.00     0.000 C 
BRANCH   3   4
ATOM      4  C   UNL     1       8.620  26.995  17.902  1.00  0.00     0.000 C 
BRANCH   4   5
ATOM      5  C   UNL     1       9.107  28.110  16.960  1.00  0.00     0.000 C 
BRANCH   5   6
ATOM      6  C   UNL     1       8.025  29.171  16.697  1.00  0.00     0.000 C 
BRANCH   6   7
ATOM      7  C   UNL     1       6.696  28.554  16.235  1.00  0.00     0.000 C 
BRANCH   7   8
ATOM      8  C   UNL     1       5.528  29.044  17.105  1.00  0.00     0.000 C 
BRANCH   8   9
ATOM      9  C   UNL     1       4.507  27.933  17.404  1.00  0.00     0.000 C 
BRANCH   9  10
ATOM     10  C   UNL     1       3.320  28.427  18.250  1.00  0.00     0.000 C 
BRANCH  10  11
ATOM     11  C   UNL     1       3.656  28.511  19.747  1.00  0.00     0.000 C 
BRANCH  11  12
ATOM     12  C   UNL     1       4.751  27.516  20.164  1.00  0.00     0.000 C 
BRANCH  12  13
ATOM     13  C   UNL     1       4.288  26.651  21.342  1.00  0.00     0.006 C 
BRANCH  13  14
ATOM     14  C   UNL     1       5.386  25.674  21.772  1.00  0.00     0.053 C 
BRANCH  14  15
ATOM     15  C   UNL     1       5.011  24.990  23.048  1.00  0.00     0.041 C 
ATOM     16  O   UNL     1       5.095  23.737  23.143  1.00  0.00    -0.550 OA
ATOM     17  O   UNL     1       4.616  25.740  24.148  1.00  0.00    -0.550 OA
ENDBRANCH  14  15
ENDBRANCH  13  14
ENDBRANCH  12  13
ENDBRANCH  11  12
ENDBRANCH  10  11
ENDBRANCH   9  10
ENDBRANCH   8   9
ENDBRANCH   7   8
ENDBRANCH   6   7
ENDBRANCH   5   6
ENDBRANCH   4   5
ENDBRANCH   3   4
ENDBRANCH   2   3
ENDBRANCH   1   2
BRANCH   1  18
ATOM     18  C   UNL     1       9.004  25.542  22.799  1.00  0.00     0.000 C 
BRANCH  18  19
ATOM     19  C   UNL     1       8.299  25.943  24.104  1.00  0.00     0.000 C 
BRANCH  19  20
ATOM     20  C   UNL     1       7.966  24.703  24.944  1.00  0.00     0.000 C 
BRANCH  20  21
ATOM     21  C   UNL     1       8.543  24.775  26.371  1.00  0.00     0.000 C 
BRANCH  21  22
ATOM     22  C   UNL     1       7.593  25.368  27.428  1.00  0.00     0.000 C 
BRANCH  22  23
ATOM     23  C   UNL     1       8.254  25.792  28.755  1.00  0.00     0.000 C 
BRANCH  23  24
ATOM     24  C   UNL     1       8.270  24.688  29.835  1.00  0.00    -0.000 C 
BRANCH  24  25
ATOM     25  C   UNL     1       8.613  25.236  31.229  1.00  0.00    -0.000 C 
BRANCH  25  26
ATOM     26  C   UNL     1       8.157  24.283  32.342  1.00  0.00    -0.000 C 
BRANCH  26  27
ATOM     27  C   UNL     1       6.986  24.839  33.173  1.00  0.00    -0.000 C 
BRANCH  27  28
ATOM     28  C   UNL     1       6.221  23.781  34.000  1.00  0.00    -0.000 C 
BRANCH  28  29
ATOM     29  C   UNL     1       4.705  23.671  33.720  1.00  0.00    -0.000 C 
BRANCH  29  30
ATOM     30  C   UNL     1       4.301  23.503  32.240  1.00  0.00    -0.000 C 
BRANCH  30  31
ATOM     31  C   UNL     1       2.910  22.884  32.015  1.00  0.00    -0.003 C 
ATOM     32  C   UNL     1       2.358  23.161  30.618  1.00  0.00     0.004 C 
ENDBRANCH  30  31
ENDBRANCH  29  30
ENDBRANCH  28  29
ENDBRANCH  27  28
ENDBRANCH  26  27
ENDBRANCH  25  26
ENDBRANCH  24  25
ENDBRANCH  23  24
ENDBRANCH  22  23
ENDBRANCH  21  22
ENDBRANCH  20  21
ENDBRANCH  19  20
ENDBRANCH  18  19
ENDBRANCH   1  18
TORSDOF 28
ENDMDL
