MODEL 1
REMARK VINA RESULT:    -3.495      0.000      0.000
REMARK INTER + INTRA:          -9.098
REMARK INTER:                  -6.559
REMARK INTRA:                  -2.538
REMARK UNBOUND:                -2.538
REMARK SMILES O=C([O-])CCCCCCCCCCCCCCC(=O)[O-]
REMARK SMILES IDX 10 1 9 2 8 3 7 4 6 5 5 6 4 7 2 8 1 9 3 10 11 11 12 12 13 13
REMARK SMILES IDX 14 14 15 15 16 16 17 17 18 18 19 19 20 20
REMARK H PARENT
REMARK Flexibility Score: inf
ROOT
ATOM      1  C   UNL     1      16.773 128.429  56.848  1.00  0.00     0.000 C 
ENDROOT
BRANCH   1   2
ATOM      2  C   UNL     1      16.233 127.850  55.529  1.00  0.00     0.000 C 
BRANCH   2   3
ATOM      3  C   UNL     1      15.167 128.750  54.882  1.00  0.00     0.000 C 
BRANCH   3   4
ATOM      4  C   UNL     1      15.300 128.820  53.353  1.00  0.00     0.000 C 
BRANCH   4   5
ATOM      5  C   UNL     1      16.410 127.880  52.857  1.00  0.00     0.000 C 
BRANCH   5   6
ATOM      6  C   UNL     1      17.288 128.522  51.771  1.00  0.00     0.006 C 
BRANCH   6   7
ATOM      7  C   UNL     1      16.516 129.522  50.902  1.00  0.00     0.053 C 
BRANCH   7   8
ATOM      8  C   UNL     1      16.840 129.315  49.456  1.00  0.00     0.041 C 
ATOM      9  O   UNL     1      17.829 128.610  49.122  1.00  0.00    -0.550 OA
ATOM     10  O   UNL     1      16.080 129.939  48.476  1.00  0.00    -0.550 OA
ENDBRANCH   7   8
ENDBRANCH   6   7
ENDBRANCH   5   6
ENDBRANCH   4   5
ENDBRANCH   3   4
ENDBRANCH   2   3
ENDBRANCH   1   2
BRANCH   1  11
ATOM     11  C   UNL     1      17.930 129.416  56.628  1.00  0.00     0.000 C 
BRANCH  11  12
ATOM     12  C   UNL     1      18.882 128.974  55.503  1.00  0.00     0.000 C 
BRANCH  12  13
ATOM     13  C   UNL     1      19.075 130.059  54.430  1.00  0.00     0.000 C 
BRANCH  13  14
ATOM     14  C   UNL     1      18.286 131.343  54.743  1.00  0.00     0.000 C 
BRANCH  14  15
ATOM     15  C   UNL     1      17.427 131.812  53.558  1.00  0.00     0.000 C 
BRANCH  15  16
ATOM     16  C   UNL     1      16.109 132.470  54.004  1.00  0.00     0.006 C 
BRANCH  16  17
ATOM     17  C   UNL     1      15.960 133.895  53.458  1.00  0.00     0.053 C 
BRANCH  17  18
ATOM     18  C   UNL     1      17.031 134.806  53.975  1.00  0.00     0.041 C 
ATOM     19  O   UNL     1      17.059 135.124  55.194  1.00  0.00    -0.550 OA
ATOM     20  O   UNL     1      17.980 135.331  53.107  1.00  0.00    -0.550 OA
ENDBRANCH  17  18
ENDBRANCH  16  17
ENDBRANCH  15  16
ENDBRANCH  14  15
ENDBRANCH  13  14
ENDBRANCH  12  13
ENDBRANCH  11  12
ENDBRANCH   1  11
TORSDOF 15
ENDMDL
MODEL 2
REMARK VINA RESULT:    -3.477      5.625      7.782
REMARK INTER + INTRA:          -9.065
REMARK INTER:                  -7.387
REMARK INTRA:                  -1.678
REMARK UNBOUND:                -2.538
REMARK SMILES O=C([O-])CCCCCCCCCCCCCCC(=O)[O-]
REMARK SMILES IDX 10 1 9 2 8 3 7 4 6 5 5 6 4 7 2 8 1 9 3 10 11 11 12 12 13 13
REMARK SMILES IDX 14 14 15 15 16 16 17 17 18 18 19 19 20 20
REMARK H PARENT
REMARK Flexibility Score: inf
ROOT
ATOM      1  C   UNL     1      16.502 130.945  58.237  1.00  0.00     0.000 C 
ENDROOT
BRANCH   1   2
ATOM      2  C   UNL     1      15.736 129.783  58.892  1.00  0.00     0.000 C 
BRANCH   2   3
ATOM      3  C   UNL     1      15.947 128.448  58.158  1.00  0.00     0.000 C 
BRANCH   3   4
ATOM      4  C   UNL     1      15.084 128.323  56.893  1.00  0.00     0.000 C 
BRANCH   4   5
ATOM      5  C   UNL     1      15.941 127.910  55.686  1.00  0.00     0.000 C 
BRANCH   5   6
ATOM      6  C   UNL     1      16.896 129.025  55.228  1.00  0.00     0.006 C 
BRANCH   6   7
ATOM      7  C   UNL     1      18.280 128.492  54.837  1.00  0.00     0.053 C 
BRANCH   7   8
ATOM      8  C   UNL     1      19.348 129.445  55.274  1.00  0.00     0.041 C 
ATOM      9  O   UNL     1      19.464 130.567  54.714  1.00  0.00    -0.550 OA
ATOM     10  O   UNL     1      20.246 129.075  56.266  1.00  0.00    -0.550 OA
ENDBRANCH   7   8
ENDBRANCH   6   7
ENDBRANCH   5   6
ENDBRANCH   4   5
ENDBRANCH   3   4
ENDBRANCH   2   3
ENDBRANCH   1   2
BRANCH   1  11
ATOM     11  C   UNL     1      18.026 130.805  58.387  1.00  0.00     0.000 C 
BRANCH  11  12
ATOM     12  C   UNL     1      18.481 130.814  59.856  1.00  0.00     0.000 C 
BRANCH  12  13
ATOM     13  C   UNL     1      19.485 129.693  60.172  1.00  0.00     0.000 C 
BRANCH  13  14
ATOM     14  C   UNL     1      19.218 129.030  61.535  1.00  0.00     0.000 C 
BRANCH  14  15
ATOM     15  C   UNL     1      17.752 129.162  61.979  1.00  0.00     0.000 C 
BRANCH  15  16
ATOM     16  C   UNL     1      17.170 127.838  62.504  1.00  0.00     0.006 C 
BRANCH  16  17
ATOM     17  C   UNL     1      18.217 127.003  63.254  1.00  0.00     0.053 C 
BRANCH  17  18
ATOM     18  C   UNL     1      18.161 125.558  62.865  1.00  0.00     0.041 C 
ATOM     19  O   UNL     1      19.225 124.910  62.678  1.00  0.00    -0.550 OA
ATOM     20  O   UNL     1      16.934 124.933  62.677  1.00  0.00    -0.550 OA
ENDBRANCH  17  18
ENDBRANCH  16  17
ENDBRANCH  15  16
ENDBRANCH  14  15
ENDBRANCH  13  14
ENDBRANCH  12  13
ENDBRANCH  11  12
ENDBRANCH   1  11
TORSDOF 15
ENDMDL
MODEL 3
REMARK VINA RESULT:    -3.455      5.675      8.599
REMARK INTER + INTRA:          -9.024
REMARK INTER:                  -7.254
REMARK INTRA:                  -1.770
REMARK UNBOUND:                -2.538
REMARK SMILES O=C([O-])CCCCCCCCCCCCCCC(=O)[O-]
REMARK SMILES IDX 10 1 9 2 8 3 7 4 6 5 5 6 4 7 2 8 1 9 3 10 11 11 12 12 13 13
REMARK SMILES IDX 14 14 15 15 16 16 17 17 18 18 19 19 20 20
REMARK H PARENT
REMARK Flexibility Score: inf
ROOT
ATOM      1  C   UNL     1      14.777 130.115  61.415  1.00  0.00     0.000 C 
ENDROOT
BRANCH   1   2
ATOM      2  C   UNL     1      15.955 130.765  60.669  1.00  0.00     0.000 C 
BRANCH   2   3
ATOM      3  C   UNL     1      17.262 130.722  61.476  1.00  0.00     0.000 C 
BRANCH   3   4
ATOM      4  C   UNL     1      18.439 130.151  60.671  1.00  0.00     0.000 C 
BRANCH   4   5
ATOM      5  C   UNL     1      19.136 129.023  61.448  1.00  0.00     0.000 C 
BRANCH   5   6
ATOM      6  C   UNL     1      18.347 128.586  62.693  1.00  0.00     0.006 C 
BRANCH   6   7
ATOM      7  C   UNL     1      18.475 127.083  62.975  1.00  0.00     0.053 C 
BRANCH   7   8
ATOM      8  C   UNL     1      17.127 126.434  62.967  1.00  0.00     0.041 C 
ATOM      9  O   UNL     1      17.022 125.194  62.774  1.00  0.00    -0.550 OA
ATOM     10  O   UNL     1      15.983 127.205  63.124  1.00  0.00    -0.550 OA
ENDBRANCH   7   8
ENDBRANCH   6   7
ENDBRANCH   5   6
ENDBRANCH   4   5
ENDBRANCH   3   4
ENDBRANCH   2   3
ENDBRANCH   1   2
BRANCH   1  11
ATOM     11  C   UNL     1      14.107 128.998  60.598  1.00  0.00     0.000 C 
BRANCH  11  12
ATOM     12  C   UNL     1      15.096 128.260  59.678  1.00  0.00     0.000 C 
BRANCH  12  13
ATOM     13  C   UNL     1      14.492 127.933  58.302  1.00  0.00     0.000 C 
BRANCH  13  14
ATOM     14  C   UNL     1      15.359 128.450  57.141  1.00  0.00     0.000 C 
BRANCH  14  15
ATOM     15  C   UNL     1      16.758 128.895  57.600  1.00  0.00     0.000 C 
BRANCH  15  16
ATOM     16  C   UNL     1      17.724 129.121  56.424  1.00  0.00     0.006 C 
BRANCH  16  17
ATOM     17  C   UNL     1      18.970 129.911  56.844  1.00  0.00     0.053 C 
BRANCH  17  18
ATOM     18  C   UNL     1      20.064 129.813  55.824  1.00  0.00     0.041 C 
ATOM     19  O   UNL     1      20.571 128.694  55.545  1.00  0.00    -0.550 OA
ATOM     20  O   UNL     1      20.546 130.960  55.206  1.00  0.00    -0.550 OA
ENDBRANCH  17  18
ENDBRANCH  16  17
ENDBRANCH  15  16
ENDBRANCH  14  15
ENDBRANCH  13  14
ENDBRANCH  12  13
ENDBRANCH  11  12
ENDBRANCH   1  11
TORSDOF 15
ENDMDL
MODEL 4
REMARK VINA RESULT:    -3.447      2.053      5.678
REMARK INTER + INTRA:          -9.008
REMARK INTER:                  -7.489
REMARK INTRA:                  -1.518
REMARK UNBOUND:                -2.538
REMARK SMILES O=C([O-])CCCCCCCCCCCCCCC(=O)[O-]
REMARK SMILES IDX 10 1 9 2 8 3 7 4 6 5 5 6 4 7 2 8 1 9 3 10 11 11 12 12 13 13
REMARK SMILES IDX 14 14 15 15 16 16 17 17 18 18 19 19 20 20
REMARK H PARENT
REMARK Flexibility Score: inf
ROOT
ATOM      1  C   UNL     1      16.202 127.841  55.593  1.00  0.00     0.000 C 
ENDROOT
BRANCH   1   2
ATOM      2  C   UNL     1      15.486 128.507  56.780  1.00  0.00     0.000 C 
BRANCH   2   3
ATOM      3  C   UNL     1      16.462 129.190  57.752  1.00  0.00     0.000 C 
BRANCH   3   4
ATOM      4  C   UNL     1      17.413 130.169  57.048  1.00  0.00     0.000 C 
BRANCH   4   5
ATOM      5  C   UNL     1      18.878 129.765  57.274  1.00  0.00     0.000 C 
BRANCH   5   6
ATOM      6  C   UNL     1      19.654 129.589  55.958  1.00  0.00     0.006 C 
BRANCH   6   7
ATOM      7  C   UNL     1      19.066 130.419  54.810  1.00  0.00     0.053 C 
BRANCH   7   8
ATOM      8  C   UNL     1      19.837 131.689  54.636  1.00  0.00     0.041 C 
ATOM      9  O   UNL     1      19.248 132.746  54.288  1.00  0.00    -0.550 OA
ATOM     10  O   UNL     1      21.215 131.696  54.811  1.00  0.00    -0.550 OA
ENDBRANCH   7   8
ENDBRANCH   6   7
ENDBRANCH   5   6
ENDBRANCH   4   5
ENDBRANCH   3   4
ENDBRANCH   2   3
ENDBRANCH   1   2
BRANCH   1  11
ATOM     11  C   UNL     1      15.598 128.247  54.238  1.00  0.00     0.000 C 
BRANCH  11  12
ATOM     12  C   UNL     1      16.342 127.621  53.045  1.00  0.00     0.000 C 
BRANCH  12  13
ATOM     13  C   UNL     1      16.953 128.677  52.109  1.00  0.00     0.000 C 
BRANCH  13  14
ATOM     14  C   UNL     1      16.390 130.086  52.364  1.00  0.00     0.000 C 
BRANCH  14  15
ATOM     15  C   UNL     1      16.356 130.948  51.091  1.00  0.00     0.000 C 
BRANCH  15  16
ATOM     16  C   UNL     1      16.987 130.241  49.879  1.00  0.00     0.006 C 
BRANCH  16  17
ATOM     17  C   UNL     1      16.092 130.316  48.635  1.00  0.00     0.053 C 
BRANCH  17  18
ATOM     18  C   UNL     1      16.092 129.030  47.868  1.00  0.00     0.041 C 
ATOM     19  O   UNL     1      17.075 128.245  47.946  1.00  0.00    -0.550 OA
ATOM     20  O   UNL     1      15.022 128.711  47.040  1.00  0.00    -0.550 OA
ENDBRANCH  17  18
ENDBRANCH  16  17
ENDBRANCH  15  16
ENDBRANCH  14  15
ENDBRANCH  13  14
ENDBRANCH  12  13
ENDBRANCH  11  12
ENDBRANCH   1  11
TORSDOF 15
ENDMDL
MODEL 5
REMARK VINA RESULT:    -3.407      1.562      5.587
REMARK INTER + INTRA:          -8.933
REMARK INTER:                  -6.977
REMARK INTRA:                  -1.956
REMARK UNBOUND:                -2.538
REMARK SMILES O=C([O-])CCCCCCCCCCCCCCC(=O)[O-]
REMARK SMILES IDX 10 1 9 2 8 3 7 4 6 5 5 6 4 7 2 8 1 9 3 10 11 11 12 12 13 13
REMARK SMILES IDX 14 14 15 15 16 16 17 17 18 18 19 19 20 20
REMARK H PARENT
REMARK Flexibility Score: inf
ROOT
ATOM      1  C   UNL     1      16.091 129.741  56.795  1.00  0.00     0.000 C 
ENDROOT
BRANCH   1   2
ATOM      2  C   UNL     1      17.307 130.678  56.699  1.00  0.00     0.000 C 
BRANCH   2   3
ATOM      3  C   UNL     1      18.629 129.968  57.034  1.00  0.00     0.000 C 
BRANCH   3   4
ATOM      4  C   UNL     1      19.588 129.902  55.836  1.00  0.00     0.000 C 
BRANCH   4   5
ATOM      5  C   UNL     1      19.037 130.710  54.651  1.00  0.00     0.000 C 
BRANCH   5   6
ATOM      6  C   UNL     1      19.883 131.954  54.337  1.00  0.00     0.006 C 
BRANCH   6   7
ATOM      7  C   UNL     1      19.763 133.037  55.417  1.00  0.00     0.053 C 
BRANCH   7   8
ATOM      8  C   UNL     1      18.892 134.155  54.940  1.00  0.00     0.041 C 
ATOM      9  O   UNL     1      18.687 135.158  55.675  1.00  0.00    -0.550 OA
ATOM     10  O   UNL     1      18.265 134.071  53.704  1.00  0.00    -0.550 OA
ENDBRANCH   7   8
ENDBRANCH   6   7
ENDBRANCH   5   6
ENDBRANCH   4   5
ENDBRANCH   3   4
ENDBRANCH   2   3
ENDBRANCH   1   2
BRANCH   1  11
ATOM     11  C   UNL     1      16.496 128.261  56.896  1.00  0.00     0.000 C 
BRANCH  11  12
ATOM     12  C   UNL     1      16.028 127.434  55.686  1.00  0.00     0.000 C 
BRANCH  12  13
ATOM     13  C   UNL     1      16.934 127.617  54.457  1.00  0.00     0.000 C 
BRANCH  13  14
ATOM     14  C   UNL     1      16.133 127.823  53.160  1.00  0.00     0.000 C 
BRANCH  14  15
ATOM     15  C   UNL     1      15.819 129.303  52.887  1.00  0.00     0.000 C 
BRANCH  15  16
ATOM     16  C   UNL     1      16.750 129.921  51.829  1.00  0.00     0.006 C 
BRANCH  16  17
ATOM     17  C   UNL     1      17.365 128.859  50.909  1.00  0.00     0.053 C 
BRANCH  17  18
ATOM     18  C   UNL     1      17.001 129.085  49.474  1.00  0.00     0.041 C 
ATOM     19  O   UNL     1      16.481 130.174  49.116  1.00  0.00    -0.550 OA
ATOM     20  O   UNL     1      17.206 128.080  48.536  1.00  0.00    -0.550 OA
ENDBRANCH  17  18
ENDBRANCH  16  17
ENDBRANCH  15  16
ENDBRANCH  14  15
ENDBRANCH  13  14
ENDBRANCH  12  13
ENDBRANCH  11  12
ENDBRANCH   1  11
TORSDOF 15
ENDMDL
MODEL 6
REMARK VINA RESULT:    -3.399      2.166      4.775
REMARK INTER + INTRA:          -8.918
REMARK INTER:                  -6.479
REMARK INTRA:                  -2.439
REMARK UNBOUND:                -2.538
REMARK SMILES O=C([O-])CCCCCCCCCCCCCCC(=O)[O-]
REMARK SMILES IDX 10 1 9 2 8 3 7 4 6 5 5 6 4 7 2 8 1 9 3 10 11 11 12 12 13 13
REMARK SMILES IDX 14 14 15 15 16 16 17 17 18 18 19 19 20 20
REMARK H PARENT
REMARK Flexibility Score: inf
ROOT
ATOM      1  C   UNL     1      15.231 129.597  57.179  1.00  0.00     0.000 C 
ENDROOT
BRANCH   1   2
ATOM      2  C   UNL     1      16.365 129.132  58.108  1.00  0.00     0.000 C 
BRANCH   2   3
ATOM      3  C   UNL     1      16.936 130.277  58.962  1.00  0.00     0.000 C 
BRANCH   3   4
ATOM      4  C   UNL     1      18.293 130.782  58.447  1.00  0.00     0.000 C 
BRANCH   4   5
ATOM      5  C   UNL     1      18.906 129.783  57.454  1.00  0.00     0.000 C 
BRANCH   5   6
ATOM      6  C   UNL     1      19.155 130.401  56.069  1.00  0.00     0.006 C 
BRANCH   6   7
ATOM      7  C   UNL     1      18.513 131.786  55.917  1.00  0.00     0.053 C 
BRANCH   7   8
ATOM      8  C   UNL     1      19.369 132.666  55.061  1.00  0.00     0.041 C 
ATOM      9  O   UNL     1      19.231 133.918  55.101  1.00  0.00    -0.550 OA
ATOM     10  O   UNL     1      20.287 132.104  54.184  1.00  0.00    -0.550 OA
ENDBRANCH   7   8
ENDBRANCH   6   7
ENDBRANCH   5   6
ENDBRANCH   4   5
ENDBRANCH   3   4
ENDBRANCH   2   3
ENDBRANCH   1   2
BRANCH   1  11
ATOM     11  C   UNL     1      15.172 128.789  55.872  1.00  0.00     0.000 C 
BRANCH  11  12
ATOM     12  C   UNL     1      16.191 127.636  55.840  1.00  0.00     0.000 C 
BRANCH  12  13
ATOM     13  C   UNL     1      17.125 127.706  54.621  1.00  0.00     0.000 C 
BRANCH  13  14
ATOM     14  C   UNL     1      16.369 127.545  53.290  1.00  0.00     0.000 C 
BRANCH  14  15
ATOM     15  C   UNL     1      16.748 128.623  52.261  1.00  0.00     0.000 C 
BRANCH  15  16
ATOM     16  C   UNL     1      17.329 129.889  52.915  1.00  0.00     0.006 C 
BRANCH  16  17
ATOM     17  C   UNL     1      16.289 131.012  53.023  1.00  0.00     0.053 C 
BRANCH  17  18
ATOM     18  C   UNL     1      16.542 132.104  52.029  1.00  0.00     0.041 C 
ATOM     19  O   UNL     1      17.483 132.922  52.212  1.00  0.00    -0.550 OA
ATOM     20  O   UNL     1      15.719 132.240  50.918  1.00  0.00    -0.550 OA
ENDBRANCH  17  18
ENDBRANCH  16  17
ENDBRANCH  15  16
ENDBRANCH  14  15
ENDBRANCH  13  14
ENDBRANCH  12  13
ENDBRANCH  11  12
ENDBRANCH   1  11
TORSDOF 15
ENDMDL
MODEL 7
REMARK VINA RESULT:    -3.398      1.338      2.152
REMARK INTER + INTRA:          -8.917
REMARK INTER:                  -7.225
REMARK INTRA:                  -1.692
REMARK UNBOUND:                -2.538
REMARK SMILES O=C([O-])CCCCCCCCCCCCCCC(=O)[O-]
REMARK SMILES IDX 10 1 9 2 8 3 7 4 6 5 5 6 4 7 2 8 1 9 3 10 11 11 12 12 13 13
REMARK SMILES IDX 14 14 15 15 16 16 17 17 18 18 19 19 20 20
REMARK H PARENT
REMARK Flexibility Score: inf
ROOT
ATOM      1  C   UNL     1      15.383 128.683  55.008  1.00  0.00     0.000 C 
ENDROOT
BRANCH   1   2
ATOM      2  C   UNL     1      15.473 128.234  53.540  1.00  0.00     0.000 C 
BRANCH   2   3
ATOM      3  C   UNL     1      16.920 127.974  53.089  1.00  0.00     0.000 C 
BRANCH   3   4
ATOM      4  C   UNL     1      17.228 128.574  51.708  1.00  0.00     0.000 C 
BRANCH   4   5
ATOM      5  C   UNL     1      16.489 129.908  51.515  1.00  0.00     0.000 C 
BRANCH   5   6
ATOM      6  C   UNL     1      16.156 130.193  50.042  1.00  0.00     0.006 C 
BRANCH   6   7
ATOM      7  C   UNL     1      17.261 129.727  49.086  1.00  0.00     0.053 C 
BRANCH   7   8
ATOM      8  C   UNL     1      16.727 128.712  48.125  1.00  0.00     0.041 C 
ATOM      9  O   UNL     1      17.479 127.809  47.674  1.00  0.00    -0.550 OA
ATOM     10  O   UNL     1      15.411 128.792  47.689  1.00  0.00    -0.550 OA
ENDBRANCH   7   8
ENDBRANCH   6   7
ENDBRANCH   5   6
ENDBRANCH   4   5
ENDBRANCH   3   4
ENDBRANCH   2   3
ENDBRANCH   1   2
BRANCH   1  11
ATOM     11  C   UNL     1      16.645 128.328  55.811  1.00  0.00     0.000 C 
BRANCH  11  12
ATOM     12  C   UNL     1      17.299 129.557  56.466  1.00  0.00     0.000 C 
BRANCH  12  13
ATOM     13  C   UNL     1      18.834 129.480  56.468  1.00  0.00     0.000 C 
BRANCH  13  14
ATOM     14  C   UNL     1      19.481 130.617  55.657  1.00  0.00     0.000 C 
BRANCH  14  15
ATOM     15  C   UNL     1      18.893 130.743  54.242  1.00  0.00     0.000 C 
BRANCH  15  16
ATOM     16  C   UNL     1      18.584 132.200  53.856  1.00  0.00     0.006 C 
BRANCH  16  17
ATOM     17  C   UNL     1      18.190 133.049  55.071  1.00  0.00     0.053 C 
BRANCH  17  18
ATOM     18  C   UNL     1      18.766 134.430  54.998  1.00  0.00     0.041 C 
ATOM     19  O   UNL     1      19.586 134.821  55.870  1.00  0.00    -0.550 OA
ATOM     20  O   UNL     1      18.373 135.297  53.986  1.00  0.00    -0.550 OA
ENDBRANCH  17  18
ENDBRANCH  16  17
ENDBRANCH  15  16
ENDBRANCH  14  15
ENDBRANCH  13  14
ENDBRANCH  12  13
ENDBRANCH  11  12
ENDBRANCH   1  11
TORSDOF 15
ENDMDL
MODEL 8
REMARK VINA RESULT:    -3.397      2.923      4.204
REMARK INTER + INTRA:          -8.913
REMARK INTER:                  -6.175
REMARK INTRA:                  -2.738
REMARK UNBOUND:                -2.538
REMARK SMILES O=C([O-])CCCCCCCCCCCCCCC(=O)[O-]
REMARK SMILES IDX 10 1 9 2 8 3 7 4 6 5 5 6 4 7 2 8 1 9 3 10 11 11 12 12 13 13
REMARK SMILES IDX 14 14 15 15 16 16 17 17 18 18 19 19 20 20
REMARK H PARENT
REMARK Flexibility Score: inf
ROOT
ATOM      1  C   UNL     1      15.148 130.646  56.816  1.00  0.00     0.000 C 
ENDROOT
BRANCH   1   2
ATOM      2  C   UNL     1      15.280 129.129  57.035  1.00  0.00     0.000 C 
BRANCH   2   3
ATOM      3  C   UNL     1      15.238 128.336  55.718  1.00  0.00     0.000 C 
BRANCH   3   4
ATOM      4  C   UNL     1      16.476 127.448  55.520  1.00  0.00     0.000 C 
BRANCH   4   5
ATOM      5  C   UNL     1      17.202 127.806  54.215  1.00  0.00     0.000 C 
BRANCH   5   6
ATOM      6  C   UNL     1      16.235 128.049  53.045  1.00  0.00     0.006 C 
BRANCH   6   7
ATOM      7  C   UNL     1      16.890 128.808  51.884  1.00  0.00     0.053 C 
BRANCH   7   8
ATOM      8  C   UNL     1      16.203 130.119  51.664  1.00  0.00     0.041 C 
ATOM      9  O   UNL     1      16.854 131.115  51.250  1.00  0.00    -0.550 OA
ATOM     10  O   UNL     1      14.853 130.255  51.961  1.00  0.00    -0.550 OA
ENDBRANCH   7   8
ENDBRANCH   6   7
ENDBRANCH   5   6
ENDBRANCH   4   5
ENDBRANCH   3   4
ENDBRANCH   2   3
ENDBRANCH   1   2
BRANCH   1  11
ATOM     11  C   UNL     1      15.445 131.060  55.365  1.00  0.00     0.000 C 
BRANCH  11  12
ATOM     12  C   UNL     1      16.598 132.073  55.261  1.00  0.00     0.000 C 
BRANCH  12  13
ATOM     13  C   UNL     1      17.881 131.452  54.686  1.00  0.00     0.000 C 
BRANCH  13  14
ATOM     14  C   UNL     1      19.023 131.400  55.716  1.00  0.00     0.000 C 
BRANCH  14  15
ATOM     15  C   UNL     1      19.303 129.973  56.216  1.00  0.00     0.000 C 
BRANCH  15  16
ATOM     16  C   UNL     1      18.784 129.732  57.644  1.00  0.00     0.006 C 
BRANCH  16  17
ATOM     17  C   UNL     1      18.529 131.045  58.396  1.00  0.00     0.053 C 
BRANCH  17  18
ATOM     18  C   UNL     1      18.597 130.861  59.881  1.00  0.00     0.041 C 
ATOM     19  O   UNL     1      19.144 129.836  60.368  1.00  0.00    -0.550 OA
ATOM     20  O   UNL     1      18.027 131.804  60.727  1.00  0.00    -0.550 OA
ENDBRANCH  17  18
ENDBRANCH  16  17
ENDBRANCH  15  16
ENDBRANCH  14  15
ENDBRANCH  13  14
ENDBRANCH  12  13
ENDBRANCH  11  12
ENDBRANCH   1  11
TORSDOF 15
ENDMDL
MODEL 9
REMARK VINA RESULT:    -3.385      2.790      5.452
REMARK INTER + INTRA:          -8.892
REMARK INTER:                  -6.290
REMARK INTRA:                  -2.602
REMARK UNBOUND:                -2.538
REMARK SMILES O=C([O-])CCCCCCCCCCCCCCC(=O)[O-]
REMARK SMILES IDX 10 1 9 2 8 3 7 4 6 5 5 6 4 7 2 8 1 9 3 10 11 11 12 12 13 13
REMARK SMILES IDX 14 14 15 15 16 16 17 17 18 18 19 19 20 20
REMARK H PARENT
REMARK Flexibility Score: inf
ROOT
ATOM      1  C   UNL     1      16.544 128.000  53.612  1.00  0.00     0.000 C 
ENDROOT
BRANCH   1   2
ATOM      2  C   UNL     1      17.246 127.865  54.974  1.00  0.00     0.000 C 
BRANCH   2   3
ATOM      3  C   UNL     1      18.573 128.640  55.034  1.00  0.00     0.000 C 
BRANCH   3   4
ATOM      4  C   UNL     1      18.616 129.821  54.052  1.00  0.00     0.000 C 
BRANCH   4   5
ATOM      5  C   UNL     1      19.334 131.026  54.679  1.00  0.00     0.000 C 
BRANCH   5   6
ATOM      6  C   UNL     1      19.124 132.323  53.879  1.00  0.00     0.006 C 
BRANCH   6   7
ATOM      7  C   UNL     1      18.961 133.552  54.781  1.00  0.00     0.053 C 
BRANCH   7   8
ATOM      8  C   UNL     1      18.259 134.650  54.044  1.00  0.00     0.041 C 
ATOM      9  O   UNL     1      18.496 135.854  54.325  1.00  0.00    -0.550 OA
ATOM     10  O   UNL     1      17.307 134.343  53.081  1.00  0.00    -0.550 OA
ENDBRANCH   7   8
ENDBRANCH   6   7
ENDBRANCH   5   6
ENDBRANCH   4   5
ENDBRANCH   3   4
ENDBRANCH   2   3
ENDBRANCH   1   2
BRANCH   1  11
ATOM     11  C   UNL     1      15.111 128.541  53.740  1.00  0.00     0.000 C 
BRANCH  11  12
ATOM     12  C   UNL     1      14.928 129.455  54.964  1.00  0.00     0.000 C 
BRANCH  12  13
ATOM     13  C   UNL     1      15.078 130.945  54.619  1.00  0.00     0.000 C 
BRANCH  13  14
ATOM     14  C   UNL     1      15.809 131.734  55.721  1.00  0.00     0.000 C 
BRANCH  14  15
ATOM     15  C   UNL     1      16.237 130.845  56.899  1.00  0.00     0.000 C 
BRANCH  15  16
ATOM     16  C   UNL     1      17.345 131.485  57.753  1.00  0.00     0.006 C 
BRANCH  16  17
ATOM     17  C   UNL     1      18.383 130.455  58.219  1.00  0.00     0.053 C 
BRANCH  17  18
ATOM     18  C   UNL     1      18.785 130.674  59.646  1.00  0.00     0.041 C 
ATOM     19  O   UNL     1      19.287 129.731  60.314  1.00  0.00    -0.550 OA
ATOM     20  O   UNL     1      18.575 131.908  60.248  1.00  0.00    -0.550 OA
ENDBRANCH  17  18
ENDBRANCH  16  17
ENDBRANCH  15  16
ENDBRANCH  14  15
ENDBRANCH  13  14
ENDBRANCH  12  13
ENDBRANCH  11  12
ENDBRANCH   1  11
TORSDOF 15
ENDMDL
