MODEL 1
REMARK VINA RESULT:    -4.046      0.000      0.000
REMARK INTER + INTRA:          -6.438
REMARK INTER:                  -6.174
REMARK INTRA:                  -0.264
REMARK UNBOUND:                -0.264
REMARK SMILES CC1=CCC[C@@H](C)C(=O)C[C@H](C(C)C)C(=O)C1
REMARK SMILES IDX 8 1 9 2 6 3 7 4 5 5 4 6 3 7 2 8 1 9 10 11 11 12 15 13 16 14
REMARK SMILES IDX 17 15 12 17 13 18 14 19
REMARK H PARENT
REMARK Flexibility Score: 70.00
ROOT
ATOM      1  C   UNL     1      53.408  33.089  32.022  1.00  0.00     0.136 C 
ATOM      2  O   UNL     1      54.340  33.091  31.230  1.00  0.00    -0.299 OA
ENDROOT
BRANCH   1   3
ATOM      3  C   UNL     1      52.516  31.873  32.124  1.00  0.00     0.053 C 
ATOM      4  C   UNL     1      53.280  30.669  32.686  1.00  0.00     0.016 C 
BRANCH   3   5
ATOM      5  C   UNL     1      51.921  31.567  30.729  1.00  0.00     0.015 C 
BRANCH   5   6
ATOM      6  C   UNL     1      51.020  32.663  30.124  1.00  0.00     0.028 C 
BRANCH   6   7
ATOM      7  C   UNL     1      49.713  32.950  30.832  1.00  0.00    -0.028 C 
ATOM      8  C   UNL     1      49.225  34.164  31.180  1.00  0.00    -0.070 CG0
ATOM      9  C   UNL     1      47.839  34.215  31.777  1.00  0.00     0.039 C 
ATOM     10  G   UNL     1      50.012  35.460  31.087  1.00  0.00     0.000 G0
ENDBRANCH   6   7
ENDBRANCH   5   6
ENDBRANCH   3   5
ENDBRANCH   1   3
BRANCH   1  11
ATOM     11  C   UNL     1      53.126  34.334  32.832  1.00  0.00     0.087 C 
BRANCH  11  12
ATOM     12  C   UNL     1      52.510  35.478  31.971  1.00  0.00     0.066 C 
BRANCH  12  13
ATOM     13  C   UNL     1      51.013  35.605  32.219  1.00  0.00     0.140 C 
ATOM     14  O   UNL     1      50.614  35.835  33.351  1.00  0.00    -0.299 OA
BRANCH  13  15
ATOM     15  C   UNL     1      49.997  35.491  31.099  1.00  0.00     0.106 CG0
ATOM     16  G   UNL     1      49.248  34.172  31.182  1.00  0.00     0.000 G0
ENDBRANCH  13  15
ENDBRANCH  12  13
BRANCH  12  17
ATOM     17  C   UNL     1      53.215  36.858  32.172  1.00  0.00    -0.006 C 
ATOM     18  C   UNL     1      54.553  36.778  32.931  1.00  0.00     0.008 C 
ATOM     19  C   UNL     1      53.415  37.590  30.834  1.00  0.00     0.008 C 
ENDBRANCH  12  17
ENDBRANCH  11  12
ENDBRANCH   1  11
TORSDOF 1
ENDMDL
MODEL 2
REMARK VINA RESULT:    -4.001      1.937      5.004
REMARK INTER + INTRA:          -6.370
REMARK INTER:                  -6.405
REMARK INTRA:                   0.035
REMARK UNBOUND:                -0.264
REMARK SMILES CC1=CCC[C@@H](C)C(=O)C[C@H](C(C)C)C(=O)C1
REMARK SMILES IDX 8 1 9 2 6 3 7 4 5 5 4 6 3 7 2 8 1 9 10 11 11 12 15 13 16 14
REMARK SMILES IDX 17 15 12 17 13 18 14 19
REMARK H PARENT
REMARK Flexibility Score: 70.00
ROOT
ATOM      1  C   UNL     1      50.130  33.709  31.777  1.00  0.00     0.136 C 
ATOM      2  O   UNL     1      49.758  33.258  30.702  1.00  0.00    -0.299 OA
ENDROOT
BRANCH   1   3
ATOM      3  C   UNL     1      49.429  34.911  32.367  1.00  0.00     0.053 C 
ATOM      4  C   UNL     1      48.177  35.275  31.561  1.00  0.00     0.016 C 
BRANCH   3   5
ATOM      5  C   UNL     1      50.426  36.093  32.432  1.00  0.00     0.015 C 
BRANCH   5   6
ATOM      6  C   UNL     1      51.271  36.334  31.165  1.00  0.00     0.028 C 
BRANCH   6   7
ATOM      7  C   UNL     1      52.675  36.865  31.363  1.00  0.00    -0.028 C 
ATOM      8  C   UNL     1      53.698  36.246  32.000  1.00  0.00    -0.070 CG0
ATOM      9  C   UNL     1      55.048  36.921  31.972  1.00  0.00     0.039 C 
ATOM     10  G   UNL     1      53.554  34.967  32.806  1.00  0.00     0.000 G0
ENDBRANCH   6   7
ENDBRANCH   5   6
ENDBRANCH   3   5
ENDBRANCH   1   3
BRANCH   1  11
ATOM     11  C   UNL     1      51.331  33.093  32.458  1.00  0.00     0.087 C 
BRANCH  11  12
ATOM     12  C   UNL     1      52.528  32.887  31.482  1.00  0.00     0.066 C 
BRANCH  12  13
ATOM     13  C   UNL     1      53.722  33.740  31.891  1.00  0.00     0.140 C 
ATOM     14  O   UNL     1      54.829  33.464  31.453  1.00  0.00    -0.299 OA
BRANCH  13  15
ATOM     15  C   UNL     1      53.579  34.947  32.798  1.00  0.00     0.106 CG0
ATOM     16  G   UNL     1      53.682  36.236  32.001  1.00  0.00     0.000 G0
ENDBRANCH  13  15
ENDBRANCH  12  13
BRANCH  12  17
ATOM     17  C   UNL     1      52.955  31.391  31.326  1.00  0.00    -0.006 C 
ATOM     18  C   UNL     1      53.305  30.695  32.654  1.00  0.00     0.008 C 
ATOM     19  C   UNL     1      51.891  30.577  30.571  1.00  0.00     0.008 C 
ENDBRANCH  12  17
ENDBRANCH  11  12
ENDBRANCH   1  11
TORSDOF 1
ENDMDL
MODEL 3
REMARK VINA RESULT:    -3.988      1.857      3.052
REMARK INTER + INTRA:          -6.350
REMARK INTER:                  -6.351
REMARK INTRA:                   0.001
REMARK UNBOUND:                -0.264
REMARK SMILES CC1=CCC[C@@H](C)C(=O)C[C@H](C(C)C)C(=O)C1
REMARK SMILES IDX 8 1 9 2 6 3 7 4 5 5 4 6 3 7 2 8 1 9 10 11 11 12 15 13 16 14
REMARK SMILES IDX 17 15 12 17 13 18 14 19
REMARK H PARENT
REMARK Flexibility Score: 70.00
ROOT
ATOM      1  C   UNL     1      52.640  31.769  32.024  1.00  0.00     0.136 C 
ATOM      2  O   UNL     1      53.393  30.875  31.663  1.00  0.00    -0.299 OA
ENDROOT
BRANCH   1   3
ATOM      3  C   UNL     1      51.173  31.700  31.670  1.00  0.00     0.053 C 
ATOM      4  C   UNL     1      50.972  31.568  30.156  1.00  0.00     0.016 C 
BRANCH   3   5
ATOM      5  C   UNL     1      50.460  32.954  32.231  1.00  0.00     0.015 C 
BRANCH   5   6
ATOM      6  C   UNL     1      50.153  34.069  31.211  1.00  0.00     0.028 C 
BRANCH   6   7
ATOM      7  C   UNL     1      50.240  35.498  31.703  1.00  0.00    -0.028 C 
ATOM      8  C   UNL     1      51.260  36.367  31.507  1.00  0.00    -0.070 CG0
ATOM      9  C   UNL     1      51.075  37.783  31.993  1.00  0.00     0.039 C 
ATOM     10  G   UNL     1      52.603  35.986  30.908  1.00  0.00     0.000 G0
ENDBRANCH   6   7
ENDBRANCH   5   6
ENDBRANCH   3   5
ENDBRANCH   1   3
BRANCH   1  11
ATOM     11  C   UNL     1      53.211  32.962  32.758  1.00  0.00     0.087 C 
BRANCH  11  12
ATOM     12  C   UNL     1      53.994  33.923  31.813  1.00  0.00     0.066 C 
BRANCH  12  13
ATOM     13  C   UNL     1      53.498  35.356  31.956  1.00  0.00     0.140 C 
ATOM     14  O   UNL     1      53.850  36.014  32.924  1.00  0.00    -0.299 OA
BRANCH  13  15
ATOM     15  C   UNL     1      52.608  36.009  30.916  1.00  0.00     0.106 CG0
ATOM     16  G   UNL     1      51.253  36.358  31.508  1.00  0.00     0.000 G0
ENDBRANCH  13  15
ENDBRANCH  12  13
BRANCH  12  17
ATOM     17  C   UNL     1      55.544  33.861  32.005  1.00  0.00    -0.006 C 
ATOM     18  C   UNL     1      55.991  33.686  33.468  1.00  0.00     0.008 C 
ATOM     19  C   UNL     1      56.178  32.767  31.129  1.00  0.00     0.008 C 
ENDBRANCH  12  17
ENDBRANCH  11  12
ENDBRANCH   1  11
TORSDOF 1
ENDMDL
MODEL 4
REMARK VINA RESULT:    -3.864      2.205      4.250
REMARK INTER + INTRA:          -6.161
REMARK INTER:                  -6.011
REMARK INTRA:                  -0.150
REMARK UNBOUND:                -0.264
REMARK SMILES CC1=CCC[C@@H](C)C(=O)C[C@H](C(C)C)C(=O)C1
REMARK SMILES IDX 8 1 9 2 6 3 7 4 5 5 4 6 3 7 2 8 1 9 10 11 11 12 15 13 16 14
REMARK SMILES IDX 17 15 12 17 13 18 14 19
REMARK H PARENT
REMARK Flexibility Score: 70.00
ROOT
ATOM      1  C   UNL     1      51.165  34.988  30.892  1.00  0.00     0.136 C 
ATOM      2  O   UNL     1      50.581  36.059  30.988  1.00  0.00    -0.299 OA
ENDROOT
BRANCH   1   3
ATOM      3  C   UNL     1      50.394  33.698  31.051  1.00  0.00     0.053 C 
ATOM      4  C   UNL     1      50.034  33.443  32.519  1.00  0.00     0.016 C 
BRANCH   3   5
ATOM      5  C   UNL     1      51.229  32.537  30.459  1.00  0.00     0.015 C 
BRANCH   5   6
ATOM      6  C   UNL     1      51.611  31.411  31.442  1.00  0.00     0.028 C 
BRANCH   6   7
ATOM      7  C   UNL     1      53.019  30.864  31.350  1.00  0.00    -0.028 C 
ATOM      8  C   UNL     1      54.104  31.283  32.046  1.00  0.00    -0.070 CG0
ATOM      9  C   UNL     1      55.387  30.508  31.874  1.00  0.00     0.039 C 
ATOM     10  G   UNL     1      54.131  32.528  32.916  1.00  0.00     0.000 G0
ENDBRANCH   6   7
ENDBRANCH   5   6
ENDBRANCH   3   5
ENDBRANCH   1   3
BRANCH   1  11
ATOM     11  C   UNL     1      52.663  34.983  30.688  1.00  0.00     0.087 C 
BRANCH  11  12
ATOM     12  C   UNL     1      53.448  34.956  32.034  1.00  0.00     0.066 C 
BRANCH  12  13
ATOM     13  C   UNL     1      54.416  33.781  32.080  1.00  0.00     0.140 C 
ATOM     14  O   UNL     1      55.463  33.846  31.452  1.00  0.00    -0.299 OA
BRANCH  13  15
ATOM     15  C   UNL     1      54.144  32.543  32.912  1.00  0.00     0.106 CG0
ATOM     16  G   UNL     1      54.094  31.304  32.035  1.00  0.00     0.000 G0
ENDBRANCH  13  15
ENDBRANCH  12  13
BRANCH  12  17
ATOM     17  C   UNL     1      54.196  36.292  32.346  1.00  0.00    -0.006 C 
ATOM     18  C   UNL     1      53.498  37.549  31.793  1.00  0.00     0.008 C 
ATOM     19  C   UNL     1      54.455  36.456  33.853  1.00  0.00     0.008 C 
ENDBRANCH  12  17
ENDBRANCH  11  12
ENDBRANCH   1  11
TORSDOF 1
ENDMDL
MODEL 5
REMARK VINA RESULT:    -3.819      1.711      4.818
REMARK INTER + INTRA:          -6.093
REMARK INTER:                  -6.495
REMARK INTRA:                   0.402
REMARK UNBOUND:                -0.264
REMARK SMILES CC1=CCC[C@@H](C)C(=O)C[C@H](C(C)C)C(=O)C1
REMARK SMILES IDX 8 1 9 2 6 3 7 4 5 5 4 6 3 7 2 8 1 9 10 11 11 12 15 13 16 14
REMARK SMILES IDX 17 15 12 17 13 18 14 19
REMARK H PARENT
REMARK Flexibility Score: 70.00
ROOT
ATOM      1  C   UNL     1      48.641  33.451  31.369  1.00  0.00     0.136 C 
ATOM      2  O   UNL     1      48.398  32.992  30.261  1.00  0.00    -0.299 OA
ENDROOT
BRANCH   1   3
ATOM      3  C   UNL     1      47.660  34.401  32.016  1.00  0.00     0.053 C 
ATOM      4  C   UNL     1      46.229  34.135  31.536  1.00  0.00     0.016 C 
BRANCH   3   5
ATOM      5  C   UNL     1      48.098  35.856  31.721  1.00  0.00     0.015 C 
BRANCH   5   6
ATOM      6  C   UNL     1      49.251  36.022  30.711  1.00  0.00     0.028 C 
BRANCH   6   7
ATOM      7  C   UNL     1      50.358  36.985  31.081  1.00  0.00    -0.028 C 
ATOM      8  C   UNL     1      51.492  36.699  31.765  1.00  0.00    -0.070 CG0
ATOM      9  C   UNL     1      52.514  37.799  31.916  1.00  0.00     0.039 C 
ATOM     10  G   UNL     1      51.761  35.373  32.457  1.00  0.00     0.000 G0
ENDBRANCH   6   7
ENDBRANCH   5   6
ENDBRANCH   3   5
ENDBRANCH   1   3
BRANCH   1  11
ATOM     11  C   UNL     1      49.956  33.113  32.034  1.00  0.00     0.087 C 
BRANCH  11  12
ATOM     12  C   UNL     1      51.158  33.180  31.045  1.00  0.00     0.066 C 
BRANCH  12  13
ATOM     13  C   UNL     1      52.121  34.297  31.427  1.00  0.00     0.140 C 
ATOM     14  O   UNL     1      53.205  34.366  30.867  1.00  0.00    -0.299 OA
BRANCH  13  15
ATOM     15  C   UNL     1      51.765  35.352  32.456  1.00  0.00     0.106 CG0
ATOM     16  G   UNL     1      51.516  36.694  31.790  1.00  0.00     0.000 G0
ENDBRANCH  13  15
ENDBRANCH  12  13
BRANCH  12  17
ATOM     17  C   UNL     1      51.924  31.825  30.903  1.00  0.00    -0.006 C 
ATOM     18  C   UNL     1      52.599  31.344  32.201  1.00  0.00     0.008 C 
ATOM     19  C   UNL     1      51.014  30.717  30.344  1.00  0.00     0.008 C 
ENDBRANCH  12  17
ENDBRANCH  11  12
ENDBRANCH   1  11
TORSDOF 1
ENDMDL
MODEL 6
REMARK VINA RESULT:    -3.805      2.364      4.102
REMARK INTER + INTRA:          -6.071
REMARK INTER:                  -6.303
REMARK INTRA:                   0.232
REMARK UNBOUND:                -0.264
REMARK SMILES CC1=CCC[C@@H](C)C(=O)C[C@H](C(C)C)C(=O)C1
REMARK SMILES IDX 8 1 9 2 6 3 7 4 5 5 4 6 3 7 2 8 1 9 10 11 11 12 15 13 16 14
REMARK SMILES IDX 17 15 12 17 13 18 14 19
REMARK H PARENT
REMARK Flexibility Score: 70.00
ROOT
ATOM      1  C   UNL     1      50.807  32.980  31.315  1.00  0.00     0.136 C 
ATOM      2  O   UNL     1      50.108  32.851  32.311  1.00  0.00    -0.299 OA
ENDROOT
BRANCH   1   3
ATOM      3  C   UNL     1      51.120  31.774  30.460  1.00  0.00     0.053 C 
ATOM      4  C   UNL     1      50.033  30.701  30.592  1.00  0.00     0.016 C 
BRANCH   3   5
ATOM      5  C   UNL     1      52.512  31.225  30.855  1.00  0.00     0.015 C 
BRANCH   5   6
ATOM      6  C   UNL     1      52.889  31.349  32.345  1.00  0.00     0.028 C 
BRANCH   6   7
ATOM      7  C   UNL     1      54.307  31.769  32.665  1.00  0.00    -0.028 C 
ATOM      8  C   UNL     1      54.862  32.988  32.458  1.00  0.00    -0.070 CG0
ATOM      9  C   UNL     1      56.266  33.211  32.966  1.00  0.00     0.039 C 
ATOM     10  G   UNL     1      54.197  34.108  31.677  1.00  0.00     0.000 G0
ENDBRANCH   6   7
ENDBRANCH   5   6
ENDBRANCH   3   5
ENDBRANCH   1   3
BRANCH   1  11
ATOM     11  C   UNL     1      51.401  34.334  31.002  1.00  0.00     0.087 C 
BRANCH  11  12
ATOM     12  C   UNL     1      51.818  35.113  32.286  1.00  0.00     0.066 C 
BRANCH  12  13
ATOM     13  C   UNL     1      53.304  34.939  32.573  1.00  0.00     0.140 C 
ATOM     14  O   UNL     1      53.781  35.455  33.574  1.00  0.00    -0.299 OA
BRANCH  13  15
ATOM     15  C   UNL     1      54.209  34.116  31.678  1.00  0.00     0.106 CG0
ATOM     16  G   UNL     1      54.879  33.003  32.464  1.00  0.00     0.000 G0
ENDBRANCH  13  15
ENDBRANCH  12  13
BRANCH  12  17
ATOM     17  C   UNL     1      51.445  36.630  32.244  1.00  0.00    -0.006 C 
ATOM     18  C   UNL     1      51.712  37.307  30.887  1.00  0.00     0.008 C 
ATOM     19  C   UNL     1      49.985  36.864  32.669  1.00  0.00     0.008 C 
ENDBRANCH  12  17
ENDBRANCH  11  12
ENDBRANCH   1  11
TORSDOF 1
ENDMDL
MODEL 7
REMARK VINA RESULT:    -3.777      2.364      4.753
REMARK INTER + INTRA:          -6.028
REMARK INTER:                  -5.884
REMARK INTRA:                  -0.144
REMARK UNBOUND:                -0.264
REMARK SMILES CC1=CCC[C@@H](C)C(=O)C[C@H](C(C)C)C(=O)C1
REMARK SMILES IDX 8 1 9 2 6 3 7 4 5 5 4 6 3 7 2 8 1 9 10 11 11 12 15 13 16 14
REMARK SMILES IDX 17 15 12 17 13 18 14 19
REMARK H PARENT
REMARK Flexibility Score: 70.00
ROOT
ATOM      1  C   UNL     1      54.156  32.661  31.950  1.00  0.00     0.136 C 
ATOM      2  O   UNL     1      53.878  31.708  32.666  1.00  0.00    -0.299 OA
ENDROOT
BRANCH   1   3
ATOM      3  C   UNL     1      55.589  33.132  31.858  1.00  0.00     0.053 C 
ATOM      4  C   UNL     1      56.478  32.081  31.185  1.00  0.00     0.016 C 
BRANCH   3   5
ATOM      5  C   UNL     1      56.097  33.481  33.278  1.00  0.00     0.015 C 
BRANCH   5   6
ATOM      6  C   UNL     1      55.708  34.875  33.810  1.00  0.00     0.028 C 
BRANCH   6   7
ATOM      7  C   UNL     1      55.819  36.037  32.847  1.00  0.00    -0.028 C 
ATOM      8  C   UNL     1      54.832  36.893  32.485  1.00  0.00    -0.070 CG0
ATOM      9  C   UNL     1      55.205  38.053  31.595  1.00  0.00     0.039 C 
ATOM     10  G   UNL     1      53.369  36.711  32.848  1.00  0.00     0.000 G0
ENDBRANCH   6   7
ENDBRANCH   5   6
ENDBRANCH   3   5
ENDBRANCH   1   3
BRANCH   1  11
ATOM     11  C   UNL     1      53.046  33.391  31.230  1.00  0.00     0.087 C 
BRANCH  11  12
ATOM     12  C   UNL     1      52.287  34.386  32.159  1.00  0.00     0.066 C 
BRANCH  12  13
ATOM     13  C   UNL     1      52.659  35.828  31.839  1.00  0.00     0.140 C 
ATOM     14  O   UNL     1      52.357  36.293  30.749  1.00  0.00    -0.299 OA
BRANCH  13  15
ATOM     15  C   UNL     1      53.361  36.722  32.842  1.00  0.00     0.106 CG0
ATOM     16  G   UNL     1      54.830  36.878  32.490  1.00  0.00     0.000 G0
ENDBRANCH  13  15
ENDBRANCH  12  13
BRANCH  12  17
ATOM     17  C   UNL     1      50.735  34.204  32.132  1.00  0.00    -0.006 C 
ATOM     18  C   UNL     1      50.152  33.977  30.725  1.00  0.00     0.008 C 
ATOM     19  C   UNL     1      50.281  33.077  33.075  1.00  0.00     0.008 C 
ENDBRANCH  12  17
ENDBRANCH  11  12
ENDBRANCH   1  11
TORSDOF 1
ENDMDL
MODEL 8
REMARK VINA RESULT:    -3.697      2.718      5.223
REMARK INTER + INTRA:          -5.906
REMARK INTER:                  -5.540
REMARK INTRA:                  -0.366
REMARK UNBOUND:                -0.264
REMARK SMILES CC1=CCC[C@@H](C)C(=O)C[C@H](C(C)C)C(=O)C1
REMARK SMILES IDX 8 1 9 2 6 3 7 4 5 5 4 6 3 7 2 8 1 9 10 11 11 12 15 13 16 14
REMARK SMILES IDX 17 15 12 17 13 18 14 19
REMARK H PARENT
REMARK Flexibility Score: 70.00
ROOT
ATOM      1  C   UNL     1      52.688  33.528  32.153  1.00  0.00     0.136 C 
ATOM      2  O   UNL     1      52.348  32.642  31.379  1.00  0.00    -0.299 OA
ENDROOT
BRANCH   1   3
ATOM      3  C   UNL     1      51.936  34.839  32.165  1.00  0.00     0.053 C 
ATOM      4  C   UNL     1      50.434  34.616  32.371  1.00  0.00     0.016 C 
BRANCH   3   5
ATOM      5  C   UNL     1      52.223  35.596  30.846  1.00  0.00     0.015 C 
BRANCH   5   6
ATOM      6  C   UNL     1      53.246  36.746  30.938  1.00  0.00     0.028 C 
BRANCH   6   7
ATOM      7  C   UNL     1      53.617  37.231  32.323  1.00  0.00    -0.028 C 
ATOM      8  C   UNL     1      54.815  37.094  32.940  1.00  0.00    -0.070 CG0
ATOM      9  C   UNL     1      54.991  37.762  34.282  1.00  0.00     0.039 C 
ATOM     10  G   UNL     1      55.957  36.244  32.409  1.00  0.00     0.000 G0
ENDBRANCH   6   7
ENDBRANCH   5   6
ENDBRANCH   3   5
ENDBRANCH   1   3
BRANCH   1  11
ATOM     11  C   UNL     1      53.901  33.315  33.030  1.00  0.00     0.087 C 
BRANCH  11  12
ATOM     12  C   UNL     1      55.230  33.689  32.309  1.00  0.00     0.066 C 
BRANCH  12  13
ATOM     13  C   UNL     1      55.926  34.848  33.009  1.00  0.00     0.140 C 
ATOM     14  O   UNL     1      56.496  34.648  34.072  1.00  0.00    -0.299 OA
BRANCH  13  15
ATOM     15  C   UNL     1      55.968  36.242  32.413  1.00  0.00     0.106 CG0
ATOM     16  G   UNL     1      54.814  37.084  32.928  1.00  0.00     0.000 G0
ENDBRANCH  13  15
ENDBRANCH  12  13
BRANCH  12  17
ATOM     17  C   UNL     1      56.211  32.483  32.145  1.00  0.00    -0.006 C 
ATOM     18  C   UNL     1      55.551  31.203  31.599  1.00  0.00     0.008 C 
ATOM     19  C   UNL     1      57.426  32.857  31.279  1.00  0.00     0.008 C 
ENDBRANCH  12  17
ENDBRANCH  11  12
ENDBRANCH   1  11
TORSDOF 1
ENDMDL
MODEL 9
REMARK VINA RESULT:    -3.625      2.502      4.993
REMARK INTER + INTRA:          -5.796
REMARK INTER:                  -5.702
REMARK INTRA:                  -0.095
REMARK UNBOUND:                -0.264
REMARK SMILES CC1=CCC[C@@H](C)C(=O)C[C@H](C(C)C)C(=O)C1
REMARK SMILES IDX 8 1 9 2 6 3 7 4 5 5 4 6 3 7 2 8 1 9 10 11 11 12 15 13 16 14
REMARK SMILES IDX 17 15 12 17 13 18 14 19
REMARK H PARENT
REMARK Flexibility Score: 70.00
ROOT
ATOM      1  C   UNL     1      49.974  33.261  31.101  1.00  0.00     0.136 C 
ATOM      2  O   UNL     1      50.009  32.128  31.562  1.00  0.00    -0.299 OA
ENDROOT
BRANCH   1   3
ATOM      3  C   UNL     1      51.157  34.182  31.293  1.00  0.00     0.053 C 
ATOM      4  C   UNL     1      52.470  33.486  30.919  1.00  0.00     0.016 C 
BRANCH   3   5
ATOM      5  C   UNL     1      51.175  34.679  32.759  1.00  0.00     0.015 C 
BRANCH   5   6
ATOM      6  C   UNL     1      50.780  36.154  32.977  1.00  0.00     0.028 C 
BRANCH   6   7
ATOM      7  C   UNL     1      50.718  37.039  31.750  1.00  0.00    -0.028 C 
ATOM      8  C   UNL     1      49.609  37.582  31.192  1.00  0.00    -0.070 CG0
ATOM      9  C   UNL     1      49.803  38.532  30.035  1.00  0.00     0.039 C 
ATOM     10  G   UNL     1      48.189  37.230  31.599  1.00  0.00     0.000 G0
ENDBRANCH   6   7
ENDBRANCH   5   6
ENDBRANCH   3   5
ENDBRANCH   1   3
BRANCH   1  11
ATOM     11  C   UNL     1      48.716  33.739  30.412  1.00  0.00     0.087 C 
BRANCH  11  12
ATOM     12  C   UNL     1      47.819  34.606  31.345  1.00  0.00     0.066 C 
BRANCH  12  13
ATOM     13  C   UNL     1      47.683  36.026  30.810  1.00  0.00     0.140 C 
ATOM     14  O   UNL     1      47.124  36.208  29.738  1.00  0.00    -0.299 OA
BRANCH  13  15
ATOM     15  C   UNL     1      48.189  37.230  31.580  1.00  0.00     0.106 CG0
ATOM     16  G   UNL     1      49.616  37.565  31.182  1.00  0.00     0.000 G0
ENDBRANCH  13  15
ENDBRANCH  12  13
BRANCH  12  17
ATOM     17  C   UNL     1      46.408  33.985  31.606  1.00  0.00    -0.006 C 
ATOM     18  C   UNL     1      45.386  34.972  32.199  1.00  0.00     0.008 C 
ATOM     19  C   UNL     1      45.833  33.334  30.336  1.00  0.00     0.008 C 
ENDBRANCH  12  17
ENDBRANCH  11  12
ENDBRANCH   1  11
TORSDOF 1
ENDMDL
