MODEL 1
REMARK VINA RESULT:    -3.328      0.000      0.000
REMARK INTER + INTRA:          -5.418
REMARK INTER:                  -5.079
REMARK INTRA:                  -0.339
REMARK UNBOUND:                -0.339
REMARK SMILES CC1=CCC[C@H](C)C(=O)C[C@H](C(C)C)C(=O)C1
REMARK SMILES IDX 8 1 9 2 6 3 7 4 5 5 4 6 3 7 2 8 1 9 10 11 11 12 15 13 16 14
REMARK SMILES IDX 17 15 12 17 13 18 14 19
REMARK H PARENT
REMARK Flexibility Score: 70.00
ROOT
ATOM      1  C   UNL     1       4.408  20.719   4.368  1.00  0.00     0.136 C 
ATOM      2  O   UNL     1       4.481  19.872   5.248  1.00  0.00    -0.299 OA
ENDROOT
BRANCH   1   3
ATOM      3  C   UNL     1       5.582  20.918   3.436  1.00  0.00     0.053 C 
ATOM      4  C   UNL     1       6.904  20.612   4.150  1.00  0.00     0.016 C 
BRANCH   3   5
ATOM      5  C   UNL     1       5.395  20.027   2.178  1.00  0.00     0.015 C 
BRANCH   5   6
ATOM      6  C   UNL     1       4.463  20.613   1.105  1.00  0.00     0.028 C 
BRANCH   6   7
ATOM      7  C   UNL     1       4.782  22.022   0.653  1.00  0.00    -0.028 C 
ATOM      8  C   UNL     1       4.036  23.131   0.872  1.00  0.00    -0.070 CG0
ATOM      9  C   UNL     1       4.469  24.406   0.192  1.00  0.00     0.039 C 
ATOM     10  G   UNL     1       2.777  23.147   1.723  1.00  0.00     0.000 G0
ENDBRANCH   6   7
ENDBRANCH   5   6
ENDBRANCH   3   5
ENDBRANCH   1   3
BRANCH   1  11
ATOM     11  C   UNL     1       3.144  21.539   4.245  1.00  0.00     0.087 C 
BRANCH  11  12
ATOM     12  C   UNL     1       3.346  23.079   4.367  1.00  0.00     0.066 C 
BRANCH  12  13
ATOM     13  C   UNL     1       2.943  23.830   3.096  1.00  0.00     0.140 C 
ATOM     14  O   UNL     1       2.753  25.036   3.167  1.00  0.00    -0.299 OA
BRANCH  13  15
ATOM     15  C   UNL     1       2.785  23.172   1.732  1.00  0.00     0.106 CG0
ATOM     16  G   UNL     1       4.043  23.130   0.881  1.00  0.00     0.000 G0
ENDBRANCH  13  15
ENDBRANCH  12  13
BRANCH  12  17
ATOM     17  C   UNL     1       2.628  23.630   5.643  1.00  0.00    -0.006 C 
ATOM     18  C   UNL     1       3.500  24.555   6.515  1.00  0.00     0.008 C 
ATOM     19  C   UNL     1       2.064  22.497   6.509  1.00  0.00     0.008 C 
ENDBRANCH  12  17
ENDBRANCH  11  12
ENDBRANCH   1  11
TORSDOF 1
ENDMDL
MODEL 2
REMARK VINA RESULT:    -3.321      2.109      3.395
REMARK INTER + INTRA:          -5.408
REMARK INTER:                  -5.426
REMARK INTRA:                   0.019
REMARK UNBOUND:                -0.339
REMARK SMILES CC1=CCC[C@H](C)C(=O)C[C@H](C(C)C)C(=O)C1
REMARK SMILES IDX 8 1 9 2 6 3 7 4 5 5 4 6 3 7 2 8 1 9 10 11 11 12 15 13 16 14
REMARK SMILES IDX 17 15 12 17 13 18 14 19
REMARK H PARENT
REMARK Flexibility Score: 70.00
ROOT
ATOM      1  C   UNL     1       4.552  20.990   3.539  1.00  0.00     0.136 C 
ATOM      2  O   UNL     1       5.691  20.554   3.637  1.00  0.00    -0.299 OA
ENDROOT
BRANCH   1   3
ATOM      3  C   UNL     1       4.135  21.687   2.265  1.00  0.00     0.053 C 
ATOM      4  C   UNL     1       4.807  21.044   1.046  1.00  0.00     0.016 C 
BRANCH   3   5
ATOM      5  C   UNL     1       2.587  21.653   2.144  1.00  0.00     0.015 C 
BRANCH   5   6
ATOM      6  C   UNL     1       1.888  22.995   2.418  1.00  0.00     0.028 C 
BRANCH   6   7
ATOM      7  C   UNL     1       2.783  24.118   2.897  1.00  0.00    -0.028 C 
ATOM      8  C   UNL     1       3.077  24.426   4.184  1.00  0.00    -0.070 CG0
ATOM      9  C   UNL     1       3.867  25.686   4.433  1.00  0.00     0.039 C 
ATOM     10  G   UNL     1       2.621  23.599   5.375  1.00  0.00     0.000 G0
ENDBRANCH   6   7
ENDBRANCH   5   6
ENDBRANCH   3   5
ENDBRANCH   1   3
BRANCH   1  11
ATOM     11  C   UNL     1       3.600  20.816   4.701  1.00  0.00     0.087 C 
BRANCH  11  12
ATOM     12  C   UNL     1       4.082  21.441   6.044  1.00  0.00     0.066 C 
BRANCH  12  13
ATOM     13  C   UNL     1       3.722  22.923   6.168  1.00  0.00     0.140 C 
ATOM     14  O   UNL     1       4.370  23.619   6.938  1.00  0.00    -0.299 OA
BRANCH  13  15
ATOM     15  C   UNL     1       2.615  23.600   5.371  1.00  0.00     0.106 CG0
ATOM     16  G   UNL     1       3.081  24.436   4.190  1.00  0.00     0.000 G0
ENDBRANCH  13  15
ENDBRANCH  12  13
BRANCH  12  17
ATOM     17  C   UNL     1       3.576  20.598   7.259  1.00  0.00    -0.006 C 
ATOM     18  C   UNL     1       3.565  19.075   7.018  1.00  0.00     0.008 C 
ATOM     19  C   UNL     1       2.184  21.049   7.720  1.00  0.00     0.008 C 
ENDBRANCH  12  17
ENDBRANCH  11  12
ENDBRANCH   1  11
TORSDOF 1
ENDMDL
MODEL 3
REMARK VINA RESULT:    -3.176      1.908      4.356
REMARK INTER + INTRA:          -5.187
REMARK INTER:                  -5.027
REMARK INTRA:                  -0.160
REMARK UNBOUND:                -0.339
REMARK SMILES CC1=CCC[C@H](C)C(=O)C[C@H](C(C)C)C(=O)C1
REMARK SMILES IDX 8 1 9 2 6 3 7 4 5 5 4 6 3 7 2 8 1 9 10 11 11 12 15 13 16 14
REMARK SMILES IDX 17 15 12 17 13 18 14 19
REMARK H PARENT
REMARK Flexibility Score: 70.00
ROOT
ATOM      1  C   UNL     1       3.450  24.296   6.508  1.00  0.00     0.136 C 
ATOM      2  O   UNL     1       4.076  25.343   6.414  1.00  0.00    -0.299 OA
ENDROOT
BRANCH   1   3
ATOM      3  C   UNL     1       1.940  24.329   6.449  1.00  0.00     0.053 C 
ATOM      4  C   UNL     1       1.378  25.360   7.436  1.00  0.00     0.016 C 
BRANCH   3   5
ATOM      5  C   UNL     1       1.489  24.632   4.994  1.00  0.00     0.015 C 
BRANCH   5   6
ATOM      6  C   UNL     1       1.264  23.390   4.117  1.00  0.00     0.028 C 
BRANCH   6   7
ATOM      7  C   UNL     1       2.158  23.270   2.901  1.00  0.00    -0.028 C 
ATOM      8  C   UNL     1       3.063  22.293   2.655  1.00  0.00    -0.070 CG0
ATOM      9  C   UNL     1       3.958  22.461   1.452  1.00  0.00     0.039 C 
ATOM     10  G   UNL     1       3.250  21.072   3.541  1.00  0.00     0.000 G0
ENDBRANCH   6   7
ENDBRANCH   5   6
ENDBRANCH   3   5
ENDBRANCH   1   3
BRANCH   1  11
ATOM     11  C   UNL     1       4.212  23.002   6.682  1.00  0.00     0.087 C 
BRANCH  11  12
ATOM     12  C   UNL     1       3.493  21.737   6.127  1.00  0.00     0.066 C 
BRANCH  12  13
ATOM     13  C   UNL     1       4.078  21.260   4.796  1.00  0.00     0.140 C 
ATOM     14  O   UNL     1       5.275  21.013   4.740  1.00  0.00    -0.299 OA
BRANCH  13  15
ATOM     15  C   UNL     1       3.257  21.049   3.531  1.00  0.00     0.106 CG0
ATOM     16  G   UNL     1       3.054  22.286   2.673  1.00  0.00     0.000 G0
ENDBRANCH  13  15
ENDBRANCH  12  13
BRANCH  12  17
ATOM     17  C   UNL     1       3.457  20.604   7.205  1.00  0.00    -0.006 C 
ATOM     18  C   UNL     1       3.514  19.175   6.630  1.00  0.00     0.008 C 
ATOM     19  C   UNL     1       2.233  20.734   8.121  1.00  0.00     0.008 C 
ENDBRANCH  12  17
ENDBRANCH  11  12
ENDBRANCH   1  11
TORSDOF 1
ENDMDL
MODEL 4
REMARK VINA RESULT:    -3.148      2.426      5.041
REMARK INTER + INTRA:          -5.143
REMARK INTER:                  -5.369
REMARK INTRA:                   0.226
REMARK UNBOUND:                -0.339
REMARK SMILES CC1=CCC[C@H](C)C(=O)C[C@H](C(C)C)C(=O)C1
REMARK SMILES IDX 8 1 9 2 6 3 7 4 5 5 4 6 3 7 2 8 1 9 10 11 11 12 15 13 16 14
REMARK SMILES IDX 17 15 12 17 13 18 14 19
REMARK H PARENT
REMARK Flexibility Score: 70.00
ROOT
ATOM      1  C   UNL     1       3.707  18.971   6.255  1.00  0.00     0.136 C 
ATOM      2  O   UNL     1       4.228  18.118   6.961  1.00  0.00    -0.299 OA
ENDROOT
BRANCH   1   3
ATOM      3  C   UNL     1       2.233  18.865   5.935  1.00  0.00     0.053 C 
ATOM      4  C   UNL     1       1.789  17.398   5.887  1.00  0.00     0.016 C 
BRANCH   3   5
ATOM      5  C   UNL     1       1.420  19.670   6.985  1.00  0.00     0.015 C 
BRANCH   5   6
ATOM      6  C   UNL     1       2.165  20.869   7.596  1.00  0.00     0.028 C 
BRANCH   6   7
ATOM      7  C   UNL     1       1.595  22.233   7.274  1.00  0.00    -0.028 C 
ATOM      8  C   UNL     1       2.143  23.167   6.459  1.00  0.00    -0.070 CG0
ATOM      9  C   UNL     1       1.479  24.520   6.409  1.00  0.00     0.039 C 
ATOM     10  G   UNL     1       3.400  22.938   5.636  1.00  0.00     0.000 G0
ENDBRANCH   6   7
ENDBRANCH   5   6
ENDBRANCH   3   5
ENDBRANCH   1   3
BRANCH   1  11
ATOM     11  C   UNL     1       4.558  20.103   5.728  1.00  0.00     0.087 C 
BRANCH  11  12
ATOM     12  C   UNL     1       4.106  20.678   4.352  1.00  0.00     0.066 C 
BRANCH  12  13
ATOM     13  C   UNL     1       3.254  21.942   4.491  1.00  0.00     0.140 C 
ATOM     14  O   UNL     1       2.389  22.157   3.654  1.00  0.00    -0.299 OA
BRANCH  13  15
ATOM     15  C   UNL     1       3.398  22.945   5.628  1.00  0.00     0.106 CG0
ATOM     16  G   UNL     1       2.144  23.178   6.453  1.00  0.00     0.000 G0
ENDBRANCH  13  15
ENDBRANCH  12  13
BRANCH  12  17
ATOM     17  C   UNL     1       5.336  20.886   3.409  1.00  0.00    -0.006 C 
ATOM     18  C   UNL     1       5.133  20.365   1.972  1.00  0.00     0.008 C 
ATOM     19  C   UNL     1       6.611  20.266   3.997  1.00  0.00     0.008 C 
ENDBRANCH  12  17
ENDBRANCH  11  12
ENDBRANCH   1  11
TORSDOF 1
ENDMDL
MODEL 5
REMARK VINA RESULT:    -3.125      1.798      4.207
REMARK INTER + INTRA:          -5.109
REMARK INTER:                  -5.186
REMARK INTRA:                   0.078
REMARK UNBOUND:                -0.339
REMARK SMILES CC1=CCC[C@H](C)C(=O)C[C@H](C(C)C)C(=O)C1
REMARK SMILES IDX 8 1 9 2 6 3 7 4 5 5 4 6 3 7 2 8 1 9 10 11 11 12 15 13 16 14
REMARK SMILES IDX 17 15 12 17 13 18 14 19
REMARK H PARENT
REMARK Flexibility Score: 70.00
ROOT
ATOM      1  C   UNL     1       3.836  20.739   5.621  1.00  0.00     0.136 C 
ATOM      2  O   UNL     1       3.288  19.666   5.405  1.00  0.00    -0.299 OA
ENDROOT
BRANCH   1   3
ATOM      3  C   UNL     1       3.672  21.392   6.975  1.00  0.00     0.053 C 
ATOM      4  C   UNL     1       4.618  22.590   7.120  1.00  0.00     0.016 C 
BRANCH   3   5
ATOM      5  C   UNL     1       2.189  21.813   7.166  1.00  0.00     0.015 C 
BRANCH   5   6
ATOM      6  C   UNL     1       1.446  22.165   5.866  1.00  0.00     0.028 C 
BRANCH   6   7
ATOM      7  C   UNL     1       1.770  23.517   5.268  1.00  0.00    -0.028 C 
ATOM      8  C   UNL     1       2.096  23.775   3.979  1.00  0.00    -0.070 CG0
ATOM      9  C   UNL     1       2.535  25.178   3.640  1.00  0.00     0.039 C 
ATOM     10  G   UNL     1       2.084  22.726   2.879  1.00  0.00     0.000 G0
ENDBRANCH   6   7
ENDBRANCH   5   6
ENDBRANCH   3   5
ENDBRANCH   1   3
BRANCH   1  11
ATOM     11  C   UNL     1       4.658  21.374   4.524  1.00  0.00     0.087 C 
BRANCH  11  12
ATOM     12  C   UNL     1       4.189  21.042   3.076  1.00  0.00     0.066 C 
BRANCH  12  13
ATOM     13  C   UNL     1       3.448  22.205   2.413  1.00  0.00     0.140 C 
ATOM     14  O   UNL     1       3.961  22.749   1.446  1.00  0.00    -0.299 OA
BRANCH  13  15
ATOM     15  C   UNL     1       2.088  22.718   2.869  1.00  0.00     0.106 CG0
ATOM     16  G   UNL     1       2.124  23.765   3.970  1.00  0.00     0.000 G0
ENDBRANCH  13  15
ENDBRANCH  12  13
BRANCH  12  17
ATOM     17  C   UNL     1       5.387  20.525   2.212  1.00  0.00    -0.006 C 
ATOM     18  C   UNL     1       4.975  19.656   1.008  1.00  0.00     0.008 C 
ATOM     19  C   UNL     1       6.410  19.761   3.063  1.00  0.00     0.008 C 
ENDBRANCH  12  17
ENDBRANCH  11  12
ENDBRANCH   1  11
TORSDOF 1
ENDMDL
MODEL 6
REMARK VINA RESULT:    -3.105      1.968      4.491
REMARK INTER + INTRA:          -5.078
REMARK INTER:                  -4.670
REMARK INTRA:                  -0.409
REMARK UNBOUND:                -0.339
REMARK SMILES CC1=CCC[C@H](C)C(=O)C[C@H](C(C)C)C(=O)C1
REMARK SMILES IDX 8 1 9 2 6 3 7 4 5 5 4 6 3 7 2 8 1 9 10 11 11 12 15 13 16 14
REMARK SMILES IDX 17 15 12 17 13 18 14 19
REMARK H PARENT
REMARK Flexibility Score: 70.00
ROOT
ATOM      1  C   UNL     1       3.399  24.934   5.012  1.00  0.00     0.136 C 
ATOM      2  O   UNL     1       4.137  25.887   4.803  1.00  0.00    -0.299 OA
ENDROOT
BRANCH   1   3
ATOM      3  C   UNL     1       3.267  24.396   6.419  1.00  0.00     0.053 C 
ATOM      4  C   UNL     1       1.866  23.820   6.654  1.00  0.00     0.016 C 
BRANCH   3   5
ATOM      5  C   UNL     1       4.369  23.330   6.667  1.00  0.00     0.015 C 
BRANCH   5   6
ATOM      6  C   UNL     1       4.014  21.913   6.186  1.00  0.00     0.028 C 
BRANCH   6   7
ATOM      7  C   UNL     1       4.958  21.307   5.169  1.00  0.00    -0.028 C 
ATOM      8  C   UNL     1       4.681  21.035   3.871  1.00  0.00    -0.070 CG0
ATOM      9  C   UNL     1       5.725  20.284   3.081  1.00  0.00     0.039 C 
ATOM     10  G   UNL     1       3.374  21.404   3.189  1.00  0.00     0.000 G0
ENDBRANCH   6   7
ENDBRANCH   5   6
ENDBRANCH   3   5
ENDBRANCH   1   3
BRANCH   1  11
ATOM     11  C   UNL     1       2.644  24.325   3.853  1.00  0.00     0.087 C 
BRANCH  11  12
ATOM     12  C   UNL     1       3.504  24.042   2.586  1.00  0.00     0.066 C 
BRANCH  12  13
ATOM     13  C   UNL     1       3.492  22.566   2.182  1.00  0.00     0.140 C 
ATOM     14  O   UNL     1       3.597  22.284   0.996  1.00  0.00    -0.299 OA
BRANCH  13  15
ATOM     15  C   UNL     1       3.381  21.413   3.171  1.00  0.00     0.106 CG0
ATOM     16  G   UNL     1       4.675  21.026   3.867  1.00  0.00     0.000 G0
ENDBRANCH  13  15
ENDBRANCH  12  13
BRANCH  12  17
ATOM     17  C   UNL     1       3.088  24.988   1.412  1.00  0.00    -0.006 C 
ATOM     18  C   UNL     1       4.059  26.158   1.161  1.00  0.00     0.008 C 
ATOM     19  C   UNL     1       1.669  25.538   1.605  1.00  0.00     0.008 C 
ENDBRANCH  12  17
ENDBRANCH  11  12
ENDBRANCH   1  11
TORSDOF 1
ENDMDL
MODEL 7
REMARK VINA RESULT:    -3.046      1.986      4.314
REMARK INTER + INTRA:          -4.988
REMARK INTER:                  -4.524
REMARK INTRA:                  -0.464
REMARK UNBOUND:                -0.339
REMARK SMILES CC1=CCC[C@H](C)C(=O)C[C@H](C(C)C)C(=O)C1
REMARK SMILES IDX 8 1 9 2 6 3 7 4 5 5 4 6 3 7 2 8 1 9 10 11 11 12 15 13 16 14
REMARK SMILES IDX 17 15 12 17 13 18 14 19
REMARK H PARENT
REMARK Flexibility Score: 70.00
ROOT
ATOM      1  C   UNL     1       3.330  25.218   4.518  1.00  0.00     0.136 C 
ATOM      2  O   UNL     1       4.019  26.177   4.196  1.00  0.00    -0.299 OA
ENDROOT
BRANCH   1   3
ATOM      3  C   UNL     1       2.342  24.651   3.524  1.00  0.00     0.053 C 
ATOM      4  C   UNL     1       1.491  25.765   2.904  1.00  0.00     0.016 C 
BRANCH   3   5
ATOM      5  C   UNL     1       3.110  23.850   2.437  1.00  0.00     0.015 C 
BRANCH   5   6
ATOM      6  C   UNL     1       2.969  22.322   2.542  1.00  0.00     0.028 C 
BRANCH   6   7
ATOM      7  C   UNL     1       4.250  21.558   2.795  1.00  0.00    -0.028 C 
ATOM      8  C   UNL     1       4.628  20.976   3.959  1.00  0.00    -0.070 CG0
ATOM      9  C   UNL     1       6.022  20.402   4.027  1.00  0.00     0.039 C 
ATOM     10  G   UNL     1       3.748  20.909   5.196  1.00  0.00     0.000 G0
ENDBRANCH   6   7
ENDBRANCH   5   6
ENDBRANCH   3   5
ENDBRANCH   1   3
BRANCH   1  11
ATOM     11  C   UNL     1       3.492  24.635   5.903  1.00  0.00     0.087 C 
BRANCH  11  12
ATOM     12  C   UNL     1       2.805  23.254   6.118  1.00  0.00     0.066 C 
BRANCH  12  13
ATOM     13  C   UNL     1       3.803  22.094   6.138  1.00  0.00     0.140 C 
ATOM     14  O   UNL     1       4.698  22.109   6.971  1.00  0.00    -0.299 OA
BRANCH  13  15
ATOM     15  C   UNL     1       3.740  20.899   5.196  1.00  0.00     0.106 CG0
ATOM     16  G   UNL     1       4.631  20.991   3.969  1.00  0.00     0.000 G0
ENDBRANCH  13  15
ENDBRANCH  12  13
BRANCH  12  17
ATOM     17  C   UNL     1       1.893  23.282   7.388  1.00  0.00    -0.006 C 
ATOM     18  C   UNL     1       1.125  21.971   7.651  1.00  0.00     0.008 C 
ATOM     19  C   UNL     1       0.900  24.451   7.346  1.00  0.00     0.008 C 
ENDBRANCH  12  17
ENDBRANCH  11  12
ENDBRANCH   1  11
TORSDOF 1
ENDMDL
MODEL 8
REMARK VINA RESULT:    -3.002      2.194      4.461
REMARK INTER + INTRA:          -4.920
REMARK INTER:                  -4.437
REMARK INTRA:                  -0.483
REMARK UNBOUND:                -0.339
REMARK SMILES CC1=CCC[C@H](C)C(=O)C[C@H](C(C)C)C(=O)C1
REMARK SMILES IDX 8 1 9 2 6 3 7 4 5 5 4 6 3 7 2 8 1 9 10 11 11 12 15 13 16 14
REMARK SMILES IDX 17 15 12 17 13 18 14 19
REMARK H PARENT
REMARK Flexibility Score: 70.00
ROOT
ATOM      1  C   UNL     1       4.563  20.559   4.956  1.00  0.00     0.136 C 
ATOM      2  O   UNL     1       5.678  20.056   4.956  1.00  0.00    -0.299 OA
ENDROOT
BRANCH   1   3
ATOM      3  C   UNL     1       3.585  20.191   6.048  1.00  0.00     0.053 C 
ATOM      4  C   UNL     1       3.875  18.785   6.588  1.00  0.00     0.016 C 
BRANCH   3   5
ATOM      5  C   UNL     1       3.648  21.257   7.175  1.00  0.00     0.015 C 
BRANCH   5   6
ATOM      6  C   UNL     1       2.386  22.125   7.313  1.00  0.00     0.028 C 
BRANCH   6   7
ATOM      7  C   UNL     1       2.557  23.592   6.983  1.00  0.00    -0.028 C 
ATOM      8  C   UNL     1       2.146  24.221   5.855  1.00  0.00    -0.070 CG0
ATOM      9  C   UNL     1       2.563  25.659   5.669  1.00  0.00     0.039 C 
ATOM     10  G   UNL     1       1.332  23.549   4.761  1.00  0.00     0.000 G0
ENDBRANCH   6   7
ENDBRANCH   5   6
ENDBRANCH   3   5
ENDBRANCH   1   3
BRANCH   1  11
ATOM     11  C   UNL     1       4.202  21.535   3.859  1.00  0.00     0.087 C 
BRANCH  11  12
ATOM     12  C   UNL     1       2.686  21.598   3.508  1.00  0.00     0.066 C 
BRANCH  12  13
ATOM     13  C   UNL     1       2.122  23.018   3.577  1.00  0.00     0.140 C 
ATOM     14  O   UNL     1       2.306  23.766   2.627  1.00  0.00    -0.299 OA
BRANCH  13  15
ATOM     15  C   UNL     1       1.318  23.560   4.752  1.00  0.00     0.106 CG0
ATOM     16  G   UNL     1       2.136  24.210   5.855  1.00  0.00     0.000 G0
ENDBRANCH  13  15
ENDBRANCH  12  13
BRANCH  12  17
ATOM     17  C   UNL     1       2.408  20.908   2.132  1.00  0.00    -0.006 C 
ATOM     18  C   UNL     1       1.475  19.683   2.210  1.00  0.00     0.008 C 
ATOM     19  C   UNL     1       3.710  20.510   1.425  1.00  0.00     0.008 C 
ENDBRANCH  12  17
ENDBRANCH  11  12
ENDBRANCH   1  11
TORSDOF 1
ENDMDL
MODEL 9
REMARK VINA RESULT:    -2.922      2.015      4.991
REMARK INTER + INTRA:          -4.798
REMARK INTER:                  -4.768
REMARK INTRA:                  -0.030
REMARK UNBOUND:                -0.339
REMARK SMILES CC1=CCC[C@H](C)C(=O)C[C@H](C(C)C)C(=O)C1
REMARK SMILES IDX 8 1 9 2 6 3 7 4 5 5 4 6 3 7 2 8 1 9 10 11 11 12 15 13 16 14
REMARK SMILES IDX 17 15 12 17 13 18 14 19
REMARK H PARENT
REMARK Flexibility Score: 70.00
ROOT
ATOM      1  C   UNL     1       2.246  23.932   4.012  1.00  0.00     0.136 C 
ATOM      2  O   UNL     1       1.136  23.964   4.527  1.00  0.00    -0.299 OA
ENDROOT
BRANCH   1   3
ATOM      3  C   UNL     1       3.440  24.424   4.798  1.00  0.00     0.053 C 
ATOM      4  C   UNL     1       3.636  25.933   4.604  1.00  0.00     0.016 C 
BRANCH   3   5
ATOM      5  C   UNL     1       3.252  24.064   6.297  1.00  0.00     0.015 C 
BRANCH   5   6
ATOM      6  C   UNL     1       3.654  22.627   6.670  1.00  0.00     0.028 C 
BRANCH   6   7
ATOM      7  C   UNL     1       4.798  22.036   5.876  1.00  0.00    -0.028 C 
ATOM      8  C   UNL     1       4.714  21.058   4.941  1.00  0.00    -0.070 CG0
ATOM      9  C   UNL     1       6.007  20.512   4.389  1.00  0.00     0.039 C 
ATOM     10  G   UNL     1       3.402  20.461   4.459  1.00  0.00     0.000 G0
ENDBRANCH   6   7
ENDBRANCH   5   6
ENDBRANCH   3   5
ENDBRANCH   1   3
BRANCH   1  11
ATOM     11  C   UNL     1       2.383  23.399   2.604  1.00  0.00     0.087 C 
BRANCH  11  12
ATOM     12  C   UNL     1       3.422  22.252   2.435  1.00  0.00     0.066 C 
BRANCH  12  13
ATOM     13  C   UNL     1       2.961  20.938   3.071  1.00  0.00     0.140 C 
ATOM     14  O   UNL     1       2.206  20.216   2.436  1.00  0.00    -0.299 OA
BRANCH  13  15
ATOM     15  C   UNL     1       3.404  20.456   4.446  1.00  0.00     0.106 CG0
ATOM     16  G   UNL     1       4.711  21.044   4.951  1.00  0.00     0.000 G0
ENDBRANCH  13  15
ENDBRANCH  12  13
BRANCH  12  17
ATOM     17  C   UNL     1       3.818  22.082   0.931  1.00  0.00    -0.006 C 
ATOM     18  C   UNL     1       4.785  20.913   0.655  1.00  0.00     0.008 C 
ATOM     19  C   UNL     1       4.407  23.376   0.353  1.00  0.00     0.008 C 
ENDBRANCH  12  17
ENDBRANCH  11  12
ENDBRANCH   1  11
TORSDOF 1
ENDMDL
