MODEL 1
REMARK VINA RESULT:    -7.279      0.000      0.000
REMARK INTER + INTRA:          -7.958
REMARK INTER:                  -7.705
REMARK INTRA:                  -0.253
REMARK UNBOUND:                -0.253
REMARK SMILES O=c1cc(-c2ccccc2)oc2ccccc12
REMARK SMILES IDX 4 1 3 2 2 3 1 4 17 5 16 6 15 7 14 8 13 9 12 10 11 11 5 12
REMARK SMILES IDX 8 13 7 14 9 15 6 16 10 17
REMARK H PARENT
REMARK Flexibility Score: inf
ROOT
ATOM      1  C   UNL     1     -25.693  12.328  61.153  1.00  0.00     0.138 A 
ATOM      2  C   UNL     1     -25.707  11.456  60.045  1.00  0.00     0.100 A 
ATOM      3  C   UNL     1     -26.267  11.882  58.839  1.00  0.00     0.193 A 
ATOM      4  O   UNL     1     -26.278  11.101  57.848  1.00  0.00    -0.289 OA
ATOM      5  C   UNL     1     -26.809  13.171  58.747  1.00  0.00     0.065 A 
ATOM      6  C   UNL     1     -27.388  13.663  57.562  1.00  0.00     0.016 A 
ATOM      7  C   UNL     1     -27.915  14.957  57.526  1.00  0.00     0.001 A 
ATOM      8  C   UNL     1     -27.868  15.768  58.663  1.00  0.00     0.004 A 
ATOM      9  C   UNL     1     -27.294  15.289  59.844  1.00  0.00     0.048 A 
ATOM     10  C   UNL     1     -26.764  13.994  59.893  1.00  0.00     0.138 A 
ATOM     11  O   UNL     1     -26.221  13.547  61.020  1.00  0.00    -0.456 OA
ENDROOT
BRANCH   1  12
ATOM     12  C   UNL     1     -25.114  11.953  62.479  1.00  0.00     0.017 A 
ATOM     13  C   UNL     1     -23.992  11.335  64.995  1.00  0.00     0.000 A 
ATOM     14  C   UNL     1     -23.911  12.633  64.494  1.00  0.00     0.001 A 
ATOM     15  C   UNL     1     -24.628  10.341  64.250  1.00  0.00     0.001 A 
ATOM     16  C   UNL     1     -24.466  12.942  63.248  1.00  0.00     0.012 A 
ATOM     17  C   UNL     1     -25.186  10.642  63.004  1.00  0.00     0.012 A 
ENDBRANCH   1  12
TORSDOF 1
ENDMDL
MODEL 2
REMARK VINA RESULT:    -7.270      7.074     10.447
REMARK INTER + INTRA:          -7.948
REMARK INTER:                  -7.718
REMARK INTRA:                  -0.230
REMARK UNBOUND:                -0.253
REMARK SMILES O=c1cc(-c2ccccc2)oc2ccccc12
REMARK SMILES IDX 4 1 3 2 2 3 1 4 17 5 16 6 15 7 14 8 13 9 12 10 11 11 5 12
REMARK SMILES IDX 8 13 7 14 9 15 6 16 10 17
REMARK H PARENT
REMARK Flexibility Score: inf
ROOT
ATOM      1  C   UNL     1     -31.620  12.982  54.111  1.00  0.00     0.138 A 
ATOM      2  C   UNL     1     -30.439  13.221  54.844  1.00  0.00     0.100 A 
ATOM      3  C   UNL     1     -29.783  12.154  55.461  1.00  0.00     0.193 A 
ATOM      4  O   UNL     1     -28.727  12.367  56.116  1.00  0.00    -0.289 OA
ATOM      5  C   UNL     1     -30.308  10.859  55.343  1.00  0.00     0.065 A 
ATOM      6  C   UNL     1     -29.697   9.740  55.938  1.00  0.00     0.016 A 
ATOM      7  C   UNL     1     -30.264   8.471  55.789  1.00  0.00     0.001 A 
ATOM      8  C   UNL     1     -31.438   8.308  55.047  1.00  0.00     0.004 A 
ATOM      9  C   UNL     1     -32.051   9.413  54.451  1.00  0.00     0.048 A 
ATOM     10  C   UNL     1     -31.493  10.689  54.595  1.00  0.00     0.138 A 
ATOM     11  O   UNL     1     -32.084  11.734  54.025  1.00  0.00    -0.456 OA
ENDROOT
BRANCH   1  12
ATOM     12  C   UNL     1     -32.384  14.066  53.420  1.00  0.00     0.017 A 
ATOM     13  C   UNL     1     -33.751  16.127  52.058  1.00  0.00     0.000 A 
ATOM     14  C   UNL     1     -32.459  15.774  51.674  1.00  0.00     0.001 A 
ATOM     15  C   UNL     1     -34.368  15.460  53.118  1.00  0.00     0.001 A 
ATOM     16  C   UNL     1     -31.780  14.754  52.347  1.00  0.00     0.012 A 
ATOM     17  C   UNL     1     -33.695  14.439  53.796  1.00  0.00     0.012 A 
ENDBRANCH   1  12
TORSDOF 1
ENDMDL
MODEL 3
REMARK VINA RESULT:    -7.223      7.032     10.495
REMARK INTER + INTRA:          -7.899
REMARK INTER:                  -7.638
REMARK INTRA:                  -0.261
REMARK UNBOUND:                -0.253
REMARK SMILES O=c1cc(-c2ccccc2)oc2ccccc12
REMARK SMILES IDX 4 1 3 2 2 3 1 4 17 5 16 6 15 7 14 8 13 9 12 10 11 11 5 12
REMARK SMILES IDX 8 13 7 14 9 15 6 16 10 17
REMARK H PARENT
REMARK Flexibility Score: inf
ROOT
ATOM      1  C   UNL     1     -32.321  12.937  54.184  1.00  0.00     0.138 A 
ATOM      2  C   UNL     1     -33.207  12.069  54.857  1.00  0.00     0.100 A 
ATOM      3  C   UNL     1     -32.696  11.003  55.599  1.00  0.00     0.193 A 
ATOM      4  O   UNL     1     -33.488  10.228  56.202  1.00  0.00    -0.289 OA
ATOM      5  C   UNL     1     -31.309  10.809  55.665  1.00  0.00     0.065 A 
ATOM      6  C   UNL     1     -30.729   9.755  56.395  1.00  0.00     0.016 A 
ATOM      7  C   UNL     1     -29.339   9.608  56.426  1.00  0.00     0.001 A 
ATOM      8  C   UNL     1     -28.521  10.505  55.734  1.00  0.00     0.004 A 
ATOM      9  C   UNL     1     -29.088  11.555  55.007  1.00  0.00     0.048 A 
ATOM     10  C   UNL     1     -30.479  11.713  54.968  1.00  0.00     0.138 A 
ATOM     11  O   UNL     1     -31.009  12.714  54.273  1.00  0.00    -0.456 OA
ENDROOT
BRANCH   1  12
ATOM     12  C   UNL     1     -32.783  14.101  53.368  1.00  0.00     0.017 A 
ATOM     13  C   UNL     1     -33.572  16.298  51.780  1.00  0.00     0.000 A 
ATOM     14  C   UNL     1     -32.319  15.717  51.594  1.00  0.00     0.001 A 
ATOM     15  C   UNL     1     -34.436  15.792  52.752  1.00  0.00     0.001 A 
ATOM     16  C   UNL     1     -31.926  14.629  52.380  1.00  0.00     0.012 A 
ATOM     17  C   UNL     1     -34.050  14.704  53.541  1.00  0.00     0.012 A 
ENDBRANCH   1  12
TORSDOF 1
ENDMDL
MODEL 4
REMARK VINA RESULT:    -7.222      7.101     10.545
REMARK INTER + INTRA:          -7.898
REMARK INTER:                  -7.637
REMARK INTRA:                  -0.261
REMARK UNBOUND:                -0.253
REMARK SMILES O=c1cc(-c2ccccc2)oc2ccccc12
REMARK SMILES IDX 4 1 3 2 2 3 1 4 17 5 16 6 15 7 14 8 13 9 12 10 11 11 5 12
REMARK SMILES IDX 8 13 7 14 9 15 6 16 10 17
REMARK H PARENT
REMARK Flexibility Score: inf
ROOT
ATOM      1  C   UNL     1     -32.305  12.973  54.140  1.00  0.00     0.138 A 
ATOM      2  C   UNL     1     -33.206  12.160  54.858  1.00  0.00     0.100 A 
ATOM      3  C   UNL     1     -32.718  11.097  55.620  1.00  0.00     0.193 A 
ATOM      4  O   UNL     1     -33.524  10.370  56.263  1.00  0.00    -0.289 OA
ATOM      5  C   UNL     1     -31.338  10.852  55.660  1.00  0.00     0.065 A 
ATOM      6  C   UNL     1     -30.781   9.798  56.408  1.00  0.00     0.016 A 
ATOM      7  C   UNL     1     -29.397   9.599  56.412  1.00  0.00     0.001 A 
ATOM      8  C   UNL     1     -28.562  10.445  55.676  1.00  0.00     0.004 A 
ATOM      9  C   UNL     1     -29.107  11.494  54.930  1.00  0.00     0.048 A 
ATOM     10  C   UNL     1     -30.492  11.703  54.918  1.00  0.00     0.138 A 
ATOM     11  O   UNL     1     -31.000  12.703  54.206  1.00  0.00    -0.456 OA
ENDROOT
BRANCH   1  12
ATOM     12  C   UNL     1     -32.743  14.130  53.300  1.00  0.00     0.017 A 
ATOM     13  C   UNL     1     -33.651  16.317  51.764  1.00  0.00     0.000 A 
ATOM     14  C   UNL     1     -34.456  15.789  52.771  1.00  0.00     0.001 A 
ATOM     15  C   UNL     1     -32.395  15.763  51.515  1.00  0.00     0.001 A 
ATOM     16  C   UNL     1     -34.009  14.706  53.533  1.00  0.00     0.012 A 
ATOM     17  C   UNL     1     -31.940  14.679  52.274  1.00  0.00     0.012 A 
ENDBRANCH   1  12
TORSDOF 1
ENDMDL
MODEL 5
REMARK VINA RESULT:    -7.012      6.929     10.838
REMARK INTER + INTRA:          -7.675
REMARK INTER:                  -7.409
REMARK INTRA:                  -0.266
REMARK UNBOUND:                -0.253
REMARK SMILES O=c1cc(-c2ccccc2)oc2ccccc12
REMARK SMILES IDX 4 1 3 2 2 3 1 4 17 5 16 6 15 7 14 8 13 9 12 10 11 11 5 12
REMARK SMILES IDX 8 13 7 14 9 15 6 16 10 17
REMARK H PARENT
REMARK Flexibility Score: inf
ROOT
ATOM      1  C   UNL     1     -30.687  15.034  52.487  1.00  0.00     0.138 A 
ATOM      2  C   UNL     1     -29.700  15.546  51.619  1.00  0.00     0.100 A 
ATOM      3  C   UNL     1     -28.356  15.249  51.853  1.00  0.00     0.193 A 
ATOM      4  O   UNL     1     -27.473  15.707  51.076  1.00  0.00    -0.289 OA
ATOM      5  C   UNL     1     -28.006  14.447  52.948  1.00  0.00     0.065 A 
ATOM      6  C   UNL     1     -26.671  14.111  53.240  1.00  0.00     0.016 A 
ATOM      7  C   UNL     1     -26.378  13.307  54.346  1.00  0.00     0.001 A 
ATOM      8  C   UNL     1     -27.408  12.834  55.165  1.00  0.00     0.004 A 
ATOM      9  C   UNL     1     -28.737  13.163  54.882  1.00  0.00     0.048 A 
ATOM     10  C   UNL     1     -29.042  13.967  53.777  1.00  0.00     0.138 A 
ATOM     11  O   UNL     1     -30.308  14.275  53.517  1.00  0.00    -0.456 OA
ENDROOT
BRANCH   1  12
ATOM     12  C   UNL     1     -32.147  15.302  52.310  1.00  0.00     0.017 A 
ATOM     13  C   UNL     1     -34.921  15.761  52.057  1.00  0.00     0.000 A 
ATOM     14  C   UNL     1     -34.428  15.045  53.146  1.00  0.00     0.001 A 
ATOM     15  C   UNL     1     -34.041  16.251  51.091  1.00  0.00     0.001 A 
ATOM     16  C   UNL     1     -33.055  14.817  53.274  1.00  0.00     0.012 A 
ATOM     17  C   UNL     1     -32.666  16.026  51.212  1.00  0.00     0.012 A 
ENDBRANCH   1  12
TORSDOF 1
ENDMDL
MODEL 6
REMARK VINA RESULT:    -6.891      7.729     11.494
REMARK INTER + INTRA:          -7.547
REMARK INTER:                  -7.288
REMARK INTRA:                  -0.258
REMARK UNBOUND:                -0.253
REMARK SMILES O=c1cc(-c2ccccc2)oc2ccccc12
REMARK SMILES IDX 4 1 3 2 2 3 1 4 17 5 16 6 15 7 14 8 13 9 12 10 11 11 5 12
REMARK SMILES IDX 8 13 7 14 9 15 6 16 10 17
REMARK H PARENT
REMARK Flexibility Score: inf
ROOT
ATOM      1  C   UNL     1     -31.821  15.036  52.527  1.00  0.00     0.138 A 
ATOM      2  C   UNL     1     -31.792  13.982  53.463  1.00  0.00     0.100 A 
ATOM      3  C   UNL     1     -30.580  13.618  54.053  1.00  0.00     0.193 A 
ATOM      4  O   UNL     1     -30.554  12.675  54.891  1.00  0.00    -0.289 OA
ATOM      5  C   UNL     1     -29.409  14.305  53.706  1.00  0.00     0.065 A 
ATOM      6  C   UNL     1     -28.156  13.990  54.263  1.00  0.00     0.016 A 
ATOM      7  C   UNL     1     -27.019  14.708  53.882  1.00  0.00     0.001 A 
ATOM      8  C   UNL     1     -27.122  15.743  52.947  1.00  0.00     0.004 A 
ATOM      9  C   UNL     1     -28.362  16.064  52.389  1.00  0.00     0.048 A 
ATOM     10  C   UNL     1     -29.508  15.351  52.763  1.00  0.00     0.138 A 
ATOM     11  O   UNL     1     -30.682  15.663  52.227  1.00  0.00    -0.456 OA
ENDROOT
BRANCH   1  12
ATOM     12  C   UNL     1     -33.074  15.490  51.849  1.00  0.00     0.017 A 
ATOM     13  C   UNL     1     -35.491  16.313  50.643  1.00  0.00     0.000 A 
ATOM     14  C   UNL     1     -35.510  15.678  51.884  1.00  0.00     0.001 A 
ATOM     15  C   UNL     1     -34.275  16.540  49.998  1.00  0.00     0.001 A 
ATOM     16  C   UNL     1     -34.315  15.270  52.484  1.00  0.00     0.012 A 
ATOM     17  C   UNL     1     -33.075  16.134  50.591  1.00  0.00     0.012 A 
ENDBRANCH   1  12
TORSDOF 1
ENDMDL
MODEL 7
REMARK VINA RESULT:    -6.870      6.100      7.201
REMARK INTER + INTRA:          -7.524
REMARK INTER:                  -7.293
REMARK INTRA:                  -0.231
REMARK UNBOUND:                -0.253
REMARK SMILES O=c1cc(-c2ccccc2)oc2ccccc12
REMARK SMILES IDX 4 1 3 2 2 3 1 4 17 5 16 6 15 7 14 8 13 9 12 10 11 11 5 12
REMARK SMILES IDX 8 13 7 14 9 15 6 16 10 17
REMARK H PARENT
REMARK Flexibility Score: inf
ROOT
ATOM      1  C   UNL     1     -29.441   9.354  56.483  1.00  0.00     0.138 A 
ATOM      2  C   UNL     1     -28.488  10.240  55.938  1.00  0.00     0.100 A 
ATOM      3  C   UNL     1     -28.912  11.445  55.373  1.00  0.00     0.193 A 
ATOM      4  O   UNL     1     -28.059  12.238  54.887  1.00  0.00    -0.289 OA
ATOM      5  C   UNL     1     -30.278  11.757  55.354  1.00  0.00     0.065 A 
ATOM      6  C   UNL     1     -30.771  12.953  54.801  1.00  0.00     0.016 A 
ATOM      7  C   UNL     1     -32.145  13.213  54.808  1.00  0.00     0.001 A 
ATOM      8  C   UNL     1     -33.033  12.288  55.365  1.00  0.00     0.004 A 
ATOM      9  C   UNL     1     -32.552  11.098  55.917  1.00  0.00     0.048 A 
ATOM     10  C   UNL     1     -31.179  10.826  55.915  1.00  0.00     0.138 A 
ATOM     11  O   UNL     1     -30.732   9.691  56.443  1.00  0.00    -0.456 OA
ENDROOT
BRANCH   1  12
ATOM     12  C   UNL     1     -29.075   8.046  57.106  1.00  0.00     0.017 A 
ATOM     13  C   UNL     1     -28.431   5.530  58.214  1.00  0.00     0.000 A 
ATOM     14  C   UNL     1     -29.211   5.607  57.062  1.00  0.00     0.001 A 
ATOM     15  C   UNL     1     -27.970   6.699  58.820  1.00  0.00     0.001 A 
ATOM     16  C   UNL     1     -29.531   6.852  56.511  1.00  0.00     0.012 A 
ATOM     17  C   UNL     1     -28.285   7.948  58.275  1.00  0.00     0.012 A 
ENDBRANCH   1  12
TORSDOF 1
ENDMDL
MODEL 8
REMARK VINA RESULT:    -6.823      7.082      9.631
REMARK INTER + INTRA:          -7.475
REMARK INTER:                  -7.242
REMARK INTRA:                  -0.233
REMARK UNBOUND:                -0.253
REMARK SMILES O=c1cc(-c2ccccc2)oc2ccccc12
REMARK SMILES IDX 4 1 3 2 2 3 1 4 17 5 16 6 15 7 14 8 13 9 12 10 11 11 5 12
REMARK SMILES IDX 8 13 7 14 9 15 6 16 10 17
REMARK H PARENT
REMARK Flexibility Score: inf
ROOT
ATOM      1  C   UNL     1     -28.678  14.310  53.523  1.00  0.00     0.138 A 
ATOM      2  C   UNL     1     -27.846  15.285  54.111  1.00  0.00     0.100 A 
ATOM      3  C   UNL     1     -26.523  14.965  54.423  1.00  0.00     0.193 A 
ATOM      4  O   UNL     1     -25.779  15.838  54.948  1.00  0.00    -0.289 OA
ATOM      5  C   UNL     1     -26.041  13.678  54.148  1.00  0.00     0.065 A 
ATOM      6  C   UNL     1     -24.719  13.290  54.437  1.00  0.00     0.016 A 
ATOM      7  C   UNL     1     -24.290  11.993  54.142  1.00  0.00     0.001 A 
ATOM      8  C   UNL     1     -25.171  11.076  53.559  1.00  0.00     0.004 A 
ATOM      9  C   UNL     1     -26.485  11.453  53.268  1.00  0.00     0.048 A 
ATOM     10  C   UNL     1     -26.925  12.749  53.559  1.00  0.00     0.138 A 
ATOM     11  O   UNL     1     -28.177  13.098  53.279  1.00  0.00    -0.456 OA
ENDROOT
BRANCH   1  12
ATOM     12  C   UNL     1     -30.104  14.569  53.158  1.00  0.00     0.017 A 
ATOM     13  C   UNL     1     -32.825  14.989  52.530  1.00  0.00     0.000 A 
ATOM     14  C   UNL     1     -32.465  14.017  53.462  1.00  0.00     0.001 A 
ATOM     15  C   UNL     1     -31.837  15.753  51.907  1.00  0.00     0.001 A 
ATOM     16  C   UNL     1     -31.118  13.807  53.775  1.00  0.00     0.012 A 
ATOM     17  C   UNL     1     -30.488  15.549  52.215  1.00  0.00     0.012 A 
ENDBRANCH   1  12
TORSDOF 1
ENDMDL
MODEL 9
REMARK VINA RESULT:    -6.822      4.372      5.364
REMARK INTER + INTRA:          -7.474
REMARK INTER:                  -7.254
REMARK INTRA:                  -0.220
REMARK UNBOUND:                -0.253
REMARK SMILES O=c1cc(-c2ccccc2)oc2ccccc12
REMARK SMILES IDX 4 1 3 2 2 3 1 4 17 5 16 6 15 7 14 8 13 9 12 10 11 11 5 12
REMARK SMILES IDX 8 13 7 14 9 15 6 16 10 17
REMARK H PARENT
REMARK Flexibility Score: inf
ROOT
ATOM      1  C   UNL     1     -26.670  11.333  56.608  1.00  0.00     0.138 A 
ATOM      2  C   UNL     1     -25.848  11.375  55.463  1.00  0.00     0.100 A 
ATOM      3  C   UNL     1     -25.437  12.609  54.955  1.00  0.00     0.193 A 
ATOM      4  O   UNL     1     -24.701  12.646  53.931  1.00  0.00    -0.289 OA
ATOM      5  C   UNL     1     -25.847  13.789  55.590  1.00  0.00     0.065 A 
ATOM      6  C   UNL     1     -25.469  15.064  55.130  1.00  0.00     0.016 A 
ATOM      7  C   UNL     1     -25.907  16.209  55.802  1.00  0.00     0.001 A 
ATOM      8  C   UNL     1     -26.722  16.093  56.932  1.00  0.00     0.004 A 
ATOM      9  C   UNL     1     -27.102  14.831  57.396  1.00  0.00     0.048 A 
ATOM     10  C   UNL     1     -26.669  13.677  56.732  1.00  0.00     0.138 A 
ATOM     11  O   UNL     1     -27.037  12.482  57.181  1.00  0.00    -0.456 OA
ENDROOT
BRANCH   1  12
ATOM     12  C   UNL     1     -27.155  10.057  57.218  1.00  0.00     0.017 A 
ATOM     13  C   UNL     1     -28.151   7.654  58.315  1.00  0.00     0.000 A 
ATOM     14  C   UNL     1     -28.904   8.358  57.377  1.00  0.00     0.001 A 
ATOM     15  C   UNL     1     -26.904   8.139  58.711  1.00  0.00     0.001 A 
ATOM     16  C   UNL     1     -28.413   9.548  56.832  1.00  0.00     0.012 A 
ATOM     17  C   UNL     1     -26.406   9.329  58.170  1.00  0.00     0.012 A 
ENDBRANCH   1  12
TORSDOF 1
ENDMDL
