MODEL 1
REMARK VINA RESULT:    -6.216      0.000      0.000
REMARK INTER + INTRA:         -10.892
REMARK INTER:                  -8.578
REMARK INTRA:                  -2.314
REMARK UNBOUND:                -2.314
REMARK SMILES CC[C@@H](CC[C@H](C)[C@H]1CC[C@H]2[C@H]3CC=C4C[C@H](O)CC[C@]4(C)[C@@H]3CC[C@@]12C)C(C)C
REMARK SMILES IDX 5 1 4 2 3 3 2 4 1 5 28 6 29 7 30 8 6 9 7 10 8 11 9 12 26 13
REMARK SMILES IDX 10 14 11 15 25 16 27 17 12 18 24 19 23 20 13 21 21 22 14 23
REMARK SMILES IDX 15 24 20 25 22 26 16 27 19 28 17 29 18 30
REMARK H PARENT 18 31
REMARK Flexibility Score: inf
ROOT
ATOM      1  C   UNL     1     -21.501 -47.213 102.019  1.00  0.00     0.004 C 
ENDROOT
BRANCH   1   2
ATOM      2  C   UNL     1     -21.697 -45.839 101.341  1.00  0.00     0.004 C 
BRANCH   2   3
ATOM      3  C   UNL     1     -20.561 -45.457 100.348  1.00  0.00    -0.009 C 
BRANCH   3   4
ATOM      4  C   UNL     1     -19.483 -46.575 100.228  1.00  0.00     0.000 C 
ATOM      5  C   UNL     1     -19.228 -47.057  98.796  1.00  0.00     0.004 C 
ENDBRANCH   3   4
BRANCH   3   6
ATOM      6  C   UNL     1     -19.949 -44.052 100.693  1.00  0.00    -0.014 C 
ATOM      7  C   UNL     1     -20.866 -43.225 101.614  1.00  0.00     0.007 C 
ATOM      8  C   UNL     1     -18.564 -44.172 101.359  1.00  0.00     0.007 C 
ENDBRANCH   3   6
ENDBRANCH   2   3
ENDBRANCH   1   2
BRANCH   1   9
ATOM      9  C   UNL     1     -21.287 -47.156 103.555  1.00  0.00    -0.011 C 
ATOM     10  C   UNL     1     -22.638 -47.169 104.302  1.00  0.00     0.008 C 
BRANCH   9  11
ATOM     11  C   UNL     1     -20.274 -46.025 103.976  1.00  0.00    -0.002 C 
ATOM     12  C   UNL     1     -20.813 -44.909 104.887  1.00  0.00     0.005 C 
ATOM     13  C   UNL     1     -18.944 -46.484 104.638  1.00  0.00    -0.026 C 
ATOM     14  C   UNL     1     -19.598 -44.346 105.632  1.00  0.00     0.005 C 
ATOM     15  C   UNL     1     -18.372 -45.143 105.148  1.00  0.00    -0.001 C 
ATOM     16  C   UNL     1     -19.196 -47.450 105.833  1.00  0.00     0.007 C 
ATOM     17  C   UNL     1     -18.001 -47.128 103.590  1.00  0.00     0.012 C 
ATOM     18  C   UNL     1     -17.199 -45.276 106.171  1.00  0.00     0.000 C 
ATOM     19  C   UNL     1     -17.961 -47.634 106.715  1.00  0.00     0.005 C 
ATOM     20  C   UNL     1     -17.477 -46.287 107.306  1.00  0.00     0.003 C 
ATOM     21  C   UNL     1     -16.847 -43.913 106.781  1.00  0.00     0.031 C 
ATOM     22  C   UNL     1     -16.243 -46.436 108.301  1.00  0.00    -0.008 C 
ATOM     23  C   UNL     1     -15.693 -44.022 107.722  1.00  0.00    -0.027 C 
ATOM     24  C   UNL     1     -15.449 -45.124 108.461  1.00  0.00    -0.065 C 
ATOM     25  C   UNL     1     -15.230 -47.519 107.806  1.00  0.00     0.014 C 
ATOM     26  C   UNL     1     -16.808 -46.846 109.687  1.00  0.00     0.016 C 
ATOM     27  C   UNL     1     -14.194 -45.154 109.310  1.00  0.00     0.063 C 
ATOM     28  C   UNL     1     -13.923 -47.594 108.625  1.00  0.00     0.033 C 
ATOM     29  C   UNL     1     -13.227 -46.230 108.791  1.00  0.00     0.118 C 
BRANCH  29  30
ATOM     30  O   UNL     1     -12.599 -45.826 107.598  1.00  0.00    -0.393 OA
ATOM     31  H   UNL     1     -11.839 -46.438 107.425  1.00  0.00     0.210 HD
ENDBRANCH  29  30
ENDBRANCH   9  11
ENDBRANCH   1   9
TORSDOF 7
ENDMDL
MODEL 2
REMARK VINA RESULT:    -6.048      3.017      5.451
REMARK INTER + INTRA:         -10.660
REMARK INTER:                  -9.050
REMARK INTRA:                  -1.609
REMARK UNBOUND:                -2.314
REMARK SMILES CC[C@@H](CC[C@H](C)[C@H]1CC[C@H]2[C@H]3CC=C4C[C@H](O)CC[C@]4(C)[C@@H]3CC[C@@]12C)C(C)C
REMARK SMILES IDX 5 1 4 2 3 3 2 4 1 5 28 6 29 7 30 8 6 9 7 10 8 11 9 12 26 13
REMARK SMILES IDX 10 14 11 15 25 16 27 17 12 18 24 19 23 20 13 21 21 22 14 23
REMARK SMILES IDX 15 24 20 25 22 26 16 27 19 28 17 29 18 30
REMARK H PARENT 18 31
REMARK Flexibility Score: inf
ROOT
ATOM      1  C   UNL     1     -18.072 -44.286 101.561  1.00  0.00     0.004 C 
ENDROOT
BRANCH   1   2
ATOM      2  C   UNL     1     -18.821 -43.666 100.361  1.00  0.00     0.004 C 
BRANCH   2   3
ATOM      3  C   UNL     1     -20.122 -44.426  99.968  1.00  0.00    -0.009 C 
BRANCH   3   4
ATOM      4  C   UNL     1     -21.395 -43.768 100.579  1.00  0.00     0.000 C 
ATOM      5  C   UNL     1     -21.199 -42.322 101.044  1.00  0.00     0.004 C 
ENDBRANCH   3   4
BRANCH   3   6
ATOM      6  C   UNL     1     -20.009 -45.958 100.292  1.00  0.00    -0.014 C 
ATOM      7  C   UNL     1     -21.359 -46.567 100.717  1.00  0.00     0.007 C 
ATOM      8  C   UNL     1     -19.463 -46.763  99.095  1.00  0.00     0.007 C 
ENDBRANCH   3   6
ENDBRANCH   2   3
ENDBRANCH   1   2
BRANCH   1   9
ATOM      9  C   UNL     1     -18.463 -43.701 102.944  1.00  0.00    -0.011 C 
ATOM     10  C   UNL     1     -17.990 -42.237 103.077  1.00  0.00     0.008 C 
BRANCH   9  11
ATOM     11  C   UNL     1     -18.081 -44.663 104.131  1.00  0.00    -0.002 C 
ATOM     12  C   UNL     1     -18.208 -44.098 105.556  1.00  0.00     0.005 C 
ATOM     13  C   UNL     1     -18.796 -46.043 104.175  1.00  0.00    -0.026 C 
ATOM     14  C   UNL     1     -18.405 -45.308 106.476  1.00  0.00     0.005 C 
ATOM     15  C   UNL     1     -18.394 -46.557 105.575  1.00  0.00    -0.001 C 
ATOM     16  C   UNL     1     -20.343 -45.896 104.081  1.00  0.00     0.007 C 
ATOM     17  C   UNL     1     -18.257 -46.978 103.063  1.00  0.00     0.012 C 
ATOM     18  C   UNL     1     -19.223 -47.776 106.091  1.00  0.00     0.000 C 
ATOM     19  C   UNL     1     -21.084 -47.174 104.474  1.00  0.00     0.005 C 
ATOM     20  C   UNL     1     -20.750 -47.604 105.924  1.00  0.00     0.003 C 
ATOM     21  C   UNL     1     -18.904 -48.073 107.561  1.00  0.00     0.031 C 
ATOM     22  C   UNL     1     -21.561 -48.883 106.412  1.00  0.00    -0.008 C 
ATOM     23  C   UNL     1     -19.654 -49.269 108.048  1.00  0.00    -0.027 C 
ATOM     24  C   UNL     1     -20.877 -49.606 107.589  1.00  0.00    -0.065 C 
ATOM     25  C   UNL     1     -21.721 -49.935 105.267  1.00  0.00     0.014 C 
ATOM     26  C   UNL     1     -22.961 -48.399 106.873  1.00  0.00     0.016 C 
ATOM     27  C   UNL     1     -21.501 -50.894 108.089  1.00  0.00     0.063 C 
ATOM     28  C   UNL     1     -22.342 -51.277 105.713  1.00  0.00     0.033 C 
ATOM     29  C   UNL     1     -21.639 -51.899 106.935  1.00  0.00     0.118 C 
BRANCH  29  30
ATOM     30  O   UNL     1     -20.395 -52.454 106.582  1.00  0.00    -0.393 OA
ATOM     31  H   UNL     1     -20.314 -53.340 107.020  1.00  0.00     0.210 HD
ENDBRANCH  29  30
ENDBRANCH   9  11
ENDBRANCH   1   9
TORSDOF 7
ENDMDL
MODEL 3
REMARK VINA RESULT:    -6.027      3.112      8.851
REMARK INTER + INTRA:         -10.631
REMARK INTER:                  -9.368
REMARK INTRA:                  -1.263
REMARK UNBOUND:                -2.314
REMARK SMILES CC[C@@H](CC[C@H](C)[C@H]1CC[C@H]2[C@H]3CC=C4C[C@H](O)CC[C@]4(C)[C@@H]3CC[C@@]12C)C(C)C
REMARK SMILES IDX 5 1 4 2 3 3 2 4 1 5 28 6 29 7 30 8 6 9 7 10 8 11 9 12 26 13
REMARK SMILES IDX 10 14 11 15 25 16 27 17 12 18 24 19 23 20 13 21 21 22 14 23
REMARK SMILES IDX 15 24 20 25 22 26 16 27 19 28 17 29 18 30
REMARK H PARENT 18 31
REMARK Flexibility Score: inf
ROOT
ATOM      1  C   UNL     1     -15.940 -47.189 111.016  1.00  0.00     0.004 C 
ENDROOT
BRANCH   1   2
ATOM      2  C   UNL     1     -17.230 -47.813 111.593  1.00  0.00     0.004 C 
BRANCH   2   3
ATOM      3  C   UNL     1     -16.996 -48.699 112.851  1.00  0.00    -0.009 C 
BRANCH   3   4
ATOM      4  C   UNL     1     -15.500 -48.721 113.285  1.00  0.00     0.000 C 
ATOM      5  C   UNL     1     -14.871 -50.118 113.320  1.00  0.00     0.004 C 
ENDBRANCH   3   4
BRANCH   3   6
ATOM      6  C   UNL     1     -17.598 -50.136 112.658  1.00  0.00    -0.014 C 
ATOM      7  C   UNL     1     -18.704 -50.450 113.684  1.00  0.00     0.007 C 
ATOM      8  C   UNL     1     -18.173 -50.336 111.241  1.00  0.00     0.007 C 
ENDBRANCH   3   6
ENDBRANCH   2   3
ENDBRANCH   1   2
BRANCH   1   9
ATOM      9  C   UNL     1     -15.834 -47.228 109.468  1.00  0.00    -0.011 C 
ATOM     10  C   UNL     1     -14.360 -47.297 109.017  1.00  0.00     0.008 C 
BRANCH   9  11
ATOM     11  C   UNL     1     -16.718 -46.121 108.780  1.00  0.00    -0.002 C 
ATOM     12  C   UNL     1     -15.977 -45.021 108.000  1.00  0.00     0.005 C 
ATOM     13  C   UNL     1     -17.842 -46.612 107.823  1.00  0.00    -0.026 C 
ATOM     14  C   UNL     1     -16.975 -44.491 106.964  1.00  0.00     0.005 C 
ATOM     15  C   UNL     1     -18.278 -45.291 107.152  1.00  0.00    -0.001 C 
ATOM     16  C   UNL     1     -17.298 -47.604 106.754  1.00  0.00     0.007 C 
ATOM     17  C   UNL     1     -19.010 -47.241 108.624  1.00  0.00     0.012 C 
ATOM     18  C   UNL     1     -19.161 -45.463 105.875  1.00  0.00     0.000 C 
ATOM     19  C   UNL     1     -18.276 -47.825 105.600  1.00  0.00     0.005 C 
ATOM     20  C   UNL     1     -18.607 -46.499 104.871  1.00  0.00     0.003 C 
ATOM     21  C   UNL     1     -19.359 -44.120 105.161  1.00  0.00     0.031 C 
ATOM     22  C   UNL     1     -19.556 -46.687 103.608  1.00  0.00    -0.008 C 
ATOM     23  C   UNL     1     -20.244 -44.267 103.968  1.00  0.00    -0.027 C 
ATOM     24  C   UNL     1     -20.294 -45.390 103.222  1.00  0.00    -0.065 C 
ATOM     25  C   UNL     1     -20.653 -47.770 103.867  1.00  0.00     0.014 C 
ATOM     26  C   UNL     1     -18.665 -47.125 102.416  1.00  0.00     0.016 C 
ATOM     27  C   UNL     1     -21.300 -45.456 102.091  1.00  0.00     0.063 C 
ATOM     28  C   UNL     1     -21.718 -47.881 102.755  1.00  0.00     0.033 C 
ATOM     29  C   UNL     1     -22.359 -46.530 102.385  1.00  0.00     0.118 C 
BRANCH  29  30
ATOM     30  O   UNL     1     -23.264 -46.104 103.375  1.00  0.00    -0.393 OA
ATOM     31  H   UNL     1     -22.829 -46.210 104.259  1.00  0.00     0.210 HD
ENDBRANCH  29  30
ENDBRANCH   9  11
ENDBRANCH   1   9
TORSDOF 7
ENDMDL
MODEL 4
REMARK VINA RESULT:    -6.024      2.878      9.228
REMARK INTER + INTRA:         -10.626
REMARK INTER:                  -9.289
REMARK INTRA:                  -1.337
REMARK UNBOUND:                -2.314
REMARK SMILES CC[C@@H](CC[C@H](C)[C@H]1CC[C@H]2[C@H]3CC=C4C[C@H](O)CC[C@]4(C)[C@@H]3CC[C@@]12C)C(C)C
REMARK SMILES IDX 5 1 4 2 3 3 2 4 1 5 28 6 29 7 30 8 6 9 7 10 8 11 9 12 26 13
REMARK SMILES IDX 10 14 11 15 25 16 27 17 12 18 24 19 23 20 13 21 21 22 14 23
REMARK SMILES IDX 15 24 20 25 22 26 16 27 19 28 17 29 18 30
REMARK H PARENT 18 31
REMARK Flexibility Score: inf
ROOT
ATOM      1  C   UNL     1     -13.595 -47.374 110.404  1.00  0.00     0.004 C 
ENDROOT
BRANCH   1   2
ATOM      2  C   UNL     1     -12.290 -46.580 110.637  1.00  0.00     0.004 C 
BRANCH   2   3
ATOM      3  C   UNL     1     -11.700 -46.740 112.068  1.00  0.00    -0.009 C 
BRANCH   3   4
ATOM      4  C   UNL     1     -12.604 -47.620 112.983  1.00  0.00     0.000 C 
ATOM      5  C   UNL     1     -11.995 -48.974 113.361  1.00  0.00     0.004 C 
ENDBRANCH   3   4
BRANCH   3   6
ATOM      6  C   UNL     1     -11.358 -45.346 112.705  1.00  0.00    -0.014 C 
ATOM      7  C   UNL     1     -11.436 -44.200 111.678  1.00  0.00     0.007 C 
ATOM      8  C   UNL     1     -12.286 -45.008 113.889  1.00  0.00     0.007 C 
ENDBRANCH   3   6
ENDBRANCH   2   3
ENDBRANCH   1   2
BRANCH   1   9
ATOM      9  C   UNL     1     -14.823 -46.508 110.016  1.00  0.00    -0.011 C 
ATOM     10  C   UNL     1     -15.250 -45.600 111.189  1.00  0.00     0.008 C 
BRANCH   9  11
ATOM     11  C   UNL     1     -15.966 -47.357 109.344  1.00  0.00    -0.002 C 
ATOM     12  C   UNL     1     -17.310 -47.431 110.090  1.00  0.00     0.005 C 
ATOM     13  C   UNL     1     -16.335 -47.004 107.876  1.00  0.00    -0.026 C 
ATOM     14  C   UNL     1     -18.370 -47.729 109.024  1.00  0.00     0.005 C 
ATOM     15  C   UNL     1     -17.631 -47.820 107.675  1.00  0.00    -0.001 C 
ATOM     16  C   UNL     1     -16.623 -45.484 107.701  1.00  0.00     0.007 C 
ATOM     17  C   UNL     1     -15.225 -47.476 106.901  1.00  0.00     0.012 C 
ATOM     18  C   UNL     1     -18.465 -47.428 106.414  1.00  0.00     0.000 C 
ATOM     19  C   UNL     1     -17.323 -45.163 106.381  1.00  0.00     0.005 C 
ATOM     20  C   UNL     1     -18.677 -45.905 106.257  1.00  0.00     0.003 C 
ATOM     21  C   UNL     1     -19.828 -48.132 106.419  1.00  0.00     0.031 C 
ATOM     22  C   UNL     1     -19.485 -45.538 104.936  1.00  0.00    -0.008 C 
ATOM     23  C   UNL     1     -20.612 -47.803 105.191  1.00  0.00    -0.027 C 
ATOM     24  C   UNL     1     -20.517 -46.618 104.554  1.00  0.00    -0.065 C 
ATOM     25  C   UNL     1     -18.535 -45.367 103.707  1.00  0.00     0.014 C 
ATOM     26  C   UNL     1     -20.236 -44.207 105.203  1.00  0.00     0.016 C 
ATOM     27  C   UNL     1     -21.291 -46.434 103.263  1.00  0.00     0.063 C 
ATOM     28  C   UNL     1     -19.262 -45.185 102.357  1.00  0.00     0.033 C 
ATOM     29  C   UNL     1     -20.321 -46.269 102.083  1.00  0.00     0.118 C 
BRANCH  29  30
ATOM     30  O   UNL     1     -19.722 -47.494 101.733  1.00  0.00    -0.393 OA
ATOM     31  H   UNL     1     -20.387 -48.216 101.874  1.00  0.00     0.210 HD
ENDBRANCH  29  30
ENDBRANCH   9  11
ENDBRANCH   1   9
TORSDOF 7
ENDMDL
MODEL 5
REMARK VINA RESULT:    -6.005      2.841      8.936
REMARK INTER + INTRA:         -10.600
REMARK INTER:                  -9.285
REMARK INTRA:                  -1.314
REMARK UNBOUND:                -2.314
REMARK SMILES CC[C@@H](CC[C@H](C)[C@H]1CC[C@H]2[C@H]3CC=C4C[C@H](O)CC[C@]4(C)[C@@H]3CC[C@@]12C)C(C)C
REMARK SMILES IDX 5 1 4 2 3 3 2 4 1 5 28 6 29 7 30 8 6 9 7 10 8 11 9 12 26 13
REMARK SMILES IDX 10 14 11 15 25 16 27 17 12 18 24 19 23 20 13 21 21 22 14 23
REMARK SMILES IDX 15 24 20 25 22 26 16 27 19 28 17 29 18 30
REMARK H PARENT 18 31
REMARK Flexibility Score: inf
ROOT
ATOM      1  C   UNL     1     -15.357 -46.940 110.861  1.00  0.00     0.004 C 
ENDROOT
BRANCH   1   2
ATOM      2  C   UNL     1     -14.972 -45.541 111.390  1.00  0.00     0.004 C 
BRANCH   2   3
ATOM      3  C   UNL     1     -13.810 -45.555 112.425  1.00  0.00    -0.009 C 
BRANCH   3   4
ATOM      4  C   UNL     1     -13.915 -44.382 113.445  1.00  0.00     0.000 C 
ATOM      5  C   UNL     1     -14.942 -43.308 113.072  1.00  0.00     0.004 C 
ENDBRANCH   3   4
BRANCH   3   6
ATOM      6  C   UNL     1     -12.411 -45.622 111.713  1.00  0.00    -0.014 C 
ATOM      7  C   UNL     1     -12.222 -44.488 110.688  1.00  0.00     0.007 C 
ATOM      8  C   UNL     1     -11.246 -45.572 112.722  1.00  0.00     0.007 C 
ENDBRANCH   3   6
ENDBRANCH   2   3
ENDBRANCH   1   2
BRANCH   1   9
ATOM      9  C   UNL     1     -15.423 -47.055 109.314  1.00  0.00    -0.011 C 
ATOM     10  C   UNL     1     -14.006 -47.114 108.705  1.00  0.00     0.008 C 
BRANCH   9  11
ATOM     11  C   UNL     1     -16.407 -46.004 108.677  1.00  0.00    -0.002 C 
ATOM     12  C   UNL     1     -15.778 -44.870 107.849  1.00  0.00     0.005 C 
ATOM     13  C   UNL     1     -17.557 -46.563 107.793  1.00  0.00    -0.026 C 
ATOM     14  C   UNL     1     -16.864 -44.404 106.874  1.00  0.00     0.005 C 
ATOM     15  C   UNL     1     -18.107 -45.273 107.144  1.00  0.00    -0.001 C 
ATOM     16  C   UNL     1     -17.025 -47.532 106.697  1.00  0.00     0.007 C 
ATOM     17  C   UNL     1     -18.638 -47.250 108.666  1.00  0.00     0.012 C 
ATOM     18  C   UNL     1     -19.054 -45.504 105.924  1.00  0.00     0.000 C 
ATOM     19  C   UNL     1     -18.057 -47.815 105.606  1.00  0.00     0.005 C 
ATOM     20  C   UNL     1     -18.505 -46.515 104.893  1.00  0.00     0.003 C 
ATOM     21  C   UNL     1     -19.371 -44.180 105.218  1.00  0.00     0.031 C 
ATOM     22  C   UNL     1     -19.518 -46.765 103.691  1.00  0.00    -0.008 C 
ATOM     23  C   UNL     1     -20.317 -44.384 104.082  1.00  0.00    -0.027 C 
ATOM     24  C   UNL     1     -20.349 -45.514 103.345  1.00  0.00    -0.065 C 
ATOM     25  C   UNL     1     -20.535 -47.905 104.021  1.00  0.00     0.014 C 
ATOM     26  C   UNL     1     -18.678 -47.162 102.448  1.00  0.00     0.016 C 
ATOM     27  C   UNL     1     -21.417 -45.644 102.277  1.00  0.00     0.063 C 
ATOM     28  C   UNL     1     -21.658 -48.084 102.975  1.00  0.00     0.033 C 
ATOM     29  C   UNL     1     -22.394 -46.773 102.640  1.00  0.00     0.118 C 
BRANCH  29  30
ATOM     30  O   UNL     1     -23.260 -46.391 103.682  1.00  0.00    -0.393 OA
ATOM     31  H   UNL     1     -23.248 -45.402 103.749  1.00  0.00     0.210 HD
ENDBRANCH  29  30
ENDBRANCH   9  11
ENDBRANCH   1   9
TORSDOF 7
ENDMDL
MODEL 6
REMARK VINA RESULT:    -6.001      6.606     10.630
REMARK INTER + INTRA:         -10.595
REMARK INTER:                  -8.663
REMARK INTRA:                  -1.932
REMARK UNBOUND:                -2.314
REMARK SMILES CC[C@@H](CC[C@H](C)[C@H]1CC[C@H]2[C@H]3CC=C4C[C@H](O)CC[C@]4(C)[C@@H]3CC[C@@]12C)C(C)C
REMARK SMILES IDX 5 1 4 2 3 3 2 4 1 5 28 6 29 7 30 8 6 9 7 10 8 11 9 12 26 13
REMARK SMILES IDX 10 14 11 15 25 16 27 17 12 18 24 19 23 20 13 21 21 22 14 23
REMARK SMILES IDX 15 24 20 25 22 26 16 27 19 28 17 29 18 30
REMARK H PARENT 18 31
REMARK Flexibility Score: inf
ROOT
ATOM      1  C   UNL     1     -11.958 -45.804 110.807  1.00  0.00     0.004 C 
ENDROOT
BRANCH   1   2
ATOM      2  C   UNL     1     -12.867 -44.687 110.248  1.00  0.00     0.004 C 
BRANCH   2   3
ATOM      3  C   UNL     1     -14.322 -44.722 110.802  1.00  0.00    -0.009 C 
BRANCH   3   4
ATOM      4  C   UNL     1     -15.367 -45.049 109.694  1.00  0.00     0.000 C 
ATOM      5  C   UNL     1     -15.360 -44.077 108.510  1.00  0.00     0.004 C 
ENDBRANCH   3   4
BRANCH   3   6
ATOM      6  C   UNL     1     -14.662 -43.410 111.596  1.00  0.00    -0.014 C 
ATOM      7  C   UNL     1     -14.874 -43.675 113.099  1.00  0.00     0.007 C 
ATOM      8  C   UNL     1     -13.567 -42.337 111.436  1.00  0.00     0.007 C 
ENDBRANCH   3   6
ENDBRANCH   2   3
ENDBRANCH   1   2
BRANCH   1   9
ATOM      9  C   UNL     1     -12.367 -46.336 112.206  1.00  0.00    -0.011 C 
ATOM     10  C   UNL     1     -11.564 -45.632 113.321  1.00  0.00     0.008 C 
BRANCH   9  11
ATOM     11  C   UNL     1     -12.397 -47.910 112.263  1.00  0.00    -0.002 C 
ATOM     12  C   UNL     1     -11.681 -48.580 113.448  1.00  0.00     0.005 C 
ATOM     13  C   UNL     1     -13.794 -48.589 112.195  1.00  0.00    -0.026 C 
ATOM     14  C   UNL     1     -12.351 -49.946 113.630  1.00  0.00     0.005 C 
ATOM     15  C   UNL     1     -13.447 -50.051 112.554  1.00  0.00    -0.001 C 
ATOM     16  C   UNL     1     -14.778 -47.996 113.246  1.00  0.00     0.007 C 
ATOM     17  C   UNL     1     -14.384 -48.493 110.765  1.00  0.00     0.012 C 
ATOM     18  C   UNL     1     -14.674 -50.947 112.916  1.00  0.00     0.000 C 
ATOM     19  C   UNL     1     -16.020 -48.864 113.450  1.00  0.00     0.005 C 
ATOM     20  C   UNL     1     -15.648 -50.291 113.921  1.00  0.00     0.003 C 
ATOM     21  C   UNL     1     -14.217 -52.305 113.465  1.00  0.00     0.031 C 
ATOM     22  C   UNL     1     -16.911 -51.209 114.228  1.00  0.00    -0.008 C 
ATOM     23  C   UNL     1     -15.383 -53.188 113.766  1.00  0.00    -0.027 C 
ATOM     24  C   UNL     1     -16.578 -52.714 114.174  1.00  0.00    -0.065 C 
ATOM     25  C   UNL     1     -18.065 -50.965 113.203  1.00  0.00     0.014 C 
ATOM     26  C   UNL     1     -17.403 -50.861 115.658  1.00  0.00     0.016 C 
ATOM     27  C   UNL     1     -17.715 -53.698 114.359  1.00  0.00     0.063 C 
ATOM     28  C   UNL     1     -19.252 -51.944 113.330  1.00  0.00     0.033 C 
ATOM     29  C   UNL     1     -18.826 -53.424 113.333  1.00  0.00     0.118 C 
BRANCH  29  30
ATOM     30  O   UNL     1     -18.455 -53.853 112.044  1.00  0.00    -0.393 OA
ATOM     31  H   UNL     1     -19.267 -53.865 111.475  1.00  0.00     0.210 HD
ENDBRANCH  29  30
ENDBRANCH   9  11
ENDBRANCH   1   9
TORSDOF 7
ENDMDL
MODEL 7
REMARK VINA RESULT:    -6.000      2.763      8.723
REMARK INTER + INTRA:         -10.594
REMARK INTER:                  -9.195
REMARK INTRA:                  -1.399
REMARK UNBOUND:                -2.314
REMARK SMILES CC[C@@H](CC[C@H](C)[C@H]1CC[C@H]2[C@H]3CC=C4C[C@H](O)CC[C@]4(C)[C@@H]3CC[C@@]12C)C(C)C
REMARK SMILES IDX 5 1 4 2 3 3 2 4 1 5 28 6 29 7 30 8 6 9 7 10 8 11 9 12 26 13
REMARK SMILES IDX 10 14 11 15 25 16 27 17 12 18 24 19 23 20 13 21 21 22 14 23
REMARK SMILES IDX 15 24 20 25 22 26 16 27 19 28 17 29 18 30
REMARK H PARENT 18 31
REMARK Flexibility Score: inf
ROOT
ATOM      1  C   UNL     1     -15.027 -46.533 110.784  1.00  0.00     0.004 C 
ENDROOT
BRANCH   1   2
ATOM      2  C   UNL     1     -13.560 -46.093 110.986  1.00  0.00     0.004 C 
BRANCH   2   3
ATOM      3  C   UNL     1     -13.370 -44.551 111.079  1.00  0.00    -0.009 C 
BRANCH   3   4
ATOM      4  C   UNL     1     -12.132 -44.161 111.940  1.00  0.00     0.000 C 
ATOM      5  C   UNL     1     -11.451 -45.341 112.640  1.00  0.00     0.004 C 
ENDBRANCH   3   4
BRANCH   3   6
ATOM      6  C   UNL     1     -14.690 -43.839 111.547  1.00  0.00    -0.014 C 
ATOM      7  C   UNL     1     -14.659 -43.476 113.044  1.00  0.00     0.007 C 
ATOM      8  C   UNL     1     -14.974 -42.558 110.737  1.00  0.00     0.007 C 
ENDBRANCH   3   6
ENDBRANCH   2   3
ENDBRANCH   1   2
BRANCH   1   9
ATOM      9  C   UNL     1     -15.397 -46.914 109.326  1.00  0.00    -0.011 C 
ATOM     10  C   UNL     1     -14.132 -47.248 108.506  1.00  0.00     0.008 C 
BRANCH   9  11
ATOM     11  C   UNL     1     -16.395 -45.886 108.672  1.00  0.00    -0.002 C 
ATOM     12  C   UNL     1     -15.780 -44.762 107.820  1.00  0.00     0.005 C 
ATOM     13  C   UNL     1     -17.542 -46.474 107.803  1.00  0.00    -0.026 C 
ATOM     14  C   UNL     1     -16.875 -44.326 106.840  1.00  0.00     0.005 C 
ATOM     15  C   UNL     1     -18.107 -45.202 107.132  1.00  0.00    -0.001 C 
ATOM     16  C   UNL     1     -17.003 -47.458 106.724  1.00  0.00     0.007 C 
ATOM     17  C   UNL     1     -18.612 -47.155 108.693  1.00  0.00     0.012 C 
ATOM     18  C   UNL     1     -19.057 -45.466 105.921  1.00  0.00     0.000 C 
ATOM     19  C   UNL     1     -18.037 -47.772 105.642  1.00  0.00     0.005 C 
ATOM     20  C   UNL     1     -18.501 -46.491 104.906  1.00  0.00     0.003 C 
ATOM     21  C   UNL     1     -19.390 -44.159 105.191  1.00  0.00     0.031 C 
ATOM     22  C   UNL     1     -19.515 -46.774 103.713  1.00  0.00    -0.008 C 
ATOM     23  C   UNL     1     -20.338 -44.394 104.062  1.00  0.00    -0.027 C 
ATOM     24  C   UNL     1     -20.361 -45.538 103.347  1.00  0.00    -0.065 C 
ATOM     25  C   UNL     1     -20.519 -47.918 104.069  1.00  0.00     0.014 C 
ATOM     26  C   UNL     1     -18.676 -47.185 102.475  1.00  0.00     0.016 C 
ATOM     27  C   UNL     1     -21.431 -45.700 102.286  1.00  0.00     0.063 C 
ATOM     28  C   UNL     1     -21.644 -48.128 103.032  1.00  0.00     0.033 C 
ATOM     29  C   UNL     1     -22.395 -46.832 102.674  1.00  0.00     0.118 C 
BRANCH  29  30
ATOM     30  O   UNL     1     -23.261 -46.439 103.712  1.00  0.00    -0.393 OA
ATOM     31  H   UNL     1     -23.253 -47.145 104.408  1.00  0.00     0.210 HD
ENDBRANCH  29  30
ENDBRANCH   9  11
ENDBRANCH   1   9
TORSDOF 7
ENDMDL
MODEL 8
REMARK VINA RESULT:    -5.897      3.391      7.943
REMARK INTER + INTRA:         -10.452
REMARK INTER:                  -8.560
REMARK INTRA:                  -1.891
REMARK UNBOUND:                -2.314
REMARK SMILES CC[C@@H](CC[C@H](C)[C@H]1CC[C@H]2[C@H]3CC=C4C[C@H](O)CC[C@]4(C)[C@@H]3CC[C@@]12C)C(C)C
REMARK SMILES IDX 5 1 4 2 3 3 2 4 1 5 28 6 29 7 30 8 6 9 7 10 8 11 9 12 26 13
REMARK SMILES IDX 10 14 11 15 25 16 27 17 12 18 24 19 23 20 13 21 21 22 14 23
REMARK SMILES IDX 15 24 20 25 22 26 16 27 19 28 17 29 18 30
REMARK H PARENT 18 31
REMARK Flexibility Score: inf
ROOT
ATOM      1  C   UNL     1     -12.816 -46.192 103.743  1.00  0.00     0.004 C 
ENDROOT
BRANCH   1   2
ATOM      2  C   UNL     1     -11.507 -46.320 104.554  1.00  0.00     0.004 C 
BRANCH   2   3
ATOM      3  C   UNL     1     -11.256 -47.745 105.128  1.00  0.00    -0.009 C 
BRANCH   3   4
ATOM      4  C   UNL     1     -12.290 -48.783 104.599  1.00  0.00     0.000 C 
ATOM      5  C   UNL     1     -11.709 -50.175 104.332  1.00  0.00     0.004 C 
ENDBRANCH   3   4
BRANCH   3   6
ATOM      6  C   UNL     1     -11.158 -47.722 106.695  1.00  0.00    -0.014 C 
ATOM      7  C   UNL     1     -10.879 -46.309 107.242  1.00  0.00     0.007 C 
ATOM      8  C   UNL     1     -12.439 -48.262 107.362  1.00  0.00     0.007 C 
ENDBRANCH   3   6
ENDBRANCH   2   3
ENDBRANCH   1   2
BRANCH   1   9
ATOM      9  C   UNL     1     -13.981 -45.495 104.495  1.00  0.00    -0.011 C 
ATOM     10  C   UNL     1     -13.459 -44.333 105.365  1.00  0.00     0.008 C 
BRANCH   9  11
ATOM     11  C   UNL     1     -14.932 -46.526 105.213  1.00  0.00    -0.002 C 
ATOM     12  C   UNL     1     -15.426 -46.155 106.622  1.00  0.00     0.005 C 
ATOM     13  C   UNL     1     -16.206 -46.965 104.438  1.00  0.00    -0.026 C 
ATOM     14  C   UNL     1     -16.738 -46.919 106.825  1.00  0.00     0.005 C 
ATOM     15  C   UNL     1     -16.992 -47.718 105.533  1.00  0.00    -0.001 C 
ATOM     16  C   UNL     1     -17.026 -45.742 103.932  1.00  0.00     0.007 C 
ATOM     17  C   UNL     1     -15.839 -47.912 103.267  1.00  0.00     0.012 C 
ATOM     18  C   UNL     1     -18.490 -48.001 105.191  1.00  0.00     0.000 C 
ATOM     19  C   UNL     1     -18.439 -46.120 103.489  1.00  0.00     0.005 C 
ATOM     20  C   UNL     1     -19.245 -46.769 104.641  1.00  0.00     0.003 C 
ATOM     21  C   UNL     1     -19.237 -48.550 106.413  1.00  0.00     0.031 C 
ATOM     22  C   UNL     1     -20.751 -47.105 104.255  1.00  0.00    -0.008 C 
ATOM     23  C   UNL     1     -20.657 -48.871 106.080  1.00  0.00    -0.027 C 
ATOM     24  C   UNL     1     -21.370 -48.188 105.161  1.00  0.00    -0.065 C 
ATOM     25  C   UNL     1     -20.868 -47.626 102.786  1.00  0.00     0.014 C 
ATOM     26  C   UNL     1     -21.574 -45.799 104.410  1.00  0.00     0.016 C 
ATOM     27  C   UNL     1     -22.772 -48.665 104.841  1.00  0.00     0.063 C 
ATOM     28  C   UNL     1     -22.272 -48.138 102.397  1.00  0.00     0.033 C 
ATOM     29  C   UNL     1     -22.843 -49.168 103.391  1.00  0.00     0.118 C 
BRANCH  29  30
ATOM     30  O   UNL     1     -22.215 -50.419 103.248  1.00  0.00    -0.393 OA
ATOM     31  H   UNL     1     -21.266 -50.324 103.518  1.00  0.00     0.210 HD
ENDBRANCH  29  30
ENDBRANCH   9  11
ENDBRANCH   1   9
TORSDOF 7
ENDMDL
MODEL 9
REMARK VINA RESULT:    -5.859     12.990     15.198
REMARK INTER + INTRA:         -10.400
REMARK INTER:                  -8.284
REMARK INTRA:                  -2.116
REMARK UNBOUND:                -2.314
REMARK SMILES CC[C@@H](CC[C@H](C)[C@H]1CC[C@H]2[C@H]3CC=C4C[C@H](O)CC[C@]4(C)[C@@H]3CC[C@@]12C)C(C)C
REMARK SMILES IDX 5 1 4 2 3 3 2 4 1 5 28 6 29 7 30 8 6 9 7 10 8 11 9 12 26 13
REMARK SMILES IDX 10 14 11 15 25 16 27 17 12 18 24 19 23 20 13 21 21 22 14 23
REMARK SMILES IDX 15 24 20 25 22 26 16 27 19 28 17 29 18 30
REMARK H PARENT 18 31
REMARK Flexibility Score: inf
ROOT
ATOM      1  C   UNL     1     -21.548 -59.893  97.363  1.00  0.00     0.004 C 
ENDROOT
BRANCH   1   2
ATOM      2  C   UNL     1     -22.271 -59.754  98.721  1.00  0.00     0.004 C 
BRANCH   2   3
ATOM      3  C   UNL     1     -22.569 -58.282  99.130  1.00  0.00    -0.009 C 
BRANCH   3   4
ATOM      4  C   UNL     1     -22.177 -57.270  98.013  1.00  0.00     0.000 C 
ATOM      5  C   UNL     1     -23.215 -56.173  97.759  1.00  0.00     0.004 C 
ENDBRANCH   3   4
BRANCH   3   6
ATOM      6  C   UNL     1     -21.931 -57.934 100.522  1.00  0.00    -0.014 C 
ATOM      7  C   UNL     1     -21.750 -59.181 101.410  1.00  0.00     0.007 C 
ATOM      8  C   UNL     1     -20.565 -57.235 100.374  1.00  0.00     0.007 C 
ENDBRANCH   3   6
ENDBRANCH   2   3
ENDBRANCH   1   2
BRANCH   1   9
ATOM      9  C   UNL     1     -20.163 -60.592  97.433  1.00  0.00    -0.011 C 
ATOM     10  C   UNL     1     -20.310 -62.123  97.300  1.00  0.00     0.008 C 
BRANCH   9  11
ATOM     11  C   UNL     1     -19.296 -60.082  98.645  1.00  0.00    -0.002 C 
ATOM     12  C   UNL     1     -19.063 -61.070  99.801  1.00  0.00     0.005 C 
ATOM     13  C   UNL     1     -17.889 -59.508  98.311  1.00  0.00    -0.026 C 
ATOM     14  C   UNL     1     -17.766 -60.624 100.485  1.00  0.00     0.005 C 
ATOM     15  C   UNL     1     -17.261 -59.388  99.717  1.00  0.00    -0.001 C 
ATOM     16  C   UNL     1     -17.059 -60.489  97.432  1.00  0.00     0.007 C 
ATOM     17  C   UNL     1     -18.009 -58.119  97.635  1.00  0.00     0.012 C 
ATOM     18  C   UNL     1     -15.715 -59.165  99.728  1.00  0.00     0.000 C 
ATOM     19  C   UNL     1     -15.574 -60.127  97.384  1.00  0.00     0.005 C 
ATOM     20  C   UNL     1     -14.941 -60.127  98.798  1.00  0.00     0.003 C 
ATOM     21  C   UNL     1     -15.155 -59.277 101.152  1.00  0.00     0.031 C 
ATOM     22  C   UNL     1     -13.376 -59.838  98.794  1.00  0.00    -0.008 C 
ATOM     23  C   UNL     1     -13.686 -59.014 101.179  1.00  0.00    -0.027 C 
ATOM     24  C   UNL     1     -12.865 -59.322 100.154  1.00  0.00    -0.065 C 
ATOM     25  C   UNL     1     -12.990 -58.762  97.729  1.00  0.00     0.014 C 
ATOM     26  C   UNL     1     -12.657 -61.174  98.468  1.00  0.00     0.016 C 
ATOM     27  C   UNL     1     -11.407 -58.922 100.257  1.00  0.00     0.063 C 
ATOM     28  C   UNL     1     -11.517 -58.302  97.788  1.00  0.00     0.033 C 
ATOM     29  C   UNL     1     -11.070 -57.864  99.195  1.00  0.00     0.118 C 
BRANCH  29  30
ATOM     30  O   UNL     1     -11.602 -56.606  99.534  1.00  0.00    -0.393 OA
ATOM     31  H   UNL     1     -12.240 -56.730 100.282  1.00  0.00     0.210 HD
ENDBRANCH  29  30
ENDBRANCH   9  11
ENDBRANCH   1   9
TORSDOF 7
ENDMDL
