MODEL 1
REMARK VINA RESULT:    -7.237      0.000      0.000
REMARK INTER + INTRA:          -7.237
REMARK INTER:                  -7.237
REMARK INTRA:                   0.000
REMARK UNBOUND:                 0.000
REMARK SMILES C[NH+]1CCN(C2=[NH+]c3ccccc3Oc3ccc(Cl)cc32)CC1
REMARK SMILES IDX 7 1 6 2 21 3 5 4 8 5 9 6 13 7 10 8 12 9 14 10 11 11 15 12
REMARK SMILES IDX 16 13 17 14 18 15 20 16 19 17 4 18 22 19 3 20 23 21 2 22
REMARK SMILES IDX 1 23
REMARK H PARENT 7 24 2 25
REMARK Flexibility Score: inf
ROOT
ATOM      1  N   UNL     1     164.176 176.755 192.273  1.00  0.00    -0.237 N 
ATOM      2  C   UNL     1     163.144 176.538 191.503  1.00  0.00     0.286 C 
ATOM      3  C   UNL     1     162.182 175.422 191.712  1.00  0.00     0.108 A 
ATOM      4  N   UNL     1     162.942 177.410 190.373  1.00  0.00    -0.250 N 
ATOM      5  C   UNL     1     164.576 176.010 193.436  1.00  0.00     0.168 A 
ATOM      6  C   UNL     1     165.949 175.919 193.728  1.00  0.00     0.056 A 
ATOM      7  C   UNL     1     163.645 175.542 194.386  1.00  0.00     0.173 A 
ATOM      8  C   UNL     1     166.389 175.366 194.932  1.00  0.00     0.005 A 
ATOM      9  C   UNL     1     164.096 175.020 195.606  1.00  0.00     0.052 A 
ATOM     10  O   UNL     1     162.273 175.570 194.157  1.00  0.00    -0.452 OA
ATOM     11  C   UNL     1     165.462 174.924 195.875  1.00  0.00     0.004 A 
ATOM     12  C   UNL     1     161.708 175.067 192.990  1.00  0.00     0.143 A 
ATOM     13  C   UNL     1     160.644 174.165 193.116  1.00  0.00     0.049 A 
ATOM     14  C   UNL     1     160.086 173.564 191.987  1.00  0.00     0.024 A 
ATOM     15  C   UNL     1     160.583 173.869 190.720  1.00  0.00     0.042 A 
ATOM     16  C   UNL     1     161.620 174.796 190.583  1.00  0.00     0.041 A 
ATOM     17  Cl  UNL     1     159.888 173.111 189.298  1.00  0.00    -0.084 Cl
ATOM     18  C   UNL     1     163.924 177.444 189.289  1.00  0.00     0.298 C 
ATOM     19  C   UNL     1     161.638 178.039 190.153  1.00  0.00     0.298 C 
ATOM     20  C   UNL     1     164.059 178.875 188.751  1.00  0.00     0.308 C 
ATOM     21  C   UNL     1     161.830 179.455 189.592  1.00  0.00     0.308 C 
ATOM     22  N   UNL     1     162.752 179.493 188.434  1.00  0.00    -0.331 N 
ATOM     23  C   UNL     1     162.142 178.920 187.218  1.00  0.00     0.332 C 
ATOM     24  H   UNL     1     164.813 177.542 192.006  1.00  0.00     0.312 HD
ATOM     25  H   UNL     1     162.936 180.503 188.224  1.00  0.00     0.348 HD
ENDROOT
TORSDOF 0
ENDMDL
MODEL 2
REMARK VINA RESULT:    -6.930      3.514      6.230
REMARK INTER + INTRA:          -6.930
REMARK INTER:                  -6.930
REMARK INTRA:                   0.000
REMARK UNBOUND:                 0.000
REMARK SMILES C[NH+]1CCN(C2=[NH+]c3ccccc3Oc3ccc(Cl)cc32)CC1
REMARK SMILES IDX 7 1 6 2 21 3 5 4 8 5 9 6 13 7 10 8 12 9 14 10 11 11 15 12
REMARK SMILES IDX 16 13 17 14 18 15 20 16 19 17 4 18 22 19 3 20 23 21 2 22
REMARK SMILES IDX 1 23
REMARK H PARENT 7 24 2 25
REMARK Flexibility Score: inf
ROOT
ATOM      1  N   UNL     1     163.945 174.625 190.883  1.00  0.00    -0.237 N 
ATOM      2  C   UNL     1     164.863 174.736 191.806  1.00  0.00     0.286 C 
ATOM      3  C   UNL     1     164.658 175.468 193.086  1.00  0.00     0.108 A 
ATOM      4  N   UNL     1     166.152 174.141 191.560  1.00  0.00    -0.250 N 
ATOM      5  C   UNL     1     162.606 175.147 190.910  1.00  0.00     0.168 A 
ATOM      6  C   UNL     1     162.017 175.530 189.692  1.00  0.00     0.056 A 
ATOM      7  C   UNL     1     161.805 175.104 192.070  1.00  0.00     0.173 A 
ATOM      8  C   UNL     1     160.665 175.873 189.627  1.00  0.00     0.005 A 
ATOM      9  C   UNL     1     160.441 175.417 191.988  1.00  0.00     0.052 A 
ATOM     10  O   UNL     1     162.321 174.764 193.316  1.00  0.00    -0.452 OA
ATOM     11  C   UNL     1     159.875 175.809 190.775  1.00  0.00     0.004 A 
ATOM     12  C   UNL     1     163.466 175.363 193.830  1.00  0.00     0.143 A 
ATOM     13  C   UNL     1     163.403 175.888 195.127  1.00  0.00     0.049 A 
ATOM     14  C   UNL     1     164.493 176.571 195.670  1.00  0.00     0.024 A 
ATOM     15  C   UNL     1     165.659 176.726 194.921  1.00  0.00     0.042 A 
ATOM     16  C   UNL     1     165.743 176.174 193.641  1.00  0.00     0.041 A 
ATOM     17  Cl  UNL     1     167.029 177.589 195.598  1.00  0.00    -0.084 Cl
ATOM     18  C   UNL     1     166.989 174.635 190.466  1.00  0.00     0.298 C 
ATOM     19  C   UNL     1     166.758 173.258 192.557  1.00  0.00     0.298 C 
ATOM     20  C   UNL     1     167.745 173.467 189.817  1.00  0.00     0.308 C 
ATOM     21  C   UNL     1     167.520 172.124 191.857  1.00  0.00     0.308 C 
ATOM     22  N   UNL     1     168.442 172.616 190.808  1.00  0.00    -0.331 N 
ATOM     23  C   UNL     1     169.630 173.280 191.378  1.00  0.00     0.332 C 
ATOM     24  H   UNL     1     164.213 174.127 190.003  1.00  0.00     0.312 HD
ATOM     25  H   UNL     1     168.793 171.774 190.291  1.00  0.00     0.348 HD
ENDROOT
TORSDOF 0
ENDMDL
MODEL 3
REMARK VINA RESULT:    -6.919      3.521      4.762
REMARK INTER + INTRA:          -6.919
REMARK INTER:                  -6.919
REMARK INTRA:                   0.000
REMARK UNBOUND:                 0.000
REMARK SMILES C[NH+]1CCN(C2=[NH+]c3ccccc3Oc3ccc(Cl)cc32)CC1
REMARK SMILES IDX 7 1 6 2 21 3 5 4 8 5 9 6 13 7 10 8 12 9 14 10 11 11 15 12
REMARK SMILES IDX 16 13 17 14 18 15 20 16 19 17 4 18 22 19 3 20 23 21 2 22
REMARK SMILES IDX 1 23
REMARK H PARENT 7 24 2 25
REMARK Flexibility Score: inf
ROOT
ATOM      1  N   UNL     1     164.706 174.043 190.629  1.00  0.00    -0.237 N 
ATOM      2  C   UNL     1     164.474 174.992 191.496  1.00  0.00     0.286 C 
ATOM      3  C   UNL     1     164.771 174.869 192.949  1.00  0.00     0.108 A 
ATOM      4  N   UNL     1     163.874 176.214 191.023  1.00  0.00    -0.250 N 
ATOM      5  C   UNL     1     165.281 172.749 190.877  1.00  0.00     0.168 A 
ATOM      6  C   UNL     1     164.865 171.672 190.073  1.00  0.00     0.056 A 
ATOM      7  C   UNL     1     166.372 172.565 191.751  1.00  0.00     0.173 A 
ATOM      8  C   UNL     1     165.512 170.436 190.144  1.00  0.00     0.005 A 
ATOM      9  C   UNL     1     167.036 171.331 191.789  1.00  0.00     0.052 A 
ATOM     10  O   UNL     1     166.822 173.573 192.598  1.00  0.00    -0.452 OA
ATOM     11  C   UNL     1     166.602 170.268 190.996  1.00  0.00     0.004 A 
ATOM     12  C   UNL     1     165.959 174.282 193.427  1.00  0.00     0.143 A 
ATOM     13  C   UNL     1     166.294 174.387 194.783  1.00  0.00     0.049 A 
ATOM     14  C   UNL     1     165.432 175.017 195.681  1.00  0.00     0.024 A 
ATOM     15  C   UNL     1     164.228 175.556 195.226  1.00  0.00     0.042 A 
ATOM     16  C   UNL     1     163.903 175.487 193.869  1.00  0.00     0.041 A 
ATOM     17  Cl  UNL     1     163.137 176.343 196.353  1.00  0.00    -0.084 Cl
ATOM     18  C   UNL     1     162.520 176.196 190.465  1.00  0.00     0.298 C 
ATOM     19  C   UNL     1     164.473 177.507 191.359  1.00  0.00     0.298 C 
ATOM     20  C   UNL     1     162.421 177.196 189.305  1.00  0.00     0.308 C 
ATOM     21  C   UNL     1     164.324 178.474 190.176  1.00  0.00     0.308 C 
ATOM     22  N   UNL     1     162.938 178.537 189.658  1.00  0.00    -0.331 N 
ATOM     23  C   UNL     1     162.035 179.262 190.572  1.00  0.00     0.332 C 
ATOM     24  H   UNL     1     164.416 174.221 189.639  1.00  0.00     0.312 HD
ATOM     25  H   UNL     1     162.970 179.094 188.771  1.00  0.00     0.348 HD
ENDROOT
TORSDOF 0
ENDMDL
MODEL 4
REMARK VINA RESULT:    -6.689      3.999      5.467
REMARK INTER + INTRA:          -6.689
REMARK INTER:                  -6.689
REMARK INTRA:                   0.000
REMARK UNBOUND:                 0.000
REMARK SMILES C[NH+]1CCN(C2=[NH+]c3ccccc3Oc3ccc(Cl)cc32)CC1
REMARK SMILES IDX 7 1 6 2 21 3 5 4 8 5 9 6 13 7 10 8 12 9 14 10 11 11 15 12
REMARK SMILES IDX 16 13 17 14 18 15 20 16 19 17 4 18 22 19 3 20 23 21 2 22
REMARK SMILES IDX 1 23
REMARK H PARENT 7 24 2 25
REMARK Flexibility Score: inf
ROOT
ATOM      1  N   UNL     1     164.555 172.909 190.784  1.00  0.00    -0.237 N 
ATOM      2  C   UNL     1     164.257 173.854 191.637  1.00  0.00     0.286 C 
ATOM      3  C   UNL     1     165.002 174.081 192.905  1.00  0.00     0.108 A 
ATOM      4  N   UNL     1     163.130 174.703 191.346  1.00  0.00    -0.250 N 
ATOM      5  C   UNL     1     165.618 171.946 190.878  1.00  0.00     0.168 A 
ATOM      6  C   UNL     1     165.415 170.675 190.312  1.00  0.00     0.056 A 
ATOM      7  C   UNL     1     166.907 172.291 191.333  1.00  0.00     0.173 A 
ATOM      8  C   UNL     1     166.466 169.761 190.210  1.00  0.00     0.005 A 
ATOM      9  C   UNL     1     167.963 171.379 191.196  1.00  0.00     0.052 A 
ATOM     10  O   UNL     1     167.180 173.517 191.931  1.00  0.00    -0.452 OA
ATOM     11  C   UNL     1     167.742 170.116 190.645  1.00  0.00     0.004 A 
ATOM     12  C   UNL     1     166.408 174.019 192.974  1.00  0.00     0.143 A 
ATOM     13  C   UNL     1     167.071 174.455 194.127  1.00  0.00     0.049 A 
ATOM     14  C   UNL     1     166.350 174.896 195.238  1.00  0.00     0.024 A 
ATOM     15  C   UNL     1     164.956 174.911 195.199  1.00  0.00     0.042 A 
ATOM     16  C   UNL     1     164.287 174.513 194.039  1.00  0.00     0.041 A 
ATOM     17  Cl  UNL     1     164.045 175.458 196.595  1.00  0.00    -0.084 Cl
ATOM     18  C   UNL     1     161.782 174.136 191.285  1.00  0.00     0.298 C 
ATOM     19  C   UNL     1     163.272 176.159 191.400  1.00  0.00     0.298 C 
ATOM     20  C   UNL     1     160.970 174.835 190.186  1.00  0.00     0.308 C 
ATOM     21  C   UNL     1     162.423 176.808 190.298  1.00  0.00     0.308 C 
ATOM     22  N   UNL     1     161.028 176.312 190.283  1.00  0.00    -0.331 N 
ATOM     23  C   UNL     1     160.240 176.828 191.418  1.00  0.00     0.332 C 
ATOM     24  H   UNL     1     163.935 172.811 189.946  1.00  0.00     0.312 HD
ATOM     25  H   UNL     1     160.579 176.691 189.415  1.00  0.00     0.348 HD
ENDROOT
TORSDOF 0
ENDMDL
MODEL 5
REMARK VINA RESULT:    -6.662      1.644      1.984
REMARK INTER + INTRA:          -6.662
REMARK INTER:                  -6.662
REMARK INTRA:                   0.000
REMARK UNBOUND:                 0.000
REMARK SMILES C[NH+]1CCN(C2=[NH+]c3ccccc3Oc3ccc(Cl)cc32)CC1
REMARK SMILES IDX 7 1 6 2 21 3 5 4 8 5 9 6 13 7 10 8 12 9 14 10 11 11 15 12
REMARK SMILES IDX 16 13 17 14 18 15 20 16 19 17 4 18 22 19 3 20 23 21 2 22
REMARK SMILES IDX 1 23
REMARK H PARENT 7 24 2 25
REMARK Flexibility Score: inf
ROOT
ATOM      1  N   UNL     1     165.804 175.369 192.410  1.00  0.00    -0.237 N 
ATOM      2  C   UNL     1     164.648 175.587 191.842  1.00  0.00     0.286 C 
ATOM      3  C   UNL     1     163.364 175.034 192.350  1.00  0.00     0.108 A 
ATOM      4  N   UNL     1     164.620 176.384 190.642  1.00  0.00    -0.250 N 
ATOM      5  C   UNL     1     166.067 174.598 193.595  1.00  0.00     0.168 A 
ATOM      6  C   UNL     1     167.297 173.923 193.689  1.00  0.00     0.056 A 
ATOM      7  C   UNL     1     165.234 174.657 194.731  1.00  0.00     0.173 A 
ATOM      8  C   UNL     1     167.687 173.309 194.881  1.00  0.00     0.005 A 
ATOM      9  C   UNL     1     165.649 174.067 195.933  1.00  0.00     0.052 A 
ATOM     10  O   UNL     1     163.990 175.280 194.708  1.00  0.00    -0.452 OA
ATOM     11  C   UNL     1     166.866 173.388 196.006  1.00  0.00     0.004 A 
ATOM     12  C   UNL     1     163.046 175.010 193.722  1.00  0.00     0.143 A 
ATOM     13  C   UNL     1     161.746 174.687 194.134  1.00  0.00     0.049 A 
ATOM     14  C   UNL     1     160.774 174.329 193.199  1.00  0.00     0.024 A 
ATOM     15  C   UNL     1     161.093 174.299 191.841  1.00  0.00     0.042 A 
ATOM     16  C   UNL     1     162.377 174.655 191.420  1.00  0.00     0.041 A 
ATOM     17  Cl  UNL     1     159.876 173.843 190.663  1.00  0.00    -0.084 Cl
ATOM     18  C   UNL     1     165.287 175.907 189.429  1.00  0.00     0.298 C 
ATOM     19  C   UNL     1     163.695 177.514 190.530  1.00  0.00     0.298 C 
ATOM     20  C   UNL     1     165.911 177.090 188.676  1.00  0.00     0.308 C 
ATOM     21  C   UNL     1     164.359 178.657 189.749  1.00  0.00     0.308 C 
ATOM     22  N   UNL     1     164.960 178.206 188.472  1.00  0.00    -0.331 N 
ATOM     23  C   UNL     1     163.937 177.890 187.457  1.00  0.00     0.332 C 
ATOM     24  H   UNL     1     166.649 175.770 191.941  1.00  0.00     0.312 HD
ATOM     25  H   UNL     1     165.513 179.012 188.095  1.00  0.00     0.348 HD
ENDROOT
TORSDOF 0
ENDMDL
MODEL 6
REMARK VINA RESULT:    -6.576     13.322     14.750
REMARK INTER + INTRA:          -6.576
REMARK INTER:                  -6.576
REMARK INTRA:                   0.000
REMARK UNBOUND:                 0.000
REMARK SMILES C[NH+]1CCN(C2=[NH+]c3ccccc3Oc3ccc(Cl)cc32)CC1
REMARK SMILES IDX 7 1 6 2 21 3 5 4 8 5 9 6 13 7 10 8 12 9 14 10 11 11 15 12
REMARK SMILES IDX 16 13 17 14 18 15 20 16 19 17 4 18 22 19 3 20 23 21 2 22
REMARK SMILES IDX 1 23
REMARK H PARENT 7 24 2 25
REMARK Flexibility Score: inf
ROOT
ATOM      1  N   UNL     1     167.647 165.419 184.610  1.00  0.00    -0.237 N 
ATOM      2  C   UNL     1     168.476 166.221 185.224  1.00  0.00     0.286 C 
ATOM      3  C   UNL     1     169.954 166.150 185.071  1.00  0.00     0.108 A 
ATOM      4  N   UNL     1     167.929 167.209 186.119  1.00  0.00    -0.250 N 
ATOM      5  C   UNL     1     167.969 164.360 183.693  1.00  0.00     0.168 A 
ATOM      6  C   UNL     1     167.128 163.233 183.656  1.00  0.00     0.056 A 
ATOM      7  C   UNL     1     168.966 164.497 182.705  1.00  0.00     0.173 A 
ATOM      8  C   UNL     1     167.281 162.258 182.669  1.00  0.00     0.005 A 
ATOM      9  C   UNL     1     169.090 163.530 181.698  1.00  0.00     0.052 A 
ATOM     10  O   UNL     1     169.855 165.567 182.692  1.00  0.00    -0.452 OA
ATOM     11  C   UNL     1     168.257 162.411 181.685  1.00  0.00     0.004 A 
ATOM     12  C   UNL     1     170.572 165.946 183.822  1.00  0.00     0.143 A 
ATOM     13  C   UNL     1     171.958 166.108 183.692  1.00  0.00     0.049 A 
ATOM     14  C   UNL     1     172.744 166.410 184.805  1.00  0.00     0.024 A 
ATOM     15  C   UNL     1     172.148 166.562 186.057  1.00  0.00     0.042 A 
ATOM     16  C   UNL     1     170.763 166.438 186.188  1.00  0.00     0.041 A 
ATOM     17  Cl  UNL     1     173.134 166.935 187.459  1.00  0.00    -0.084 Cl
ATOM     18  C   UNL     1     167.216 166.790 187.326  1.00  0.00     0.298 C 
ATOM     19  C   UNL     1     168.326 168.613 185.996  1.00  0.00     0.298 C 
ATOM     20  C   UNL     1     166.046 167.745 187.600  1.00  0.00     0.308 C 
ATOM     21  C   UNL     1     167.128 169.523 186.304  1.00  0.00     0.308 C 
ATOM     22  N   UNL     1     166.450 169.169 187.572  1.00  0.00    -0.331 N 
ATOM     23  C   UNL     1     167.248 169.547 188.754  1.00  0.00     0.332 C 
ATOM     24  H   UNL     1     166.629 165.528 184.827  1.00  0.00     0.312 HD
ATOM     25  H   UNL     1     165.570 169.735 187.615  1.00  0.00     0.348 HD
ENDROOT
TORSDOF 0
ENDMDL
MODEL 7
REMARK VINA RESULT:    -6.488      2.337      2.929
REMARK INTER + INTRA:          -6.488
REMARK INTER:                  -6.488
REMARK INTRA:                   0.000
REMARK UNBOUND:                 0.000
REMARK SMILES C[NH+]1CCN(C2=[NH+]c3ccccc3Oc3ccc(Cl)cc32)CC1
REMARK SMILES IDX 7 1 6 2 21 3 5 4 8 5 9 6 13 7 10 8 12 9 14 10 11 11 15 12
REMARK SMILES IDX 16 13 17 14 18 15 20 16 19 17 4 18 22 19 3 20 23 21 2 22
REMARK SMILES IDX 1 23
REMARK H PARENT 7 24 2 25
REMARK Flexibility Score: inf
ROOT
ATOM      1  N   UNL     1     166.236 176.589 190.687  1.00  0.00    -0.237 N 
ATOM      2  C   UNL     1     165.034 177.104 190.677  1.00  0.00     0.286 C 
ATOM      3  C   UNL     1     163.861 176.464 191.331  1.00  0.00     0.108 A 
ATOM      4  N   UNL     1     164.831 178.343 189.971  1.00  0.00    -0.250 N 
ATOM      5  C   UNL     1     166.661 175.366 191.311  1.00  0.00     0.168 A 
ATOM      6  C   UNL     1     167.708 174.643 190.712  1.00  0.00     0.056 A 
ATOM      7  C   UNL     1     166.208 174.977 192.589  1.00  0.00     0.173 A 
ATOM      8  C   UNL     1     168.285 173.550 191.361  1.00  0.00     0.005 A 
ATOM      9  C   UNL     1     166.817 173.899 193.247  1.00  0.00     0.052 A 
ATOM     10  O   UNL     1     165.158 175.623 193.233  1.00  0.00    -0.452 OA
ATOM     11  C   UNL     1     167.844 173.183 192.632  1.00  0.00     0.004 A 
ATOM     12  C   UNL     1     163.942 175.866 192.604  1.00  0.00     0.143 A 
ATOM     13  C   UNL     1     162.773 175.478 193.270  1.00  0.00     0.049 A 
ATOM     14  C   UNL     1     161.526 175.622 192.659  1.00  0.00     0.024 A 
ATOM     15  C   UNL     1     161.439 176.165 191.377  1.00  0.00     0.042 A 
ATOM     16  C   UNL     1     162.598 176.588 190.720  1.00  0.00     0.041 A 
ATOM     17  Cl  UNL     1     159.875 176.341 190.602  1.00  0.00    -0.084 Cl
ATOM     18  C   UNL     1     165.023 178.400 188.521  1.00  0.00     0.298 C 
ATOM     19  C   UNL     1     164.156 179.463 190.629  1.00  0.00     0.298 C 
ATOM     20  C   UNL     1     165.634 179.752 188.127  1.00  0.00     0.308 C 
ATOM     21  C   UNL     1     164.789 180.789 190.183  1.00  0.00     0.308 C 
ATOM     22  N   UNL     1     164.906 180.901 188.710  1.00  0.00    -0.331 N 
ATOM     23  C   UNL     1     163.598 181.121 188.063  1.00  0.00     0.332 C 
ATOM     24  H   UNL     1     166.978 177.102 190.156  1.00  0.00     0.312 HD
ATOM     25  H   UNL     1     165.480 181.756 188.515  1.00  0.00     0.348 HD
ENDROOT
TORSDOF 0
ENDMDL
MODEL 8
REMARK VINA RESULT:    -6.419      2.082      5.788
REMARK INTER + INTRA:          -6.419
REMARK INTER:                  -6.419
REMARK INTRA:                   0.000
REMARK UNBOUND:                 0.000
REMARK SMILES C[NH+]1CCN(C2=[NH+]c3ccccc3Oc3ccc(Cl)cc32)CC1
REMARK SMILES IDX 7 1 6 2 21 3 5 4 8 5 9 6 13 7 10 8 12 9 14 10 11 11 15 12
REMARK SMILES IDX 16 13 17 14 18 15 20 16 19 17 4 18 22 19 3 20 23 21 2 22
REMARK SMILES IDX 1 23
REMARK H PARENT 7 24 2 25
REMARK Flexibility Score: inf
ROOT
ATOM      1  N   UNL     1     164.771 177.899 191.250  1.00  0.00    -0.237 N 
ATOM      2  C   UNL     1     164.276 176.746 191.613  1.00  0.00     0.286 C 
ATOM      3  C   UNL     1     163.023 176.174 191.050  1.00  0.00     0.108 A 
ATOM      4  N   UNL     1     164.967 176.000 192.635  1.00  0.00    -0.250 N 
ATOM      5  C   UNL     1     164.246 178.809 190.269  1.00  0.00     0.168 A 
ATOM      6  C   UNL     1     164.455 180.186 190.460  1.00  0.00     0.056 A 
ATOM      7  C   UNL     1     163.710 178.366 189.042  1.00  0.00     0.173 A 
ATOM      8  C   UNL     1     164.130 181.105 189.460  1.00  0.00     0.005 A 
ATOM      9  C   UNL     1     163.418 179.292 188.032  1.00  0.00     0.052 A 
ATOM     10  O   UNL     1     163.446 177.023 188.789  1.00  0.00    -0.452 OA
ATOM     11  C   UNL     1     163.619 180.657 188.242  1.00  0.00     0.004 A 
ATOM     12  C   UNL     1     162.721 176.233 189.675  1.00  0.00     0.143 A 
ATOM     13  C   UNL     1     161.648 175.493 189.163  1.00  0.00     0.049 A 
ATOM     14  C   UNL     1     160.834 174.742 190.011  1.00  0.00     0.024 A 
ATOM     15  C   UNL     1     161.093 174.719 191.382  1.00  0.00     0.042 A 
ATOM     16  C   UNL     1     162.183 175.425 191.896  1.00  0.00     0.041 A 
ATOM     17  Cl  UNL     1     160.067 173.783 192.454  1.00  0.00    -0.084 Cl
ATOM     18  C   UNL     1     165.076 176.543 193.990  1.00  0.00     0.298 C 
ATOM     19  C   UNL     1     165.303 174.592 192.419  1.00  0.00     0.298 C 
ATOM     20  C   UNL     1     166.440 176.178 194.591  1.00  0.00     0.308 C 
ATOM     21  C   UNL     1     166.662 174.276 193.059  1.00  0.00     0.308 C 
ATOM     22  N   UNL     1     166.755 174.736 194.464  1.00  0.00    -0.331 N 
ATOM     23  C   UNL     1     165.948 173.905 195.377  1.00  0.00     0.332 C 
ATOM     24  H   UNL     1     165.633 178.225 191.745  1.00  0.00     0.312 HD
ATOM     25  H   UNL     1     167.753 174.617 194.758  1.00  0.00     0.348 HD
ENDROOT
TORSDOF 0
ENDMDL
MODEL 9
REMARK VINA RESULT:    -6.357      4.368      6.629
REMARK INTER + INTRA:          -6.357
REMARK INTER:                  -6.357
REMARK INTRA:                   0.000
REMARK UNBOUND:                 0.000
REMARK SMILES C[NH+]1CCN(C2=[NH+]c3ccccc3Oc3ccc(Cl)cc32)CC1
REMARK SMILES IDX 7 1 6 2 21 3 5 4 8 5 9 6 13 7 10 8 12 9 14 10 11 11 15 12
REMARK SMILES IDX 16 13 17 14 18 15 20 16 19 17 4 18 22 19 3 20 23 21 2 22
REMARK SMILES IDX 1 23
REMARK H PARENT 7 24 2 25
REMARK Flexibility Score: inf
ROOT
ATOM      1  N   UNL     1     165.737 174.783 190.258  1.00  0.00    -0.237 N 
ATOM      2  C   UNL     1     166.027 173.921 191.196  1.00  0.00     0.286 C 
ATOM      3  C   UNL     1     165.699 174.127 192.632  1.00  0.00     0.108 A 
ATOM      4  N   UNL     1     166.725 172.717 190.821  1.00  0.00    -0.250 N 
ATOM      5  C   UNL     1     165.063 176.044 190.403  1.00  0.00     0.168 A 
ATOM      6  C   UNL     1     165.408 177.088 189.526  1.00  0.00     0.056 A 
ATOM      7  C   UNL     1     163.947 176.207 191.250  1.00  0.00     0.173 A 
ATOM      8  C   UNL     1     164.669 178.272 189.498  1.00  0.00     0.005 A 
ATOM      9  C   UNL     1     163.191 177.386 191.190  1.00  0.00     0.052 A 
ATOM     10  O   UNL     1     163.561 175.233 192.165  1.00  0.00    -0.452 OA
ATOM     11  C   UNL     1     163.555 178.418 190.324  1.00  0.00     0.004 A 
ATOM     12  C   UNL     1     164.463 174.655 193.053  1.00  0.00     0.143 A 
ATOM     13  C   UNL     1     164.115 174.624 194.410  1.00  0.00     0.049 A 
ATOM     14  C   UNL     1     165.008 174.130 195.361  1.00  0.00     0.024 A 
ATOM     15  C   UNL     1     166.256 173.653 194.960  1.00  0.00     0.042 A 
ATOM     16  C   UNL     1     166.597 173.646 193.605  1.00  0.00     0.041 A 
ATOM     17  Cl  UNL     1     167.385 173.037 196.153  1.00  0.00    -0.084 Cl
ATOM     18  C   UNL     1     168.082 172.797 190.277  1.00  0.00     0.298 C 
ATOM     19  C   UNL     1     166.221 171.410 191.246  1.00  0.00     0.298 C 
ATOM     20  C   UNL     1     168.275 171.726 189.195  1.00  0.00     0.308 C 
ATOM     21  C   UNL     1     166.460 170.373 190.140  1.00  0.00     0.308 C 
ATOM     22  N   UNL     1     167.855 170.378 189.642  1.00  0.00    -0.331 N 
ATOM     23  C   UNL     1     168.796 169.794 190.617  1.00  0.00     0.332 C 
ATOM     24  H   UNL     1     166.055 174.556 189.287  1.00  0.00     0.312 HD
ATOM     25  H   UNL     1     167.880 169.757 188.799  1.00  0.00     0.348 HD
ENDROOT
TORSDOF 0
ENDMDL
