MODEL 1
REMARK VINA RESULT:    -4.257      0.000      0.000
REMARK INTER + INTRA:          -4.612
REMARK INTER:                  -4.506
REMARK INTRA:                  -0.106
REMARK UNBOUND:                -0.106
REMARK SMILES C=C1CC[C@]2(C(C)C)C[C@H]12
REMARK SMILES IDX 5 1 4 2 3 3 2 4 1 5 10 6 9 7 6 8 7 9 8 10
REMARK H PARENT
REMARK Flexibility Score: inf
ROOT
ATOM      1  C   UNL     1       1.139  15.370  16.452  1.00  0.00    -0.020 C 
ATOM      2  C   UNL     1       0.646  16.165  15.229  1.00  0.00     0.012 C 
ATOM      3  C   UNL     1       1.110  17.612  15.402  1.00  0.00     0.031 C 
ATOM      4  C   UNL     1       1.741  17.655  16.750  1.00  0.00    -0.074 C 
ATOM      5  C   UNL     1       2.211  18.776  17.305  1.00  0.00     0.008 C 
ATOM      6  C   UNL     1       1.797  16.335  17.430  1.00  0.00     0.021 C 
ATOM      7  C   UNL     1       0.457  15.703  17.784  1.00  0.00     0.016 C 
ENDROOT
BRANCH   1   8
ATOM      8  C   UNL     1       1.853  14.003  16.216  1.00  0.00    -0.011 C 
ATOM      9  C   UNL     1       2.858  13.987  15.054  1.00  0.00     0.008 C 
ATOM     10  C   UNL     1       0.837  12.861  16.055  1.00  0.00     0.008 C 
ENDBRANCH   1   8
TORSDOF 1
ENDMDL
MODEL 2
REMARK VINA RESULT:    -4.202      9.566     11.330
REMARK INTER + INTRA:          -4.553
REMARK INTER:                  -4.447
REMARK INTRA:                  -0.106
REMARK UNBOUND:                -0.106
REMARK SMILES C=C1CC[C@]2(C(C)C)C[C@H]12
REMARK SMILES IDX 5 1 4 2 3 3 2 4 1 5 10 6 9 7 6 8 7 9 8 10
REMARK H PARENT
REMARK Flexibility Score: inf
ROOT
ATOM      1  C   UNL     1       7.152   7.248  12.733  1.00  0.00    -0.020 C 
ATOM      2  C   UNL     1       6.181   8.223  12.041  1.00  0.00     0.012 C 
ATOM      3  C   UNL     1       4.844   7.500  11.875  1.00  0.00     0.031 C 
ATOM      4  C   UNL     1       5.095   6.111  12.350  1.00  0.00    -0.074 C 
ATOM      5  C   UNL     1       4.179   5.140  12.296  1.00  0.00     0.008 C 
ATOM      6  C   UNL     1       6.464   5.898  12.887  1.00  0.00     0.021 C 
ATOM      7  C   UNL     1       7.609   6.050  11.893  1.00  0.00     0.016 C 
ENDROOT
BRANCH   1   8
ATOM      8  C   UNL     1       7.986   7.761  13.948  1.00  0.00    -0.011 C 
ATOM      9  C   UNL     1       7.210   8.635  14.946  1.00  0.00     0.008 C 
ATOM     10  C   UNL     1       9.260   8.487  13.487  1.00  0.00     0.008 C 
ENDBRANCH   1   8
TORSDOF 1
ENDMDL
MODEL 3
REMARK VINA RESULT:    -4.178      1.353      2.747
REMARK INTER + INTRA:          -4.528
REMARK INTER:                  -4.245
REMARK INTRA:                  -0.283
REMARK UNBOUND:                -0.106
REMARK SMILES C=C1CC[C@]2(C(C)C)C[C@H]12
REMARK SMILES IDX 5 1 4 2 3 3 2 4 1 5 10 6 9 7 6 8 7 9 8 10
REMARK H PARENT
REMARK Flexibility Score: inf
ROOT
ATOM      1  C   UNL     1       1.432  13.955  16.913  1.00  0.00    -0.020 C 
ATOM      2  C   UNL     1       1.992  14.702  18.138  1.00  0.00     0.012 C 
ATOM      3  C   UNL     1       1.845  16.201  17.871  1.00  0.00     0.031 C 
ATOM      4  C   UNL     1       1.328  16.295  16.478  1.00  0.00    -0.074 C 
ATOM      5  C   UNL     1       1.134  17.454  15.844  1.00  0.00     0.008 C 
ATOM      6  C   UNL     1       1.050  14.977  15.850  1.00  0.00     0.021 C 
ATOM      7  C   UNL     1       2.255  14.071  15.626  1.00  0.00     0.016 C 
ENDROOT
BRANCH   1   8
ATOM      8  C   UNL     1       0.440  12.773  17.148  1.00  0.00    -0.011 C 
ATOM      9  C   UNL     1      -0.977  12.995  16.597  1.00  0.00     0.008 C 
ATOM     10  C   UNL     1       0.377  12.383  18.634  1.00  0.00     0.008 C 
ENDBRANCH   1   8
TORSDOF 1
ENDMDL
MODEL 4
REMARK VINA RESULT:    -4.146      1.296      3.684
REMARK INTER + INTRA:          -4.494
REMARK INTER:                  -4.153
REMARK INTRA:                  -0.341
REMARK UNBOUND:                -0.106
REMARK SMILES C=C1CC[C@]2(C(C)C)C[C@H]12
REMARK SMILES IDX 5 1 4 2 3 3 2 4 1 5 10 6 9 7 6 8 7 9 8 10
REMARK H PARENT
REMARK Flexibility Score: inf
ROOT
ATOM      1  C   UNL     1       1.224  16.300  16.392  1.00  0.00    -0.020 C 
ATOM      2  C   UNL     1       1.919  15.201  15.567  1.00  0.00     0.012 C 
ATOM      3  C   UNL     1       1.637  13.863  16.254  1.00  0.00     0.031 C 
ATOM      4  C   UNL     1       0.906  14.217  17.502  1.00  0.00    -0.074 C 
ATOM      5  C   UNL     1       0.544  13.317  18.420  1.00  0.00     0.008 C 
ATOM      6  C   UNL     1       0.619  15.668  17.639  1.00  0.00     0.021 C 
ATOM      7  C   UNL     1       1.829  16.585  17.771  1.00  0.00     0.016 C 
ENDROOT
BRANCH   1   8
ATOM      8  C   UNL     1       0.357  17.360  15.643  1.00  0.00    -0.011 C 
ATOM      9  C   UNL     1      -1.123  16.985  15.471  1.00  0.00     0.008 C 
ATOM     10  C   UNL     1       0.973  17.725  14.282  1.00  0.00     0.008 C 
ENDBRANCH   1   8
TORSDOF 1
ENDMDL
MODEL 5
REMARK VINA RESULT:    -4.137      1.282      2.047
REMARK INTER + INTRA:          -4.484
REMARK INTER:                  -4.152
REMARK INTRA:                  -0.332
REMARK UNBOUND:                -0.106
REMARK SMILES C=C1CC[C@]2(C(C)C)C[C@H]12
REMARK SMILES IDX 5 1 4 2 3 3 2 4 1 5 10 6 9 7 6 8 7 9 8 10
REMARK H PARENT
REMARK Flexibility Score: inf
ROOT
ATOM      1  C   UNL     1       0.917  15.319  17.361  1.00  0.00    -0.020 C 
ATOM      2  C   UNL     1      -0.606  15.535  17.420  1.00  0.00     0.012 C 
ATOM      3  C   UNL     1      -0.972  16.538  16.325  1.00  0.00     0.031 C 
ATOM      4  C   UNL     1       0.331  16.970  15.748  1.00  0.00    -0.074 C 
ATOM      5  C   UNL     1       0.440  17.907  14.801  1.00  0.00     0.008 C 
ATOM      6  C   UNL     1       1.506  16.266  16.323  1.00  0.00     0.021 C 
ATOM      7  C   UNL     1       1.777  16.509  17.803  1.00  0.00     0.016 C 
ENDROOT
BRANCH   1   8
ATOM      8  C   UNL     1       1.467  13.859  17.381  1.00  0.00    -0.011 C 
ATOM      9  C   UNL     1       1.492  13.156  16.015  1.00  0.00     0.008 C 
ATOM     10  C   UNL     1       0.719  12.994  18.408  1.00  0.00     0.008 C 
ENDBRANCH   1   8
TORSDOF 1
ENDMDL
MODEL 6
REMARK VINA RESULT:    -4.006      1.413      4.307
REMARK INTER + INTRA:          -4.346
REMARK INTER:                  -4.006
REMARK INTRA:                  -0.341
REMARK UNBOUND:                -0.106
REMARK SMILES C=C1CC[C@]2(C(C)C)C[C@H]12
REMARK SMILES IDX 5 1 4 2 3 3 2 4 1 5 10 6 9 7 6 8 7 9 8 10
REMARK H PARENT
REMARK Flexibility Score: inf
ROOT
ATOM      1  C   UNL     1       1.042  14.150  16.931  1.00  0.00    -0.020 C 
ATOM      2  C   UNL     1       2.374  14.116  16.159  1.00  0.00     0.012 C 
ATOM      3  C   UNL     1       2.191  13.178  14.965  1.00  0.00     0.031 C 
ATOM      4  C   UNL     1       0.827  12.604  15.132  1.00  0.00    -0.074 C 
ATOM      5  C   UNL     1       0.318  11.674  14.319  1.00  0.00     0.008 C 
ATOM      6  C   UNL     1       0.081  13.155  16.292  1.00  0.00     0.021 C 
ATOM      7  C   UNL     1       0.664  12.861  17.669  1.00  0.00     0.016 C 
ENDROOT
BRANCH   1   8
ATOM      8  C   UNL     1       0.455  15.534  17.347  1.00  0.00    -0.011 C 
ATOM      9  C   UNL     1      -0.571  16.126  16.369  1.00  0.00     0.008 C 
ATOM     10  C   UNL     1       1.571  16.554  17.626  1.00  0.00     0.008 C 
ENDBRANCH   1   8
TORSDOF 1
ENDMDL
MODEL 7
REMARK VINA RESULT:    -3.935      2.510      3.954
REMARK INTER + INTRA:          -4.271
REMARK INTER:                  -3.959
REMARK INTRA:                  -0.312
REMARK UNBOUND:                -0.106
REMARK SMILES C=C1CC[C@]2(C(C)C)C[C@H]12
REMARK SMILES IDX 5 1 4 2 3 3 2 4 1 5 10 6 9 7 6 8 7 9 8 10
REMARK H PARENT
REMARK Flexibility Score: inf
ROOT
ATOM      1  C   UNL     1       0.898  13.920  16.174  1.00  0.00    -0.020 C 
ATOM      2  C   UNL     1       1.845  14.292  17.330  1.00  0.00     0.012 C 
ATOM      3  C   UNL     1       1.350  13.566  18.582  1.00  0.00     0.031 C 
ATOM      4  C   UNL     1       0.084  12.902  18.168  1.00  0.00    -0.074 C 
ATOM      5  C   UNL     1      -0.698  12.220  19.010  1.00  0.00     0.008 C 
ATOM      6  C   UNL     1      -0.239  13.070  16.727  1.00  0.00     0.021 C 
ATOM      7  C   UNL     1      -0.521  14.494  16.262  1.00  0.00     0.016 C 
ENDROOT
BRANCH   1   8
ATOM      8  C   UNL     1       1.518  13.476  14.814  1.00  0.00    -0.011 C 
ATOM      9  C   UNL     1       1.366  11.982  14.487  1.00  0.00     0.008 C 
ATOM     10  C   UNL     1       2.994  13.893  14.709  1.00  0.00     0.008 C 
ENDBRANCH   1   8
TORSDOF 1
ENDMDL
MODEL 8
REMARK VINA RESULT:    -3.893      1.550      3.940
REMARK INTER + INTRA:          -4.226
REMARK INTER:                  -3.901
REMARK INTRA:                  -0.325
REMARK UNBOUND:                -0.106
REMARK SMILES C=C1CC[C@]2(C(C)C)C[C@H]12
REMARK SMILES IDX 5 1 4 2 3 3 2 4 1 5 10 6 9 7 6 8 7 9 8 10
REMARK H PARENT
REMARK Flexibility Score: inf
ROOT
ATOM      1  C   UNL     1       0.942  14.983  16.255  1.00  0.00    -0.020 C 
ATOM      2  C   UNL     1      -0.569  14.819  16.005  1.00  0.00     0.012 C 
ATOM      3  C   UNL     1      -1.095  13.800  17.018  1.00  0.00     0.031 C 
ATOM      4  C   UNL     1       0.114  13.311  17.737  1.00  0.00    -0.074 C 
ATOM      5  C   UNL     1       0.078  12.347  18.661  1.00  0.00     0.008 C 
ATOM      6  C   UNL     1       1.371  13.991  17.330  1.00  0.00     0.021 C 
ATOM      7  C   UNL     1       1.815  13.777  15.888  1.00  0.00     0.016 C 
ENDROOT
BRANCH   1   8
ATOM      8  C   UNL     1       1.532  16.424  16.346  1.00  0.00    -0.011 C 
ATOM      9  C   UNL     1       1.862  16.903  17.768  1.00  0.00     0.008 C 
ATOM     10  C   UNL     1       0.625  17.445  15.640  1.00  0.00     0.008 C 
ENDBRANCH   1   8
TORSDOF 1
ENDMDL
MODEL 9
REMARK VINA RESULT:    -1.321      9.670     10.986
REMARK INTER + INTRA:          -1.504
REMARK INTER:                  -1.403
REMARK INTRA:                  -0.102
REMARK UNBOUND:                -0.106
REMARK SMILES C=C1CC[C@]2(C(C)C)C[C@H]12
REMARK SMILES IDX 5 1 4 2 3 3 2 4 1 5 10 6 9 7 6 8 7 9 8 10
REMARK H PARENT
REMARK Flexibility Score: inf
ROOT
ATOM      1  C   UNL     1       6.403   6.705  12.995  1.00  0.00    -0.020 C 
ATOM      2  C   UNL     1       6.218   7.387  14.363  1.00  0.00     0.012 C 
ATOM      3  C   UNL     1       7.459   8.244  14.622  1.00  0.00     0.031 C 
ATOM      4  C   UNL     1       8.373   7.952  13.484  1.00  0.00    -0.074 C 
ATOM      5  C   UNL     1       9.606   8.458  13.384  1.00  0.00     0.008 C 
ATOM      6  C   UNL     1       7.792   7.040  12.465  1.00  0.00     0.021 C 
ATOM      7  C   UNL     1       7.485   5.621  12.929  1.00  0.00     0.016 C 
ENDROOT
BRANCH   1   8
ATOM      8  C   UNL     1       5.225   6.750  11.972  1.00  0.00    -0.011 C 
ATOM      9  C   UNL     1       4.501   8.102  11.875  1.00  0.00     0.008 C 
ATOM     10  C   UNL     1       4.213   5.624  12.235  1.00  0.00     0.008 C 
ENDBRANCH   1   8
TORSDOF 1
ENDMDL
