MODEL 1
REMARK VINA RESULT:    -4.508      0.000      0.000
REMARK INTER + INTRA:          -5.862
REMARK INTER:                  -6.353
REMARK INTRA:                   0.491
REMARK UNBOUND:                 0.491
REMARK SMILES CC1=CCC(=C(C)C)C(=O)CC(C)=CCC1
REMARK SMILES IDX 12 1 14 2 13 3 15 4 16 5 2 6 1 7 3 8 11 10 9 11 10 12 5 13
REMARK SMILES IDX 6 14 7 15 8 16 4 17
REMARK H PARENT
REMARK Flexibility Score: 60.00
ROOT
ATOM      1  C   UNL     1     -27.193  -4.804  -4.462  1.00  0.00    -0.070 C 
ATOM      2  C   UNL     1     -26.647  -4.299  -3.331  1.00  0.00    -0.027 C 
ATOM      3  C   UNL     1     -28.102  -6.001  -4.322  1.00  0.00     0.039 C 
ENDROOT
BRANCH   2   4
ATOM      4  C   UNL     1     -25.635  -3.181  -3.249  1.00  0.00     0.032 C 
BRANCH   4   5
ATOM      5  C   UNL     1     -26.284  -1.815  -2.959  1.00  0.00     0.034 C 
BRANCH   5   6
ATOM      6  C   UNL     1     -25.904  -0.771  -3.991  1.00  0.00    -0.077 C 
ATOM      7  C   UNL     1     -24.581  -0.062  -3.840  1.00  0.00     0.039 C 
ATOM      8  C   UNL     1     -26.672  -0.456  -5.059  1.00  0.00    -0.023 CG0
ATOM      9  G   UNL     1     -28.005  -1.077  -5.401  1.00  0.00     0.000 G0
ENDBRANCH   5   6
ENDBRANCH   4   5
ENDBRANCH   2   4
BRANCH   1  10
ATOM     10  C   UNL     1     -26.888  -4.278  -5.855  1.00  0.00     0.111 C 
BRANCH  10  11
ATOM     11  C   UNL     1     -28.020  -3.436  -6.390  1.00  0.00     0.163 C 
ATOM     12  O   UNL     1     -29.129  -3.998  -6.601  1.00  0.00    -0.294 OA
BRANCH  11  13
ATOM     13  C   UNL     1     -27.874  -1.964  -6.621  1.00  0.00    -0.002 C 
ATOM     14  C   UNL     1     -27.556  -1.458  -7.850  1.00  0.00    -0.069 C 
ATOM     15  C   UNL     1     -27.264  -2.360  -9.028  1.00  0.00     0.039 C 
ATOM     16  C   UNL     1     -27.447   0.033  -8.084  1.00  0.00     0.039 C 
BRANCH  13  17
ATOM     17  C   UNL     1     -28.019  -1.059  -5.412  1.00  0.00     0.066 CG0
ATOM     18  G   UNL     1     -26.679  -0.461  -5.056  1.00  0.00     0.000 G0
ENDBRANCH  13  17
ENDBRANCH  11  13
ENDBRANCH  10  11
ENDBRANCH   1  10
TORSDOF 0
ENDMDL
MODEL 2
REMARK VINA RESULT:    -4.085      4.953      8.201
REMARK INTER + INTRA:          -5.265
REMARK INTER:                  -5.613
REMARK INTRA:                   0.348
REMARK UNBOUND:                 0.491
REMARK SMILES CC1=CCC(=C(C)C)C(=O)CC(C)=CCC1
REMARK SMILES IDX 12 1 14 2 13 3 15 4 16 5 2 6 1 7 3 8 11 10 9 11 10 12 5 13
REMARK SMILES IDX 6 14 7 15 8 16 4 17
REMARK H PARENT
REMARK Flexibility Score: 60.00
ROOT
ATOM      1  C   UNL     1     -24.924   4.127  -1.765  1.00  0.00    -0.070 C 
ATOM      2  C   UNL     1     -25.778   3.748  -2.744  1.00  0.00    -0.027 C 
ATOM      3  C   UNL     1     -25.131   5.489  -1.150  1.00  0.00     0.039 C 
ENDROOT
BRANCH   2   4
ATOM      4  C   UNL     1     -25.694   2.482  -3.564  1.00  0.00     0.032 C 
BRANCH   4   5
ATOM      5  C   UNL     1     -26.366   1.282  -2.871  1.00  0.00     0.034 C 
BRANCH   5   6
ATOM      6  C   UNL     1     -25.415   0.113  -2.702  1.00  0.00    -0.077 C 
ATOM      7  C   UNL     1     -25.001  -0.657  -3.931  1.00  0.00     0.039 C 
ATOM      8  C   UNL     1     -24.891  -0.263  -1.513  1.00  0.00    -0.023 CG0
ATOM      9  G   UNL     1     -25.155   0.402  -0.183  1.00  0.00     0.000 G0
ENDBRANCH   5   6
ENDBRANCH   4   5
ENDBRANCH   2   4
BRANCH   1  10
ATOM     10  C   UNL     1     -23.741   3.290  -1.306  1.00  0.00     0.111 C 
BRANCH  10  11
ATOM     11  C   UNL     1     -23.985   2.682   0.053  1.00  0.00     0.163 C 
ATOM     12  O   UNL     1     -24.281   3.455   1.005  1.00  0.00    -0.294 OA
BRANCH  11  13
ATOM     13  C   UNL     1     -23.939   1.203   0.280  1.00  0.00    -0.002 C 
ATOM     14  C   UNL     1     -22.833   0.590   0.799  1.00  0.00    -0.069 C 
ATOM     15  C   UNL     1     -21.569   1.363   1.105  1.00  0.00     0.039 C 
ATOM     16  C   UNL     1     -22.807  -0.899   1.061  1.00  0.00     0.039 C 
BRANCH  13  17
ATOM     17  C   UNL     1     -25.148   0.400  -0.162  1.00  0.00     0.066 CG0
ATOM     18  G   UNL     1     -24.871  -0.250  -1.496  1.00  0.00     0.000 G0
ENDBRANCH  13  17
ENDBRANCH  11  13
ENDBRANCH  10  11
ENDBRANCH   1  10
TORSDOF 0
ENDMDL
MODEL 3
REMARK VINA RESULT:    -4.062      3.812      6.083
REMARK INTER + INTRA:          -5.233
REMARK INTER:                  -5.878
REMARK INTRA:                   0.644
REMARK UNBOUND:                 0.491
REMARK SMILES CC1=CCC(=C(C)C)C(=O)CC(C)=CCC1
REMARK SMILES IDX 12 1 14 2 13 3 15 4 16 5 2 6 1 7 3 8 11 10 9 11 10 12 5 13
REMARK SMILES IDX 6 14 7 15 8 16 4 17
REMARK H PARENT
REMARK Flexibility Score: 60.00
ROOT
ATOM      1  C   UNL     1     -23.724   0.642   0.374  1.00  0.00    -0.070 C 
ATOM      2  C   UNL     1     -23.349   1.927   0.576  1.00  0.00    -0.027 C 
ATOM      3  C   UNL     1     -22.942  -0.432   1.090  1.00  0.00     0.039 C 
ENDROOT
BRANCH   2   4
ATOM      4  C   UNL     1     -23.918   3.144  -0.115  1.00  0.00     0.032 C 
BRANCH   4   5
ATOM      5  C   UNL     1     -23.665   3.135  -1.634  1.00  0.00     0.034 C 
BRANCH   5   6
ATOM      6  C   UNL     1     -24.950   3.263  -2.429  1.00  0.00    -0.077 C 
ATOM      7  C   UNL     1     -25.873   4.414  -2.116  1.00  0.00     0.039 C 
ATOM      8  C   UNL     1     -25.305   2.419  -3.424  1.00  0.00    -0.023 CG0
ATOM      9  G   UNL     1     -24.501   1.236  -3.906  1.00  0.00     0.000 G0
ENDBRANCH   5   6
ENDBRANCH   4   5
ENDBRANCH   2   4
BRANCH   1  10
ATOM     10  C   UNL     1     -24.835   0.226  -0.577  1.00  0.00     0.111 C 
BRANCH  10  11
ATOM     11  C   UNL     1     -24.281  -0.304  -1.877  1.00  0.00     0.163 C 
ATOM     12  O   UNL     1     -23.255  -1.036  -1.830  1.00  0.00    -0.294 OA
BRANCH  11  13
ATOM     13  C   UNL     1     -24.943  -0.028  -3.191  1.00  0.00    -0.002 C 
ATOM     14  C   UNL     1     -25.841  -0.900  -3.740  1.00  0.00    -0.069 C 
ATOM     15  C   UNL     1     -26.162  -2.225  -3.085  1.00  0.00     0.039 C 
ATOM     16  C   UNL     1     -26.534  -0.597  -5.050  1.00  0.00     0.039 C 
BRANCH  13  17
ATOM     17  C   UNL     1     -24.517   1.228  -3.928  1.00  0.00     0.066 CG0
ATOM     18  G   UNL     1     -25.294   2.414  -3.409  1.00  0.00     0.000 G0
ENDBRANCH  13  17
ENDBRANCH  11  13
ENDBRANCH  10  11
ENDBRANCH   1  10
TORSDOF 0
ENDMDL
MODEL 4
REMARK VINA RESULT:    -4.014      6.277      8.429
REMARK INTER + INTRA:          -5.166
REMARK INTER:                  -5.493
REMARK INTRA:                   0.327
REMARK UNBOUND:                 0.491
REMARK SMILES CC1=CCC(=C(C)C)C(=O)CC(C)=CCC1
REMARK SMILES IDX 12 1 14 2 13 3 15 4 16 5 2 6 1 7 3 8 11 10 9 11 10 12 5 13
REMARK SMILES IDX 6 14 7 15 8 16 4 17
REMARK H PARENT
REMARK Flexibility Score: 60.00
ROOT
ATOM      1  C   UNL     1     -21.852   1.948   0.844  1.00  0.00    -0.070 C 
ATOM      2  C   UNL     1     -22.011   0.627   0.599  1.00  0.00    -0.027 C 
ATOM      3  C   UNL     1     -20.462   2.432   1.181  1.00  0.00     0.039 C 
ENDROOT
BRANCH   2   4
ATOM      4  C   UNL     1     -23.318  -0.086   0.349  1.00  0.00     0.032 C 
BRANCH   4   5
ATOM      5  C   UNL     1     -23.797   0.050  -1.109  1.00  0.00     0.034 C 
BRANCH   5   6
ATOM      6  C   UNL     1     -25.192   0.637  -1.200  1.00  0.00    -0.077 C 
ATOM      7  C   UNL     1     -26.348  -0.178  -0.676  1.00  0.00     0.039 C 
ATOM      8  C   UNL     1     -25.460   1.866  -1.700  1.00  0.00    -0.023 CG0
ATOM      9  G   UNL     1     -24.439   2.841  -2.236  1.00  0.00     0.000 G0
ENDBRANCH   5   6
ENDBRANCH   4   5
ENDBRANCH   2   4
BRANCH   1  10
ATOM     10  C   UNL     1     -22.998   2.947   0.863  1.00  0.00     0.111 C 
BRANCH  10  11
ATOM     11  C   UNL     1     -22.987   3.827  -0.363  1.00  0.00     0.163 C 
ATOM     12  O   UNL     1     -21.912   4.414  -0.663  1.00  0.00    -0.294 OA
BRANCH  11  13
ATOM     13  C   UNL     1     -24.188   3.972  -1.244  1.00  0.00    -0.002 C 
ATOM     14  C   UNL     1     -25.059   5.017  -1.105  1.00  0.00    -0.069 C 
ATOM     15  C   UNL     1     -24.898   6.042  -0.005  1.00  0.00     0.039 C 
ATOM     16  C   UNL     1     -26.250   5.177  -2.024  1.00  0.00     0.039 C 
BRANCH  13  17
ATOM     17  C   UNL     1     -24.440   2.868  -2.254  1.00  0.00     0.066 CG0
ATOM     18  G   UNL     1     -25.447   1.888  -1.700  1.00  0.00     0.000 G0
ENDBRANCH  13  17
ENDBRANCH  11  13
ENDBRANCH  10  11
ENDBRANCH   1  10
TORSDOF 0
ENDMDL
MODEL 5
REMARK VINA RESULT:    -3.991      5.019      7.199
REMARK INTER + INTRA:          -5.133
REMARK INTER:                  -5.692
REMARK INTRA:                   0.559
REMARK UNBOUND:                 0.491
REMARK SMILES CC1=CCC(=C(C)C)C(=O)CC(C)=CCC1
REMARK SMILES IDX 12 1 14 2 13 3 15 4 16 5 2 6 1 7 3 8 11 10 9 11 10 12 5 13
REMARK SMILES IDX 6 14 7 15 8 16 4 17
REMARK H PARENT
REMARK Flexibility Score: 60.00
ROOT
ATOM      1  C   UNL     1     -22.752   0.031   0.567  1.00  0.00    -0.070 C 
ATOM      2  C   UNL     1     -21.963   1.045   0.993  1.00  0.00    -0.027 C 
ATOM      3  C   UNL     1     -23.195  -0.984   1.593  1.00  0.00     0.039 C 
ENDROOT
BRANCH   2   4
ATOM      4  C   UNL     1     -21.323   2.104   0.127  1.00  0.00     0.032 C 
BRANCH   4   5
ATOM      5  C   UNL     1     -21.814   3.524   0.467  1.00  0.00     0.034 C 
BRANCH   5   6
ATOM      6  C   UNL     1     -23.322   3.587   0.616  1.00  0.00    -0.077 C 
ATOM      7  C   UNL     1     -23.894   3.972   1.958  1.00  0.00     0.039 C 
ATOM      8  C   UNL     1     -24.188   3.344  -0.394  1.00  0.00    -0.023 CG0
ATOM      9  G   UNL     1     -23.811   2.982  -1.811  1.00  0.00     0.000 G0
ENDBRANCH   5   6
ENDBRANCH   4   5
ENDBRANCH   2   4
BRANCH   1  10
ATOM     10  C   UNL     1     -23.153  -0.175  -0.884  1.00  0.00     0.111 C 
BRANCH  10  11
ATOM     11  C   UNL     1     -24.440   0.542  -1.211  1.00  0.00     0.163 C 
ATOM     12  O   UNL     1     -25.481   0.207  -0.584  1.00  0.00    -0.294 OA
BRANCH  11  13
ATOM     13  C   UNL     1     -24.494   1.658  -2.206  1.00  0.00    -0.002 C 
ATOM     14  C   UNL     1     -25.061   1.495  -3.440  1.00  0.00    -0.069 C 
ATOM     15  C   UNL     1     -25.600   0.156  -3.893  1.00  0.00     0.039 C 
ATOM     16  C   UNL     1     -25.146   2.639  -4.426  1.00  0.00     0.039 C 
BRANCH  13  17
ATOM     17  C   UNL     1     -23.823   2.963  -1.817  1.00  0.00     0.066 CG0
ATOM     18  G   UNL     1     -24.192   3.324  -0.398  1.00  0.00     0.000 G0
ENDBRANCH  13  17
ENDBRANCH  11  13
ENDBRANCH  10  11
ENDBRANCH   1  10
TORSDOF 0
ENDMDL
MODEL 6
REMARK VINA RESULT:    -3.973      1.519      3.786
REMARK INTER + INTRA:          -5.108
REMARK INTER:                  -5.838
REMARK INTRA:                   0.730
REMARK UNBOUND:                 0.491
REMARK SMILES CC1=CCC(=C(C)C)C(=O)CC(C)=CCC1
REMARK SMILES IDX 12 1 14 2 13 3 15 4 16 5 2 6 1 7 3 8 11 10 9 11 10 12 5 13
REMARK SMILES IDX 6 14 7 15 8 16 4 17
REMARK H PARENT
REMARK Flexibility Score: 60.00
ROOT
ATOM      1  C   UNL     1     -27.535  -4.673  -5.159  1.00  0.00    -0.070 C 
ATOM      2  C   UNL     1     -28.546  -4.394  -6.014  1.00  0.00    -0.027 C 
ATOM      3  C   UNL     1     -27.738  -5.812  -4.190  1.00  0.00     0.039 C 
ENDROOT
BRANCH   2   4
ATOM      4  C   UNL     1     -28.601  -3.241  -6.988  1.00  0.00     0.032 C 
BRANCH   4   5
ATOM      5  C   UNL     1     -28.798  -1.883  -6.288  1.00  0.00     0.034 C 
BRANCH   5   6
ATOM      6  C   UNL     1     -27.660  -0.922  -6.575  1.00  0.00    -0.077 C 
ATOM      7  C   UNL     1     -27.433  -0.486  -8.000  1.00  0.00     0.039 C 
ATOM      8  C   UNL     1     -26.852  -0.409  -5.619  1.00  0.00    -0.023 CG0
ATOM      9  G   UNL     1     -26.943  -0.695  -4.139  1.00  0.00     0.000 G0
ENDBRANCH   5   6
ENDBRANCH   4   5
ENDBRANCH   2   4
BRANCH   1  10
ATOM     10  C   UNL     1     -26.249  -3.866  -5.079  1.00  0.00     0.111 C 
BRANCH  10  11
ATOM     11  C   UNL     1     -26.144  -3.118  -3.773  1.00  0.00     0.163 C 
ATOM     12  O   UNL     1     -26.286  -3.770  -2.703  1.00  0.00    -0.294 OA
BRANCH  11  13
ATOM     13  C   UNL     1     -25.828  -1.656  -3.720  1.00  0.00    -0.002 C 
ATOM     14  C   UNL     1     -24.625  -1.197  -3.261  1.00  0.00    -0.069 C 
ATOM     15  C   UNL     1     -23.575  -2.138  -2.713  1.00  0.00     0.039 C 
ATOM     16  C   UNL     1     -24.298   0.280  -3.246  1.00  0.00     0.039 C 
BRANCH  13  17
ATOM     17  C   UNL     1     -26.931  -0.697  -4.128  1.00  0.00     0.066 CG0
ATOM     18  G   UNL     1     -26.838  -0.410  -5.608  1.00  0.00     0.000 G0
ENDBRANCH  13  17
ENDBRANCH  11  13
ENDBRANCH  10  11
ENDBRANCH   1  10
TORSDOF 0
ENDMDL
MODEL 7
REMARK VINA RESULT:    -3.967      2.780      5.149
REMARK INTER + INTRA:          -5.099
REMARK INTER:                  -5.449
REMARK INTRA:                   0.350
REMARK UNBOUND:                 0.491
REMARK SMILES CC1=CCC(=C(C)C)C(=O)CC(C)=CCC1
REMARK SMILES IDX 12 1 14 2 13 3 15 4 16 5 2 6 1 7 3 8 11 10 9 11 10 12 5 13
REMARK SMILES IDX 6 14 7 15 8 16 4 17
REMARK H PARENT
REMARK Flexibility Score: 60.00
ROOT
ATOM      1  C   UNL     1     -24.869   1.061  -0.715  1.00  0.00    -0.070 C 
ATOM      2  C   UNL     1     -24.631   2.308  -1.181  1.00  0.00    -0.027 C 
ATOM      3  C   UNL     1     -25.123   0.907   0.765  1.00  0.00     0.039 C 
ENDROOT
BRANCH   2   4
ATOM      4  C   UNL     1     -24.251   2.678  -2.596  1.00  0.00     0.032 C 
BRANCH   4   5
ATOM      5  C   UNL     1     -25.436   2.571  -3.574  1.00  0.00     0.034 C 
BRANCH   5   6
ATOM      6  C   UNL     1     -25.109   1.704  -4.775  1.00  0.00    -0.077 C 
ATOM      7  C   UNL     1     -23.935   2.091  -5.639  1.00  0.00     0.039 C 
ATOM      8  C   UNL     1     -25.794   0.585  -5.103  1.00  0.00    -0.023 CG0
ATOM      9  G   UNL     1     -26.971   0.017  -4.345  1.00  0.00     0.000 G0
ENDBRANCH   5   6
ENDBRANCH   4   5
ENDBRANCH   2   4
BRANCH   1  10
ATOM     10  C   UNL     1     -24.827  -0.188  -1.582  1.00  0.00     0.111 C 
BRANCH  10  11
ATOM     11  C   UNL     1     -26.212  -0.633  -1.981  1.00  0.00     0.163 C 
ATOM     12  O   UNL     1     -27.122  -0.593  -1.108  1.00  0.00    -0.294 OA
BRANCH  11  13
ATOM     13  C   UNL     1     -26.535  -1.063  -3.377  1.00  0.00    -0.002 C 
ATOM     14  C   UNL     1     -26.369  -2.356  -3.788  1.00  0.00    -0.069 C 
ATOM     15  C   UNL     1     -25.780  -3.408  -2.875  1.00  0.00     0.039 C 
ATOM     16  C   UNL     1     -26.734  -2.791  -5.191  1.00  0.00     0.039 C 
BRANCH  13  17
ATOM     17  C   UNL     1     -26.986   0.016  -4.344  1.00  0.00     0.066 CG0
ATOM     18  G   UNL     1     -25.792   0.581  -5.075  1.00  0.00     0.000 G0
ENDBRANCH  13  17
ENDBRANCH  11  13
ENDBRANCH  10  11
ENDBRANCH   1  10
TORSDOF 0
ENDMDL
MODEL 8
REMARK VINA RESULT:    -3.889      8.043      9.787
REMARK INTER + INTRA:          -4.990
REMARK INTER:                  -5.377
REMARK INTRA:                   0.387
REMARK UNBOUND:                 0.491
REMARK SMILES CC1=CCC(=C(C)C)C(=O)CC(C)=CCC1
REMARK SMILES IDX 12 1 14 2 13 3 15 4 16 5 2 6 1 7 3 8 11 10 9 11 10 12 5 13
REMARK SMILES IDX 6 14 7 15 8 16 4 17
REMARK H PARENT
REMARK Flexibility Score: 60.00
ROOT
ATOM      1  C   UNL     1     -22.149   1.435   0.218  1.00  0.00    -0.070 C 
ATOM      2  C   UNL     1     -21.005   1.810   0.837  1.00  0.00    -0.027 C 
ATOM      3  C   UNL     1     -22.486  -0.036   0.208  1.00  0.00     0.039 C 
ENDROOT
BRANCH   2   4
ATOM      4  C   UNL     1     -20.424   3.203   0.877  1.00  0.00     0.032 C 
BRANCH   4   5
ATOM      5  C   UNL     1     -21.056   4.076   1.978  1.00  0.00     0.034 C 
BRANCH   5   6
ATOM      6  C   UNL     1     -21.414   5.461   1.475  1.00  0.00    -0.077 C 
ATOM      7  C   UNL     1     -20.296   6.382   1.053  1.00  0.00     0.039 C 
ATOM      8  C   UNL     1     -22.684   5.912   1.354  1.00  0.00    -0.023 CG0
ATOM      9  G   UNL     1     -23.932   5.131   1.689  1.00  0.00     0.000 G0
ENDBRANCH   5   6
ENDBRANCH   4   5
ENDBRANCH   2   4
BRANCH   1  10
ATOM     10  C   UNL     1     -23.066   2.399  -0.517  1.00  0.00     0.111 C 
BRANCH  10  11
ATOM     11  C   UNL     1     -24.151   2.932   0.387  1.00  0.00     0.163 C 
ATOM     12  O   UNL     1     -24.770   2.111   1.118  1.00  0.00    -0.294 OA
BRANCH  11  13
ATOM     13  C   UNL     1     -24.465   4.392   0.473  1.00  0.00    -0.002 C 
ATOM     14  C   UNL     1     -25.119   5.047  -0.533  1.00  0.00    -0.069 C 
ATOM     15  C   UNL     1     -25.496   4.348  -1.820  1.00  0.00     0.039 C 
ATOM     16  C   UNL     1     -25.466   6.516  -0.422  1.00  0.00     0.039 C 
BRANCH  13  17
ATOM     17  C   UNL     1     -23.959   5.135   1.696  1.00  0.00     0.066 CG0
ATOM     18  G   UNL     1     -22.700   5.894   1.350  1.00  0.00     0.000 G0
ENDBRANCH  13  17
ENDBRANCH  11  13
ENDBRANCH  10  11
ENDBRANCH   1  10
TORSDOF 0
ENDMDL
MODEL 9
REMARK VINA RESULT:    -3.858      5.135      7.570
REMARK INTER + INTRA:          -4.946
REMARK INTER:                  -5.594
REMARK INTRA:                   0.648
REMARK UNBOUND:                 0.491
REMARK SMILES CC1=CCC(=C(C)C)C(=O)CC(C)=CCC1
REMARK SMILES IDX 12 1 14 2 13 3 15 4 16 5 2 6 1 7 3 8 11 10 9 11 10 12 5 13
REMARK SMILES IDX 6 14 7 15 8 16 4 17
REMARK H PARENT
REMARK Flexibility Score: 60.00
ROOT
ATOM      1  C   UNL     1     -23.816   0.616  -0.265  1.00  0.00    -0.070 C 
ATOM      2  C   UNL     1     -24.607  -0.047  -1.139  1.00  0.00    -0.027 C 
ATOM      3  C   UNL     1     -22.550  -0.069   0.188  1.00  0.00     0.039 C 
ENDROOT
BRANCH   2   4
ATOM      4  C   UNL     1     -25.960   0.400  -1.640  1.00  0.00     0.032 C 
BRANCH   4   5
ATOM      5  C   UNL     1     -26.043   0.430  -3.178  1.00  0.00     0.034 C 
BRANCH   5   6
ATOM      6  C   UNL     1     -25.093   1.447  -3.781  1.00  0.00    -0.077 C 
ATOM      7  C   UNL     1     -24.233   1.022  -4.945  1.00  0.00     0.039 C 
ATOM      8  C   UNL     1     -24.992   2.727  -3.354  1.00  0.00    -0.023 CG0
ATOM      9  G   UNL     1     -25.790   3.348  -2.232  1.00  0.00     0.000 G0
ENDBRANCH   5   6
ENDBRANCH   4   5
ENDBRANCH   2   4
BRANCH   1  10
ATOM     10  C   UNL     1     -24.166   1.971   0.331  1.00  0.00     0.111 C 
BRANCH  10  11
ATOM     11  C   UNL     1     -23.810   3.098  -0.607  1.00  0.00     0.163 C 
ATOM     12  O   UNL     1     -22.596   3.252  -0.915  1.00  0.00    -0.294 OA
BRANCH  11  13
ATOM     13  C   UNL     1     -24.852   3.987  -1.210  1.00  0.00    -0.002 C 
ATOM     14  C   UNL     1     -25.008   5.285  -0.810  1.00  0.00    -0.069 C 
ATOM     15  C   UNL     1     -24.185   5.872   0.315  1.00  0.00     0.039 C 
ATOM     16  C   UNL     1     -26.038   6.188  -1.451  1.00  0.00     0.039 C 
BRANCH  13  17
ATOM     17  C   UNL     1     -25.781   3.363  -2.234  1.00  0.00     0.066 CG0
ATOM     18  G   UNL     1     -24.971   2.726  -3.338  1.00  0.00     0.000 G0
ENDBRANCH  13  17
ENDBRANCH  11  13
ENDBRANCH  10  11
ENDBRANCH   1  10
TORSDOF 0
ENDMDL
