MODEL 1
REMARK VINA RESULT:    -4.256      0.000      0.000
REMARK INTER + INTRA:         -16.538
REMARK INTER:                 -11.223
REMARK INTRA:                  -5.315
REMARK UNBOUND:                -5.315
REMARK SMILES CCCCCCCCCCCCCCCCCCCCCCCCCCCCCC(=O)[O-]
REMARK SMILES IDX 16 1 17 2 18 3 19 4 20 5 21 6 22 7 23 8 24 9 25 10 26 11
REMARK SMILES IDX 27 12 28 13 29 14 30 15 31 16 32 17 15 18 14 19 13 20 12 21
REMARK SMILES IDX 11 22 10 23 9 24 8 25 7 26 6 27 5 28 4 29 3 30 2 31 1 32
REMARK H PARENT
REMARK Flexibility Score: inf
ROOT
ATOM      1  C   UNL     1      98.129  86.022  79.448  1.00  0.00     0.000 C 
ENDROOT
BRANCH   1   2
ATOM      2  C   UNL     1      97.646  86.591  80.791  1.00  0.00     0.000 C 
BRANCH   2   3
ATOM      3  C   UNL     1      97.429  85.471  81.819  1.00  0.00     0.000 C 
BRANCH   3   4
ATOM      4  C   UNL     1      95.962  85.019  81.903  1.00  0.00     0.000 C 
BRANCH   4   5
ATOM      5  C   UNL     1      95.786  83.517  81.631  1.00  0.00     0.000 C 
BRANCH   5   6
ATOM      6  C   UNL     1      95.813  83.219  80.124  1.00  0.00     0.000 C 
BRANCH   6   7
ATOM      7  C   UNL     1      96.595  81.938  79.781  1.00  0.00     0.000 C 
BRANCH   7   8
ATOM      8  C   UNL     1      97.860  82.155  78.927  1.00  0.00     0.000 C 
BRANCH   8   9
ATOM      9  C   UNL     1      99.195  82.006  79.682  1.00  0.00     0.000 C 
BRANCH   9  10
ATOM     10  C   UNL     1      99.107  82.224  81.202  1.00  0.00     0.000 C 
BRANCH  10  11
ATOM     11  C   UNL     1     100.233  83.118  81.743  1.00  0.00     0.000 C 
BRANCH  11  12
ATOM     12  C   UNL     1     101.080  83.687  80.594  1.00  0.00     0.000 C 
BRANCH  12  13
ATOM     13  C   UNL     1     101.944  84.883  81.028  1.00  0.00     0.006 C 
BRANCH  13  14
ATOM     14  C   UNL     1     101.115  86.023  81.637  1.00  0.00     0.053 C 
BRANCH  14  15
ATOM     15  C   UNL     1     101.840  87.327  81.510  1.00  0.00     0.041 C 
ATOM     16  O   UNL     1     103.066  87.400  81.787  1.00  0.00    -0.550 OA
ATOM     17  O   UNL     1     101.167  88.457  81.063  1.00  0.00    -0.550 OA
ENDBRANCH  14  15
ENDBRANCH  13  14
ENDBRANCH  12  13
ENDBRANCH  11  12
ENDBRANCH  10  11
ENDBRANCH   9  10
ENDBRANCH   8   9
ENDBRANCH   7   8
ENDBRANCH   6   7
ENDBRANCH   5   6
ENDBRANCH   4   5
ENDBRANCH   3   4
ENDBRANCH   2   3
ENDBRANCH   1   2
BRANCH   1  18
ATOM     18  C   UNL     1      98.975  87.031  78.643  1.00  0.00     0.000 C 
BRANCH  18  19
ATOM     19  C   UNL     1      98.200  87.770  77.537  1.00  0.00     0.000 C 
BRANCH  19  20
ATOM     20  C   UNL     1      97.893  89.246  77.864  1.00  0.00     0.000 C 
BRANCH  20  21
ATOM     21  C   UNL     1      96.585  89.398  78.661  1.00  0.00     0.000 C 
BRANCH  21  22
ATOM     22  C   UNL     1      95.434  88.536  78.112  1.00  0.00     0.000 C 
BRANCH  22  23
ATOM     23  C   UNL     1      94.692  87.691  79.171  1.00  0.00     0.000 C 
BRANCH  23  24
ATOM     24  C   UNL     1      94.369  86.251  78.723  1.00  0.00    -0.000 C 
BRANCH  24  25
ATOM     25  C   UNL     1      94.952  85.832  77.360  1.00  0.00    -0.000 C 
BRANCH  25  26
ATOM     26  C   UNL     1      94.303  84.590  76.721  1.00  0.00    -0.000 C 
BRANCH  26  27
ATOM     27  C   UNL     1      93.412  83.812  77.701  1.00  0.00    -0.000 C 
BRANCH  27  28
ATOM     28  C   UNL     1      92.165  83.264  76.997  1.00  0.00    -0.000 C 
BRANCH  28  29
ATOM     29  C   UNL     1      90.887  83.768  77.679  1.00  0.00    -0.000 C 
BRANCH  29  30
ATOM     30  C   UNL     1      90.889  83.427  79.176  1.00  0.00    -0.000 C 
BRANCH  30  31
ATOM     31  C   UNL     1      89.487  83.506  79.800  1.00  0.00    -0.003 C 
ATOM     32  C   UNL     1      88.392  83.005  78.860  1.00  0.00     0.004 C 
ENDBRANCH  30  31
ENDBRANCH  29  30
ENDBRANCH  28  29
ENDBRANCH  27  28
ENDBRANCH  26  27
ENDBRANCH  25  26
ENDBRANCH  24  25
ENDBRANCH  23  24
ENDBRANCH  22  23
ENDBRANCH  21  22
ENDBRANCH  20  21
ENDBRANCH  19  20
ENDBRANCH  18  19
ENDBRANCH   1  18
TORSDOF 28
ENDMDL
MODEL 2
REMARK VINA RESULT:    -4.102      2.585      5.582
REMARK INTER + INTRA:         -16.131
REMARK INTER:                 -10.788
REMARK INTRA:                  -5.342
REMARK UNBOUND:                -5.315
REMARK SMILES CCCCCCCCCCCCCCCCCCCCCCCCCCCCCC(=O)[O-]
REMARK SMILES IDX 16 1 17 2 18 3 19 4 20 5 21 6 22 7 23 8 24 9 25 10 26 11
REMARK SMILES IDX 27 12 28 13 29 14 30 15 31 16 32 17 15 18 14 19 13 20 12 21
REMARK SMILES IDX 11 22 10 23 9 24 8 25 7 26 6 27 5 28 4 29 3 30 2 31 1 32
REMARK H PARENT
REMARK Flexibility Score: inf
ROOT
ATOM      1  C   UNL     1      95.918  83.867  78.637  1.00  0.00     0.000 C 
ENDROOT
BRANCH   1   2
ATOM      2  C   UNL     1      95.625  82.725  79.622  1.00  0.00     0.000 C 
BRANCH   2   3
ATOM      3  C   UNL     1      96.684  81.617  79.515  1.00  0.00     0.000 C 
BRANCH   3   4
ATOM      4  C   UNL     1      98.105  82.172  79.331  1.00  0.00     0.000 C 
BRANCH   4   5
ATOM      5  C   UNL     1      98.981  81.991  80.581  1.00  0.00     0.000 C 
BRANCH   5   6
ATOM      6  C   UNL     1     100.315  82.739  80.437  1.00  0.00     0.000 C 
BRANCH   6   7
ATOM      7  C   UNL     1     100.470  83.886  81.452  1.00  0.00     0.000 C 
BRANCH   7   8
ATOM      8  C   UNL     1     100.324  85.303  80.864  1.00  0.00     0.000 C 
BRANCH   8   9
ATOM      9  C   UNL     1      99.016  85.559  80.088  1.00  0.00     0.000 C 
BRANCH   9  10
ATOM     10  C   UNL     1      98.072  86.589  80.733  1.00  0.00     0.000 C 
BRANCH  10  11
ATOM     11  C   UNL     1      96.806  85.949  81.324  1.00  0.00     0.000 C 
BRANCH  11  12
ATOM     12  C   UNL     1      97.072  85.415  82.740  1.00  0.00     0.000 C 
BRANCH  12  13
ATOM     13  C   UNL     1      96.948  83.885  82.832  1.00  0.00     0.006 C 
BRANCH  13  14
ATOM     14  C   UNL     1      97.133  83.360  84.263  1.00  0.00     0.053 C 
BRANCH  14  15
ATOM     15  C   UNL     1      98.556  82.960  84.497  1.00  0.00     0.041 C 
ATOM     16  O   UNL     1      99.327  83.714  85.149  1.00  0.00    -0.550 OA
ATOM     17  O   UNL     1      99.026  81.744  84.019  1.00  0.00    -0.550 OA
ENDBRANCH  14  15
ENDBRANCH  13  14
ENDBRANCH  12  13
ENDBRANCH  11  12
ENDBRANCH  10  11
ENDBRANCH   9  10
ENDBRANCH   8   9
ENDBRANCH   7   8
ENDBRANCH   6   7
ENDBRANCH   5   6
ENDBRANCH   4   5
ENDBRANCH   3   4
ENDBRANCH   2   3
ENDBRANCH   1   2
BRANCH   1  18
ATOM     18  C   UNL     1      94.704  84.218  77.754  1.00  0.00     0.000 C 
BRANCH  18  19
ATOM     19  C   UNL     1      93.471  83.324  77.982  1.00  0.00     0.000 C 
BRANCH  19  20
ATOM     20  C   UNL     1      92.490  83.290  76.792  1.00  0.00     0.000 C 
BRANCH  20  21
ATOM     21  C   UNL     1      91.406  84.376  76.909  1.00  0.00     0.000 C 
BRANCH  21  22
ATOM     22  C   UNL     1      90.003  83.881  76.512  1.00  0.00     0.000 C 
BRANCH  22  23
ATOM     23  C   UNL     1      89.064  83.570  77.698  1.00  0.00     0.000 C 
BRANCH  23  24
ATOM     24  C   UNL     1      89.397  84.342  78.991  1.00  0.00    -0.000 C 
BRANCH  24  25
ATOM     25  C   UNL     1      89.655  83.472  80.236  1.00  0.00    -0.000 C 
BRANCH  25  26
ATOM     26  C   UNL     1      90.697  84.031  81.224  1.00  0.00    -0.000 C 
BRANCH  26  27
ATOM     27  C   UNL     1      91.617  85.082  80.588  1.00  0.00    -0.000 C 
BRANCH  27  28
ATOM     28  C   UNL     1      93.034  85.002  81.171  1.00  0.00    -0.000 C 
BRANCH  28  29
ATOM     29  C   UNL     1      93.016  84.349  82.558  1.00  0.00    -0.000 C 
BRANCH  29  30
ATOM     30  C   UNL     1      93.562  85.307  83.627  1.00  0.00    -0.000 C 
BRANCH  30  31
ATOM     31  C   UNL     1      92.888  86.687  83.579  1.00  0.00    -0.003 C 
ATOM     32  C   UNL     1      91.464  86.671  84.135  1.00  0.00     0.004 C 
ENDBRANCH  30  31
ENDBRANCH  29  30
ENDBRANCH  28  29
ENDBRANCH  27  28
ENDBRANCH  26  27
ENDBRANCH  25  26
ENDBRANCH  24  25
ENDBRANCH  23  24
ENDBRANCH  22  23
ENDBRANCH  21  22
ENDBRANCH  20  21
ENDBRANCH  19  20
ENDBRANCH  18  19
ENDBRANCH   1  18
TORSDOF 28
ENDMDL
MODEL 3
REMARK VINA RESULT:    -4.062      2.582      5.697
REMARK INTER + INTRA:         -16.027
REMARK INTER:                  -9.626
REMARK INTRA:                  -6.401
REMARK UNBOUND:                -5.315
REMARK SMILES CCCCCCCCCCCCCCCCCCCCCCCCCCCCCC(=O)[O-]
REMARK SMILES IDX 16 1 17 2 18 3 19 4 20 5 21 6 22 7 23 8 24 9 25 10 26 11
REMARK SMILES IDX 27 12 28 13 29 14 30 15 31 16 32 17 15 18 14 19 13 20 12 21
REMARK SMILES IDX 11 22 10 23 9 24 8 25 7 26 6 27 5 28 4 29 3 30 2 31 1 32
REMARK H PARENT
REMARK Flexibility Score: inf
ROOT
ATOM      1  C   UNL     1     102.157  84.936  80.958  1.00  0.00     0.000 C 
ENDROOT
BRANCH   1   2
ATOM      2  C   UNL     1     102.238  85.790  79.684  1.00  0.00     0.000 C 
BRANCH   2   3
ATOM      3  C   UNL     1     102.501  87.265  80.023  1.00  0.00     0.000 C 
BRANCH   3   4
ATOM      4  C   UNL     1     102.040  88.221  78.911  1.00  0.00     0.000 C 
BRANCH   4   5
ATOM      5  C   UNL     1     101.234  89.414  79.449  1.00  0.00     0.000 C 
BRANCH   5   6
ATOM      6  C   UNL     1     100.036  89.729  78.539  1.00  0.00     0.000 C 
BRANCH   6   7
ATOM      7  C   UNL     1      99.451  88.475  77.863  1.00  0.00     0.000 C 
BRANCH   7   8
ATOM      8  C   UNL     1      98.092  88.008  78.420  1.00  0.00     0.000 C 
BRANCH   8   9
ATOM      9  C   UNL     1      98.012  86.511  78.782  1.00  0.00     0.000 C 
BRANCH   9  10
ATOM     10  C   UNL     1      98.707  86.125  80.099  1.00  0.00     0.000 C 
BRANCH  10  11
ATOM     11  C   UNL     1      98.664  87.248  81.147  1.00  0.00     0.000 C 
BRANCH  11  12
ATOM     12  C   UNL     1      99.573  86.918  82.341  1.00  0.00     0.000 C 
BRANCH  12  13
ATOM     13  C   UNL     1      98.789  86.414  83.564  1.00  0.00     0.006 C 
BRANCH  13  14
ATOM     14  C   UNL     1      99.704  86.017  84.732  1.00  0.00     0.053 C 
BRANCH  14  15
ATOM     15  C   UNL     1      99.613  84.546  84.996  1.00  0.00     0.041 C 
ATOM     16  O   UNL     1     100.607  83.921  85.449  1.00  0.00    -0.550 OA
ATOM     17  O   UNL     1      98.421  83.870  84.767  1.00  0.00    -0.550 OA
ENDBRANCH  14  15
ENDBRANCH  13  14
ENDBRANCH  12  13
ENDBRANCH  11  12
ENDBRANCH  10  11
ENDBRANCH   9  10
ENDBRANCH   8   9
ENDBRANCH   7   8
ENDBRANCH   6   7
ENDBRANCH   5   6
ENDBRANCH   4   5
ENDBRANCH   3   4
ENDBRANCH   2   3
ENDBRANCH   1   2
BRANCH   1  18
ATOM     18  C   UNL     1     101.417  83.602  80.735  1.00  0.00     0.000 C 
BRANCH  18  19
ATOM     19  C   UNL     1     100.391  83.253  81.830  1.00  0.00     0.000 C 
BRANCH  19  20
ATOM     20  C   UNL     1      99.062  82.686  81.288  1.00  0.00     0.000 C 
BRANCH  20  21
ATOM     21  C   UNL     1      99.250  81.971  79.937  1.00  0.00     0.000 C 
BRANCH  21  22
ATOM     22  C   UNL     1      98.089  82.210  78.956  1.00  0.00     0.000 C 
BRANCH  22  23
ATOM     23  C   UNL     1      96.696  81.806  79.487  1.00  0.00     0.000 C 
BRANCH  23  24
ATOM     24  C   UNL     1      95.537  82.676  78.958  1.00  0.00    -0.000 C 
BRANCH  24  25
ATOM     25  C   UNL     1      95.954  83.898  78.117  1.00  0.00    -0.000 C 
BRANCH  25  26
ATOM     26  C   UNL     1      94.829  84.530  77.275  1.00  0.00    -0.000 C 
BRANCH  26  27
ATOM     27  C   UNL     1      94.446  85.938  77.753  1.00  0.00    -0.000 C 
BRANCH  27  28
ATOM     28  C   UNL     1      93.990  85.919  79.218  1.00  0.00    -0.000 C 
BRANCH  28  29
ATOM     29  C   UNL     1      94.526  87.141  79.972  1.00  0.00    -0.000 C 
BRANCH  29  30
ATOM     30  C   UNL     1      95.148  86.733  81.315  1.00  0.00    -0.000 C 
BRANCH  30  31
ATOM     31  C   UNL     1      94.800  85.289  81.711  1.00  0.00    -0.003 C 
ATOM     32  C   UNL     1      96.026  84.476  82.122  1.00  0.00     0.004 C 
ENDBRANCH  30  31
ENDBRANCH  29  30
ENDBRANCH  28  29
ENDBRANCH  27  28
ENDBRANCH  26  27
ENDBRANCH  25  26
ENDBRANCH  24  25
ENDBRANCH  23  24
ENDBRANCH  22  23
ENDBRANCH  21  22
ENDBRANCH  20  21
ENDBRANCH  19  20
ENDBRANCH  18  19
ENDBRANCH   1  18
TORSDOF 28
ENDMDL
MODEL 4
REMARK VINA RESULT:    -4.062      2.338      6.125
REMARK INTER + INTRA:         -16.027
REMARK INTER:                 -10.603
REMARK INTRA:                  -5.424
REMARK UNBOUND:                -5.315
REMARK SMILES CCCCCCCCCCCCCCCCCCCCCCCCCCCCCC(=O)[O-]
REMARK SMILES IDX 16 1 17 2 18 3 19 4 20 5 21 6 22 7 23 8 24 9 25 10 26 11
REMARK SMILES IDX 27 12 28 13 29 14 30 15 31 16 32 17 15 18 14 19 13 20 12 21
REMARK SMILES IDX 11 22 10 23 9 24 8 25 7 26 6 27 5 28 4 29 3 30 2 31 1 32
REMARK H PARENT
REMARK Flexibility Score: inf
ROOT
ATOM      1  C   UNL     1      94.884  85.101  77.379  1.00  0.00     0.000 C 
ENDROOT
BRANCH   1   2
ATOM      2  C   UNL     1      95.353  83.905  78.221  1.00  0.00     0.000 C 
BRANCH   2   3
ATOM      3  C   UNL     1      96.875  83.722  78.123  1.00  0.00     0.000 C 
BRANCH   3   4
ATOM      4  C   UNL     1      97.357  82.407  78.755  1.00  0.00     0.000 C 
BRANCH   4   5
ATOM      5  C   UNL     1      97.142  82.366  80.277  1.00  0.00     0.000 C 
BRANCH   5   6
ATOM      6  C   UNL     1      98.458  82.078  81.016  1.00  0.00     0.000 C 
BRANCH   6   7
ATOM      7  C   UNL     1      99.696  82.221  80.111  1.00  0.00     0.000 C 
BRANCH   7   8
ATOM      8  C   UNL     1     100.850  83.049  80.710  1.00  0.00     0.000 C 
BRANCH   8   9
ATOM      9  C   UNL     1     100.417  84.289  81.517  1.00  0.00     0.000 C 
BRANCH   9  10
ATOM     10  C   UNL     1     100.373  85.600  80.714  1.00  0.00     0.000 C 
BRANCH  10  11
ATOM     11  C   UNL     1      98.987  85.889  80.119  1.00  0.00     0.000 C 
BRANCH  11  12
ATOM     12  C   UNL     1      97.893  85.764  81.190  1.00  0.00     0.000 C 
BRANCH  12  13
ATOM     13  C   UNL     1      96.552  86.372  80.746  1.00  0.00     0.006 C 
BRANCH  13  14
ATOM     14  C   UNL     1      96.692  87.276  79.512  1.00  0.00     0.053 C 
BRANCH  14  15
ATOM     15  C   UNL     1      95.767  88.449  79.612  1.00  0.00     0.041 C 
ATOM     16  O   UNL     1      95.989  89.362  80.451  1.00  0.00    -0.550 OA
ATOM     17  O   UNL     1      94.674  88.549  78.761  1.00  0.00    -0.550 OA
ENDBRANCH  14  15
ENDBRANCH  13  14
ENDBRANCH  12  13
ENDBRANCH  11  12
ENDBRANCH  10  11
ENDBRANCH   9  10
ENDBRANCH   8   9
ENDBRANCH   7   8
ENDBRANCH   6   7
ENDBRANCH   5   6
ENDBRANCH   4   5
ENDBRANCH   3   4
ENDBRANCH   2   3
ENDBRANCH   1   2
BRANCH   1  18
ATOM     18  C   UNL     1      93.427  84.955  76.896  1.00  0.00     0.000 C 
BRANCH  18  19
ATOM     19  C   UNL     1      92.816  83.561  77.129  1.00  0.00     0.000 C 
BRANCH  19  20
ATOM     20  C   UNL     1      91.314  83.468  76.789  1.00  0.00     0.000 C 
BRANCH  20  21
ATOM     21  C   UNL     1      90.459  84.351  77.715  1.00  0.00     0.000 C 
BRANCH  21  22
ATOM     22  C   UNL     1      89.861  83.582  78.907  1.00  0.00     0.000 C 
BRANCH  22  23
ATOM     23  C   UNL     1      90.523  83.881  80.271  1.00  0.00     0.000 C 
BRANCH  23  24
ATOM     24  C   UNL     1      91.501  85.074  80.254  1.00  0.00    -0.000 C 
BRANCH  24  25
ATOM     25  C   UNL     1      92.941  84.759  80.700  1.00  0.00    -0.000 C 
BRANCH  25  26
ATOM     26  C   UNL     1      93.137  84.595  82.220  1.00  0.00    -0.000 C 
BRANCH  26  27
ATOM     27  C   UNL     1      94.438  83.861  82.577  1.00  0.00    -0.000 C 
BRANCH  27  28
ATOM     28  C   UNL     1      95.206  84.604  83.677  1.00  0.00    -0.000 C 
BRANCH  28  29
ATOM     29  C   UNL     1      95.460  83.687  84.880  1.00  0.00    -0.000 C 
BRANCH  29  30
ATOM     30  C   UNL     1      96.927  83.758  85.328  1.00  0.00    -0.000 C 
BRANCH  30  31
ATOM     31  C   UNL     1      97.908  83.454  84.185  1.00  0.00    -0.003 C 
ATOM     32  C   UNL     1      99.081  82.581  84.628  1.00  0.00     0.004 C 
ENDBRANCH  30  31
ENDBRANCH  29  30
ENDBRANCH  28  29
ENDBRANCH  27  28
ENDBRANCH  26  27
ENDBRANCH  25  26
ENDBRANCH  24  25
ENDBRANCH  23  24
ENDBRANCH  22  23
ENDBRANCH  21  22
ENDBRANCH  20  21
ENDBRANCH  19  20
ENDBRANCH  18  19
ENDBRANCH   1  18
TORSDOF 28
ENDMDL
MODEL 5
REMARK VINA RESULT:    -4.061      3.398      7.667
REMARK INTER + INTRA:         -16.023
REMARK INTER:                 -10.759
REMARK INTRA:                  -5.263
REMARK UNBOUND:                -5.315
REMARK SMILES CCCCCCCCCCCCCCCCCCCCCCCCCCCCCC(=O)[O-]
REMARK SMILES IDX 16 1 17 2 18 3 19 4 20 5 21 6 22 7 23 8 24 9 25 10 26 11
REMARK SMILES IDX 27 12 28 13 29 14 30 15 31 16 32 17 15 18 14 19 13 20 12 21
REMARK SMILES IDX 11 22 10 23 9 24 8 25 7 26 6 27 5 28 4 29 3 30 2 31 1 32
REMARK H PARENT
REMARK Flexibility Score: inf
ROOT
ATOM      1  C   UNL     1      97.445  88.615  75.927  1.00  0.00     0.000 C 
ENDROOT
BRANCH   1   2
ATOM      2  C   UNL     1      96.248  88.483  76.881  1.00  0.00     0.000 C 
BRANCH   2   3
ATOM      3  C   UNL     1      96.188  89.666  77.858  1.00  0.00     0.000 C 
BRANCH   3   4
ATOM      4  C   UNL     1      96.243  89.223  79.329  1.00  0.00     0.000 C 
BRANCH   4   5
ATOM      5  C   UNL     1      97.506  89.719  80.052  1.00  0.00     0.000 C 
BRANCH   5   6
ATOM      6  C   UNL     1      98.482  88.562  80.318  1.00  0.00     0.000 C 
BRANCH   6   7
ATOM      7  C   UNL     1      97.788  87.189  80.353  1.00  0.00     0.000 C 
BRANCH   7   8
ATOM      8  C   UNL     1      98.395  86.127  79.415  1.00  0.00     0.000 C 
BRANCH   8   9
ATOM      9  C   UNL     1      97.431  85.563  78.353  1.00  0.00     0.000 C 
BRANCH   9  10
ATOM     10  C   UNL     1      96.002  85.291  78.854  1.00  0.00     0.000 C 
BRANCH  10  11
ATOM     11  C   UNL     1      95.210  84.362  77.920  1.00  0.00     0.000 C 
BRANCH  11  12
ATOM     12  C   UNL     1      94.273  85.170  77.010  1.00  0.00     0.000 C 
BRANCH  12  13
ATOM     13  C   UNL     1      92.979  84.413  76.666  1.00  0.00     0.006 C 
BRANCH  13  14
ATOM     14  C   UNL     1      92.705  83.244  77.623  1.00  0.00     0.053 C 
BRANCH  14  15
ATOM     15  C   UNL     1      91.630  83.605  78.601  1.00  0.00     0.041 C 
ATOM     16  O   UNL     1      91.858  84.442  79.513  1.00  0.00    -0.550 OA
ATOM     17  O   UNL     1      90.368  83.036  78.490  1.00  0.00    -0.550 OA
ENDBRANCH  14  15
ENDBRANCH  13  14
ENDBRANCH  12  13
ENDBRANCH  11  12
ENDBRANCH  10  11
ENDBRANCH   9  10
ENDBRANCH   8   9
ENDBRANCH   7   8
ENDBRANCH   6   7
ENDBRANCH   5   6
ENDBRANCH   4   5
ENDBRANCH   3   4
ENDBRANCH   2   3
ENDBRANCH   1   2
BRANCH   1  18
ATOM     18  C   UNL     1      98.801  88.524  76.657  1.00  0.00     0.000 C 
BRANCH  18  19
ATOM     19  C   UNL     1      99.785  89.658  76.314  1.00  0.00     0.000 C 
BRANCH  19  20
ATOM     20  C   UNL     1     100.096  90.600  77.496  1.00  0.00     0.000 C 
BRANCH  20  21
ATOM     21  C   UNL     1     101.552  91.099  77.466  1.00  0.00     0.000 C 
BRANCH  21  22
ATOM     22  C   UNL     1     102.255  91.005  78.833  1.00  0.00     0.000 C 
BRANCH  22  23
ATOM     23  C   UNL     1     101.953  89.718  79.633  1.00  0.00     0.000 C 
BRANCH  23  24
ATOM     24  C   UNL     1     102.696  88.466  79.125  1.00  0.00    -0.000 C 
BRANCH  24  25
ATOM     25  C   UNL     1     101.894  87.151  79.175  1.00  0.00    -0.000 C 
BRANCH  25  26
ATOM     26  C   UNL     1     102.536  86.022  80.003  1.00  0.00    -0.000 C 
BRANCH  26  27
ATOM     27  C   UNL     1     101.523  85.285  80.892  1.00  0.00    -0.000 C 
BRANCH  27  28
ATOM     28  C   UNL     1     101.545  83.775  80.620  1.00  0.00    -0.000 C 
BRANCH  28  29
ATOM     29  C   UNL     1     100.388  83.074  81.341  1.00  0.00    -0.000 C 
BRANCH  29  30
ATOM     30  C   UNL     1      99.596  82.180  80.376  1.00  0.00    -0.000 C 
BRANCH  30  31
ATOM     31  C   UNL     1      98.107  82.554  80.314  1.00  0.00    -0.003 C 
ATOM     32  C   UNL     1      97.613  83.232  81.591  1.00  0.00     0.004 C 
ENDBRANCH  30  31
ENDBRANCH  29  30
ENDBRANCH  28  29
ENDBRANCH  27  28
ENDBRANCH  26  27
ENDBRANCH  25  26
ENDBRANCH  24  25
ENDBRANCH  23  24
ENDBRANCH  22  23
ENDBRANCH  21  22
ENDBRANCH  20  21
ENDBRANCH  19  20
ENDBRANCH  18  19
ENDBRANCH   1  18
TORSDOF 28
ENDMDL
MODEL 6
REMARK VINA RESULT:    -4.032      2.814      4.708
REMARK INTER + INTRA:         -15.947
REMARK INTER:                 -10.300
REMARK INTRA:                  -5.648
REMARK UNBOUND:                -5.315
REMARK SMILES CCCCCCCCCCCCCCCCCCCCCCCCCCCCCC(=O)[O-]
REMARK SMILES IDX 16 1 17 2 18 3 19 4 20 5 21 6 22 7 23 8 24 9 25 10 26 11
REMARK SMILES IDX 27 12 28 13 29 14 30 15 31 16 32 17 15 18 14 19 13 20 12 21
REMARK SMILES IDX 11 22 10 23 9 24 8 25 7 26 6 27 5 28 4 29 3 30 2 31 1 32
REMARK H PARENT
REMARK Flexibility Score: inf
ROOT
ATOM      1  C   UNL     1      93.342  86.430  80.697  1.00  0.00     0.000 C 
ENDROOT
BRANCH   1   2
ATOM      2  C   UNL     1      93.574  85.838  79.298  1.00  0.00     0.000 C 
BRANCH   2   3
ATOM      3  C   UNL     1      93.167  84.358  79.249  1.00  0.00     0.000 C 
BRANCH   3   4
ATOM      4  C   UNL     1      94.185  83.487  78.495  1.00  0.00     0.000 C 
BRANCH   4   5
ATOM      5  C   UNL     1      95.259  84.318  77.774  1.00  0.00     0.000 C 
BRANCH   5   6
ATOM      6  C   UNL     1      96.665  83.972  78.286  1.00  0.00     0.000 C 
BRANCH   6   7
ATOM      7  C   UNL     1      96.749  82.563  78.900  1.00  0.00     0.000 C 
BRANCH   7   8
ATOM      8  C   UNL     1      98.179  82.028  79.115  1.00  0.00     0.000 C 
BRANCH   8   9
ATOM      9  C   UNL     1      98.678  82.058  80.573  1.00  0.00     0.000 C 
BRANCH   9  10
ATOM     10  C   UNL     1     100.047  82.731  80.775  1.00  0.00     0.000 C 
BRANCH  10  11
ATOM     11  C   UNL     1      99.937  84.244  81.020  1.00  0.00     0.000 C 
BRANCH  11  12
ATOM     12  C   UNL     1     100.830  84.675  82.194  1.00  0.00     0.000 C 
BRANCH  12  13
ATOM     13  C   UNL     1     100.042  84.873  83.499  1.00  0.00     0.006 C 
BRANCH  13  14
ATOM     14  C   UNL     1     100.430  83.860  84.586  1.00  0.00     0.053 C 
BRANCH  14  15
ATOM     15  C   UNL     1      99.288  82.938  84.879  1.00  0.00     0.041 C 
ATOM     16  O   UNL     1      98.536  83.154  85.865  1.00  0.00    -0.550 OA
ATOM     17  O   UNL     1      99.038  81.853  84.048  1.00  0.00    -0.550 OA
ENDBRANCH  14  15
ENDBRANCH  13  14
ENDBRANCH  12  13
ENDBRANCH  11  12
ENDBRANCH  10  11
ENDBRANCH   9  10
ENDBRANCH   8   9
ENDBRANCH   7   8
ENDBRANCH   6   7
ENDBRANCH   5   6
ENDBRANCH   4   5
ENDBRANCH   3   4
ENDBRANCH   2   3
ENDBRANCH   1   2
BRANCH   1  18
ATOM     18  C   UNL     1      94.630  87.000  81.324  1.00  0.00     0.000 C 
BRANCH  18  19
ATOM     19  C   UNL     1      95.886  86.139  81.091  1.00  0.00     0.000 C 
BRANCH  19  20
ATOM     20  C   UNL     1      96.616  85.730  82.387  1.00  0.00     0.000 C 
BRANCH  20  21
ATOM     21  C   UNL     1      96.609  84.204  82.594  1.00  0.00     0.000 C 
BRANCH  21  22
ATOM     22  C   UNL     1      95.279  83.542  82.193  1.00  0.00     0.000 C 
BRANCH  22  23
ATOM     23  C   UNL     1      94.395  83.089  83.377  1.00  0.00     0.000 C 
BRANCH  23  24
ATOM     24  C   UNL     1      93.865  84.244  84.251  1.00  0.00    -0.000 C 
BRANCH  24  25
ATOM     25  C   UNL     1      92.547  84.886  83.776  1.00  0.00    -0.000 C 
BRANCH  25  26
ATOM     26  C   UNL     1      91.610  83.954  82.984  1.00  0.00    -0.000 C 
BRANCH  26  27
ATOM     27  C   UNL     1      90.241  84.588  82.699  1.00  0.00    -0.000 C 
BRANCH  27  28
ATOM     28  C   UNL     1      90.026  84.785  81.193  1.00  0.00    -0.000 C 
BRANCH  28  29
ATOM     29  C   UNL     1      89.681  83.455  80.512  1.00  0.00    -0.000 C 
BRANCH  29  30
ATOM     30  C   UNL     1      88.908  83.687  79.206  1.00  0.00    -0.000 C 
BRANCH  30  31
ATOM     31  C   UNL     1      89.793  83.525  77.960  1.00  0.00    -0.003 C 
ATOM     32  C   UNL     1      89.923  84.816  77.154  1.00  0.00     0.004 C 
ENDBRANCH  30  31
ENDBRANCH  29  30
ENDBRANCH  28  29
ENDBRANCH  27  28
ENDBRANCH  26  27
ENDBRANCH  25  26
ENDBRANCH  24  25
ENDBRANCH  23  24
ENDBRANCH  22  23
ENDBRANCH  21  22
ENDBRANCH  20  21
ENDBRANCH  19  20
ENDBRANCH  18  19
ENDBRANCH   1  18
TORSDOF 28
ENDMDL
MODEL 7
REMARK VINA RESULT:    -4.002      2.827      6.265
REMARK INTER + INTRA:         -15.869
REMARK INTER:                 -10.523
REMARK INTRA:                  -5.345
REMARK UNBOUND:                -5.315
REMARK SMILES CCCCCCCCCCCCCCCCCCCCCCCCCCCCCC(=O)[O-]
REMARK SMILES IDX 16 1 17 2 18 3 19 4 20 5 21 6 22 7 23 8 24 9 25 10 26 11
REMARK SMILES IDX 27 12 28 13 29 14 30 15 31 16 32 17 15 18 14 19 13 20 12 21
REMARK SMILES IDX 11 22 10 23 9 24 8 25 7 26 6 27 5 28 4 29 3 30 2 31 1 32
REMARK H PARENT
REMARK Flexibility Score: inf
ROOT
ATOM      1  C   UNL     1      90.925  84.122  80.328  1.00  0.00     0.000 C 
ENDROOT
BRANCH   1   2
ATOM      2  C   UNL     1      89.448  83.836  80.016  1.00  0.00     0.000 C 
BRANCH   2   3
ATOM      3  C   UNL     1      89.295  83.145  78.653  1.00  0.00     0.000 C 
BRANCH   3   4
ATOM      4  C   UNL     1      89.677  84.060  77.478  1.00  0.00     0.000 C 
BRANCH   4   5
ATOM      5  C   UNL     1      90.902  83.551  76.703  1.00  0.00     0.000 C 
BRANCH   5   6
ATOM      6  C   UNL     1      92.099  84.500  76.870  1.00  0.00     0.000 C 
BRANCH   6   7
ATOM      7  C   UNL     1      93.370  83.781  77.355  1.00  0.00     0.000 C 
BRANCH   7   8
ATOM      8  C   UNL     1      94.640  84.655  77.393  1.00  0.00     0.000 C 
BRANCH   8   9
ATOM      9  C   UNL     1      95.866  84.000  78.058  1.00  0.00     0.000 C 
BRANCH   9  10
ATOM     10  C   UNL     1      95.537  82.972  79.154  1.00  0.00     0.000 C 
BRANCH  10  11
ATOM     11  C   UNL     1      96.369  81.685  79.033  1.00  0.00     0.000 C 
BRANCH  11  12
ATOM     12  C   UNL     1      97.869  81.987  79.175  1.00  0.00     0.000 C 
BRANCH  12  13
ATOM     13  C   UNL     1      98.277  82.303  80.623  1.00  0.00     0.006 C 
BRANCH  13  14
ATOM     14  C   UNL     1      99.801  82.338  80.814  1.00  0.00     0.053 C 
BRANCH  14  15
ATOM     15  C   UNL     1     100.314  83.740  80.695  1.00  0.00     0.041 C 
ATOM     16  O   UNL     1     101.542  83.952  80.517  1.00  0.00    -0.550 OA
ATOM     17  O   UNL     1      99.433  84.812  80.755  1.00  0.00    -0.550 OA
ENDBRANCH  14  15
ENDBRANCH  13  14
ENDBRANCH  12  13
ENDBRANCH  11  12
ENDBRANCH  10  11
ENDBRANCH   9  10
ENDBRANCH   8   9
ENDBRANCH   7   8
ENDBRANCH   6   7
ENDBRANCH   5   6
ENDBRANCH   4   5
ENDBRANCH   3   4
ENDBRANCH   2   3
ENDBRANCH   1   2
BRANCH   1  18
ATOM     18  C   UNL     1      91.241  85.632  80.379  1.00  0.00     0.000 C 
BRANCH  18  19
ATOM     19  C   UNL     1      92.740  85.970  80.283  1.00  0.00     0.000 C 
BRANCH  19  20
ATOM     20  C   UNL     1      93.625  85.195  81.282  1.00  0.00     0.000 C 
BRANCH  20  21
ATOM     21  C   UNL     1      94.989  85.876  81.492  1.00  0.00     0.000 C 
BRANCH  21  22
ATOM     22  C   UNL     1      95.767  85.320  82.698  1.00  0.00     0.000 C 
BRANCH  22  23
ATOM     23  C   UNL     1      95.871  83.780  82.750  1.00  0.00     0.000 C 
BRANCH  23  24
ATOM     24  C   UNL     1      94.942  83.115  83.787  1.00  0.00    -0.000 C 
BRANCH  24  25
ATOM     25  C   UNL     1      94.613  83.968  85.027  1.00  0.00    -0.000 C 
BRANCH  25  26
ATOM     26  C   UNL     1      93.136  83.950  85.464  1.00  0.00    -0.000 C 
BRANCH  26  27
ATOM     27  C   UNL     1      92.167  83.788  84.283  1.00  0.00    -0.000 C 
BRANCH  27  28
ATOM     28  C   UNL     1      90.765  84.292  84.646  1.00  0.00    -0.000 C 
BRANCH  28  29
ATOM     29  C   UNL     1      90.387  85.512  83.798  1.00  0.00    -0.000 C 
BRANCH  29  30
ATOM     30  C   UNL     1      90.874  86.813  84.453  1.00  0.00    -0.000 C 
BRANCH  30  31
ATOM     31  C   UNL     1      91.993  87.494  83.649  1.00  0.00    -0.003 C 
ATOM     32  C   UNL     1      93.321  87.538  84.404  1.00  0.00     0.004 C 
ENDBRANCH  30  31
ENDBRANCH  29  30
ENDBRANCH  28  29
ENDBRANCH  27  28
ENDBRANCH  26  27
ENDBRANCH  25  26
ENDBRANCH  24  25
ENDBRANCH  23  24
ENDBRANCH  22  23
ENDBRANCH  21  22
ENDBRANCH  20  21
ENDBRANCH  19  20
ENDBRANCH  18  19
ENDBRANCH   1  18
TORSDOF 28
ENDMDL
MODEL 8
REMARK VINA RESULT:    -3.963      1.782      3.610
REMARK INTER + INTRA:         -15.765
REMARK INTER:                  -9.736
REMARK INTRA:                  -6.029
REMARK UNBOUND:                -5.315
REMARK SMILES CCCCCCCCCCCCCCCCCCCCCCCCCCCCCC(=O)[O-]
REMARK SMILES IDX 16 1 17 2 18 3 19 4 20 5 21 6 22 7 23 8 24 9 25 10 26 11
REMARK SMILES IDX 27 12 28 13 29 14 30 15 31 16 32 17 15 18 14 19 13 20 12 21
REMARK SMILES IDX 11 22 10 23 9 24 8 25 7 26 6 27 5 28 4 29 3 30 2 31 1 32
REMARK H PARENT
REMARK Flexibility Score: inf
ROOT
ATOM      1  C   UNL     1      96.705  83.696  80.115  1.00  0.00     0.000 C 
ENDROOT
BRANCH   1   2
ATOM      2  C   UNL     1      96.056  83.233  81.429  1.00  0.00     0.000 C 
BRANCH   2   3
ATOM      3  C   UNL     1      95.971  84.386  82.440  1.00  0.00     0.000 C 
BRANCH   3   4
ATOM      4  C   UNL     1      97.049  85.457  82.209  1.00  0.00     0.000 C 
BRANCH   4   5
ATOM      5  C   UNL     1      97.566  86.072  83.520  1.00  0.00     0.000 C 
BRANCH   5   6
ATOM      6  C   UNL     1      98.833  85.353  84.008  1.00  0.00     0.000 C 
BRANCH   6   7
ATOM      7  C   UNL     1      98.534  84.242  85.030  1.00  0.00     0.000 C 
BRANCH   7   8
ATOM      8  C   UNL     1      98.717  82.804  84.504  1.00  0.00     0.000 C 
BRANCH   8   9
ATOM      9  C   UNL     1      99.816  82.631  83.438  1.00  0.00     0.000 C 
BRANCH   9  10
ATOM     10  C   UNL     1      99.332  82.051  82.097  1.00  0.00     0.000 C 
BRANCH  10  11
ATOM     11  C   UNL     1     100.027  82.692  80.885  1.00  0.00     0.000 C 
BRANCH  11  12
ATOM     12  C   UNL     1     100.637  84.051  81.259  1.00  0.00     0.000 C 
BRANCH  12  13
ATOM     13  C   UNL     1     100.156  85.191  80.344  1.00  0.00     0.006 C 
BRANCH  13  14
ATOM     14  C   UNL     1     100.562  86.578  80.862  1.00  0.00     0.053 C 
BRANCH  14  15
ATOM     15  C   UNL     1     102.048  86.666  81.022  1.00  0.00     0.041 C 
ATOM     16  O   UNL     1     102.553  86.865  82.158  1.00  0.00    -0.550 OA
ATOM     17  O   UNL     1     102.878  86.504  79.920  1.00  0.00    -0.550 OA
ENDBRANCH  14  15
ENDBRANCH  13  14
ENDBRANCH  12  13
ENDBRANCH  11  12
ENDBRANCH  10  11
ENDBRANCH   9  10
ENDBRANCH   8   9
ENDBRANCH   7   8
ENDBRANCH   6   7
ENDBRANCH   5   6
ENDBRANCH   4   5
ENDBRANCH   3   4
ENDBRANCH   2   3
ENDBRANCH   1   2
BRANCH   1  18
ATOM     18  C   UNL     1      95.906  83.259  78.870  1.00  0.00     0.000 C 
BRANCH  18  19
ATOM     19  C   UNL     1      95.810  84.331  77.768  1.00  0.00     0.000 C 
BRANCH  19  20
ATOM     20  C   UNL     1      96.010  85.774  78.277  1.00  0.00     0.000 C 
BRANCH  20  21
ATOM     21  C   UNL     1      94.670  86.507  78.467  1.00  0.00     0.000 C 
BRANCH  21  22
ATOM     22  C   UNL     1      94.137  86.436  79.910  1.00  0.00     0.000 C 
BRANCH  22  23
ATOM     23  C   UNL     1      92.736  85.803  80.055  1.00  0.00     0.000 C 
BRANCH  23  24
ATOM     24  C   UNL     1      92.700  84.530  80.926  1.00  0.00    -0.000 C 
BRANCH  24  25
ATOM     25  C   UNL     1      91.401  84.307  81.723  1.00  0.00    -0.000 C 
BRANCH  25  26
ATOM     26  C   UNL     1      90.138  84.945  81.114  1.00  0.00    -0.000 C 
BRANCH  26  27
ATOM     27  C   UNL     1      89.267  83.934  80.353  1.00  0.00    -0.000 C 
BRANCH  27  28
ATOM     28  C   UNL     1      89.041  84.381  78.904  1.00  0.00    -0.000 C 
BRANCH  28  29
ATOM     29  C   UNL     1      89.825  83.494  77.930  1.00  0.00    -0.000 C 
BRANCH  29  30
ATOM     30  C   UNL     1      90.649  84.343  76.951  1.00  0.00    -0.000 C 
BRANCH  30  31
ATOM     31  C   UNL     1      92.147  83.998  76.989  1.00  0.00    -0.003 C 
ATOM     32  C   UNL     1      92.435  82.688  77.722  1.00  0.00     0.004 C 
ENDBRANCH  30  31
ENDBRANCH  29  30
ENDBRANCH  28  29
ENDBRANCH  27  28
ENDBRANCH  26  27
ENDBRANCH  25  26
ENDBRANCH  24  25
ENDBRANCH  23  24
ENDBRANCH  22  23
ENDBRANCH  21  22
ENDBRANCH  20  21
ENDBRANCH  19  20
ENDBRANCH  18  19
ENDBRANCH   1  18
TORSDOF 28
ENDMDL
MODEL 9
REMARK VINA RESULT:    -3.956      1.879      6.533
REMARK INTER + INTRA:         -15.747
REMARK INTER:                 -10.258
REMARK INTRA:                  -5.489
REMARK UNBOUND:                -5.315
REMARK SMILES CCCCCCCCCCCCCCCCCCCCCCCCCCCCCC(=O)[O-]
REMARK SMILES IDX 16 1 17 2 18 3 19 4 20 5 21 6 22 7 23 8 24 9 25 10 26 11
REMARK SMILES IDX 27 12 28 13 29 14 30 15 31 16 32 17 15 18 14 19 13 20 12 21
REMARK SMILES IDX 11 22 10 23 9 24 8 25 7 26 6 27 5 28 4 29 3 30 2 31 1 32
REMARK H PARENT
REMARK Flexibility Score: inf
ROOT
ATOM      1  C   UNL     1      92.770  85.681  80.447  1.00  0.00     0.000 C 
ENDROOT
BRANCH   1   2
ATOM      2  C   UNL     1      91.355  85.369  79.938  1.00  0.00     0.000 C 
BRANCH   2   3
ATOM      3  C   UNL     1      91.002  83.890  80.159  1.00  0.00     0.000 C 
BRANCH   3   4
ATOM      4  C   UNL     1      90.608  83.173  78.858  1.00  0.00     0.000 C 
BRANCH   4   5
ATOM      5  C   UNL     1      91.081  83.921  77.601  1.00  0.00     0.000 C 
BRANCH   5   6
ATOM      6  C   UNL     1      92.413  83.354  77.086  1.00  0.00     0.000 C 
BRANCH   6   7
ATOM      7  C   UNL     1      93.444  84.450  76.759  1.00  0.00     0.000 C 
BRANCH   7   8
ATOM      8  C   UNL     1      94.764  84.361  77.549  1.00  0.00     0.000 C 
BRANCH   8   9
ATOM      9  C   UNL     1      95.456  85.710  77.826  1.00  0.00     0.000 C 
BRANCH   9  10
ATOM     10  C   UNL     1      96.819  85.607  78.531  1.00  0.00     0.000 C 
BRANCH  10  11
ATOM     11  C   UNL     1      97.021  86.692  79.601  1.00  0.00     0.000 C 
BRANCH  11  12
ATOM     12  C   UNL     1      98.511  87.019  79.775  1.00  0.00     0.000 C 
BRANCH  12  13
ATOM     13  C   UNL     1      99.338  85.803  80.227  1.00  0.00     0.006 C 
BRANCH  13  14
ATOM     14  C   UNL     1      99.798  85.909  81.688  1.00  0.00     0.053 C 
BRANCH  14  15
ATOM     15  C   UNL     1     101.292  85.850  81.775  1.00  0.00     0.041 C 
ATOM     16  O   UNL     1     101.904  86.541  82.631  1.00  0.00    -0.550 OA
ATOM     17  O   UNL     1     102.006  85.012  80.929  1.00  0.00    -0.550 OA
ENDBRANCH  14  15
ENDBRANCH  13  14
ENDBRANCH  12  13
ENDBRANCH  11  12
ENDBRANCH  10  11
ENDBRANCH   9  10
ENDBRANCH   8   9
ENDBRANCH   7   8
ENDBRANCH   6   7
ENDBRANCH   5   6
ENDBRANCH   4   5
ENDBRANCH   3   4
ENDBRANCH   2   3
ENDBRANCH   1   2
BRANCH   1  18
ATOM     18  C   UNL     1      93.275  84.647  81.475  1.00  0.00     0.000 C 
BRANCH  18  19
ATOM     19  C   UNL     1      94.749  84.241  81.298  1.00  0.00     0.000 C 
BRANCH  19  20
ATOM     20  C   UNL     1      95.536  84.139  82.621  1.00  0.00     0.000 C 
BRANCH  20  21
ATOM     21  C   UNL     1      96.266  85.452  82.960  1.00  0.00     0.000 C 
BRANCH  21  22
ATOM     22  C   UNL     1      97.065  85.382  84.274  1.00  0.00     0.000 C 
BRANCH  22  23
ATOM     23  C   UNL     1      96.839  84.099  85.104  1.00  0.00     0.000 C 
BRANCH  23  24
ATOM     24  C   UNL     1      98.133  83.454  85.642  1.00  0.00    -0.000 C 
BRANCH  24  25
ATOM     25  C   UNL     1      99.446  84.111  85.176  1.00  0.00    -0.000 C 
BRANCH  25  26
ATOM     26  C   UNL     1     100.317  83.248  84.242  1.00  0.00    -0.000 C 
BRANCH  26  27
ATOM     27  C   UNL     1      99.599  81.979  83.762  1.00  0.00    -0.000 C 
BRANCH  27  28
ATOM     28  C   UNL     1      98.806  82.245  82.477  1.00  0.00    -0.000 C 
BRANCH  28  29
ATOM     29  C   UNL     1      99.745  82.365  81.271  1.00  0.00    -0.000 C 
BRANCH  29  30
ATOM     30  C   UNL     1      99.001  82.072  79.960  1.00  0.00    -0.000 C 
BRANCH  30  31
ATOM     31  C   UNL     1      97.496  82.371  80.057  1.00  0.00    -0.003 C 
ATOM     32  C   UNL     1      96.669  81.577  79.047  1.00  0.00     0.004 C 
ENDBRANCH  30  31
ENDBRANCH  29  30
ENDBRANCH  28  29
ENDBRANCH  27  28
ENDBRANCH  26  27
ENDBRANCH  25  26
ENDBRANCH  24  25
ENDBRANCH  23  24
ENDBRANCH  22  23
ENDBRANCH  21  22
ENDBRANCH  20  21
ENDBRANCH  19  20
ENDBRANCH  18  19
ENDBRANCH   1  18
TORSDOF 28
ENDMDL
