MODEL 1
REMARK VINA RESULT:    -2.786      0.000      0.000
REMARK INTER + INTRA:          -3.154
REMARK INTER:                  -3.112
REMARK INTRA:                  -0.042
REMARK UNBOUND:                -0.042
REMARK SMILES CCCC(=O)[O-]
REMARK SMILES IDX 3 1 4 2 5 3 6 4 2 5 1 6
REMARK H PARENT
REMARK Flexibility Score: inf
ROOT
ATOM      1  C   UNL     1      24.269 -16.195 -26.219  1.00  0.00     0.052 C 
ENDROOT
BRANCH   1   2
ATOM      2  C   UNL     1      23.505 -17.188 -27.037  1.00  0.00     0.041 C 
ATOM      3  O   UNL     1      22.761 -18.034 -26.474  1.00  0.00    -0.550 OA
ATOM      4  O   UNL     1      23.575 -17.148 -28.423  1.00  0.00    -0.550 OA
ENDBRANCH   1   2
BRANCH   1   5
ATOM      5  C   UNL     1      25.600 -16.793 -25.758  1.00  0.00     0.003 C 
ATOM      6  C   UNL     1      26.734 -16.407 -26.703  1.00  0.00     0.004 C 
ENDBRANCH   1   5
TORSDOF 2
ENDMDL
MODEL 2
REMARK VINA RESULT:    -2.783      9.169      9.901
REMARK INTER + INTRA:          -3.150
REMARK INTER:                  -3.087
REMARK INTRA:                  -0.063
REMARK UNBOUND:                -0.042
REMARK SMILES CCCC(=O)[O-]
REMARK SMILES IDX 3 1 4 2 5 3 6 4 2 5 1 6
REMARK H PARENT
REMARK Flexibility Score: inf
ROOT
ATOM      1  C   UNL     1      21.776 -25.713 -28.641  1.00  0.00     0.052 C 
ENDROOT
BRANCH   1   2
ATOM      2  C   UNL     1      20.648 -26.603 -29.056  1.00  0.00     0.041 C 
ATOM      3  O   UNL     1      20.341 -27.605 -28.357  1.00  0.00    -0.550 OA
ATOM      4  O   UNL     1      19.902 -26.299 -30.187  1.00  0.00    -0.550 OA
ENDBRANCH   1   2
BRANCH   1   5
ATOM      5  C   UNL     1      21.254 -24.321 -28.276  1.00  0.00     0.003 C 
ATOM      6  C   UNL     1      20.536 -24.338 -26.929  1.00  0.00     0.004 C 
ENDBRANCH   1   5
TORSDOF 2
ENDMDL
MODEL 3
REMARK VINA RESULT:    -2.770     18.363     19.570
REMARK INTER + INTRA:          -3.136
REMARK INTER:                  -3.099
REMARK INTRA:                  -0.036
REMARK UNBOUND:                -0.042
REMARK SMILES CCCC(=O)[O-]
REMARK SMILES IDX 3 1 4 2 5 3 6 4 2 5 1 6
REMARK H PARENT
REMARK Flexibility Score: inf
ROOT
ATOM      1  C   UNL     1       9.055 -28.024 -29.429  1.00  0.00     0.052 C 
ENDROOT
BRANCH   1   2
ATOM      2  C   UNL     1       8.833 -27.156 -28.231  1.00  0.00     0.041 C 
ATOM      3  O   UNL     1       7.923 -27.435 -27.406  1.00  0.00    -0.550 OA
ATOM      4  O   UNL     1       9.662 -26.067 -27.998  1.00  0.00    -0.550 OA
ENDBRANCH   1   2
BRANCH   1   5
ATOM      5  C   UNL     1       8.713 -29.481 -29.105  1.00  0.00     0.003 C 
ATOM      6  C   UNL     1       7.678 -30.033 -30.082  1.00  0.00     0.004 C 
ENDBRANCH   1   5
TORSDOF 2
ENDMDL
MODEL 4
REMARK VINA RESULT:    -2.769     18.206     18.701
REMARK INTER + INTRA:          -3.135
REMARK INTER:                  -3.105
REMARK INTRA:                  -0.030
REMARK UNBOUND:                -0.042
REMARK SMILES CCCC(=O)[O-]
REMARK SMILES IDX 3 1 4 2 5 3 6 4 2 5 1 6
REMARK H PARENT
REMARK Flexibility Score: inf
ROOT
ATOM      1  C   UNL     1       9.496 -26.698 -29.555  1.00  0.00     0.052 C 
ENDROOT
BRANCH   1   2
ATOM      2  C   UNL     1       8.591 -27.730 -28.962  1.00  0.00     0.041 C 
ATOM      3  O   UNL     1       8.465 -28.855 -29.515  1.00  0.00    -0.550 OA
ATOM      4  O   UNL     1       7.923 -27.469 -27.773  1.00  0.00    -0.550 OA
ENDBRANCH   1   2
BRANCH   1   5
ATOM      5  C   UNL     1      10.654 -27.366 -30.302  1.00  0.00     0.003 C 
ATOM      6  C   UNL     1      10.868 -26.726 -31.671  1.00  0.00     0.004 C 
ENDBRANCH   1   5
TORSDOF 2
ENDMDL
MODEL 5
REMARK VINA RESULT:    -2.766     19.118     20.004
REMARK INTER + INTRA:          -3.132
REMARK INTER:                  -3.098
REMARK INTRA:                  -0.034
REMARK UNBOUND:                -0.042
REMARK SMILES CCCC(=O)[O-]
REMARK SMILES IDX 3 1 4 2 5 3 6 4 2 5 1 6
REMARK H PARENT
REMARK Flexibility Score: inf
ROOT
ATOM      1  C   UNL     1       8.754 -28.066 -29.221  1.00  0.00     0.052 C 
ENDROOT
BRANCH   1   2
ATOM      2  C   UNL     1       8.443 -29.520 -29.381  1.00  0.00     0.041 C 
ATOM      3  O   UNL     1       9.044 -30.378 -28.681  1.00  0.00    -0.550 OA
ATOM      4  O   UNL     1       7.453 -29.926 -30.266  1.00  0.00    -0.550 OA
ENDBRANCH   1   2
BRANCH   1   5
ATOM      5  C   UNL     1       8.031 -27.494 -27.998  1.00  0.00     0.003 C 
ATOM      6  C   UNL     1       9.025 -26.995 -26.955  1.00  0.00     0.004 C 
ENDBRANCH   1   5
TORSDOF 2
ENDMDL
MODEL 6
REMARK VINA RESULT:    -2.691     17.604     18.843
REMARK INTER + INTRA:          -3.048
REMARK INTER:                  -3.043
REMARK INTRA:                  -0.005
REMARK UNBOUND:                -0.042
REMARK SMILES CCCC(=O)[O-]
REMARK SMILES IDX 3 1 4 2 5 3 6 4 2 5 1 6
REMARK H PARENT
REMARK Flexibility Score: inf
ROOT
ATOM      1  C   UNL     1       9.626 -27.744 -29.791  1.00  0.00     0.052 C 
ENDROOT
BRANCH   1   2
ATOM      2  C   UNL     1       9.662 -26.287 -29.453  1.00  0.00     0.041 C 
ATOM      3  O   UNL     1       9.530 -25.423 -30.359  1.00  0.00    -0.550 OA
ATOM      4  O   UNL     1       9.791 -25.883 -28.130  1.00  0.00    -0.550 OA
ENDBRANCH   1   2
BRANCH   1   5
ATOM      5  C   UNL     1       8.408 -28.413 -29.151  1.00  0.00     0.003 C 
ATOM      6  C   UNL     1       8.042 -29.703 -29.878  1.00  0.00     0.004 C 
ENDBRANCH   1   5
TORSDOF 2
ENDMDL
MODEL 7
REMARK VINA RESULT:    -2.687     17.662     18.420
REMARK INTER + INTRA:          -3.043
REMARK INTER:                  -3.005
REMARK INTRA:                  -0.037
REMARK UNBOUND:                -0.042
REMARK SMILES CCCC(=O)[O-]
REMARK SMILES IDX 3 1 4 2 5 3 6 4 2 5 1 6
REMARK H PARENT
REMARK Flexibility Score: inf
ROOT
ATOM      1  C   UNL     1      10.106 -27.789 -29.462  1.00  0.00     0.052 C 
ENDROOT
BRANCH   1   2
ATOM      2  C   UNL     1      10.266 -26.784 -30.558  1.00  0.00     0.041 C 
ATOM      3  O   UNL     1      10.941 -27.067 -31.584  1.00  0.00    -0.550 OA
ATOM      4  O   UNL     1       9.628 -25.553 -30.472  1.00  0.00    -0.550 OA
ENDBRANCH   1   2
BRANCH   1   5
ATOM      5  C   UNL     1       8.623 -28.047 -29.184  1.00  0.00     0.003 C 
ATOM      6  C   UNL     1       8.209 -27.479 -27.830  1.00  0.00     0.004 C 
ENDBRANCH   1   5
TORSDOF 2
ENDMDL
MODEL 8
REMARK VINA RESULT:    -2.683     17.653     18.384
REMARK INTER + INTRA:          -3.038
REMARK INTER:                  -3.002
REMARK INTRA:                  -0.036
REMARK UNBOUND:                -0.042
REMARK SMILES CCCC(=O)[O-]
REMARK SMILES IDX 3 1 4 2 5 3 6 4 2 5 1 6
REMARK H PARENT
REMARK Flexibility Score: inf
ROOT
ATOM      1  C   UNL     1      10.102 -27.789 -29.445  1.00  0.00     0.052 C 
ENDROOT
BRANCH   1   2
ATOM      2  C   UNL     1      10.263 -26.794 -30.550  1.00  0.00     0.041 C 
ATOM      3  O   UNL     1       9.739 -25.652 -30.455  1.00  0.00    -0.550 OA
ATOM      4  O   UNL     1      11.032 -27.107 -31.663  1.00  0.00    -0.550 OA
ENDBRANCH   1   2
BRANCH   1   5
ATOM      5  C   UNL     1       8.619 -28.030 -29.152  1.00  0.00     0.003 C 
ATOM      6  C   UNL     1       8.226 -27.456 -27.794  1.00  0.00     0.004 C 
ENDBRANCH   1   5
TORSDOF 2
ENDMDL
MODEL 9
REMARK VINA RESULT:    -2.590     17.714     18.407
REMARK INTER + INTRA:          -2.934
REMARK INTER:                  -2.904
REMARK INTRA:                  -0.030
REMARK UNBOUND:                -0.042
REMARK SMILES CCCC(=O)[O-]
REMARK SMILES IDX 3 1 4 2 5 3 6 4 2 5 1 6
REMARK H PARENT
REMARK Flexibility Score: inf
ROOT
ATOM      1  C   UNL     1       9.849 -26.855 -29.890  1.00  0.00     0.052 C 
ENDROOT
BRANCH   1   2
ATOM      2  C   UNL     1       8.840 -27.588 -29.064  1.00  0.00     0.041 C 
ATOM      3  O   UNL     1       8.405 -27.080 -27.996  1.00  0.00    -0.550 OA
ATOM      4  O   UNL     1       8.341 -28.810 -29.497  1.00  0.00    -0.550 OA
ENDBRANCH   1   2
BRANCH   1   5
ATOM      5  C   UNL     1       9.916 -25.384 -29.472  1.00  0.00     0.003 C 
ATOM      6  C   UNL     1       9.494 -24.467 -30.615  1.00  0.00     0.004 C 
ENDBRANCH   1   5
TORSDOF 2
ENDMDL
