MODEL 1
REMARK VINA RESULT:    -5.111      0.000      0.000
REMARK INTER + INTRA:          -5.111
REMARK INTER:                  -5.111
REMARK INTRA:                   0.000
REMARK UNBOUND:                 0.000
REMARK SMILES CC1=CC(=O)[C@@H]2C[C@H]1C2(C)C
REMARK SMILES IDX 1 1 2 2 3 3 4 4 5 5 6 6 7 7 8 8 9 9 10 10 11 11
REMARK H PARENT
REMARK Flexibility Score: inf
ROOT
ATOM      1  C   UNL     1      23.946  -4.802   5.875  1.00  0.00     0.040 C 
ATOM      2  C   UNL     1      23.497  -3.591   6.630  1.00  0.00    -0.066 C 
ATOM      3  C   UNL     1      24.084  -2.377   6.434  1.00  0.00     0.047 C 
ATOM      4  C   UNL     1      23.524  -1.236   7.228  1.00  0.00     0.159 C 
ATOM      5  O   UNL     1      23.954  -0.058   7.108  1.00  0.00    -0.295 OA
ATOM      6  C   UNL     1      22.395  -1.600   8.193  1.00  0.00     0.067 C 
ATOM      7  C   UNL     1      22.899  -2.878   8.899  1.00  0.00     0.021 C 
ATOM      8  C   UNL     1      22.365  -3.658   7.677  1.00  0.00     0.022 C 
ATOM      9  C   UNL     1      21.367  -2.490   7.437  1.00  0.00    -0.019 C 
ATOM     10  C   UNL     1      20.047  -2.669   8.230  1.00  0.00     0.012 C 
ATOM     11  C   UNL     1      21.007  -2.120   5.971  1.00  0.00     0.012 C 
ENDROOT
TORSDOF 0
ENDMDL
MODEL 2
REMARK VINA RESULT:    -4.987      1.865      3.555
REMARK INTER + INTRA:          -4.987
REMARK INTER:                  -4.987
REMARK INTRA:                   0.000
REMARK UNBOUND:                 0.000
REMARK SMILES CC1=CC(=O)[C@@H]2C[C@H]1C2(C)C
REMARK SMILES IDX 1 1 2 2 3 3 4 4 5 5 6 6 7 7 8 8 9 9 10 10 11 11
REMARK H PARENT
REMARK Flexibility Score: inf
ROOT
ATOM      1  C   UNL     1      20.643  -1.660   5.931  1.00  0.00     0.040 C 
ATOM      2  C   UNL     1      21.678  -2.240   6.842  1.00  0.00    -0.066 C 
ATOM      3  C   UNL     1      21.396  -3.298   7.652  1.00  0.00     0.047 C 
ATOM      4  C   UNL     1      22.526  -3.807   8.495  1.00  0.00     0.159 C 
ATOM      5  O   UNL     1      22.402  -4.804   9.255  1.00  0.00    -0.295 OA
ATOM      6  C   UNL     1      23.838  -3.033   8.368  1.00  0.00     0.067 C 
ATOM      7  C   UNL     1      23.411  -1.551   8.436  1.00  0.00     0.021 C 
ATOM      8  C   UNL     1      23.106  -1.660   6.925  1.00  0.00     0.022 C 
ATOM      9  C   UNL     1      24.141  -2.819   6.857  1.00  0.00    -0.019 C 
ATOM     10  C   UNL     1      25.584  -2.308   6.612  1.00  0.00     0.012 C 
ATOM     11  C   UNL     1      23.868  -3.993   5.875  1.00  0.00     0.012 C 
ENDROOT
TORSDOF 0
ENDMDL
MODEL 3
REMARK VINA RESULT:    -4.978      1.736      2.376
REMARK INTER + INTRA:          -4.978
REMARK INTER:                  -4.978
REMARK INTRA:                   0.000
REMARK UNBOUND:                 0.000
REMARK SMILES CC1=CC(=O)[C@@H]2C[C@H]1C2(C)C
REMARK SMILES IDX 1 1 2 2 3 3 4 4 5 5 6 6 7 7 8 8 9 9 10 10 11 11
REMARK H PARENT
REMARK Flexibility Score: inf
ROOT
ATOM      1  C   UNL     1      22.873  -5.625   9.626  1.00  0.00     0.040 C 
ATOM      2  C   UNL     1      23.214  -4.469   8.739  1.00  0.00    -0.066 C 
ATOM      3  C   UNL     1      24.473  -4.300   8.249  1.00  0.00     0.047 C 
ATOM      4  C   UNL     1      24.680  -3.121   7.347  1.00  0.00     0.159 C 
ATOM      5  O   UNL     1      25.788  -2.879   6.799  1.00  0.00    -0.295 OA
ATOM      6  C   UNL     1      23.452  -2.234   7.137  1.00  0.00     0.067 C 
ATOM      7  C   UNL     1      22.873  -2.047   8.556  1.00  0.00     0.021 C 
ATOM      8  C   UNL     1      22.165  -3.405   8.351  1.00  0.00     0.022 C 
ATOM      9  C   UNL     1      22.232  -3.145   6.819  1.00  0.00    -0.019 C 
ATOM     10  C   UNL     1      21.013  -2.340   6.303  1.00  0.00     0.012 C 
ATOM     11  C   UNL     1      22.445  -4.363   5.875  1.00  0.00     0.012 C 
ENDROOT
TORSDOF 0
ENDMDL
MODEL 4
REMARK VINA RESULT:    -4.869      1.438      2.875
REMARK INTER + INTRA:          -4.869
REMARK INTER:                  -4.869
REMARK INTRA:                   0.000
REMARK UNBOUND:                 0.000
REMARK SMILES CC1=CC(=O)[C@@H]2C[C@H]1C2(C)C
REMARK SMILES IDX 1 1 2 2 3 3 4 4 5 5 6 6 7 7 8 8 9 9 10 10 11 11
REMARK H PARENT
REMARK Flexibility Score: inf
ROOT
ATOM      1  C   UNL     1      21.000  -1.512   5.973  1.00  0.00     0.040 C 
ATOM      2  C   UNL     1      22.302  -2.156   6.330  1.00  0.00    -0.066 C 
ATOM      3  C   UNL     1      23.481  -1.487   6.206  1.00  0.00     0.047 C 
ATOM      4  C   UNL     1      24.713  -2.231   6.625  1.00  0.00     0.159 C 
ATOM      5  O   UNL     1      25.858  -1.708   6.595  1.00  0.00    -0.295 OA
ATOM      6  C   UNL     1      24.482  -3.669   7.092  1.00  0.00     0.067 C 
ATOM      7  C   UNL     1      23.527  -4.261   6.033  1.00  0.00     0.021 C 
ATOM      8  C   UNL     1      22.376  -3.612   6.837  1.00  0.00     0.022 C 
ATOM      9  C   UNL     1      23.291  -3.678   8.093  1.00  0.00    -0.019 C 
ATOM     10  C   UNL     1      23.165  -5.027   8.845  1.00  0.00     0.012 C 
ATOM     11  C   UNL     1      23.193  -2.529   9.135  1.00  0.00     0.012 C 
ENDROOT
TORSDOF 0
ENDMDL
MODEL 5
REMARK VINA RESULT:    -4.858      1.747      2.819
REMARK INTER + INTRA:          -4.858
REMARK INTER:                  -4.858
REMARK INTRA:                   0.000
REMARK UNBOUND:                 0.000
REMARK SMILES CC1=CC(=O)[C@@H]2C[C@H]1C2(C)C
REMARK SMILES IDX 1 1 2 2 3 3 4 4 5 5 6 6 7 7 8 8 9 9 10 10 11 11
REMARK H PARENT
REMARK Flexibility Score: inf
ROOT
ATOM      1  C   UNL     1      25.482  -1.876   6.240  1.00  0.00     0.040 C 
ATOM      2  C   UNL     1      24.185  -2.386   6.785  1.00  0.00    -0.066 C 
ATOM      3  C   UNL     1      23.004  -2.129   6.158  1.00  0.00     0.047 C 
ATOM      4  C   UNL     1      21.778  -2.719   6.787  1.00  0.00     0.159 C 
ATOM      5  O   UNL     1      20.633  -2.587   6.281  1.00  0.00    -0.295 OA
ATOM      6  C   UNL     1      22.016  -3.494   8.083  1.00  0.00     0.067 C 
ATOM      7  C   UNL     1      22.959  -2.585   8.900  1.00  0.00     0.021 C 
ATOM      8  C   UNL     1      24.119  -3.207   8.089  1.00  0.00     0.022 C 
ATOM      9  C   UNL     1      23.220  -4.457   7.870  1.00  0.00    -0.019 C 
ATOM     10  C   UNL     1      23.357  -5.492   9.015  1.00  0.00     0.012 C 
ATOM     11  C   UNL     1      23.330  -5.214   6.516  1.00  0.00     0.012 C 
ENDROOT
TORSDOF 0
ENDMDL
MODEL 6
REMARK VINA RESULT:    -4.585      1.966      3.220
REMARK INTER + INTRA:          -4.585
REMARK INTER:                  -4.585
REMARK INTRA:                   0.000
REMARK UNBOUND:                 0.000
REMARK SMILES CC1=CC(=O)[C@@H]2C[C@H]1C2(C)C
REMARK SMILES IDX 1 1 2 2 3 3 4 4 5 5 6 6 7 7 8 8 9 9 10 10 11 11
REMARK H PARENT
REMARK Flexibility Score: inf
ROOT
ATOM      1  C   UNL     1      24.322  -5.211   8.925  1.00  0.00     0.040 C 
ATOM      2  C   UNL     1      23.342  -4.272   8.295  1.00  0.00    -0.066 C 
ATOM      3  C   UNL     1      22.051  -4.202   8.725  1.00  0.00     0.047 C 
ATOM      4  C   UNL     1      21.176  -3.201   8.034  1.00  0.00     0.159 C 
ATOM      5  O   UNL     1      19.976  -3.013   8.366  1.00  0.00    -0.295 OA
ATOM      6  C   UNL     1      21.842  -2.423   6.898  1.00  0.00     0.067 C 
ATOM      7  C   UNL     1      22.594  -3.503   6.090  1.00  0.00     0.021 C 
ATOM      8  C   UNL     1      23.736  -3.353   7.120  1.00  0.00     0.022 C 
ATOM      9  C   UNL     1      23.225  -1.911   7.394  1.00  0.00    -0.019 C 
ATOM     10  C   UNL     1      23.849  -0.869   6.431  1.00  0.00     0.012 C 
ATOM     11  C   UNL     1      23.331  -1.356   8.843  1.00  0.00     0.012 C 
ENDROOT
TORSDOF 0
ENDMDL
MODEL 7
REMARK VINA RESULT:    -4.472     11.622     13.138
REMARK INTER + INTRA:          -4.472
REMARK INTER:                  -4.472
REMARK INTRA:                   0.000
REMARK UNBOUND:                 0.000
REMARK SMILES CC1=CC(=O)[C@@H]2C[C@H]1C2(C)C
REMARK SMILES IDX 1 1 2 2 3 3 4 4 5 5 6 6 7 7 8 8 9 9 10 10 11 11
REMARK H PARENT
REMARK Flexibility Score: inf
ROOT
ATOM      1  C   UNL     1      13.366  -8.080  17.316  1.00  0.00     0.040 C 
ATOM      2  C   UNL     1      14.719  -7.472  17.121  1.00  0.00    -0.066 C 
ATOM      3  C   UNL     1      14.884  -6.328  16.400  1.00  0.00     0.047 C 
ATOM      4  C   UNL     1      16.284  -5.803  16.302  1.00  0.00     0.159 C 
ATOM      5  O   UNL     1      16.561  -4.734  15.697  1.00  0.00    -0.295 OA
ATOM      6  C   UNL     1      17.353  -6.656  16.988  1.00  0.00     0.067 C 
ATOM      7  C   UNL     1      17.021  -8.100  16.553  1.00  0.00     0.021 C 
ATOM      8  C   UNL     1      15.992  -8.117  17.706  1.00  0.00     0.022 C 
ATOM      9  C   UNL     1      16.849  -7.028  18.412  1.00  0.00    -0.019 C 
ATOM     10  C   UNL     1      17.969  -7.636  19.294  1.00  0.00     0.012 C 
ATOM     11  C   UNL     1      16.113  -5.939  19.244  1.00  0.00     0.012 C 
ENDROOT
TORSDOF 0
ENDMDL
MODEL 8
REMARK VINA RESULT:    -4.375     12.369     14.050
REMARK INTER + INTRA:          -4.375
REMARK INTER:                  -4.375
REMARK INTRA:                   0.000
REMARK UNBOUND:                 0.000
REMARK SMILES CC1=CC(=O)[C@@H]2C[C@H]1C2(C)C
REMARK SMILES IDX 1 1 2 2 3 3 4 4 5 5 6 6 7 7 8 8 9 9 10 10 11 11
REMARK H PARENT
REMARK Flexibility Score: inf
ROOT
ATOM      1  C   UNL     1      12.707  -7.851  17.757  1.00  0.00     0.040 C 
ATOM      2  C   UNL     1      13.977  -7.069  17.864  1.00  0.00    -0.066 C 
ATOM      3  C   UNL     1      14.618  -6.603  16.756  1.00  0.00     0.047 C 
ATOM      4  C   UNL     1      15.865  -5.807  16.997  1.00  0.00     0.159 C 
ATOM      5  O   UNL     1      16.524  -5.289  16.058  1.00  0.00    -0.295 OA
ATOM      6  C   UNL     1      16.279  -5.666  18.462  1.00  0.00     0.067 C 
ATOM      7  C   UNL     1      16.133  -7.093  19.035  1.00  0.00     0.021 C 
ATOM      8  C   UNL     1      14.634  -6.767  19.228  1.00  0.00     0.022 C 
ATOM      9  C   UNL     1      15.026  -5.264  19.294  1.00  0.00    -0.019 C 
ATOM     10  C   UNL     1      15.393  -4.811  20.730  1.00  0.00     0.012 C 
ATOM     11  C   UNL     1      14.044  -4.220  18.691  1.00  0.00     0.012 C 
ENDROOT
TORSDOF 0
ENDMDL
MODEL 9
REMARK VINA RESULT:    -4.233     12.051     13.993
REMARK INTER + INTRA:          -4.233
REMARK INTER:                  -4.233
REMARK INTRA:                   0.000
REMARK UNBOUND:                 0.000
REMARK SMILES CC1=CC(=O)[C@@H]2C[C@H]1C2(C)C
REMARK SMILES IDX 1 1 2 2 3 3 4 4 5 5 6 6 7 7 8 8 9 9 10 10 11 11
REMARK H PARENT
REMARK Flexibility Score: inf
ROOT
ATOM      1  C   UNL     1      14.532  -3.620  19.034  1.00  0.00     0.040 C 
ATOM      2  C   UNL     1      14.772  -5.030  18.597  1.00  0.00    -0.066 C 
ATOM      3  C   UNL     1      13.849  -5.712  17.863  1.00  0.00     0.047 C 
ATOM      4  C   UNL     1      14.221  -7.107  17.461  1.00  0.00     0.159 C 
ATOM      5  O   UNL     1      13.470  -7.824  16.749  1.00  0.00    -0.295 OA
ATOM      6  C   UNL     1      15.575  -7.597  17.974  1.00  0.00     0.067 C 
ATOM      7  C   UNL     1      15.592  -7.175  19.459  1.00  0.00     0.021 C 
ATOM      8  C   UNL     1      16.065  -5.788  18.969  1.00  0.00     0.022 C 
ATOM      9  C   UNL     1      16.636  -6.491  17.704  1.00  0.00    -0.019 C 
ATOM     10  C   UNL     1      18.085  -6.999  17.915  1.00  0.00     0.012 C 
ATOM     11  C   UNL     1      16.580  -5.728  16.351  1.00  0.00     0.012 C 
ENDROOT
TORSDOF 0
ENDMDL
