MODEL 1
REMARK VINA RESULT:    -5.018      0.000      0.000
REMARK INTER + INTRA:          -5.634
REMARK INTER:                  -5.312
REMARK INTRA:                  -0.322
REMARK UNBOUND:                -0.322
REMARK SMILES c1ccc(-c2ccccc2)cc1
REMARK SMILES IDX 1 1 2 2 3 3 4 4 11 5 12 6 5 7 6 8 10 9 7 10 9 11 8 12
REMARK H PARENT
REMARK Flexibility Score: inf
ROOT
ATOM      1  C   UNL     1    -118.548  14.507  22.586  1.00  0.00     0.000 A 
ATOM      2  C   UNL     1    -118.164  13.439  21.772  1.00  0.00     0.001 A 
ATOM      3  C   UNL     1    -117.110  12.605  22.157  1.00  0.00     0.009 A 
ATOM      4  C   UNL     1    -116.427  12.832  23.368  1.00  0.00    -0.018 A 
ATOM      5  C   UNL     1    -116.824  13.912  24.180  1.00  0.00     0.009 A 
ATOM      6  C   UNL     1    -117.879  14.743  23.789  1.00  0.00     0.001 A 
ENDROOT
BRANCH   4   7
ATOM      7  C   UNL     1    -115.308  11.949  23.781  1.00  0.00    -0.018 A 
ATOM      8  C   UNL     1    -115.057  10.744  23.097  1.00  0.00     0.009 A 
ATOM      9  C   UNL     1    -114.479  12.301  24.863  1.00  0.00     0.009 A 
ATOM     10  C   UNL     1    -114.002   9.913  23.488  1.00  0.00     0.001 A 
ATOM     11  C   UNL     1    -113.426  11.466  25.250  1.00  0.00     0.001 A 
ATOM     12  C   UNL     1    -113.188  10.274  24.563  1.00  0.00     0.000 A 
ENDBRANCH   4   7
TORSDOF 1
ENDMDL
MODEL 2
REMARK VINA RESULT:    -5.016      0.059      4.749
REMARK INTER + INTRA:          -5.632
REMARK INTER:                  -5.310
REMARK INTRA:                  -0.322
REMARK UNBOUND:                -0.322
REMARK SMILES c1ccc(-c2ccccc2)cc1
REMARK SMILES IDX 1 1 2 2 3 3 4 4 11 5 12 6 5 7 6 8 10 9 7 10 9 11 8 12
REMARK H PARENT
REMARK Flexibility Score: inf
ROOT
ATOM      1  C   UNL     1    -113.219  10.205  24.613  1.00  0.00     0.000 A 
ATOM      2  C   UNL     1    -114.032   9.849  23.535  1.00  0.00     0.001 A 
ATOM      3  C   UNL     1    -115.070  10.692  23.128  1.00  0.00     0.009 A 
ATOM      4  C   UNL     1    -115.306  11.907  23.800  1.00  0.00    -0.018 A 
ATOM      5  C   UNL     1    -114.480  12.255  24.886  1.00  0.00     0.009 A 
ATOM      6  C   UNL     1    -113.443  11.407  25.289  1.00  0.00     0.001 A 
ENDROOT
BRANCH   4   7
ATOM      7  C   UNL     1    -116.408  12.806  23.372  1.00  0.00    -0.018 A 
ATOM      8  C   UNL     1    -117.076  12.587  22.151  1.00  0.00     0.009 A 
ATOM      9  C   UNL     1    -116.802  13.891  24.177  1.00  0.00     0.009 A 
ATOM     10  C   UNL     1    -118.113  13.435  21.750  1.00  0.00     0.001 A 
ATOM     11  C   UNL     1    -117.838  14.736  23.770  1.00  0.00     0.001 A 
ATOM     12  C   UNL     1    -118.494  14.509  22.558  1.00  0.00     0.000 A 
ENDBRANCH   4   7
TORSDOF 1
ENDMDL
MODEL 3
REMARK VINA RESULT:    -5.015      0.167      1.982
REMARK INTER + INTRA:          -5.631
REMARK INTER:                  -5.309
REMARK INTRA:                  -0.323
REMARK UNBOUND:                -0.322
REMARK SMILES c1ccc(-c2ccccc2)cc1
REMARK SMILES IDX 1 1 2 2 3 3 4 4 11 5 12 6 5 7 6 8 10 9 7 10 9 11 8 12
REMARK H PARENT
REMARK Flexibility Score: inf
ROOT
ATOM      1  C   UNL     1    -118.591  14.619  22.778  1.00  0.00     0.000 A 
ATOM      2  C   UNL     1    -117.835  14.824  23.935  1.00  0.00     0.001 A 
ATOM      3  C   UNL     1    -116.784  13.958  24.250  1.00  0.00     0.009 A 
ATOM      4  C   UNL     1    -116.478  12.872  23.407  1.00  0.00    -0.018 A 
ATOM      5  C   UNL     1    -117.247  12.676  22.244  1.00  0.00     0.009 A 
ATOM      6  C   UNL     1    -118.297  13.546  21.934  1.00  0.00     0.001 A 
ENDROOT
BRANCH   4   7
ATOM      7  C   UNL     1    -115.362  11.950  23.738  1.00  0.00    -0.018 A 
ATOM      8  C   UNL     1    -114.486  12.239  24.802  1.00  0.00     0.009 A 
ATOM      9  C   UNL     1    -115.162  10.771  22.995  1.00  0.00     0.009 A 
ATOM     10  C   UNL     1    -113.436  11.369  25.112  1.00  0.00     0.001 A 
ATOM     11  C   UNL     1    -114.110   9.905  23.309  1.00  0.00     0.001 A 
ATOM     12  C   UNL     1    -113.248  10.204  24.366  1.00  0.00     0.000 A 
ENDBRANCH   4   7
TORSDOF 1
ENDMDL
MODEL 4
REMARK VINA RESULT:    -5.007      0.075      5.137
REMARK INTER + INTRA:          -5.622
REMARK INTER:                  -5.300
REMARK INTRA:                  -0.322
REMARK UNBOUND:                -0.322
REMARK SMILES c1ccc(-c2ccccc2)cc1
REMARK SMILES IDX 1 1 2 2 3 3 4 4 11 5 12 6 5 7 6 8 10 9 7 10 9 11 8 12
REMARK H PARENT
REMARK Flexibility Score: inf
ROOT
ATOM      1  C   UNL     1    -113.221  10.204  24.590  1.00  0.00     0.000 A 
ATOM      2  C   UNL     1    -113.467  11.396  25.275  1.00  0.00     0.001 A 
ATOM      3  C   UNL     1    -114.508  12.237  24.870  1.00  0.00     0.009 A 
ATOM      4  C   UNL     1    -115.316  11.892  23.769  1.00  0.00    -0.018 A 
ATOM      5  C   UNL     1    -115.058  10.688  23.087  1.00  0.00     0.009 A 
ATOM      6  C   UNL     1    -114.015   9.850  23.497  1.00  0.00     0.001 A 
ENDROOT
BRANCH   4   7
ATOM      7  C   UNL     1    -116.422  12.783  23.336  1.00  0.00    -0.018 A 
ATOM      8  C   UNL     1    -116.848  13.846  24.155  1.00  0.00     0.009 A 
ATOM      9  C   UNL     1    -117.063  12.579  22.099  1.00  0.00     0.009 A 
ATOM     10  C   UNL     1    -117.890  14.684  23.744  1.00  0.00     0.001 A 
ATOM     11  C   UNL     1    -118.105  13.419  21.694  1.00  0.00     0.001 A 
ATOM     12  C   UNL     1    -118.518  14.470  22.515  1.00  0.00     0.000 A 
ENDBRANCH   4   7
TORSDOF 1
ENDMDL
MODEL 5
REMARK VINA RESULT:    -4.925      1.172      2.448
REMARK INTER + INTRA:          -5.535
REMARK INTER:                  -5.220
REMARK INTRA:                  -0.315
REMARK UNBOUND:                -0.322
REMARK SMILES c1ccc(-c2ccccc2)cc1
REMARK SMILES IDX 1 1 2 2 3 3 4 4 11 5 12 6 5 7 6 8 10 9 7 10 9 11 8 12
REMARK H PARENT
REMARK Flexibility Score: inf
ROOT
ATOM      1  C   UNL     1    -119.716  15.168  20.898  1.00  0.00     0.000 A 
ATOM      2  C   UNL     1    -118.885  14.396  20.083  1.00  0.00     0.001 A 
ATOM      3  C   UNL     1    -117.909  13.574  20.653  1.00  0.00     0.009 A 
ATOM      4  C   UNL     1    -117.752  13.516  22.051  1.00  0.00    -0.018 A 
ATOM      5  C   UNL     1    -118.595  14.299  22.862  1.00  0.00     0.009 A 
ATOM      6  C   UNL     1    -119.571  15.120  22.286  1.00  0.00     0.001 A 
ENDROOT
BRANCH   4   7
ATOM      7  C   UNL     1    -116.716  12.644  22.660  1.00  0.00    -0.018 A 
ATOM      8  C   UNL     1    -116.139  12.978  23.901  1.00  0.00     0.009 A 
ATOM      9  C   UNL     1    -116.292  11.471  22.008  1.00  0.00     0.009 A 
ATOM     10  C   UNL     1    -115.163  12.155  24.473  1.00  0.00     0.001 A 
ATOM     11  C   UNL     1    -115.316  10.653  22.584  1.00  0.00     0.001 A 
ATOM     12  C   UNL     1    -114.752  10.995  23.815  1.00  0.00     0.000 A 
ENDBRANCH   4   7
TORSDOF 1
ENDMDL
MODEL 6
REMARK VINA RESULT:    -4.912      1.172      5.143
REMARK INTER + INTRA:          -5.522
REMARK INTER:                  -5.206
REMARK INTRA:                  -0.316
REMARK UNBOUND:                -0.322
REMARK SMILES c1ccc(-c2ccccc2)cc1
REMARK SMILES IDX 1 1 2 2 3 3 4 4 11 5 12 6 5 7 6 8 10 9 7 10 9 11 8 12
REMARK H PARENT
REMARK Flexibility Score: inf
ROOT
ATOM      1  C   UNL     1    -114.793  10.956  23.826  1.00  0.00     0.000 A 
ATOM      2  C   UNL     1    -115.332  10.640  22.577  1.00  0.00     0.001 A 
ATOM      3  C   UNL     1    -116.298  11.469  21.999  1.00  0.00     0.009 A 
ATOM      4  C   UNL     1    -116.737  12.627  22.668  1.00  0.00    -0.018 A 
ATOM      5  C   UNL     1    -116.186  12.935  23.927  1.00  0.00     0.009 A 
ATOM      6  C   UNL     1    -115.219  12.102  24.501  1.00  0.00     0.001 A 
ENDROOT
BRANCH   4   7
ATOM      7  C   UNL     1    -117.763  13.510  22.058  1.00  0.00    -0.018 A 
ATOM      8  C   UNL     1    -117.899  13.587  20.659  1.00  0.00     0.009 A 
ATOM      9  C   UNL     1    -118.616  14.283  22.867  1.00  0.00     0.009 A 
ATOM     10  C   UNL     1    -118.867  14.419  20.086  1.00  0.00     0.001 A 
ATOM     11  C   UNL     1    -119.581  15.114  22.289  1.00  0.00     0.001 A 
ATOM     12  C   UNL     1    -119.706  15.182  20.900  1.00  0.00     0.000 A 
ENDBRANCH   4   7
TORSDOF 1
ENDMDL
MODEL 7
REMARK VINA RESULT:    -4.649      1.527      2.841
REMARK INTER + INTRA:          -5.243
REMARK INTER:                  -4.921
REMARK INTRA:                  -0.322
REMARK UNBOUND:                -0.322
REMARK SMILES c1ccc(-c2ccccc2)cc1
REMARK SMILES IDX 1 1 2 2 3 3 4 4 11 5 12 6 5 7 6 8 10 9 7 10 9 11 8 12
REMARK H PARENT
REMARK Flexibility Score: inf
ROOT
ATOM      1  C   UNL     1    -118.454  14.869  23.258  1.00  0.00     0.000 A 
ATOM      2  C   UNL     1    -117.483  14.334  24.108  1.00  0.00     0.001 A 
ATOM      3  C   UNL     1    -116.711  13.245  23.693  1.00  0.00     0.009 A 
ATOM      4  C   UNL     1    -116.905  12.676  22.420  1.00  0.00    -0.018 A 
ATOM      5  C   UNL     1    -117.887  13.225  21.573  1.00  0.00     0.009 A 
ATOM      6  C   UNL     1    -118.657  14.315  21.993  1.00  0.00     0.001 A 
ENDROOT
BRANCH   4   7
ATOM      7  C   UNL     1    -116.087  11.519  21.976  1.00  0.00    -0.018 A 
ATOM      8  C   UNL     1    -115.268  10.829  22.890  1.00  0.00     0.009 A 
ATOM      9  C   UNL     1    -116.117  11.093  20.634  1.00  0.00     0.009 A 
ATOM     10  C   UNL     1    -114.499   9.739  22.470  1.00  0.00     0.001 A 
ATOM     11  C   UNL     1    -115.345  10.003  20.220  1.00  0.00     0.001 A 
ATOM     12  C   UNL     1    -114.537   9.327  21.136  1.00  0.00     0.000 A 
ENDBRANCH   4   7
TORSDOF 1
ENDMDL
MODEL 8
REMARK VINA RESULT:    -4.643      1.842      4.883
REMARK INTER + INTRA:          -5.237
REMARK INTER:                  -4.915
REMARK INTRA:                  -0.322
REMARK UNBOUND:                -0.322
REMARK SMILES c1ccc(-c2ccccc2)cc1
REMARK SMILES IDX 1 1 2 2 3 3 4 4 11 5 12 6 5 7 6 8 10 9 7 10 9 11 8 12
REMARK H PARENT
REMARK Flexibility Score: inf
ROOT
ATOM      1  C   UNL     1    -114.884   9.504  20.512  1.00  0.00     0.000 A 
ATOM      2  C   UNL     1    -115.686  10.291  19.682  1.00  0.00     0.001 A 
ATOM      3  C   UNL     1    -116.412  11.360  20.216  1.00  0.00     0.009 A 
ATOM      4  C   UNL     1    -116.344  11.652  21.591  1.00  0.00    -0.018 A 
ATOM      5  C   UNL     1    -115.531  10.852  22.417  1.00  0.00     0.009 A 
ATOM      6  C   UNL     1    -114.807   9.783  21.878  1.00  0.00     0.001 A 
ENDROOT
BRANCH   4   7
ATOM      7  C   UNL     1    -117.114  12.786  22.162  1.00  0.00    -0.018 A 
ATOM      8  C   UNL     1    -118.080  13.457  21.388  1.00  0.00     0.009 A 
ATOM      9  C   UNL     1    -116.892  13.209  23.487  1.00  0.00     0.009 A 
ATOM     10  C   UNL     1    -118.804  14.525  21.928  1.00  0.00     0.001 A 
ATOM     11  C   UNL     1    -117.618  14.278  24.020  1.00  0.00     0.001 A 
ATOM     12  C   UNL     1    -118.573  14.935  23.242  1.00  0.00     0.000 A 
ENDBRANCH   4   7
TORSDOF 1
ENDMDL
MODEL 9
REMARK VINA RESULT:    -4.437     19.168     19.684
REMARK INTER + INTRA:          -5.019
REMARK INTER:                  -4.731
REMARK INTRA:                  -0.288
REMARK UNBOUND:                -0.322
REMARK SMILES c1ccc(-c2ccccc2)cc1
REMARK SMILES IDX 1 1 2 2 3 3 4 4 11 5 12 6 5 7 6 8 10 9 7 10 9 11 8 12
REMARK H PARENT
REMARK Flexibility Score: inf
ROOT
ATOM      1  C   UNL     1    -105.969  28.155  21.684  1.00  0.00     0.000 A 
ATOM      2  C   UNL     1    -106.092  27.430  20.496  1.00  0.00     0.001 A 
ATOM      3  C   UNL     1    -104.958  26.893  19.880  1.00  0.00     0.009 A 
ATOM      4  C   UNL     1    -103.683  27.077  20.449  1.00  0.00    -0.018 A 
ATOM      5  C   UNL     1    -103.572  27.810  21.647  1.00  0.00     0.009 A 
ATOM      6  C   UNL     1    -104.711  28.345  22.258  1.00  0.00     0.001 A 
ENDROOT
BRANCH   4   7
ATOM      7  C   UNL     1    -102.476  26.509  19.798  1.00  0.00    -0.018 A 
ATOM      8  C   UNL     1    -101.667  27.309  18.967  1.00  0.00     0.009 A 
ATOM      9  C   UNL     1    -102.119  25.162  19.999  1.00  0.00     0.009 A 
ATOM     10  C   UNL     1    -100.530  26.771  18.355  1.00  0.00     0.001 A 
ATOM     11  C   UNL     1    -100.982  24.630  19.384  1.00  0.00     0.001 A 
ATOM     12  C   UNL     1    -100.189  25.433  18.563  1.00  0.00     0.000 A 
ENDBRANCH   4   7
TORSDOF 1
ENDMDL
