MODEL 1
REMARK VINA RESULT:    -3.222      0.000      0.000
REMARK INTER + INTRA:          -3.227
REMARK INTER:                  -3.976
REMARK INTRA:                   0.748
REMARK UNBOUND:                 0.748
REMARK SMILES CC1=CC=CC(C)(C)CC1=O
REMARK SMILES IDX 1 1 2 2 3 3 10 4 11 5 9 6 4 8 5 9 6 10 7 11 8 12
REMARK H PARENT
REMARK Flexibility Score: 80.00
ROOT
ATOM      1  C   UNL     1     182.000 176.190 197.347  1.00  0.00     0.048 C 
ATOM      2  C   UNL     1     183.062 176.647 198.319  1.00  0.00    -0.008 C 
ATOM      3  C   UNL     1     183.034 176.130 199.566  1.00  0.00     0.007 C 
ENDROOT
BRANCH   2   4
ATOM      4  C   UNL     1     184.100 177.573 197.800  1.00  0.00     0.159 C 
ATOM      5  O   UNL     1     184.184 177.757 196.555  1.00  0.00    -0.295 OA
BRANCH   4   6
ATOM      6  C   UNL     1     185.055 178.320 198.679  1.00  0.00     0.091 CG0
ATOM      7  G   UNL     1     185.962 177.393 199.520  1.00  0.00     0.000 G0
ENDBRANCH   4   6
ENDBRANCH   2   4
BRANCH   3   8
ATOM      8  C   UNL     1     183.942 176.361 200.714  1.00  0.00    -0.003 C 
ATOM      9  C   UNL     1     185.180 176.873 200.721  1.00  0.00    -0.020 C 
BRANCH   9  10
ATOM     10  C   UNL     1     185.951 177.373 199.522  1.00  0.00    -0.010 CG0
ATOM     11  C   UNL     1     186.505 176.177 198.714  1.00  0.00     0.016 C 
ATOM     12  C   UNL     1     187.152 178.203 200.029  1.00  0.00     0.016 C 
ATOM     13  G   UNL     1     185.051 178.299 198.673  1.00  0.00     0.000 G0
ENDBRANCH   9  10
ENDBRANCH   3   8
TORSDOF 0
ENDMDL
MODEL 2
REMARK VINA RESULT:    -2.896      9.279     10.586
REMARK INTER + INTRA:          -2.825
REMARK INTER:                  -3.580
REMARK INTRA:                   0.755
REMARK UNBOUND:                 0.748
REMARK SMILES CC1=CC=CC(C)(C)CC1=O
REMARK SMILES IDX 1 1 2 2 3 3 10 4 11 5 9 6 4 8 5 9 6 10 7 11 8 12
REMARK H PARENT
REMARK Flexibility Score: 80.00
ROOT
ATOM      1  C   UNL     1     186.482 186.003 198.532  1.00  0.00     0.048 C 
ATOM      2  C   UNL     1     186.660 186.025 197.033  1.00  0.00    -0.008 C 
ATOM      3  C   UNL     1     187.101 184.896 196.437  1.00  0.00     0.007 C 
ENDROOT
BRANCH   2   4
ATOM      4  C   UNL     1     186.262 187.267 196.323  1.00  0.00     0.159 C 
ATOM      5  O   UNL     1     185.629 188.154 196.958  1.00  0.00    -0.295 OA
BRANCH   4   6
ATOM      6  C   UNL     1     186.583 187.536 194.885  1.00  0.00     0.091 CG0
ATOM      7  G   UNL     1     186.009 186.472 193.923  1.00  0.00     0.000 G0
ENDBRANCH   4   6
ENDBRANCH   2   4
BRANCH   3   8
ATOM      8  C   UNL     1     187.344 184.607 195.005  1.00  0.00    -0.003 C 
ATOM      9  C   UNL     1     186.885 185.252 193.924  1.00  0.00    -0.020 C 
BRANCH   9  10
ATOM     10  C   UNL     1     186.006 186.480 193.918  1.00  0.00    -0.010 CG0
ATOM     11  C   UNL     1     184.548 186.087 194.252  1.00  0.00     0.016 C 
ATOM     12  C   UNL     1     186.023 187.082 192.495  1.00  0.00     0.016 C 
ATOM     13  G   UNL     1     186.577 187.534 194.892  1.00  0.00     0.000 G0
ENDBRANCH   9  10
ENDBRANCH   3   8
TORSDOF 0
ENDMDL
MODEL 3
REMARK VINA RESULT:    -2.865      9.245     10.712
REMARK INTER + INTRA:          -2.787
REMARK INTER:                  -3.556
REMARK INTRA:                   0.769
REMARK UNBOUND:                 0.748
REMARK SMILES CC1=CC=CC(C)(C)CC1=O
REMARK SMILES IDX 1 1 2 2 3 3 10 4 11 5 9 6 4 8 5 9 6 10 7 11 8 12
REMARK H PARENT
REMARK Flexibility Score: 80.00
ROOT
ATOM      1  C   UNL     1     186.333 186.630 198.369  1.00  0.00     0.048 C 
ATOM      2  C   UNL     1     186.168 186.714 196.870  1.00  0.00    -0.008 C 
ATOM      3  C   UNL     1     185.767 187.894 196.349  1.00  0.00     0.007 C 
ENDROOT
BRANCH   2   4
ATOM      4  C   UNL     1     186.532 185.511 196.081  1.00  0.00     0.159 C 
ATOM      5  O   UNL     1     187.149 184.572 196.654  1.00  0.00    -0.295 OA
BRANCH   4   6
ATOM      6  C   UNL     1     186.193 185.339 194.632  1.00  0.00     0.091 CG0
ATOM      7  G   UNL     1     186.805 186.434 193.729  1.00  0.00     0.000 G0
ENDBRANCH   4   6
ENDBRANCH   2   4
BRANCH   3   8
ATOM      8  C   UNL     1     185.546 188.286 194.938  1.00  0.00    -0.003 C 
ATOM      9  C   UNL     1     185.986 187.696 193.819  1.00  0.00    -0.020 C 
BRANCH   9  10
ATOM     10  C   UNL     1     186.817 186.438 193.735  1.00  0.00    -0.010 CG0
ATOM     11  C   UNL     1     188.284 186.748 194.114  1.00  0.00     0.016 C 
ATOM     12  C   UNL     1     186.798 185.940 192.273  1.00  0.00     0.016 C 
ATOM     13  G   UNL     1     186.191 185.341 194.625  1.00  0.00     0.000 G0
ENDBRANCH   9  10
ENDBRANCH   3   8
TORSDOF 0
ENDMDL
MODEL 4
REMARK VINA RESULT:    -2.769      9.260     10.541
REMARK INTER + INTRA:          -2.668
REMARK INTER:                  -3.416
REMARK INTRA:                   0.748
REMARK UNBOUND:                 0.748
REMARK SMILES CC1=CC=CC(C)(C)CC1=O
REMARK SMILES IDX 1 1 2 2 3 3 10 4 11 5 9 6 4 8 5 9 6 10 7 11 8 12
REMARK H PARENT
REMARK Flexibility Score: 80.00
ROOT
ATOM      1  C   UNL     1     185.633 189.624 195.598  1.00  0.00     0.048 C 
ATOM      2  C   UNL     1     186.215 188.241 195.768  1.00  0.00    -0.008 C 
ATOM      3  C   UNL     1     185.982 187.603 196.936  1.00  0.00     0.007 C 
ENDROOT
BRANCH   2   4
ATOM      4  C   UNL     1     186.934 187.662 194.606  1.00  0.00     0.159 C 
ATOM      5  O   UNL     1     186.839 188.234 193.486  1.00  0.00    -0.295 OA
BRANCH   4   6
ATOM      6  C   UNL     1     187.785 186.433 194.689  1.00  0.00     0.091 CG0
ATOM      7  G   UNL     1     187.006 185.181 195.153  1.00  0.00     0.000 G0
ENDBRANCH   4   6
ENDBRANCH   2   4
BRANCH   3   8
ATOM      8  C   UNL     1     186.392 186.250 197.380  1.00  0.00    -0.003 C 
ATOM      9  C   UNL     1     186.813 185.211 196.645  1.00  0.00    -0.020 C 
BRANCH   9  10
ATOM     10  C   UNL     1     186.997 185.189 195.147  1.00  0.00    -0.010 CG0
ATOM     11  C   UNL     1     185.624 185.050 194.448  1.00  0.00     0.016 C 
ATOM     12  C   UNL     1     187.846 183.951 194.781  1.00  0.00     0.016 C 
ATOM     13  G   UNL     1     187.768 186.450 194.697  1.00  0.00     0.000 G0
ENDBRANCH   9  10
ENDBRANCH   3   8
TORSDOF 0
ENDMDL
MODEL 5
REMARK VINA RESULT:    -2.751      8.739     10.067
REMARK INTER + INTRA:          -2.645
REMARK INTER:                  -3.382
REMARK INTRA:                   0.737
REMARK UNBOUND:                 0.748
REMARK SMILES CC1=CC=CC(C)(C)CC1=O
REMARK SMILES IDX 1 1 2 2 3 3 10 4 11 5 9 6 4 8 5 9 6 10 7 11 8 12
REMARK H PARENT
REMARK Flexibility Score: 80.00
ROOT
ATOM      1  C   UNL     1     187.109 182.957 195.190  1.00  0.00     0.048 C 
ATOM      2  C   UNL     1     186.538 184.328 195.465  1.00  0.00    -0.008 C 
ATOM      3  C   UNL     1     186.859 184.916 196.638  1.00  0.00     0.007 C 
ENDROOT
BRANCH   2   4
ATOM      4  C   UNL     1     185.729 184.952 194.389  1.00  0.00     0.159 C 
ATOM      5  O   UNL     1     185.731 184.424 193.243  1.00  0.00    -0.295 OA
BRANCH   4   6
ATOM      6  C   UNL     1     184.891 186.177 194.589  1.00  0.00     0.091 CG0
ATOM      7  G   UNL     1     185.712 187.413 195.020  1.00  0.00     0.000 G0
ENDBRANCH   4   6
ENDBRANCH   2   4
BRANCH   3   8
ATOM      8  C   UNL     1     186.481 186.245 197.172  1.00  0.00    -0.003 C 
ATOM      9  C   UNL     1     186.006 187.314 196.518  1.00  0.00    -0.020 C 
BRANCH   9  10
ATOM     10  C   UNL     1     185.714 187.403 195.039  1.00  0.00    -0.010 CG0
ATOM     11  C   UNL     1     187.031 187.579 194.250  1.00  0.00     0.016 C 
ATOM     12  C   UNL     1     184.839 188.652 194.792  1.00  0.00     0.016 C 
ATOM     13  G   UNL     1     184.913 186.159 194.590  1.00  0.00     0.000 G0
ENDBRANCH   9  10
ENDBRANCH   3   8
TORSDOF 0
ENDMDL
MODEL 6
REMARK VINA RESULT:    -2.695      1.616      2.590
REMARK INTER + INTRA:          -2.577
REMARK INTER:                  -3.603
REMARK INTRA:                   1.027
REMARK UNBOUND:                 0.748
REMARK SMILES CC1=CC=CC(C)(C)CC1=O
REMARK SMILES IDX 1 1 2 2 3 3 10 4 11 5 9 6 4 8 5 9 6 10 7 11 8 12
REMARK H PARENT
REMARK Flexibility Score: 80.00
ROOT
ATOM      1  C   UNL     1     181.930 176.239 197.799  1.00  0.00     0.048 C 
ATOM      2  C   UNL     1     183.241 176.984 197.710  1.00  0.00    -0.008 C 
ATOM      3  C   UNL     1     183.758 177.198 196.481  1.00  0.00     0.007 C 
ENDROOT
BRANCH   2   4
ATOM      4  C   UNL     1     183.819 177.488 198.981  1.00  0.00     0.159 C 
ATOM      5  O   UNL     1     183.356 177.057 200.073  1.00  0.00    -0.295 OA
BRANCH   4   6
ATOM      6  C   UNL     1     184.940 178.479 199.044  1.00  0.00     0.091 CG0
ATOM      7  G   UNL     1     186.216 178.003 198.313  1.00  0.00     0.000 G0
ENDBRANCH   4   6
ENDBRANCH   2   4
BRANCH   3   8
ATOM      8  C   UNL     1     184.994 177.909 196.079  1.00  0.00    -0.003 C 
ATOM      9  C   UNL     1     186.041 178.273 196.831  1.00  0.00    -0.020 C 
BRANCH   9  10
ATOM     10  C   UNL     1     186.220 178.011 198.307  1.00  0.00    -0.010 CG0
ATOM     11  C   UNL     1     187.499 178.715 198.818  1.00  0.00     0.016 C 
ATOM     12  C   UNL     1     186.399 176.490 198.511  1.00  0.00     0.016 C 
ATOM     13  G   UNL     1     184.952 178.453 199.072  1.00  0.00     0.000 G0
ENDBRANCH   9  10
ENDBRANCH   3   8
TORSDOF 0
ENDMDL
MODEL 7
REMARK VINA RESULT:    -2.564     16.309     17.478
REMARK INTER + INTRA:          -2.416
REMARK INTER:                  -3.177
REMARK INTRA:                   0.761
REMARK UNBOUND:                 0.748
REMARK SMILES CC1=CC=CC(C)(C)CC1=O
REMARK SMILES IDX 1 1 2 2 3 3 10 4 11 5 9 6 4 8 5 9 6 10 7 11 8 12
REMARK H PARENT
REMARK Flexibility Score: 80.00
ROOT
ATOM      1  C   UNL     1     178.348 193.120 195.849  1.00  0.00     0.048 C 
ATOM      2  C   UNL     1     178.294 192.565 194.446  1.00  0.00    -0.008 C 
ATOM      3  C   UNL     1     177.157 192.753 193.742  1.00  0.00     0.007 C 
ENDROOT
BRANCH   2   4
ATOM      4  C   UNL     1     179.526 191.923 193.925  1.00  0.00     0.159 C 
ATOM      5  O   UNL     1     180.603 192.061 194.568  1.00  0.00    -0.295 OA
BRANCH   4   6
ATOM      6  C   UNL     1     179.564 191.101 192.674  1.00  0.00     0.091 CG0
ATOM      7  G   UNL     1     179.149 191.891 191.412  1.00  0.00     0.000 G0
ENDBRANCH   4   6
ENDBRANCH   2   4
BRANCH   3   8
ATOM      8  C   UNL     1     176.818 192.355 192.355  1.00  0.00    -0.003 C 
ATOM      9  C   UNL     1     177.637 192.005 191.354  1.00  0.00    -0.020 C 
BRANCH   9  10
ATOM     10  C   UNL     1     179.143 191.909 191.418  1.00  0.00    -0.010 CG0
ATOM     11  C   UNL     1     179.765 193.324 191.379  1.00  0.00     0.016 C 
ATOM     12  C   UNL     1     179.633 191.138 190.172  1.00  0.00     0.016 C 
ATOM     13  G   UNL     1     179.561 191.110 192.673  1.00  0.00     0.000 G0
ENDBRANCH   9  10
ENDBRANCH   3   8
TORSDOF 0
ENDMDL
MODEL 8
REMARK VINA RESULT:    -2.531      2.236      4.142
REMARK INTER + INTRA:          -2.374
REMARK INTER:                  -3.131
REMARK INTRA:                   0.756
REMARK UNBOUND:                 0.748
REMARK SMILES CC1=CC=CC(C)(C)CC1=O
REMARK SMILES IDX 1 1 2 2 3 3 10 4 11 5 9 6 4 8 5 9 6 10 7 11 8 12
REMARK H PARENT
REMARK Flexibility Score: 80.00
ROOT
ATOM      1  C   UNL     1     188.252 181.323 199.890  1.00  0.00     0.048 C 
ATOM      2  C   UNL     1     187.769 179.947 199.497  1.00  0.00    -0.008 C 
ATOM      3  C   UNL     1     187.751 178.993 200.452  1.00  0.00     0.007 C 
ENDROOT
BRANCH   2   4
ATOM      4  C   UNL     1     187.279 179.774 198.106  1.00  0.00     0.159 C 
ATOM      5  O   UNL     1     187.108 180.799 197.390  1.00  0.00    -0.295 OA
BRANCH   4   6
ATOM      6  C   UNL     1     186.985 178.440 197.493  1.00  0.00     0.091 CG0
ATOM      7  G   UNL     1     185.895 177.648 198.250  1.00  0.00     0.000 G0
ENDBRANCH   4   6
ENDBRANCH   2   4
BRANCH   3   8
ATOM      8  C   UNL     1     187.312 177.580 200.379  1.00  0.00    -0.003 C 
ATOM      9  C   UNL     1     186.527 176.986 199.470  1.00  0.00    -0.020 C 
BRANCH   9  10
ATOM     10  C   UNL     1     185.910 177.637 198.255  1.00  0.00    -0.010 CG0
ATOM     11  C   UNL     1     184.698 178.500 198.677  1.00  0.00     0.016 C 
ATOM     12  C   UNL     1     185.398 176.523 197.315  1.00  0.00     0.016 C 
ATOM     13  G   UNL     1     186.984 178.449 197.497  1.00  0.00     0.000 G0
ENDBRANCH   9  10
ENDBRANCH   3   8
TORSDOF 0
ENDMDL
MODEL 9
REMARK VINA RESULT:    -2.422      9.519     10.798
REMARK INTER + INTRA:          -2.240
REMARK INTER:                  -2.986
REMARK INTRA:                   0.746
REMARK UNBOUND:                 0.748
REMARK SMILES CC1=CC=CC(C)(C)CC1=O
REMARK SMILES IDX 1 1 2 2 3 3 10 4 11 5 9 6 4 8 5 9 6 10 7 11 8 12
REMARK H PARENT
REMARK Flexibility Score: 80.00
ROOT
ATOM      1  C   UNL     1     183.353 188.804 193.985  1.00  0.00     0.048 C 
ATOM      2  C   UNL     1     184.644 188.032 194.126  1.00  0.00    -0.008 C 
ATOM      3  C   UNL     1     185.736 188.708 194.542  1.00  0.00     0.007 C 
ENDROOT
BRANCH   2   4
ATOM      4  C   UNL     1     184.590 186.572 193.866  1.00  0.00     0.159 C 
ATOM      5  O   UNL     1     183.463 186.015 193.757  1.00  0.00    -0.295 OA
BRANCH   4   6
ATOM      6  C   UNL     1     185.807 185.714 193.711  1.00  0.00     0.091 CG0
ATOM      7  G   UNL     1     186.712 185.707 194.964  1.00  0.00     0.000 G0
ENDBRANCH   4   6
ENDBRANCH   2   4
BRANCH   3   8
ATOM      8  C   UNL     1     187.114 188.228 194.796  1.00  0.00    -0.003 C 
ATOM      9  C   UNL     1     187.550 186.975 194.987  1.00  0.00    -0.020 C 
BRANCH   9  10
ATOM     10  C   UNL     1     186.711 185.720 194.960  1.00  0.00    -0.010 CG0
ATOM     11  C   UNL     1     185.917 185.586 196.280  1.00  0.00     0.016 C 
ATOM     12  C   UNL     1     187.659 184.505 194.848  1.00  0.00     0.016 C 
ATOM     13  G   UNL     1     185.797 185.731 193.714  1.00  0.00     0.000 G0
ENDBRANCH   9  10
ENDBRANCH   3   8
TORSDOF 0
ENDMDL
