MODEL 1
REMARK VINA RESULT:    -6.243      0.000      0.000
REMARK INTER + INTRA:          -9.780
REMARK INTER:                  -8.616
REMARK INTRA:                  -1.164
REMARK UNBOUND:                -1.164
REMARK SMILES O=C([O-])[C@@H]1O[C@H](Oc2cc3oc(-c4ccccc4)cc(=O)c3c(O)c2O)[C@@H](O)[C@H](O)[C@H]1O
REMARK SMILES IDX 7 1 6 2 4 3 31 4 5 5 29 6 27 7 2 8 1 9 3 10 32 11 30 13
REMARK SMILES IDX 28 15 8 17 25 18 9 19 23 20 10 21 22 22 11 23 20 24 12 25
REMARK SMILES IDX 19 26 21 27 26 28 24 30 13 32 14 33 18 34 15 35 17 36 16 37
REMARK H PARENT 32 12 30 14 28 16 26 29 24 31
REMARK Flexibility Score: inf
ROOT
ATOM      1  O   UNL     1      -6.036  -6.122  16.253  1.00  0.00    -0.458 OA
ENDROOT
BRANCH   1   2
ATOM      2  C   UNL     1      -6.371  -6.424  17.610  1.00  0.00     0.339 C 
ATOM      3  C   UNL     1      -7.678  -8.419  17.410  1.00  0.00     0.199 C 
ATOM      4  C   UNL     1      -6.782  -9.245  18.385  1.00  0.00     0.180 C 
ATOM      5  O   UNL     1      -7.665  -7.023  17.688  1.00  0.00    -0.328 OA
ATOM      6  C   UNL     1      -5.843  -8.326  19.188  1.00  0.00     0.181 C 
ATOM      7  C   UNL     1      -5.239  -7.267  18.251  1.00  0.00     0.214 C 
BRANCH   3   8
ATOM      8  C   UNL     1      -7.417  -8.697  15.947  1.00  0.00     0.073 C 
ATOM      9  O   UNL     1      -6.423  -9.382  15.580  1.00  0.00    -0.547 OA
ATOM     10  O   UNL     1      -8.252  -8.144  14.983  1.00  0.00    -0.547 OA
ENDBRANCH   3   8
BRANCH   4  11
ATOM     11  O   UNL     1      -7.593  -9.968  19.277  1.00  0.00    -0.387 OA
ATOM     12  H   UNL     1      -7.916  -9.323  19.960  1.00  0.00     0.211 HD
ENDBRANCH   4  11
BRANCH   6  13
ATOM     13  O   UNL     1      -4.838  -9.072  19.831  1.00  0.00    -0.387 OA
ATOM     14  H   UNL     1      -4.892 -10.007  19.499  1.00  0.00     0.211 HD
ENDBRANCH   6  13
BRANCH   7  15
ATOM     15  O   UNL     1      -4.369  -6.423  18.967  1.00  0.00    -0.384 OA
ATOM     16  H   UNL     1      -4.198  -5.628  18.398  1.00  0.00     0.211 HD
ENDBRANCH   7  15
ENDBRANCH   1   2
BRANCH   1  17
ATOM     17  C   UNL     1      -5.012  -5.269  15.798  1.00  0.00     0.172 A 
ATOM     18  C   UNL     1      -3.774  -5.719  15.275  1.00  0.00     0.201 A 
ATOM     19  C   UNL     1      -5.273  -3.900  15.868  1.00  0.00     0.098 A 
ATOM     20  C   UNL     1      -2.797  -4.772  14.867  1.00  0.00     0.176 A 
ATOM     21  C   UNL     1      -4.331  -2.964  15.451  1.00  0.00     0.146 A 
ATOM     22  C   UNL     1      -3.087  -3.387  14.940  1.00  0.00     0.111 A 
ATOM     23  O   UNL     1      -4.623  -1.670  15.550  1.00  0.00    -0.456 OA
ATOM     24  C   UNL     1      -2.182  -2.383  14.529  1.00  0.00     0.197 A 
ATOM     25  C   UNL     1      -3.791  -0.701  15.176  1.00  0.00     0.138 A 
ATOM     26  C   UNL     1      -2.537  -1.038  14.650  1.00  0.00     0.100 A 
ATOM     27  O   UNL     1      -1.050  -2.672  14.051  1.00  0.00    -0.289 OA
BRANCH  18  28
ATOM     28  O   UNL     1      -3.549  -7.090  15.137  1.00  0.00    -0.502 OA
ATOM     29  H   UNL     1      -3.302  -7.711  15.893  1.00  0.00     0.293 HD
ENDBRANCH  18  28
BRANCH  20  30
ATOM     30  O   UNL     1      -1.542  -5.176  14.398  1.00  0.00    -0.504 OA
ATOM     31  H   UNL     1      -1.328  -6.100  14.051  1.00  0.00     0.293 HD
ENDBRANCH  20  30
BRANCH  25  32
ATOM     32  C   UNL     1      -4.208   0.712  15.362  1.00  0.00     0.017 A 
ATOM     33  C   UNL     1      -3.552   1.769  14.699  1.00  0.00     0.012 A 
ATOM     34  C   UNL     1      -5.285   1.007  16.216  1.00  0.00     0.012 A 
ATOM     35  C   UNL     1      -3.953   3.094  14.915  1.00  0.00     0.001 A 
ATOM     36  C   UNL     1      -5.679   2.334  16.431  1.00  0.00     0.001 A 
ATOM     37  C   UNL     1      -5.010   3.376  15.784  1.00  0.00     0.000 A 
ENDBRANCH  25  32
ENDBRANCH   1  17
TORSDOF 9
ENDMDL
MODEL 2
REMARK VINA RESULT:    -6.237      2.179      3.397
REMARK INTER + INTRA:          -9.771
REMARK INTER:                  -8.665
REMARK INTRA:                  -1.105
REMARK UNBOUND:                -1.164
REMARK SMILES O=C([O-])[C@@H]1O[C@H](Oc2cc3oc(-c4ccccc4)cc(=O)c3c(O)c2O)[C@@H](O)[C@H](O)[C@H]1O
REMARK SMILES IDX 7 1 6 2 4 3 31 4 5 5 29 6 27 7 2 8 1 9 3 10 32 11 30 13
REMARK SMILES IDX 28 15 8 17 25 18 9 19 23 20 10 21 22 22 11 23 20 24 12 25
REMARK SMILES IDX 19 26 21 27 26 28 24 30 13 32 14 33 18 34 15 35 17 36 16 37
REMARK H PARENT 32 12 30 14 28 16 26 29 24 31
REMARK Flexibility Score: inf
ROOT
ATOM      1  O   UNL     1      -6.671  -5.474  17.766  1.00  0.00    -0.458 OA
ENDROOT
BRANCH   1   2
ATOM      2  C   UNL     1      -7.724  -6.281  17.234  1.00  0.00     0.339 C 
ATOM      3  C   UNL     1      -9.534  -5.870  18.744  1.00  0.00     0.199 C 
ATOM      4  C   UNL     1     -10.522  -5.418  17.624  1.00  0.00     0.180 C 
ATOM      5  O   UNL     1      -8.550  -6.789  18.282  1.00  0.00    -0.328 OA
ATOM      6  C   UNL     1      -9.993  -5.804  16.230  1.00  0.00     0.181 C 
ATOM      7  C   UNL     1      -8.492  -5.486  16.146  1.00  0.00     0.214 C 
BRANCH   3   8
ATOM      8  C   UNL     1      -8.911  -4.728  19.515  1.00  0.00     0.073 C 
ATOM      9  O   UNL     1      -8.356  -4.921  20.631  1.00  0.00    -0.547 OA
ATOM     10  O   UNL     1      -9.000  -3.434  19.016  1.00  0.00    -0.547 OA
ENDBRANCH   3   8
BRANCH   4  11
ATOM     11  O   UNL     1     -11.776  -6.023  17.825  1.00  0.00    -0.387 OA
ATOM     12  H   UNL     1     -12.398  -5.621  17.163  1.00  0.00     0.211 HD
ENDBRANCH   4  11
BRANCH   6  13
ATOM     13  O   UNL     1     -10.713  -5.141  15.218  1.00  0.00    -0.387 OA
ATOM     14  H   UNL     1     -10.057  -4.696  14.619  1.00  0.00     0.211 HD
ENDBRANCH   6  13
BRANCH   7  15
ATOM     15  O   UNL     1      -7.993  -5.823  14.874  1.00  0.00    -0.384 OA
ATOM     16  H   UNL     1      -7.011  -5.677  14.896  1.00  0.00     0.211 HD
ENDBRANCH   7  15
ENDBRANCH   1   2
BRANCH   1  17
ATOM     17  C   UNL     1      -5.636  -4.843  17.050  1.00  0.00     0.172 A 
ATOM     18  C   UNL     1      -4.531  -5.525  16.479  1.00  0.00     0.201 A 
ATOM     19  C   UNL     1      -5.743  -3.460  16.900  1.00  0.00     0.098 A 
ATOM     20  C   UNL     1      -3.526  -4.789  15.798  1.00  0.00     0.176 A 
ATOM     21  C   UNL     1      -4.774  -2.732  16.217  1.00  0.00     0.146 A 
ATOM     22  C   UNL     1      -3.659  -3.385  15.652  1.00  0.00     0.111 A 
ATOM     23  O   UNL     1      -4.915  -1.413  16.112  1.00  0.00    -0.456 OA
ATOM     24  C   UNL     1      -2.720  -2.585  14.965  1.00  0.00     0.197 A 
ATOM     25  C   UNL     1      -4.045  -0.632  15.477  1.00  0.00     0.138 A 
ATOM     26  C   UNL     1      -2.914  -1.205  14.881  1.00  0.00     0.100 A 
ATOM     27  O   UNL     1      -1.697  -3.089  14.422  1.00  0.00    -0.289 OA
BRANCH  18  28
ATOM     28  O   UNL     1      -4.470  -6.917  16.568  1.00  0.00    -0.502 OA
ATOM     29  H   UNL     1      -5.004  -7.554  15.996  1.00  0.00     0.293 HD
ENDBRANCH  18  28
BRANCH  20  30
ATOM     30  O   UNL     1      -2.393  -5.419  15.271  1.00  0.00    -0.504 OA
ATOM     31  H   UNL     1      -1.539  -4.945  15.014  1.00  0.00     0.293 HD
ENDBRANCH  20  30
BRANCH  25  32
ATOM     32  C   UNL     1      -4.286   0.833  15.450  1.00  0.00     0.017 A 
ATOM     33  C   UNL     1      -3.518   1.694  14.639  1.00  0.00     0.012 A 
ATOM     34  C   UNL     1      -5.306   1.380  16.249  1.00  0.00     0.012 A 
ATOM     35  C   UNL     1      -3.753   3.075  14.655  1.00  0.00     0.001 A 
ATOM     36  C   UNL     1      -5.533   2.763  16.264  1.00  0.00     0.001 A 
ATOM     37  C   UNL     1      -4.754   3.608  15.471  1.00  0.00     0.000 A 
ENDBRANCH  25  32
ENDBRANCH   1  17
TORSDOF 9
ENDMDL
MODEL 3
REMARK VINA RESULT:    -6.205      1.620      2.725
REMARK INTER + INTRA:          -9.727
REMARK INTER:                  -8.283
REMARK INTRA:                  -1.444
REMARK UNBOUND:                -1.164
REMARK SMILES O=C([O-])[C@@H]1O[C@H](Oc2cc3oc(-c4ccccc4)cc(=O)c3c(O)c2O)[C@@H](O)[C@H](O)[C@H]1O
REMARK SMILES IDX 7 1 6 2 4 3 31 4 5 5 29 6 27 7 2 8 1 9 3 10 32 11 30 13
REMARK SMILES IDX 28 15 8 17 25 18 9 19 23 20 10 21 22 22 11 23 20 24 12 25
REMARK SMILES IDX 19 26 21 27 26 28 24 30 13 32 14 33 18 34 15 35 17 36 16 37
REMARK H PARENT 32 12 30 14 28 16 26 29 24 31
REMARK Flexibility Score: inf
ROOT
ATOM      1  O   UNL     1      -5.415  -4.593  17.180  1.00  0.00    -0.458 OA
ENDROOT
BRANCH   1   2
ATOM      2  C   UNL     1      -6.420  -5.458  16.645  1.00  0.00     0.339 C 
ATOM      3  C   UNL     1      -5.908  -7.566  17.653  1.00  0.00     0.199 C 
ATOM      4  C   UNL     1      -7.333  -7.757  18.259  1.00  0.00     0.180 C 
ATOM      5  O   UNL     1      -5.907  -6.778  16.468  1.00  0.00    -0.328 OA
ATOM      6  C   UNL     1      -8.338  -6.774  17.631  1.00  0.00     0.181 C 
ATOM      7  C   UNL     1      -7.695  -5.382  17.524  1.00  0.00     0.214 C 
BRANCH   3   8
ATOM      8  C   UNL     1      -4.875  -7.082  18.645  1.00  0.00     0.073 C 
ATOM      9  O   UNL     1      -3.654  -7.012  18.334  1.00  0.00    -0.547 OA
ATOM     10  O   UNL     1      -5.264  -6.761  19.940  1.00  0.00    -0.547 OA
ENDBRANCH   3   8
BRANCH   4  11
ATOM     11  O   UNL     1      -7.773  -9.073  18.034  1.00  0.00    -0.387 OA
ATOM     12  H   UNL     1      -7.372  -9.637  18.746  1.00  0.00     0.211 HD
ENDBRANCH   4  11
BRANCH   6  13
ATOM     13  O   UNL     1      -9.531  -6.730  18.376  1.00  0.00    -0.387 OA
ATOM     14  H   UNL     1      -9.322  -6.338  19.265  1.00  0.00     0.211 HD
ENDBRANCH   6  13
BRANCH   7  15
ATOM     15  O   UNL     1      -8.604  -4.468  16.960  1.00  0.00    -0.384 OA
ATOM     16  H   UNL     1      -8.887  -3.850  17.684  1.00  0.00     0.211 HD
ENDBRANCH   7  15
ENDBRANCH   1   2
BRANCH   1  17
ATOM     17  C   UNL     1      -4.512  -3.787  16.461  1.00  0.00     0.172 A 
ATOM     18  C   UNL     1      -3.242  -4.222  16.007  1.00  0.00     0.201 A 
ATOM     19  C   UNL     1      -4.934  -2.486  16.182  1.00  0.00     0.098 A 
ATOM     20  C   UNL     1      -2.395  -3.319  15.311  1.00  0.00     0.176 A 
ATOM     21  C   UNL     1      -4.121  -1.599  15.482  1.00  0.00     0.146 A 
ATOM     22  C   UNL     1      -2.848  -2.004  15.033  1.00  0.00     0.111 A 
ATOM     23  O   UNL     1      -4.563  -0.365  15.253  1.00  0.00    -0.456 OA
ATOM     24  C   UNL     1      -2.080  -1.055  14.322  1.00  0.00     0.197 A 
ATOM     25  C   UNL     1      -3.862   0.553  14.592  1.00  0.00     0.138 A 
ATOM     26  C   UNL     1      -2.590   0.226  14.105  1.00  0.00     0.100 A 
ATOM     27  O   UNL     1      -0.933  -1.336  13.875  1.00  0.00    -0.289 OA
BRANCH  18  28
ATOM     28  O   UNL     1      -2.858  -5.547  16.223  1.00  0.00    -0.502 OA
ATOM     29  H   UNL     1      -2.254  -5.857  16.969  1.00  0.00     0.293 HD
ENDBRANCH  18  28
BRANCH  20  30
ATOM     30  O   UNL     1      -1.113  -3.694  14.897  1.00  0.00    -0.504 OA
ATOM     31  H   UNL     1      -0.892  -4.557  14.420  1.00  0.00     0.293 HD
ENDBRANCH  20  30
BRANCH  25  32
ATOM     32  C   UNL     1      -4.441   1.909  14.422  1.00  0.00     0.017 A 
ATOM     33  C   UNL     1      -5.802   2.099  14.108  1.00  0.00     0.012 A 
ATOM     34  C   UNL     1      -3.616   3.037  14.579  1.00  0.00     0.012 A 
ATOM     35  C   UNL     1      -6.313   3.390  13.929  1.00  0.00     0.001 A 
ATOM     36  C   UNL     1      -4.131   4.327  14.394  1.00  0.00     0.001 A 
ATOM     37  C   UNL     1      -5.477   4.501  14.066  1.00  0.00     0.000 A 
ENDBRANCH  25  32
ENDBRANCH   1  17
TORSDOF 9
ENDMDL
MODEL 4
REMARK VINA RESULT:    -6.145      1.345      2.307
REMARK INTER + INTRA:          -9.644
REMARK INTER:                  -8.817
REMARK INTRA:                  -0.827
REMARK UNBOUND:                -1.164
REMARK SMILES O=C([O-])[C@@H]1O[C@H](Oc2cc3oc(-c4ccccc4)cc(=O)c3c(O)c2O)[C@@H](O)[C@H](O)[C@H]1O
REMARK SMILES IDX 7 1 6 2 4 3 31 4 5 5 29 6 27 7 2 8 1 9 3 10 32 11 30 13
REMARK SMILES IDX 28 15 8 17 25 18 9 19 23 20 10 21 22 22 11 23 20 24 12 25
REMARK SMILES IDX 19 26 21 27 26 28 24 30 13 32 14 33 18 34 15 35 17 36 16 37
REMARK H PARENT 32 12 30 14 28 16 26 29 24 31
REMARK Flexibility Score: inf
ROOT
ATOM      1  O   UNL     1      -5.509  -5.977  17.123  1.00  0.00    -0.458 OA
ENDROOT
BRANCH   1   2
ATOM      2  C   UNL     1      -5.498  -7.392  16.919  1.00  0.00     0.339 C 
ATOM      3  C   UNL     1      -7.598  -8.083  17.836  1.00  0.00     0.199 C 
ATOM      4  C   UNL     1      -8.067  -8.797  16.530  1.00  0.00     0.180 C 
ATOM      5  O   UNL     1      -6.182  -8.059  17.980  1.00  0.00    -0.328 OA
ATOM      6  C   UNL     1      -6.893  -8.999  15.555  1.00  0.00     0.181 C 
ATOM      7  C   UNL     1      -6.044  -7.718  15.504  1.00  0.00     0.214 C 
BRANCH   3   8
ATOM      8  C   UNL     1      -8.201  -6.712  18.041  1.00  0.00     0.073 C 
ATOM      9  O   UNL     1      -8.098  -6.112  19.146  1.00  0.00    -0.547 OA
ATOM     10  O   UNL     1      -8.931  -6.123  17.015  1.00  0.00    -0.547 OA
ENDBRANCH   3   8
BRANCH   4  11
ATOM     11  O   UNL     1      -8.624 -10.049  16.848  1.00  0.00    -0.387 OA
ATOM     12  H   UNL     1      -7.865 -10.672  16.994  1.00  0.00     0.211 HD
ENDBRANCH   4  11
BRANCH   6  13
ATOM     13  O   UNL     1      -7.356  -9.356  14.276  1.00  0.00    -0.387 OA
ATOM     14  H   UNL     1      -8.089 -10.017  14.390  1.00  0.00     0.211 HD
ENDBRANCH   6  13
BRANCH   7  15
ATOM     15  O   UNL     1      -4.970  -7.882  14.610  1.00  0.00    -0.384 OA
ATOM     16  H   UNL     1      -5.262  -8.527  13.914  1.00  0.00     0.211 HD
ENDBRANCH   7  15
ENDBRANCH   1   2
BRANCH   1  17
ATOM     17  C   UNL     1      -4.623  -5.030  16.574  1.00  0.00     0.172 A 
ATOM     18  C   UNL     1      -3.282  -5.310  16.209  1.00  0.00     0.201 A 
ATOM     19  C   UNL     1      -5.135  -3.747  16.378  1.00  0.00     0.098 A 
ATOM     20  C   UNL     1      -2.463  -4.274  15.687  1.00  0.00     0.176 A 
ATOM     21  C   UNL     1      -4.348  -2.729  15.848  1.00  0.00     0.146 A 
ATOM     22  C   UNL     1      -3.007  -2.980  15.490  1.00  0.00     0.111 A 
ATOM     23  O   UNL     1      -4.879  -1.519  15.693  1.00  0.00    -0.456 OA
ATOM     24  C   UNL     1      -2.270  -1.903  14.950  1.00  0.00     0.197 A 
ATOM     25  C   UNL     1      -4.209  -0.484  15.192  1.00  0.00     0.138 A 
ATOM     26  C   UNL     1      -2.873  -0.653  14.804  1.00  0.00     0.100 A 
ATOM     27  O   UNL     1      -1.066  -2.042  14.594  1.00  0.00    -0.289 OA
BRANCH  18  28
ATOM     28  O   UNL     1      -2.799  -6.614  16.337  1.00  0.00    -0.502 OA
ATOM     29  H   UNL     1      -2.566  -7.058  17.213  1.00  0.00     0.293 HD
ENDBRANCH  18  28
BRANCH  20  30
ATOM     30  O   UNL     1      -1.120  -4.498  15.368  1.00  0.00    -0.504 OA
ATOM     31  H   UNL     1      -0.799  -5.062  14.593  1.00  0.00     0.293 HD
ENDBRANCH  20  30
BRANCH  25  32
ATOM     32  C   UNL     1      -4.892   0.830  15.094  1.00  0.00     0.017 A 
ATOM     33  C   UNL     1      -5.628   1.197  13.949  1.00  0.00     0.012 A 
ATOM     34  C   UNL     1      -4.809   1.735  16.167  1.00  0.00     0.012 A 
ATOM     35  C   UNL     1      -6.240   2.454  13.875  1.00  0.00     0.001 A 
ATOM     36  C   UNL     1      -5.419   2.993  16.087  1.00  0.00     0.001 A 
ATOM     37  C   UNL     1      -6.131   3.353  14.940  1.00  0.00     0.000 A 
ENDBRANCH  25  32
ENDBRANCH   1  17
TORSDOF 9
ENDMDL
MODEL 5
REMARK VINA RESULT:    -5.868      2.329      3.534
REMARK INTER + INTRA:          -9.262
REMARK INTER:                  -7.931
REMARK INTRA:                  -1.331
REMARK UNBOUND:                -1.164
REMARK SMILES O=C([O-])[C@@H]1O[C@H](Oc2cc3oc(-c4ccccc4)cc(=O)c3c(O)c2O)[C@@H](O)[C@H](O)[C@H]1O
REMARK SMILES IDX 7 1 6 2 4 3 31 4 5 5 29 6 27 7 2 8 1 9 3 10 32 11 30 13
REMARK SMILES IDX 28 15 8 17 25 18 9 19 23 20 10 21 22 22 11 23 20 24 12 25
REMARK SMILES IDX 19 26 21 27 26 28 24 30 13 32 14 33 18 34 15 35 17 36 16 37
REMARK H PARENT 32 12 30 14 28 16 26 29 24 31
REMARK Flexibility Score: inf
ROOT
ATOM      1  O   UNL     1      -8.031  -5.940  17.528  1.00  0.00    -0.458 OA
ENDROOT
BRANCH   1   2
ATOM      2  C   UNL     1      -9.254  -5.400  17.022  1.00  0.00     0.339 C 
ATOM      3  C   UNL     1      -9.822  -6.914  15.258  1.00  0.00     0.199 C 
ATOM      4  C   UNL     1     -11.239  -7.234  15.829  1.00  0.00     0.180 C 
ATOM      5  O   UNL     1      -9.358  -5.617  15.614  1.00  0.00    -0.328 OA
ATOM      6  C   UNL     1     -11.643  -6.215  16.911  1.00  0.00     0.181 C 
ATOM      7  C   UNL     1     -10.448  -5.956  17.841  1.00  0.00     0.214 C 
BRANCH   3   8
ATOM      8  C   UNL     1      -8.786  -7.977  15.549  1.00  0.00     0.073 C 
ATOM      9  O   UNL     1      -7.697  -8.016  14.914  1.00  0.00    -0.547 OA
ATOM     10  O   UNL     1      -9.059  -8.961  16.491  1.00  0.00    -0.547 OA
ENDBRANCH   3   8
BRANCH   4  11
ATOM     11  O   UNL     1     -12.187  -7.203  14.790  1.00  0.00    -0.387 OA
ATOM     12  H   UNL     1     -12.874  -6.534  15.047  1.00  0.00     0.211 HD
ENDBRANCH   4  11
BRANCH   6  13
ATOM     13  O   UNL     1     -12.764  -6.667  17.633  1.00  0.00    -0.387 OA
ATOM     14  H   UNL     1     -13.248  -5.869  17.976  1.00  0.00     0.211 HD
ENDBRANCH   6  13
BRANCH   7  15
ATOM     15  O   UNL     1     -10.802  -5.033  18.844  1.00  0.00    -0.384 OA
ATOM     16  H   UNL     1     -10.681  -5.489  19.718  1.00  0.00     0.211 HD
ENDBRANCH   7  15
ENDBRANCH   1   2
BRANCH   1  17
ATOM     17  C   UNL     1      -6.722  -5.544  17.195  1.00  0.00     0.172 A 
ATOM     18  C   UNL     1      -5.604  -6.416  17.179  1.00  0.00     0.201 A 
ATOM     19  C   UNL     1      -6.552  -4.203  16.849  1.00  0.00     0.098 A 
ATOM     20  C   UNL     1      -4.319  -5.908  16.853  1.00  0.00     0.176 A 
ATOM     21  C   UNL     1      -5.301  -3.698  16.507  1.00  0.00     0.146 A 
ATOM     22  C   UNL     1      -4.172  -4.543  16.499  1.00  0.00     0.111 A 
ATOM     23  O   UNL     1      -5.189  -2.409  16.199  1.00  0.00    -0.456 OA
ATOM     24  C   UNL     1      -2.935  -3.966  16.134  1.00  0.00     0.197 A 
ATOM     25  C   UNL     1      -4.038  -1.835  15.857  1.00  0.00     0.138 A 
ATOM     26  C   UNL     1      -2.871  -2.609  15.816  1.00  0.00     0.100 A 
ATOM     27  O   UNL     1      -1.875  -4.652  16.091  1.00  0.00    -0.289 OA
BRANCH  18  28
ATOM     28  O   UNL     1      -5.794  -7.772  17.452  1.00  0.00    -0.502 OA
ATOM     29  H   UNL     1      -5.565  -8.524  16.820  1.00  0.00     0.293 HD
ENDBRANCH  18  28
BRANCH  20  30
ATOM     30  O   UNL     1      -3.184  -6.725  16.882  1.00  0.00    -0.504 OA
ATOM     31  H   UNL     1      -3.089  -7.558  17.444  1.00  0.00     0.293 HD
ENDBRANCH  20  30
BRANCH  25  32
ATOM     32  C   UNL     1      -4.024  -0.380  15.562  1.00  0.00     0.017 A 
ATOM     33  C   UNL     1      -3.270   0.151  14.497  1.00  0.00     0.012 A 
ATOM     34  C   UNL     1      -4.783   0.494  16.361  1.00  0.00     0.012 A 
ATOM     35  C   UNL     1      -3.257   1.532  14.260  1.00  0.00     0.001 A 
ATOM     36  C   UNL     1      -4.763   1.874  16.123  1.00  0.00     0.001 A 
ATOM     37  C   UNL     1      -3.997   2.391  15.076  1.00  0.00     0.000 A 
ENDBRANCH  25  32
ENDBRANCH   1  17
TORSDOF 9
ENDMDL
MODEL 6
REMARK VINA RESULT:    -5.615      3.263      6.646
REMARK INTER + INTRA:          -8.912
REMARK INTER:                  -7.580
REMARK INTRA:                  -1.332
REMARK UNBOUND:                -1.164
REMARK SMILES O=C([O-])[C@@H]1O[C@H](Oc2cc3oc(-c4ccccc4)cc(=O)c3c(O)c2O)[C@@H](O)[C@H](O)[C@H]1O
REMARK SMILES IDX 7 1 6 2 4 3 31 4 5 5 29 6 27 7 2 8 1 9 3 10 32 11 30 13
REMARK SMILES IDX 28 15 8 17 25 18 9 19 23 20 10 21 22 22 11 23 20 24 12 25
REMARK SMILES IDX 19 26 21 27 26 28 24 30 13 32 14 33 18 34 15 35 17 36 16 37
REMARK H PARENT 32 12 30 14 28 16 26 29 24 31
REMARK Flexibility Score: inf
ROOT
ATOM      1  O   UNL     1      -6.019  -6.179  17.592  1.00  0.00    -0.458 OA
ENDROOT
BRANCH   1   2
ATOM      2  C   UNL     1      -7.054  -6.969  17.000  1.00  0.00     0.339 C 
ATOM      3  C   UNL     1      -8.994  -6.339  18.249  1.00  0.00     0.199 C 
ATOM      4  C   UNL     1      -9.818  -5.926  16.990  1.00  0.00     0.180 C 
ATOM      5  O   UNL     1      -8.024  -7.344  17.977  1.00  0.00    -0.328 OA
ATOM      6  C   UNL     1      -9.159  -6.451  15.701  1.00  0.00     0.181 C 
ATOM      7  C   UNL     1      -7.641  -6.223  15.772  1.00  0.00     0.214 C 
BRANCH   3   8
ATOM      8  C   UNL     1      -8.393  -5.173  19.002  1.00  0.00     0.073 C 
ATOM      9  O   UNL     1      -8.013  -5.296  20.199  1.00  0.00    -0.547 OA
ATOM     10  O   UNL     1      -8.307  -3.930  18.387  1.00  0.00    -0.547 OA
ENDBRANCH   3   8
BRANCH   4  11
ATOM     11  O   UNL     1     -11.122  -6.443  17.084  1.00  0.00    -0.387 OA
ATOM     12  H   UNL     1     -11.742  -5.701  16.861  1.00  0.00     0.211 HD
ENDBRANCH   4  11
BRANCH   6  13
ATOM     13  O   UNL     1      -9.714  -5.835  14.564  1.00  0.00    -0.387 OA
ATOM     14  H   UNL     1      -9.186  -5.015  14.372  1.00  0.00     0.211 HD
ENDBRANCH   6  13
BRANCH   7  15
ATOM     15  O   UNL     1      -7.022  -6.690  14.597  1.00  0.00    -0.384 OA
ATOM     16  H   UNL     1      -6.690  -7.607  14.784  1.00  0.00     0.211 HD
ENDBRANCH   7  15
ENDBRANCH   1   2
BRANCH   1  17
ATOM     17  C   UNL     1      -4.892  -5.631  16.950  1.00  0.00     0.172 A 
ATOM     18  C   UNL     1      -4.780  -4.274  16.557  1.00  0.00     0.201 A 
ATOM     19  C   UNL     1      -3.830  -6.506  16.715  1.00  0.00     0.098 A 
ATOM     20  C   UNL     1      -3.607  -3.829  15.891  1.00  0.00     0.176 A 
ATOM     21  C   UNL     1      -2.668  -6.076  16.083  1.00  0.00     0.146 A 
ATOM     22  C   UNL     1      -2.538  -4.734  15.669  1.00  0.00     0.111 A 
ATOM     23  O   UNL     1      -1.689  -6.951  15.869  1.00  0.00    -0.456 OA
ATOM     24  C   UNL     1      -1.328  -4.365  15.041  1.00  0.00     0.197 A 
ATOM     25  C   UNL     1      -0.541  -6.636  15.276  1.00  0.00     0.138 A 
ATOM     26  C   UNL     1      -0.330  -5.320  14.843  1.00  0.00     0.100 A 
ATOM     27  O   UNL     1      -1.124  -3.182  14.647  1.00  0.00    -0.289 OA
BRANCH  18  28
ATOM     28  O   UNL     1      -5.814  -3.388  16.863  1.00  0.00    -0.502 OA
ATOM     29  H   UNL     1      -6.775  -3.504  16.576  1.00  0.00     0.293 HD
ENDBRANCH  18  28
BRANCH  20  30
ATOM     30  O   UNL     1      -3.482  -2.512  15.437  1.00  0.00    -0.504 OA
ATOM     31  H   UNL     1      -4.240  -1.958  15.065  1.00  0.00     0.293 HD
ENDBRANCH  20  30
BRANCH  25  32
ATOM     32  C   UNL     1       0.470  -7.702  15.061  1.00  0.00     0.017 A 
ATOM     33  C   UNL     1       0.328  -8.660  14.037  1.00  0.00     0.012 A 
ATOM     34  C   UNL     1       1.600  -7.761  15.895  1.00  0.00     0.012 A 
ATOM     35  C   UNL     1       1.286  -9.669  13.875  1.00  0.00     0.001 A 
ATOM     36  C   UNL     1       2.553  -8.774  15.732  1.00  0.00     0.001 A 
ATOM     37  C   UNL     1       2.393  -9.729  14.726  1.00  0.00     0.000 A 
ENDBRANCH  25  32
ENDBRANCH   1  17
TORSDOF 9
ENDMDL
MODEL 7
REMARK VINA RESULT:    -5.571      2.521      8.328
REMARK INTER + INTRA:          -8.852
REMARK INTER:                  -7.350
REMARK INTRA:                  -1.501
REMARK UNBOUND:                -1.164
REMARK SMILES O=C([O-])[C@@H]1O[C@H](Oc2cc3oc(-c4ccccc4)cc(=O)c3c(O)c2O)[C@@H](O)[C@H](O)[C@H]1O
REMARK SMILES IDX 7 1 6 2 4 3 31 4 5 5 29 6 27 7 2 8 1 9 3 10 32 11 30 13
REMARK SMILES IDX 28 15 8 17 25 18 9 19 23 20 10 21 22 22 11 23 20 24 12 25
REMARK SMILES IDX 19 26 21 27 26 28 24 30 13 32 14 33 18 34 15 35 17 36 16 37
REMARK H PARENT 32 12 30 14 28 16 26 29 24 31
REMARK Flexibility Score: inf
ROOT
ATOM      1  O   UNL     1      -4.018  -4.205  15.511  1.00  0.00    -0.458 OA
ENDROOT
BRANCH   1   2
ATOM      2  C   UNL     1      -3.611  -2.934  16.025  1.00  0.00     0.339 C 
ATOM      3  C   UNL     1      -1.224  -3.055  15.931  1.00  0.00     0.199 C 
ATOM      4  C   UNL     1      -1.073  -1.757  15.077  1.00  0.00     0.180 C 
ATOM      5  O   UNL     1      -2.387  -3.051  16.750  1.00  0.00    -0.328 OA
ATOM      6  C   UNL     1      -2.381  -0.944  15.069  1.00  0.00     0.181 C 
ATOM      7  C   UNL     1      -3.573  -1.895  14.874  1.00  0.00     0.214 C 
BRANCH   3   8
ATOM      8  C   UNL     1      -1.107  -4.334  15.134  1.00  0.00     0.073 C 
ATOM      9  O   UNL     1      -1.191  -4.329  13.875  1.00  0.00    -0.547 OA
ATOM     10  O   UNL     1      -0.961  -5.546  15.799  1.00  0.00    -0.547 OA
ENDBRANCH   3   8
BRANCH   4  11
ATOM     11  O   UNL     1      -0.039  -0.961  15.601  1.00  0.00    -0.387 OA
ATOM     12  H   UNL     1       0.319  -0.422  14.848  1.00  0.00     0.211 HD
ENDBRANCH   4  11
BRANCH   6  13
ATOM     13  O   UNL     1      -2.351   0.048  14.072  1.00  0.00    -0.387 OA
ATOM     14  H   UNL     1      -1.954  -0.353  13.254  1.00  0.00     0.211 HD
ENDBRANCH   6  13
BRANCH   7  15
ATOM     15  O   UNL     1      -4.778  -1.167  14.855  1.00  0.00    -0.384 OA
ATOM     16  H   UNL     1      -4.564  -0.238  15.133  1.00  0.00     0.211 HD
ENDBRANCH   7  15
ENDBRANCH   1   2
BRANCH   1  17
ATOM     17  C   UNL     1      -4.754  -5.199  16.183  1.00  0.00     0.172 A 
ATOM     18  C   UNL     1      -4.233  -6.016  17.217  1.00  0.00     0.201 A 
ATOM     19  C   UNL     1      -6.084  -5.354  15.789  1.00  0.00     0.098 A 
ATOM     20  C   UNL     1      -5.055  -7.010  17.811  1.00  0.00     0.176 A 
ATOM     21  C   UNL     1      -6.905  -6.310  16.379  1.00  0.00     0.146 A 
ATOM     22  C   UNL     1      -6.405  -7.144  17.400  1.00  0.00     0.111 A 
ATOM     23  O   UNL     1      -8.162  -6.427  15.959  1.00  0.00    -0.456 OA
ATOM     24  C   UNL     1      -7.295  -8.087  17.959  1.00  0.00     0.197 A 
ATOM     25  C   UNL     1      -9.023  -7.308  16.462  1.00  0.00     0.138 A 
ATOM     26  C   UNL     1      -8.606  -8.168  17.486  1.00  0.00     0.100 A 
ATOM     27  O   UNL     1      -6.934  -8.867  18.885  1.00  0.00    -0.289 OA
BRANCH  18  28
ATOM     28  O   UNL     1      -2.925  -5.805  17.658  1.00  0.00    -0.502 OA
ATOM     29  H   UNL     1      -2.675  -5.330  18.512  1.00  0.00     0.293 HD
ENDBRANCH  18  28
BRANCH  20  30
ATOM     30  O   UNL     1      -4.559  -7.873  18.795  1.00  0.00    -0.504 OA
ATOM     31  H   UNL     1      -5.126  -8.343  19.486  1.00  0.00     0.293 HD
ENDBRANCH  20  30
BRANCH  25  32
ATOM     32  C   UNL     1     -10.394  -7.373  15.895  1.00  0.00     0.017 A 
ATOM     33  C   UNL     1     -10.951  -8.587  15.445  1.00  0.00     0.012 A 
ATOM     34  C   UNL     1     -11.160  -6.198  15.805  1.00  0.00     0.012 A 
ATOM     35  C   UNL     1     -12.237  -8.612  14.891  1.00  0.00     0.001 A 
ATOM     36  C   UNL     1     -12.445  -6.227  15.246  1.00  0.00     0.001 A 
ATOM     37  C   UNL     1     -12.980  -7.433  14.786  1.00  0.00     0.000 A 
ENDBRANCH  25  32
ENDBRANCH   1  17
TORSDOF 9
ENDMDL
MODEL 8
REMARK VINA RESULT:    -5.460      3.222      5.974
REMARK INTER + INTRA:          -8.698
REMARK INTER:                  -7.548
REMARK INTRA:                  -1.151
REMARK UNBOUND:                -1.164
REMARK SMILES O=C([O-])[C@@H]1O[C@H](Oc2cc3oc(-c4ccccc4)cc(=O)c3c(O)c2O)[C@@H](O)[C@H](O)[C@H]1O
REMARK SMILES IDX 7 1 6 2 4 3 31 4 5 5 29 6 27 7 2 8 1 9 3 10 32 11 30 13
REMARK SMILES IDX 28 15 8 17 25 18 9 19 23 20 10 21 22 22 11 23 20 24 12 25
REMARK SMILES IDX 19 26 21 27 26 28 24 30 13 32 14 33 18 34 15 35 17 36 16 37
REMARK H PARENT 32 12 30 14 28 16 26 29 24 31
REMARK Flexibility Score: inf
ROOT
ATOM      1  O   UNL     1      -9.153  -6.758  17.594  1.00  0.00    -0.458 OA
ENDROOT
BRANCH   1   2
ATOM      2  C   UNL     1     -10.442  -6.340  17.137  1.00  0.00     0.339 C 
ATOM      3  C   UNL     1     -10.811  -4.312  18.354  1.00  0.00     0.199 C 
ATOM      4  C   UNL     1     -11.066  -3.453  17.077  1.00  0.00     0.180 C 
ATOM      5  O   UNL     1     -11.158  -5.682  18.182  1.00  0.00    -0.328 OA
ATOM      6  C   UNL     1     -11.306  -4.347  15.846  1.00  0.00     0.181 C 
ATOM      7  C   UNL     1     -10.288  -5.498  15.843  1.00  0.00     0.214 C 
BRANCH   3   8
ATOM      8  C   UNL     1      -9.423  -4.158  18.934  1.00  0.00     0.073 C 
ATOM      9  O   UNL     1      -8.555  -3.441  18.367  1.00  0.00    -0.547 OA
ATOM     10  O   UNL     1      -9.077  -4.861  20.082  1.00  0.00    -0.547 OA
ENDBRANCH   3   8
BRANCH   4  11
ATOM     11  O   UNL     1     -12.189  -2.629  17.275  1.00  0.00    -0.387 OA
ATOM     12  H   UNL     1     -11.992  -1.763  16.831  1.00  0.00     0.211 HD
ENDBRANCH   4  11
BRANCH   6  13
ATOM     13  O   UNL     1     -11.232  -3.597  14.657  1.00  0.00    -0.387 OA
ATOM     14  H   UNL     1     -11.241  -2.634  14.903  1.00  0.00     0.211 HD
ENDBRANCH   6  13
BRANCH   7  15
ATOM     15  O   UNL     1     -10.487  -6.321  14.719  1.00  0.00    -0.384 OA
ATOM     16  H   UNL     1     -11.244  -5.937  14.204  1.00  0.00     0.211 HD
ENDBRANCH   7  15
ENDBRANCH   1   2
BRANCH   1  17
ATOM     17  C   UNL     1      -8.037  -7.094  16.804  1.00  0.00     0.172 A 
ATOM     18  C   UNL     1      -7.889  -8.323  16.113  1.00  0.00     0.201 A 
ATOM     19  C   UNL     1      -7.038  -6.124  16.706  1.00  0.00     0.098 A 
ATOM     20  C   UNL     1      -6.709  -8.572  15.364  1.00  0.00     0.176 A 
ATOM     21  C   UNL     1      -5.886  -6.349  15.957  1.00  0.00     0.146 A 
ATOM     22  C   UNL     1      -5.710  -7.570  15.273  1.00  0.00     0.111 A 
ATOM     23  O   UNL     1      -4.957  -5.399  15.905  1.00  0.00    -0.456 OA
ATOM     24  C   UNL     1      -4.521  -7.726  14.526  1.00  0.00     0.197 A 
ATOM     25  C   UNL     1      -3.825  -5.519  15.215  1.00  0.00     0.138 A 
ATOM     26  C   UNL     1      -3.578  -6.698  14.501  1.00  0.00     0.100 A 
ATOM     27  O   UNL     1      -4.286  -8.783  13.875  1.00  0.00    -0.289 OA
BRANCH  18  28
ATOM     28  O   UNL     1      -8.926  -9.257  16.155  1.00  0.00    -0.502 OA
ATOM     29  H   UNL     1      -9.895  -9.034  16.329  1.00  0.00     0.293 HD
ENDBRANCH  18  28
BRANCH  20  30
ATOM     30  O   UNL     1      -6.501  -9.793  14.716  1.00  0.00    -0.504 OA
ATOM     31  H   UNL     1      -5.810  -9.953  13.997  1.00  0.00     0.293 HD
ENDBRANCH  20  30
BRANCH  25  32
ATOM     32  C   UNL     1      -2.843  -4.406  15.254  1.00  0.00     0.017 A 
ATOM     33  C   UNL     1      -1.671  -4.426  14.471  1.00  0.00     0.012 A 
ATOM     34  C   UNL     1      -3.083  -3.300  16.089  1.00  0.00     0.012 A 
ATOM     35  C   UNL     1      -0.751  -3.373  14.548  1.00  0.00     0.001 A 
ATOM     36  C   UNL     1      -2.158  -2.252  16.166  1.00  0.00     0.001 A 
ATOM     37  C   UNL     1      -0.991  -2.292  15.399  1.00  0.00     0.000 A 
ENDBRANCH  25  32
ENDBRANCH   1  17
TORSDOF 9
ENDMDL
MODEL 9
REMARK VINA RESULT:    -5.251      3.096      5.264
REMARK INTER + INTRA:          -8.410
REMARK INTER:                  -7.340
REMARK INTRA:                  -1.070
REMARK UNBOUND:                -1.164
REMARK SMILES O=C([O-])[C@@H]1O[C@H](Oc2cc3oc(-c4ccccc4)cc(=O)c3c(O)c2O)[C@@H](O)[C@H](O)[C@H]1O
REMARK SMILES IDX 7 1 6 2 4 3 31 4 5 5 29 6 27 7 2 8 1 9 3 10 32 11 30 13
REMARK SMILES IDX 28 15 8 17 25 18 9 19 23 20 10 21 22 22 11 23 20 24 12 25
REMARK SMILES IDX 19 26 21 27 26 28 24 30 13 32 14 33 18 34 15 35 17 36 16 37
REMARK H PARENT 32 12 30 14 28 16 26 29 24 31
REMARK Flexibility Score: inf
ROOT
ATOM      1  O   UNL     1      -8.805  -6.020  17.046  1.00  0.00    -0.458 OA
ENDROOT
BRANCH   1   2
ATOM      2  C   UNL     1      -9.527  -4.890  16.552  1.00  0.00     0.339 C 
ATOM      3  C   UNL     1     -10.895  -5.837  14.832  1.00  0.00     0.199 C 
ATOM      4  C   UNL     1     -12.231  -5.302  15.436  1.00  0.00     0.180 C 
ATOM      5  O   UNL     1      -9.774  -5.022  15.152  1.00  0.00    -0.328 OA
ATOM      6  C   UNL     1     -11.965  -4.224  16.503  1.00  0.00     0.181 C 
ATOM      7  C   UNL     1     -10.804  -4.674  17.405  1.00  0.00     0.214 C 
BRANCH   3   8
ATOM      8  C   UNL     1     -10.626  -7.296  15.126  1.00  0.00     0.073 C 
ATOM      9  O   UNL     1     -11.378  -7.956  15.895  1.00  0.00    -0.547 OA
ATOM     10  O   UNL     1      -9.501  -7.908  14.588  1.00  0.00    -0.547 OA
ENDBRANCH   3   8
BRANCH   4  11
ATOM     11  O   UNL     1     -13.027  -4.752  14.415  1.00  0.00    -0.387 OA
ATOM     12  H   UNL     1     -13.972  -4.948  14.650  1.00  0.00     0.211 HD
ENDBRANCH   4  11
BRANCH   6  13
ATOM     13  O   UNL     1     -13.125  -3.964  17.255  1.00  0.00    -0.387 OA
ATOM     14  H   UNL     1     -13.872  -3.804  16.620  1.00  0.00     0.211 HD
ENDBRANCH   6  13
BRANCH   7  15
ATOM     15  O   UNL     1     -10.552  -3.704  18.394  1.00  0.00    -0.384 OA
ATOM     16  H   UNL     1     -11.121  -3.929  19.177  1.00  0.00     0.211 HD
ENDBRANCH   7  15
ENDBRANCH   1   2
BRANCH   1  17
ATOM     17  C   UNL     1      -7.410  -6.142  17.194  1.00  0.00     0.172 A 
ATOM     18  C   UNL     1      -6.771  -7.202  17.885  1.00  0.00     0.201 A 
ATOM     19  C   UNL     1      -6.637  -5.145  16.598  1.00  0.00     0.098 A 
ATOM     20  C   UNL     1      -5.355  -7.216  17.998  1.00  0.00     0.176 A 
ATOM     21  C   UNL     1      -5.248  -5.160  16.684  1.00  0.00     0.146 A 
ATOM     22  C   UNL     1      -4.590  -6.197  17.378  1.00  0.00     0.111 A 
ATOM     23  O   UNL     1      -4.557  -4.180  16.110  1.00  0.00    -0.456 OA
ATOM     24  C   UNL     1      -3.179  -6.153  17.419  1.00  0.00     0.197 A 
ATOM     25  C   UNL     1      -3.228  -4.108  16.136  1.00  0.00     0.138 A 
ATOM     26  C   UNL     1      -2.499  -5.104  16.798  1.00  0.00     0.100 A 
ATOM     27  O   UNL     1      -2.509  -7.046  18.011  1.00  0.00    -0.289 OA
BRANCH  18  28
ATOM     28  O   UNL     1      -7.546  -8.236  18.414  1.00  0.00    -0.502 OA
ATOM     29  H   UNL     1      -7.220  -8.913  19.087  1.00  0.00     0.293 HD
ENDBRANCH  18  28
BRANCH  20  30
ATOM     30  O   UNL     1      -4.692  -8.215  18.719  1.00  0.00    -0.504 OA
ATOM     31  H   UNL     1      -5.074  -8.694  19.522  1.00  0.00     0.293 HD
ENDBRANCH  20  30
BRANCH  25  32
ATOM     32  C   UNL     1      -2.562  -2.950  15.488  1.00  0.00     0.017 A 
ATOM     33  C   UNL     1      -3.300  -1.941  14.837  1.00  0.00     0.012 A 
ATOM     34  C   UNL     1      -1.159  -2.851  15.524  1.00  0.00     0.012 A 
ATOM     35  C   UNL     1      -2.640  -0.874  14.213  1.00  0.00     0.001 A 
ATOM     36  C   UNL     1      -0.505  -1.785  14.894  1.00  0.00     0.001 A 
ATOM     37  C   UNL     1      -1.245  -0.800  14.237  1.00  0.00     0.000 A 
ENDBRANCH  25  32
ENDBRANCH   1  17
TORSDOF 9
ENDMDL
