MODEL 1
REMARK VINA RESULT:    -4.501      0.000      0.000
REMARK INTER + INTRA:          -5.335
REMARK INTER:                  -5.290
REMARK INTRA:                  -0.045
REMARK UNBOUND:                -0.045
REMARK SMILES CCCCC(=O)[O-]
REMARK SMILES IDX 4 1 5 2 6 3 7 4 3 5 2 6 1 7
REMARK H PARENT
REMARK Flexibility Score: inf
ROOT
ATOM      1  C   UNL     1       6.334   7.163  -7.142  1.00  0.00     0.053 C 
ENDROOT
BRANCH   1   2
ATOM      2  C   UNL     1       7.553   6.393  -6.737  1.00  0.00     0.041 C 
ATOM      3  O   UNL     1       8.287   6.813  -5.804  1.00  0.00    -0.550 OA
ATOM      4  O   UNL     1       7.898   5.229  -7.412  1.00  0.00    -0.550 OA
ENDBRANCH   1   2
BRANCH   1   5
ATOM      5  C   UNL     1       5.989   6.947  -8.621  1.00  0.00     0.006 C 
BRANCH   5   6
ATOM      6  C   UNL     1       6.274   8.194  -9.472  1.00  0.00    -0.003 C 
ATOM      7  C   UNL     1       5.409   9.370  -9.032  1.00  0.00     0.004 C 
ENDBRANCH   5   6
ENDBRANCH   1   5
TORSDOF 3
ENDMDL
MODEL 2
REMARK VINA RESULT:    -3.562      2.954      3.989
REMARK INTER + INTRA:          -4.231
REMARK INTER:                  -4.153
REMARK INTRA:                  -0.078
REMARK UNBOUND:                -0.045
REMARK SMILES CCCCC(=O)[O-]
REMARK SMILES IDX 4 1 5 2 6 3 7 4 3 5 2 6 1 7
REMARK H PARENT
REMARK Flexibility Score: inf
ROOT
ATOM      1  C   UNL     1       5.929   7.676  -9.464  1.00  0.00     0.053 C 
ENDROOT
BRANCH   1   2
ATOM      2  C   UNL     1       5.883   9.173  -9.482  1.00  0.00     0.041 C 
ATOM      3  O   UNL     1       6.746   9.826 -10.125  1.00  0.00    -0.550 OA
ATOM      4  O   UNL     1       4.906   9.849  -8.762  1.00  0.00    -0.550 OA
ENDBRANCH   1   2
BRANCH   1   5
ATOM      5  C   UNL     1       5.332   7.103  -8.172  1.00  0.00     0.006 C 
BRANCH   5   6
ATOM      6  C   UNL     1       6.330   7.137  -7.005  1.00  0.00    -0.003 C 
ATOM      7  C   UNL     1       7.531   6.237  -7.281  1.00  0.00     0.004 C 
ENDBRANCH   5   6
ENDBRANCH   1   5
TORSDOF 3
ENDMDL
MODEL 3
REMARK VINA RESULT:    -2.977     14.420     15.170
REMARK INTER + INTRA:          -3.544
REMARK INTER:                  -3.522
REMARK INTRA:                  -0.021
REMARK UNBOUND:                -0.045
REMARK SMILES CCCCC(=O)[O-]
REMARK SMILES IDX 4 1 5 2 6 3 7 4 3 5 2 6 1 7
REMARK H PARENT
REMARK Flexibility Score: inf
ROOT
ATOM      1  C   UNL     1      -7.955   8.194  -8.881  1.00  0.00     0.053 C 
ENDROOT
BRANCH   1   2
ATOM      2  C   UNL     1      -7.458   6.940  -9.534  1.00  0.00     0.041 C 
ATOM      3  O   UNL     1      -8.270   6.046  -9.888  1.00  0.00    -0.550 OA
ATOM      4  O   UNL     1      -6.096   6.746  -9.722  1.00  0.00    -0.550 OA
ENDBRANCH   1   2
BRANCH   1   5
ATOM      5  C   UNL     1      -8.978   7.894  -7.778  1.00  0.00     0.006 C 
BRANCH   5   6
ATOM      6  C   UNL     1      -8.651   8.626  -6.467  1.00  0.00    -0.003 C 
ATOM      7  C   UNL     1      -8.723   7.676  -5.275  1.00  0.00     0.004 C 
ENDBRANCH   5   6
ENDBRANCH   1   5
TORSDOF 3
ENDMDL
MODEL 4
REMARK VINA RESULT:    -2.865     20.118     21.351
REMARK INTER + INTRA:          -3.412
REMARK INTER:                  -3.335
REMARK INTRA:                  -0.077
REMARK UNBOUND:                -0.045
REMARK SMILES CCCCC(=O)[O-]
REMARK SMILES IDX 4 1 5 2 6 3 7 4 3 5 2 6 1 7
REMARK H PARENT
REMARK Flexibility Score: inf
ROOT
ATOM      1  C   UNL     1       5.150  -8.228   7.169  1.00  0.00     0.053 C 
ENDROOT
BRANCH   1   2
ATOM      2  C   UNL     1       5.605  -7.968   5.765  1.00  0.00     0.041 C 
ATOM      3  O   UNL     1       5.507  -6.814   5.272  1.00  0.00    -0.550 OA
ATOM      4  O   UNL     1       6.105  -9.007   4.991  1.00  0.00    -0.550 OA
ENDBRANCH   1   2
BRANCH   1   5
ATOM      5  C   UNL     1       6.325  -8.568   8.094  1.00  0.00     0.006 C 
BRANCH   5   6
ATOM      6  C   UNL     1       7.308  -7.396   8.241  1.00  0.00    -0.003 C 
ATOM      7  C   UNL     1       8.617  -7.852   8.878  1.00  0.00     0.004 C 
ENDBRANCH   5   6
ENDBRANCH   1   5
TORSDOF 3
ENDMDL
MODEL 5
REMARK VINA RESULT:    -2.850     20.393     21.767
REMARK INTER + INTRA:          -3.395
REMARK INTER:                  -3.361
REMARK INTRA:                  -0.034
REMARK UNBOUND:                -0.045
REMARK SMILES CCCCC(=O)[O-]
REMARK SMILES IDX 4 1 5 2 6 3 7 4 3 5 2 6 1 7
REMARK H PARENT
REMARK Flexibility Score: inf
ROOT
ATOM      1  C   UNL     1       4.831  -8.359   6.977  1.00  0.00     0.053 C 
ENDROOT
BRANCH   1   2
ATOM      2  C   UNL     1       5.534  -7.977   5.711  1.00  0.00     0.041 C 
ATOM      3  O   UNL     1       5.578  -6.771   5.350  1.00  0.00    -0.550 OA
ATOM      4  O   UNL     1       6.113  -8.955   4.913  1.00  0.00    -0.550 OA
ENDBRANCH   1   2
BRANCH   1   5
ATOM      5  C   UNL     1       3.749  -9.418   6.731  1.00  0.00     0.006 C 
BRANCH   5   6
ATOM      6  C   UNL     1       3.141  -9.945   8.039  1.00  0.00    -0.003 C 
ATOM      7  C   UNL     1       3.709  -9.204   9.246  1.00  0.00     0.004 C 
ENDBRANCH   5   6
ENDBRANCH   1   5
TORSDOF 3
ENDMDL
MODEL 6
REMARK VINA RESULT:    -2.837     15.064     15.562
REMARK INTER + INTRA:          -3.379
REMARK INTER:                  -3.317
REMARK INTRA:                  -0.062
REMARK UNBOUND:                -0.045
REMARK SMILES CCCCC(=O)[O-]
REMARK SMILES IDX 4 1 5 2 6 3 7 4 3 5 2 6 1 7
REMARK H PARENT
REMARK Flexibility Score: inf
ROOT
ATOM      1  C   UNL     1      -9.114   7.026  -6.809  1.00  0.00     0.053 C 
ENDROOT
BRANCH   1   2
ATOM      2  C   UNL     1      -8.794   7.121  -5.349  1.00  0.00     0.041 C 
ATOM      3  O   UNL     1      -8.214   8.141  -4.893  1.00  0.00    -0.550 OA
ATOM      4  O   UNL     1      -9.108   6.070  -4.497  1.00  0.00    -0.550 OA
ENDBRANCH   1   2
BRANCH   1   5
ATOM      5  C   UNL     1      -8.835   8.345  -7.541  1.00  0.00     0.006 C 
BRANCH   5   6
ATOM      6  C   UNL     1      -8.146   8.124  -8.896  1.00  0.00    -0.003 C 
ATOM      7  C   UNL     1      -7.817   6.651  -9.112  1.00  0.00     0.004 C 
ENDBRANCH   5   6
ENDBRANCH   1   5
TORSDOF 3
ENDMDL
MODEL 7
REMARK VINA RESULT:    -2.799     20.304     21.364
REMARK INTER + INTRA:          -3.335
REMARK INTER:                  -3.205
REMARK INTRA:                  -0.130
REMARK UNBOUND:                -0.045
REMARK SMILES CCCCC(=O)[O-]
REMARK SMILES IDX 4 1 5 2 6 3 7 4 3 5 2 6 1 7
REMARK H PARENT
REMARK Flexibility Score: inf
ROOT
ATOM      1  C   UNL     1       6.364  -9.309   5.577  1.00  0.00     0.053 C 
ENDROOT
BRANCH   1   2
ATOM      2  C   UNL     1       5.312  -8.249   5.695  1.00  0.00     0.041 C 
ATOM      3  O   UNL     1       5.558  -7.069   5.333  1.00  0.00    -0.550 OA
ATOM      4  O   UNL     1       4.070  -8.558   6.235  1.00  0.00    -0.550 OA
ENDBRANCH   1   2
BRANCH   1   5
ATOM      5  C   UNL     1       7.577  -9.009   6.468  1.00  0.00     0.006 C 
BRANCH   5   6
ATOM      6  C   UNL     1       7.185  -8.826   7.942  1.00  0.00    -0.003 C 
ATOM      7  C   UNL     1       7.626  -7.462   8.463  1.00  0.00     0.004 C 
ENDBRANCH   5   6
ENDBRANCH   1   5
TORSDOF 3
ENDMDL
MODEL 8
REMARK VINA RESULT:    -2.643     21.227     21.981
REMARK INTER + INTRA:          -3.151
REMARK INTER:                  -3.040
REMARK INTRA:                  -0.111
REMARK UNBOUND:                -0.045
REMARK SMILES CCCCC(=O)[O-]
REMARK SMILES IDX 4 1 5 2 6 3 7 4 3 5 2 6 1 7
REMARK H PARENT
REMARK Flexibility Score: inf
ROOT
ATOM      1  C   UNL     1       4.243  -8.677   6.297  1.00  0.00     0.053 C 
ENDROOT
BRANCH   1   2
ATOM      2  C   UNL     1       4.118  -8.976   7.759  1.00  0.00     0.041 C 
ATOM      3  O   UNL     1       5.046  -8.666   8.551  1.00  0.00    -0.550 OA
ATOM      4  O   UNL     1       2.990  -9.628   8.242  1.00  0.00    -0.550 OA
ENDBRANCH   1   2
BRANCH   1   5
ATOM      5  C   UNL     1       5.590  -8.024   5.963  1.00  0.00     0.006 C 
BRANCH   5   6
ATOM      6  C   UNL     1       6.575  -9.015   5.324  1.00  0.00    -0.003 C 
ATOM      7  C   UNL     1       7.719  -9.346   6.277  1.00  0.00     0.004 C 
ENDBRANCH   5   6
ENDBRANCH   1   5
TORSDOF 3
ENDMDL
MODEL 9
REMARK VINA RESULT:    -2.551     20.492     21.467
REMARK INTER + INTRA:          -3.044
REMARK INTER:                  -3.008
REMARK INTRA:                  -0.036
REMARK UNBOUND:                -0.045
REMARK SMILES CCCCC(=O)[O-]
REMARK SMILES IDX 4 1 5 2 6 3 7 4 3 5 2 6 1 7
REMARK H PARENT
REMARK Flexibility Score: inf
ROOT
ATOM      1  C   UNL     1       5.711  -8.050   7.606  1.00  0.00     0.053 C 
ENDROOT
BRANCH   1   2
ATOM      2  C   UNL     1       4.991  -7.998   6.294  1.00  0.00     0.041 C 
ATOM      3  O   UNL     1       3.960  -8.697   6.109  1.00  0.00    -0.550 OA
ATOM      4  O   UNL     1       5.477  -7.203   5.263  1.00  0.00    -0.550 OA
ENDBRANCH   1   2
BRANCH   1   5
ATOM      5  C   UNL     1       7.221  -8.248   7.420  1.00  0.00     0.006 C 
BRANCH   5   6
ATOM      6  C   UNL     1       7.545  -9.501   6.593  1.00  0.00    -0.003 C 
ATOM      7  C   UNL     1       9.040  -9.599   6.306  1.00  0.00     0.004 C 
ENDBRANCH   5   6
ENDBRANCH   1   5
TORSDOF 3
ENDMDL
