MODEL 1
REMARK VINA RESULT:    -4.103      0.000      0.000
REMARK INTER + INTRA:          -9.592
REMARK INTER:                  -7.462
REMARK INTRA:                  -2.130
REMARK UNBOUND:                -2.130
REMARK SMILES CCCCCCCCCCCCCCCC(=O)[O-]
REMARK SMILES IDX 9 1 10 2 11 3 12 4 13 5 14 6 15 7 16 8 17 9 18 10 8 11 7 12
REMARK SMILES IDX 6 13 5 14 4 15 3 16 2 17 1 18
REMARK H PARENT
REMARK Flexibility Score: inf
ROOT
ATOM      1  C   UNL     1     163.929 177.198 180.748  1.00  0.00     0.000 C 
ENDROOT
BRANCH   1   2
ATOM      2  C   UNL     1     163.758 178.238 181.865  1.00  0.00     0.000 C 
BRANCH   2   3
ATOM      3  C   UNL     1     163.319 179.611 181.333  1.00  0.00     0.000 C 
BRANCH   3   4
ATOM      4  C   UNL     1     163.423 179.716 179.802  1.00  0.00     0.000 C 
BRANCH   4   5
ATOM      5  C   UNL     1     162.065 180.059 179.152  1.00  0.00     0.000 C 
BRANCH   5   6
ATOM      6  C   UNL     1     161.379 178.860 178.472  1.00  0.00     0.006 C 
BRANCH   6   7
ATOM      7  C   UNL     1     162.266 178.121 177.453  1.00  0.00     0.053 C 
BRANCH   7   8
ATOM      8  C   UNL     1     161.889 176.679 177.286  1.00  0.00     0.041 C 
ATOM      9  O   UNL     1     162.750 175.773 177.438  1.00  0.00    -0.550 OA
ATOM     10  O   UNL     1     160.570 176.330 177.029  1.00  0.00    -0.550 OA
ENDBRANCH   7   8
ENDBRANCH   6   7
ENDBRANCH   5   6
ENDBRANCH   4   5
ENDBRANCH   3   4
ENDBRANCH   2   3
ENDBRANCH   1   2
BRANCH   1  11
ATOM     11  C   UNL     1     162.970 176.015 180.949  1.00  0.00     0.000 C 
BRANCH  11  12
ATOM     12  C   UNL     1     161.504 176.454 181.094  1.00  0.00    -0.000 C 
BRANCH  12  13
ATOM     13  C   UNL     1     160.534 175.263 181.175  1.00  0.00    -0.000 C 
BRANCH  13  14
ATOM     14  C   UNL     1     160.812 174.208 180.093  1.00  0.00    -0.000 C 
BRANCH  14  15
ATOM     15  C   UNL     1     160.877 172.780 180.663  1.00  0.00    -0.000 C 
BRANCH  15  16
ATOM     16  C   UNL     1     161.315 172.764 182.143  1.00  0.00    -0.000 C 
BRANCH  16  17
ATOM     17  C   UNL     1     162.718 172.175 182.363  1.00  0.00    -0.003 C 
ATOM     18  C   UNL     1     163.637 173.099 183.160  1.00  0.00     0.004 C 
ENDBRANCH  16  17
ENDBRANCH  15  16
ENDBRANCH  14  15
ENDBRANCH  13  14
ENDBRANCH  12  13
ENDBRANCH  11  12
ENDBRANCH   1  11
TORSDOF 14
ENDMDL
MODEL 2
REMARK VINA RESULT:    -4.032     10.812     13.027
REMARK INTER + INTRA:          -9.462
REMARK INTER:                  -7.054
REMARK INTRA:                  -2.408
REMARK UNBOUND:                -2.130
REMARK SMILES CCCCCCCCCCCCCCCC(=O)[O-]
REMARK SMILES IDX 9 1 10 2 11 3 12 4 13 5 14 6 15 7 16 8 17 9 18 10 8 11 7 12
REMARK SMILES IDX 6 13 5 14 4 15 3 16 2 17 1 18
REMARK H PARENT
REMARK Flexibility Score: inf
ROOT
ATOM      1  C   UNL     1     174.376 176.658 181.042  1.00  0.00     0.000 C 
ENDROOT
BRANCH   1   2
ATOM      2  C   UNL     1     173.860 177.122 179.672  1.00  0.00     0.000 C 
BRANCH   2   3
ATOM      3  C   UNL     1     173.297 178.551 179.706  1.00  0.00     0.000 C 
BRANCH   3   4
ATOM      4  C   UNL     1     173.181 179.111 181.135  1.00  0.00     0.000 C 
BRANCH   4   5
ATOM      5  C   UNL     1     171.788 179.716 181.408  1.00  0.00     0.000 C 
BRANCH   5   6
ATOM      6  C   UNL     1     170.622 178.756 181.109  1.00  0.00     0.006 C 
BRANCH   6   7
ATOM      7  C   UNL     1     169.995 178.116 182.361  1.00  0.00     0.053 C 
BRANCH   7   8
ATOM      8  C   UNL     1     170.295 176.651 182.483  1.00  0.00     0.041 C 
ATOM      9  O   UNL     1     171.443 176.262 182.824  1.00  0.00    -0.550 OA
ATOM     10  O   UNL     1     169.287 175.716 182.288  1.00  0.00    -0.550 OA
ENDBRANCH   7   8
ENDBRANCH   6   7
ENDBRANCH   5   6
ENDBRANCH   4   5
ENDBRANCH   3   4
ENDBRANCH   2   3
ENDBRANCH   1   2
BRANCH   1  11
ATOM     11  C   UNL     1     175.756 175.996 180.913  1.00  0.00     0.000 C 
BRANCH  11  12
ATOM     12  C   UNL     1     176.908 177.014 180.942  1.00  0.00    -0.000 C 
BRANCH  12  13
ATOM     13  C   UNL     1     176.628 178.199 181.882  1.00  0.00    -0.000 C 
BRANCH  13  14
ATOM     14  C   UNL     1     176.801 179.555 181.181  1.00  0.00    -0.000 C 
BRANCH  14  15
ATOM     15  C   UNL     1     177.388 179.417 179.765  1.00  0.00    -0.000 C 
BRANCH  15  16
ATOM     16  C   UNL     1     176.519 180.124 178.703  1.00  0.00    -0.000 C 
BRANCH  16  17
ATOM     17  C   UNL     1     176.125 179.214 177.528  1.00  0.00    -0.003 C 
ATOM     18  C   UNL     1     176.923 177.913 177.484  1.00  0.00     0.004 C 
ENDBRANCH  16  17
ENDBRANCH  15  16
ENDBRANCH  14  15
ENDBRANCH  13  14
ENDBRANCH  12  13
ENDBRANCH  11  12
ENDBRANCH   1  11
TORSDOF 14
ENDMDL
MODEL 3
REMARK VINA RESULT:    -3.961      2.507      6.305
REMARK INTER + INTRA:          -9.334
REMARK INTER:                  -7.416
REMARK INTRA:                  -1.918
REMARK UNBOUND:                -2.130
REMARK SMILES CCCCCCCCCCCCCCCC(=O)[O-]
REMARK SMILES IDX 9 1 10 2 11 3 12 4 13 5 14 6 15 7 16 8 17 9 18 10 8 11 7 12
REMARK SMILES IDX 6 13 5 14 4 15 3 16 2 17 1 18
REMARK H PARENT
REMARK Flexibility Score: inf
ROOT
ATOM      1  C   UNL     1     161.366 176.520 180.712  1.00  0.00     0.000 C 
ENDROOT
BRANCH   1   2
ATOM      2  C   UNL     1     160.527 175.288 181.083  1.00  0.00     0.000 C 
BRANCH   2   3
ATOM      3  C   UNL     1     160.638 174.162 180.044  1.00  0.00     0.000 C 
BRANCH   3   4
ATOM      4  C   UNL     1     161.135 172.839 180.652  1.00  0.00     0.000 C 
BRANCH   4   5
ATOM      5  C   UNL     1     160.914 172.785 182.179  1.00  0.00     0.000 C 
BRANCH   5   6
ATOM      6  C   UNL     1     162.199 172.519 182.984  1.00  0.00     0.006 C 
BRANCH   6   7
ATOM      7  C   UNL     1     163.438 173.270 182.462  1.00  0.00     0.053 C 
BRANCH   7   8
ATOM      8  C   UNL     1     164.630 172.378 182.281  1.00  0.00     0.041 C 
ATOM      9  O   UNL     1     165.706 172.838 181.814  1.00  0.00    -0.550 OA
ATOM     10  O   UNL     1     164.575 171.052 182.690  1.00  0.00    -0.550 OA
ENDBRANCH   7   8
ENDBRANCH   6   7
ENDBRANCH   5   6
ENDBRANCH   4   5
ENDBRANCH   3   4
ENDBRANCH   2   3
ENDBRANCH   1   2
BRANCH   1  11
ATOM     11  C   UNL     1     162.385 176.178 179.615  1.00  0.00     0.000 C 
BRANCH  11  12
ATOM     12  C   UNL     1     162.436 177.236 178.501  1.00  0.00    -0.000 C 
BRANCH  12  13
ATOM     13  C   UNL     1     161.486 178.418 178.762  1.00  0.00    -0.000 C 
BRANCH  13  14
ATOM     14  C   UNL     1     162.243 179.715 179.088  1.00  0.00    -0.000 C 
BRANCH  14  15
ATOM     15  C   UNL     1     162.104 180.124 180.565  1.00  0.00    -0.000 C 
BRANCH  15  16
ATOM     16  C   UNL     1     163.196 179.487 181.450  1.00  0.00    -0.000 C 
BRANCH  16  17
ATOM     17  C   UNL     1     164.598 179.528 180.820  1.00  0.00    -0.003 C 
ATOM     18  C   UNL     1     165.284 178.163 180.795  1.00  0.00     0.004 C 
ENDBRANCH  16  17
ENDBRANCH  15  16
ENDBRANCH  14  15
ENDBRANCH  13  14
ENDBRANCH  12  13
ENDBRANCH  11  12
ENDBRANCH   1  11
TORSDOF 14
ENDMDL
MODEL 4
REMARK VINA RESULT:    -3.959      2.356      5.825
REMARK INTER + INTRA:          -9.330
REMARK INTER:                  -7.269
REMARK INTRA:                  -2.060
REMARK UNBOUND:                -2.130
REMARK SMILES CCCCCCCCCCCCCCCC(=O)[O-]
REMARK SMILES IDX 9 1 10 2 11 3 12 4 13 5 14 6 15 7 16 8 17 9 18 10 8 11 7 12
REMARK SMILES IDX 6 13 5 14 4 15 3 16 2 17 1 18
REMARK H PARENT
REMARK Flexibility Score: inf
ROOT
ATOM      1  C   UNL     1     163.989 177.370 181.636  1.00  0.00     0.000 C 
ENDROOT
BRANCH   1   2
ATOM      2  C   UNL     1     164.089 176.540 180.348  1.00  0.00     0.000 C 
BRANCH   2   3
ATOM      3  C   UNL     1     162.893 175.593 180.161  1.00  0.00     0.000 C 
BRANCH   3   4
ATOM      4  C   UNL     1     161.715 175.933 181.090  1.00  0.00     0.000 C 
BRANCH   4   5
ATOM      5  C   UNL     1     160.659 174.806 181.120  1.00  0.00     0.000 C 
BRANCH   5   6
ATOM      6  C   UNL     1     161.260 173.389 181.141  1.00  0.00     0.006 C 
BRANCH   6   7
ATOM      7  C   UNL     1     161.699 172.910 182.537  1.00  0.00     0.053 C 
BRANCH   7   8
ATOM      8  C   UNL     1     163.175 172.657 182.632  1.00  0.00     0.041 C 
ATOM      9  O   UNL     1     163.963 173.586 182.952  1.00  0.00    -0.550 OA
ATOM     10  O   UNL     1     163.674 171.376 182.436  1.00  0.00    -0.550 OA
ENDBRANCH   7   8
ENDBRANCH   6   7
ENDBRANCH   5   6
ENDBRANCH   4   5
ENDBRANCH   3   4
ENDBRANCH   2   3
ENDBRANCH   1   2
BRANCH   1  11
ATOM     11  C   UNL     1     163.924 178.871 181.318  1.00  0.00     0.000 C 
BRANCH  11  12
ATOM     12  C   UNL     1     162.659 179.543 181.877  1.00  0.00    -0.000 C 
BRANCH  12  13
ATOM     13  C   UNL     1     161.752 180.111 180.771  1.00  0.00    -0.000 C 
BRANCH  13  14
ATOM     14  C   UNL     1     162.300 179.829 179.363  1.00  0.00    -0.000 C 
BRANCH  14  15
ATOM     15  C   UNL     1     161.389 178.890 178.552  1.00  0.00    -0.000 C 
BRANCH  15  16
ATOM     16  C   UNL     1     162.181 178.064 177.516  1.00  0.00    -0.000 C 
BRANCH  16  17
ATOM     17  C   UNL     1     161.403 176.855 176.971  1.00  0.00    -0.003 C 
ATOM     18  C   UNL     1     161.819 176.464 175.554  1.00  0.00     0.004 C 
ENDBRANCH  16  17
ENDBRANCH  15  16
ENDBRANCH  14  15
ENDBRANCH  13  14
ENDBRANCH  12  13
ENDBRANCH  11  12
ENDBRANCH   1  11
TORSDOF 14
ENDMDL
MODEL 5
REMARK VINA RESULT:    -3.952     12.054     13.921
REMARK INTER + INTRA:          -9.316
REMARK INTER:                  -7.527
REMARK INTRA:                  -1.789
REMARK UNBOUND:                -2.130
REMARK SMILES CCCCCCCCCCCCCCCC(=O)[O-]
REMARK SMILES IDX 9 1 10 2 11 3 12 4 13 5 14 6 15 7 16 8 17 9 18 10 8 11 7 12
REMARK SMILES IDX 6 13 5 14 4 15 3 16 2 17 1 18
REMARK H PARENT
REMARK Flexibility Score: inf
ROOT
ATOM      1  C   UNL     1     177.398 178.774 180.508  1.00  0.00     0.000 C 
ENDROOT
BRANCH   1   2
ATOM      2  C   UNL     1     177.236 179.976 179.567  1.00  0.00     0.000 C 
BRANCH   2   3
ATOM      3  C   UNL     1     176.349 179.660 178.352  1.00  0.00     0.000 C 
BRANCH   3   4
ATOM      4  C   UNL     1     176.771 178.370 177.628  1.00  0.00     0.000 C 
BRANCH   4   5
ATOM      5  C   UNL     1     175.803 177.202 177.916  1.00  0.00     0.000 C 
BRANCH   5   6
ATOM      6  C   UNL     1     176.488 175.825 177.973  1.00  0.00     0.006 C 
BRANCH   6   7
ATOM      7  C   UNL     1     176.481 175.175 179.370  1.00  0.00     0.053 C 
BRANCH   7   8
ATOM      8  C   UNL     1     177.846 174.752 179.825  1.00  0.00     0.041 C 
ATOM      9  O   UNL     1     178.546 175.516 180.541  1.00  0.00    -0.550 OA
ATOM     10  O   UNL     1     178.320 173.483 179.516  1.00  0.00    -0.550 OA
ENDBRANCH   7   8
ENDBRANCH   6   7
ENDBRANCH   5   6
ENDBRANCH   4   5
ENDBRANCH   3   4
ENDBRANCH   2   3
ENDBRANCH   1   2
BRANCH   1  11
ATOM     11  C   UNL     1     176.366 178.825 181.645  1.00  0.00     0.000 C 
BRANCH  11  12
ATOM     12  C   UNL     1     175.443 177.595 181.665  1.00  0.00    -0.000 C 
BRANCH  12  13
ATOM     13  C   UNL     1     174.034 177.904 181.130  1.00  0.00    -0.000 C 
BRANCH  13  14
ATOM     14  C   UNL     1     173.776 179.413 180.997  1.00  0.00    -0.000 C 
BRANCH  14  15
ATOM     15  C   UNL     1     172.315 179.792 181.297  1.00  0.00    -0.000 C 
BRANCH  15  16
ATOM     16  C   UNL     1     171.317 178.782 180.692  1.00  0.00    -0.000 C 
BRANCH  16  17
ATOM     17  C   UNL     1     170.030 178.620 181.519  1.00  0.00    -0.003 C 
ATOM     18  C   UNL     1     170.179 177.625 182.668  1.00  0.00     0.004 C 
ENDBRANCH  16  17
ENDBRANCH  15  16
ENDBRANCH  14  15
ENDBRANCH  13  14
ENDBRANCH  12  13
ENDBRANCH  11  12
ENDBRANCH   1  11
TORSDOF 14
ENDMDL
MODEL 6
REMARK VINA RESULT:    -3.925      2.163      5.706
REMARK INTER + INTRA:          -9.267
REMARK INTER:                  -7.282
REMARK INTRA:                  -1.985
REMARK UNBOUND:                -2.130
REMARK SMILES CCCCCCCCCCCCCCCC(=O)[O-]
REMARK SMILES IDX 9 1 10 2 11 3 12 4 13 5 14 6 15 7 16 8 17 9 18 10 8 11 7 12
REMARK SMILES IDX 6 13 5 14 4 15 3 16 2 17 1 18
REMARK H PARENT
REMARK Flexibility Score: inf
ROOT
ATOM      1  C   UNL     1     163.907 177.906 180.956  1.00  0.00     0.000 C 
ENDROOT
BRANCH   1   2
ATOM      2  C   UNL     1     163.403 176.477 181.199  1.00  0.00     0.000 C 
BRANCH   2   3
ATOM      3  C   UNL     1     161.885 176.343 181.003  1.00  0.00     0.000 C 
BRANCH   3   4
ATOM      4  C   UNL     1     161.389 174.896 181.168  1.00  0.00     0.000 C 
BRANCH   4   5
ATOM      5  C   UNL     1     162.553 173.908 181.397  1.00  0.00     0.000 C 
BRANCH   5   6
ATOM      6  C   UNL     1     162.140 172.616 182.124  1.00  0.00     0.006 C 
BRANCH   6   7
ATOM      7  C   UNL     1     160.698 172.161 181.832  1.00  0.00     0.053 C 
BRANCH   7   8
ATOM      8  C   UNL     1     160.573 171.398 180.546  1.00  0.00     0.041 C 
ATOM      9  O   UNL     1     160.182 171.975 179.497  1.00  0.00    -0.550 OA
ATOM     10  O   UNL     1     160.954 170.064 180.490  1.00  0.00    -0.550 OA
ENDBRANCH   7   8
ENDBRANCH   6   7
ENDBRANCH   5   6
ENDBRANCH   4   5
ENDBRANCH   3   4
ENDBRANCH   2   3
ENDBRANCH   1   2
BRANCH   1  11
ATOM     11  C   UNL     1     163.273 178.888 181.952  1.00  0.00     0.000 C 
BRANCH  11  12
ATOM     12  C   UNL     1     162.411 179.960 181.265  1.00  0.00    -0.000 C 
BRANCH  12  13
ATOM     13  C   UNL     1     162.678 180.054 179.753  1.00  0.00    -0.000 C 
BRANCH  13  14
ATOM     14  C   UNL     1     161.396 179.893 178.921  1.00  0.00    -0.000 C 
BRANCH  14  15
ATOM     15  C   UNL     1     161.345 178.551 178.169  1.00  0.00    -0.000 C 
BRANCH  15  16
ATOM     16  C   UNL     1     162.702 178.192 177.528  1.00  0.00    -0.000 C 
BRANCH  16  17
ATOM     17  C   UNL     1     162.914 176.680 177.343  1.00  0.00    -0.003 C 
ATOM     18  C   UNL     1     161.609 175.887 177.351  1.00  0.00     0.004 C 
ENDBRANCH  16  17
ENDBRANCH  15  16
ENDBRANCH  14  15
ENDBRANCH  13  14
ENDBRANCH  12  13
ENDBRANCH  11  12
ENDBRANCH   1  11
TORSDOF 14
ENDMDL
MODEL 7
REMARK VINA RESULT:    -3.919      2.388      5.608
REMARK INTER + INTRA:          -9.257
REMARK INTER:                  -6.778
REMARK INTRA:                  -2.480
REMARK UNBOUND:                -2.130
REMARK SMILES CCCCCCCCCCCCCCCC(=O)[O-]
REMARK SMILES IDX 9 1 10 2 11 3 12 4 13 5 14 6 15 7 16 8 17 9 18 10 8 11 7 12
REMARK SMILES IDX 6 13 5 14 4 15 3 16 2 17 1 18
REMARK H PARENT
REMARK Flexibility Score: inf
ROOT
ATOM      1  C   UNL     1     165.444 177.553 179.378  1.00  0.00     0.000 C 
ENDROOT
BRANCH   1   2
ATOM      2  C   UNL     1     164.648 176.264 179.626  1.00  0.00     0.000 C 
BRANCH   2   3
ATOM      3  C   UNL     1     164.733 175.788 181.084  1.00  0.00     0.000 C 
BRANCH   3   4
ATOM      4  C   UNL     1     163.445 175.092 181.559  1.00  0.00     0.000 C 
BRANCH   4   5
ATOM      5  C   UNL     1     162.181 175.894 181.181  1.00  0.00     0.000 C 
BRANCH   5   6
ATOM      6  C   UNL     1     160.987 175.016 180.766  1.00  0.00     0.006 C 
BRANCH   6   7
ATOM      7  C   UNL     1     161.361 173.561 180.427  1.00  0.00     0.053 C 
BRANCH   7   8
ATOM      8  C   UNL     1     160.853 172.576 181.438  1.00  0.00     0.041 C 
ATOM      9  O   UNL     1     160.676 171.370 181.120  1.00  0.00    -0.550 OA
ATOM     10  O   UNL     1     160.640 172.974 182.751  1.00  0.00    -0.550 OA
ENDBRANCH   7   8
ENDBRANCH   6   7
ENDBRANCH   5   6
ENDBRANCH   4   5
ENDBRANCH   3   4
ENDBRANCH   2   3
ENDBRANCH   1   2
BRANCH   1  11
ATOM     11  C   UNL     1     165.562 178.381 180.666  1.00  0.00     0.000 C 
BRANCH  11  12
ATOM     12  C   UNL     1     164.604 179.583 180.691  1.00  0.00    -0.000 C 
BRANCH  12  13
ATOM     13  C   UNL     1     163.401 179.363 181.625  1.00  0.00    -0.000 C 
BRANCH  13  14
ATOM     14  C   UNL     1     162.061 179.652 180.930  1.00  0.00    -0.000 C 
BRANCH  14  15
ATOM     15  C   UNL     1     162.190 179.708 179.397  1.00  0.00    -0.000 C 
BRANCH  15  16
ATOM     16  C   UNL     1     161.632 178.439 178.720  1.00  0.00    -0.000 C 
BRANCH  16  17
ATOM     17  C   UNL     1     162.224 178.176 177.325  1.00  0.00    -0.003 C 
ATOM     18  C   UNL     1     163.278 179.204 176.919  1.00  0.00     0.004 C 
ENDBRANCH  16  17
ENDBRANCH  15  16
ENDBRANCH  14  15
ENDBRANCH  13  14
ENDBRANCH  12  13
ENDBRANCH  11  12
ENDBRANCH   1  11
TORSDOF 14
ENDMDL
MODEL 8
REMARK VINA RESULT:    -3.897     10.613     12.682
REMARK INTER + INTRA:          -9.217
REMARK INTER:                  -7.311
REMARK INTRA:                  -1.906
REMARK UNBOUND:                -2.130
REMARK SMILES CCCCCCCCCCCCCCCC(=O)[O-]
REMARK SMILES IDX 9 1 10 2 11 3 12 4 13 5 14 6 15 7 16 8 17 9 18 10 8 11 7 12
REMARK SMILES IDX 6 13 5 14 4 15 3 16 2 17 1 18
REMARK H PARENT
REMARK Flexibility Score: inf
ROOT
ATOM      1  C   UNL     1     174.254 178.569 178.174  1.00  0.00     0.000 C 
ENDROOT
BRANCH   1   2
ATOM      2  C   UNL     1     172.959 178.602 178.998  1.00  0.00     0.000 C 
BRANCH   2   3
ATOM      3  C   UNL     1     173.188 179.073 180.442  1.00  0.00     0.000 C 
BRANCH   3   4
ATOM      4  C   UNL     1     171.880 179.447 181.160  1.00  0.00     0.000 C 
BRANCH   4   5
ATOM      5  C   UNL     1     170.636 178.965 180.384  1.00  0.00     0.000 C 
BRANCH   5   6
ATOM      6  C   UNL     1     169.673 178.105 181.222  1.00  0.00     0.006 C 
BRANCH   6   7
ATOM      7  C   UNL     1     170.194 177.767 182.632  1.00  0.00     0.053 C 
BRANCH   7   8
ATOM      8  C   UNL     1     170.432 176.300 182.832  1.00  0.00     0.041 C 
ATOM      9  O   UNL     1     171.517 175.891 183.323  1.00  0.00    -0.550 OA
ATOM     10  O   UNL     1     169.428 175.386 182.539  1.00  0.00    -0.550 OA
ENDBRANCH   7   8
ENDBRANCH   6   7
ENDBRANCH   5   6
ENDBRANCH   4   5
ENDBRANCH   3   4
ENDBRANCH   2   3
ENDBRANCH   1   2
BRANCH   1  11
ATOM     11  C   UNL     1     175.167 179.749 178.540  1.00  0.00     0.000 C 
BRANCH  11  12
ATOM     12  C   UNL     1     176.657 179.436 178.328  1.00  0.00    -0.000 C 
BRANCH  12  13
ATOM     13  C   UNL     1     177.506 179.711 179.582  1.00  0.00    -0.000 C 
BRANCH  13  14
ATOM     14  C   UNL     1     176.646 180.104 180.794  1.00  0.00    -0.000 C 
BRANCH  14  15
ATOM     15  C   UNL     1     176.714 179.065 181.928  1.00  0.00    -0.000 C 
BRANCH  15  16
ATOM     16  C   UNL     1     177.106 177.664 181.410  1.00  0.00    -0.000 C 
BRANCH  16  17
ATOM     17  C   UNL     1     175.899 176.762 181.104  1.00  0.00    -0.003 C 
ATOM     18  C   UNL     1     176.264 175.536 180.270  1.00  0.00     0.004 C 
ENDBRANCH  16  17
ENDBRANCH  15  16
ENDBRANCH  14  15
ENDBRANCH  13  14
ENDBRANCH  12  13
ENDBRANCH  11  12
ENDBRANCH   1  11
TORSDOF 14
ENDMDL
MODEL 9
REMARK VINA RESULT:    -3.845     12.219     14.223
REMARK INTER + INTRA:          -9.122
REMARK INTER:                  -6.748
REMARK INTRA:                  -2.375
REMARK UNBOUND:                -2.130
REMARK SMILES CCCCCCCCCCCCCCCC(=O)[O-]
REMARK SMILES IDX 9 1 10 2 11 3 12 4 13 5 14 6 15 7 16 8 17 9 18 10 8 11 7 12
REMARK SMILES IDX 6 13 5 14 4 15 3 16 2 17 1 18
REMARK H PARENT
REMARK Flexibility Score: inf
ROOT
ATOM      1  C   UNL     1     177.489 179.503 180.083  1.00  0.00     0.000 C 
ENDROOT
BRANCH   1   2
ATOM      2  C   UNL     1     176.431 179.304 181.177  1.00  0.00     0.000 C 
BRANCH   2   3
ATOM      3  C   UNL     1     176.500 177.910 181.820  1.00  0.00     0.000 C 
BRANCH   3   4
ATOM      4  C   UNL     1     175.253 177.058 181.525  1.00  0.00     0.000 C 
BRANCH   4   5
ATOM      5  C   UNL     1     175.530 175.979 180.456  1.00  0.00     0.000 C 
BRANCH   5   6
ATOM      6  C   UNL     1     177.026 175.757 180.167  1.00  0.00     0.006 C 
BRANCH   6   7
ATOM      7  C   UNL     1     177.591 174.445 180.742  1.00  0.00     0.053 C 
BRANCH   7   8
ATOM      8  C   UNL     1     177.664 173.344 179.725  1.00  0.00     0.041 C 
ATOM      9  O   UNL     1     178.771 173.004 179.231  1.00  0.00    -0.550 OA
ATOM     10  O   UNL     1     176.516 172.645 179.373  1.00  0.00    -0.550 OA
ENDBRANCH   7   8
ENDBRANCH   6   7
ENDBRANCH   5   6
ENDBRANCH   4   5
ENDBRANCH   3   4
ENDBRANCH   2   3
ENDBRANCH   1   2
BRANCH   1  11
ATOM     11  C   UNL     1     176.859 180.090 178.811  1.00  0.00     0.000 C 
BRANCH  11  12
ATOM     12  C   UNL     1     175.376 179.717 178.655  1.00  0.00    -0.000 C 
BRANCH  12  13
ATOM     13  C   UNL     1     175.170 178.445 177.814  1.00  0.00    -0.000 C 
BRANCH  13  14
ATOM     14  C   UNL     1     173.687 178.176 177.514  1.00  0.00    -0.000 C 
BRANCH  14  15
ATOM     15  C   UNL     1     172.747 178.854 178.527  1.00  0.00    -0.000 C 
BRANCH  15  16
ATOM     16  C   UNL     1     172.278 177.878 179.627  1.00  0.00    -0.000 C 
BRANCH  16  17
ATOM     17  C   UNL     1     171.859 178.579 180.931  1.00  0.00    -0.003 C 
ATOM     18  C   UNL     1     172.691 179.823 181.236  1.00  0.00     0.004 C 
ENDBRANCH  16  17
ENDBRANCH  15  16
ENDBRANCH  14  15
ENDBRANCH  13  14
ENDBRANCH  12  13
ENDBRANCH  11  12
ENDBRANCH   1  11
TORSDOF 14
ENDMDL
