MODEL 1
REMARK VINA RESULT:    -2.990      0.000      0.000
REMARK INTER + INTRA:          -8.544
REMARK INTER:                  -5.786
REMARK INTRA:                  -2.758
REMARK UNBOUND:                -2.758
REMARK SMILES CCCCCCCCCCCCCCCCCC(=O)[O-]
REMARK SMILES IDX 10 1 11 2 12 3 13 4 14 5 15 6 16 7 17 8 18 9 19 10 20 11
REMARK SMILES IDX 9 12 8 13 7 14 6 15 5 16 4 17 3 18 2 19 1 20
REMARK H PARENT
REMARK Flexibility Score: inf
ROOT
ATOM      1  C   UNL     1      -5.533  -4.801   7.178  1.00  0.00     0.000 C 
ENDROOT
BRANCH   1   2
ATOM      2  C   UNL     1      -4.573  -5.352   8.247  1.00  0.00     0.000 C 
BRANCH   2   3
ATOM      3  C   UNL     1      -5.169  -6.540   9.019  1.00  0.00     0.000 C 
BRANCH   3   4
ATOM      4  C   UNL     1      -6.411  -7.131   8.335  1.00  0.00     0.000 C 
BRANCH   4   5
ATOM      5  C   UNL     1      -6.044  -8.362   7.497  1.00  0.00     0.000 C 
BRANCH   5   6
ATOM      6  C   UNL     1      -5.034  -9.250   8.237  1.00  0.00     0.000 C 
BRANCH   6   7
ATOM      7  C   UNL     1      -3.754  -9.497   7.421  1.00  0.00     0.006 C 
BRANCH   7   8
ATOM      8  C   UNL     1      -3.787  -8.813   6.049  1.00  0.00     0.053 C 
BRANCH   8   9
ATOM      9  C   UNL     1      -2.725  -7.762   5.965  1.00  0.00     0.041 C 
ATOM     10  O   UNL     1      -2.942  -6.691   5.341  1.00  0.00    -0.550 OA
ATOM     11  O   UNL     1      -1.513  -7.944   6.619  1.00  0.00    -0.550 OA
ENDBRANCH   8   9
ENDBRANCH   7   8
ENDBRANCH   6   7
ENDBRANCH   5   6
ENDBRANCH   4   5
ENDBRANCH   3   4
ENDBRANCH   2   3
ENDBRANCH   1   2
BRANCH   1  12
ATOM     12  C   UNL     1      -5.945  -3.345   7.451  1.00  0.00     0.000 C 
BRANCH  12  13
ATOM     13  C   UNL     1      -5.898  -2.989   8.947  1.00  0.00    -0.000 C 
BRANCH  13  14
ATOM     14  C   UNL     1      -7.193  -3.360   9.692  1.00  0.00    -0.000 C 
BRANCH  14  15
ATOM     15  C   UNL     1      -8.471  -3.355   8.832  1.00  0.00    -0.000 C 
BRANCH  15  16
ATOM     16  C   UNL     1      -9.167  -4.726   8.788  1.00  0.00    -0.000 C 
BRANCH  16  17
ATOM     17  C   UNL     1      -9.909  -4.976   7.464  1.00  0.00    -0.000 C 
BRANCH  17  18
ATOM     18  C   UNL     1      -9.478  -4.073   6.291  1.00  0.00    -0.000 C 
BRANCH  18  19
ATOM     19  C   UNL     1      -8.725  -4.821   5.171  1.00  0.00    -0.003 C 
ATOM     20  C   UNL     1      -8.943  -6.333   5.230  1.00  0.00     0.004 C 
ENDBRANCH  18  19
ENDBRANCH  17  18
ENDBRANCH  16  17
ENDBRANCH  15  16
ENDBRANCH  14  15
ENDBRANCH  13  14
ENDBRANCH  12  13
ENDBRANCH   1  12
TORSDOF 16
ENDMDL
MODEL 2
REMARK VINA RESULT:    -2.953     19.670     21.862
REMARK INTER + INTRA:          -8.473
REMARK INTER:                  -6.226
REMARK INTRA:                  -2.247
REMARK UNBOUND:                -2.758
REMARK SMILES CCCCCCCCCCCCCCCCCC(=O)[O-]
REMARK SMILES IDX 10 1 11 2 12 3 13 4 14 5 15 6 16 7 17 8 18 9 19 10 20 11
REMARK SMILES IDX 9 12 8 13 7 14 6 15 5 16 4 17 3 18 2 19 1 20
REMARK H PARENT
REMARK Flexibility Score: inf
ROOT
ATOM      1  C   UNL     1       6.365   6.216  -4.480  1.00  0.00     0.000 C 
ENDROOT
BRANCH   1   2
ATOM      2  C   UNL     1       6.707   7.052  -3.234  1.00  0.00     0.000 C 
BRANCH   2   3
ATOM      3  C   UNL     1       7.352   8.401  -3.587  1.00  0.00     0.000 C 
BRANCH   3   4
ATOM      4  C   UNL     1       6.734   9.577  -2.816  1.00  0.00     0.000 C 
BRANCH   4   5
ATOM      5  C   UNL     1       5.337   9.218  -2.293  1.00  0.00     0.000 C 
BRANCH   5   6
ATOM      6  C   UNL     1       5.166   9.660  -0.833  1.00  0.00     0.000 C 
BRANCH   6   7
ATOM      7  C   UNL     1       6.510   9.886  -0.121  1.00  0.00     0.006 C 
BRANCH   7   8
ATOM      8  C   UNL     1       6.737   8.906   1.036  1.00  0.00     0.053 C 
BRANCH   8   9
ATOM      9  C   UNL     1       7.442   7.678   0.549  1.00  0.00     0.041 C 
ATOM     10  O   UNL     1       8.459   7.782  -0.184  1.00  0.00    -0.550 OA
ATOM     11  O   UNL     1       7.003   6.421   0.946  1.00  0.00    -0.550 OA
ENDBRANCH   8   9
ENDBRANCH   7   8
ENDBRANCH   6   7
ENDBRANCH   5   6
ENDBRANCH   4   5
ENDBRANCH   3   4
ENDBRANCH   2   3
ENDBRANCH   1   2
BRANCH   1  12
ATOM     12  C   UNL     1       6.380   7.051  -5.772  1.00  0.00     0.000 C 
BRANCH  12  13
ATOM     13  C   UNL     1       7.410   6.539  -6.793  1.00  0.00    -0.000 C 
BRANCH  13  14
ATOM     14  C   UNL     1       8.063   5.210  -6.373  1.00  0.00    -0.000 C 
BRANCH  14  15
ATOM     15  C   UNL     1       7.986   4.081  -7.417  1.00  0.00    -0.000 C 
BRANCH  15  16
ATOM     16  C   UNL     1       6.879   4.306  -8.460  1.00  0.00    -0.000 C 
BRANCH  16  17
ATOM     17  C   UNL     1       5.757   3.257  -8.375  1.00  0.00    -0.000 C 
BRANCH  17  18
ATOM     18  C   UNL     1       4.462   3.736  -7.689  1.00  0.00    -0.000 C 
BRANCH  18  19
ATOM     19  C   UNL     1       4.462   3.553  -6.157  1.00  0.00    -0.003 C 
ATOM     20  C   UNL     1       4.942   2.164  -5.735  1.00  0.00     0.004 C 
ENDBRANCH  18  19
ENDBRANCH  17  18
ENDBRANCH  16  17
ENDBRANCH  15  16
ENDBRANCH  14  15
ENDBRANCH  13  14
ENDBRANCH  12  13
ENDBRANCH   1  12
TORSDOF 16
ENDMDL
MODEL 3
REMARK VINA RESULT:    -2.950      1.364      3.984
REMARK INTER + INTRA:          -8.467
REMARK INTER:                  -5.949
REMARK INTRA:                  -2.518
REMARK UNBOUND:                -2.758
REMARK SMILES CCCCCCCCCCCCCCCCCC(=O)[O-]
REMARK SMILES IDX 10 1 11 2 12 3 13 4 14 5 15 6 16 7 17 8 18 9 19 10 20 11
REMARK SMILES IDX 9 12 8 13 7 14 6 15 5 16 4 17 3 18 2 19 1 20
REMARK H PARENT
REMARK Flexibility Score: inf
ROOT
ATOM      1  C   UNL     1      -9.023  -7.146   3.829  1.00  0.00     0.000 C 
ENDROOT
BRANCH   1   2
ATOM      2  C   UNL     1      -8.677  -8.185   4.910  1.00  0.00     0.000 C 
BRANCH   2   3
ATOM      3  C   UNL     1      -9.252  -7.817   6.287  1.00  0.00     0.000 C 
BRANCH   3   4
ATOM      4  C   UNL     1      -8.217  -7.937   7.416  1.00  0.00     0.000 C 
BRANCH   4   5
ATOM      5  C   UNL     1      -6.808  -8.149   6.850  1.00  0.00     0.000 C 
BRANCH   5   6
ATOM      6  C   UNL     1      -5.875  -8.753   7.909  1.00  0.00     0.000 C 
BRANCH   6   7
ATOM      7  C   UNL     1      -4.393  -8.440   7.640  1.00  0.00     0.006 C 
BRANCH   7   8
ATOM      8  C   UNL     1      -3.965  -8.794   6.211  1.00  0.00     0.053 C 
BRANCH   8   9
ATOM      9  C   UNL     1      -2.723  -8.047   5.838  1.00  0.00     0.041 C 
ATOM     10  O   UNL     1      -1.597  -8.597   5.943  1.00  0.00    -0.550 OA
ATOM     11  O   UNL     1      -2.815  -6.758   5.327  1.00  0.00    -0.550 OA
ENDBRANCH   8   9
ENDBRANCH   7   8
ENDBRANCH   6   7
ENDBRANCH   5   6
ENDBRANCH   4   5
ENDBRANCH   3   4
ENDBRANCH   2   3
ENDBRANCH   1   2
BRANCH   1  12
ATOM     12  C   UNL     1     -10.040  -6.102   4.318  1.00  0.00     0.000 C 
BRANCH  12  13
ATOM     13  C   UNL     1      -9.406  -4.717   4.536  1.00  0.00    -0.000 C 
BRANCH  13  14
ATOM     14  C   UNL     1      -9.782  -4.092   5.891  1.00  0.00    -0.000 C 
BRANCH  14  15
ATOM     15  C   UNL     1      -8.633  -3.993   6.911  1.00  0.00    -0.000 C 
BRANCH  15  16
ATOM     16  C   UNL     1      -7.290  -4.493   6.349  1.00  0.00    -0.000 C 
BRANCH  16  17
ATOM     17  C   UNL     1      -6.078  -3.820   7.016  1.00  0.00    -0.000 C 
BRANCH  17  18
ATOM     18  C   UNL     1      -5.017  -4.789   7.575  1.00  0.00    -0.000 C 
BRANCH  18  19
ATOM     19  C   UNL     1      -4.767  -4.635   9.089  1.00  0.00    -0.003 C 
ATOM     20  C   UNL     1      -5.547  -5.657   9.917  1.00  0.00     0.004 C 
ENDBRANCH  18  19
ENDBRANCH  17  18
ENDBRANCH  16  17
ENDBRANCH  15  16
ENDBRANCH  14  15
ENDBRANCH  13  14
ENDBRANCH  12  13
ENDBRANCH   1  12
TORSDOF 16
ENDMDL
MODEL 4
REMARK VINA RESULT:    -2.948     19.950     21.890
REMARK INTER + INTRA:          -8.462
REMARK INTER:                  -6.122
REMARK INTRA:                  -2.340
REMARK UNBOUND:                -2.758
REMARK SMILES CCCCCCCCCCCCCCCCCC(=O)[O-]
REMARK SMILES IDX 10 1 11 2 12 3 13 4 14 5 15 6 16 7 17 8 18 9 19 10 20 11
REMARK SMILES IDX 9 12 8 13 7 14 6 15 5 16 4 17 3 18 2 19 1 20
REMARK H PARENT
REMARK Flexibility Score: inf
ROOT
ATOM      1  C   UNL     1       6.328   7.426  -2.684  1.00  0.00     0.000 C 
ENDROOT
BRANCH   1   2
ATOM      2  C   UNL     1       6.474   6.434  -3.851  1.00  0.00     0.000 C 
BRANCH   2   3
ATOM      3  C   UNL     1       7.816   6.580  -4.585  1.00  0.00     0.000 C 
BRANCH   3   4
ATOM      4  C   UNL     1       7.664   7.190  -5.987  1.00  0.00     0.000 C 
BRANCH   4   5
ATOM      5  C   UNL     1       6.341   6.759  -6.634  1.00  0.00     0.000 C 
BRANCH   5   6
ATOM      6  C   UNL     1       6.500   5.422  -7.373  1.00  0.00     0.000 C 
BRANCH   6   7
ATOM      7  C   UNL     1       5.190   4.619  -7.431  1.00  0.00     0.006 C 
BRANCH   7   8
ATOM      8  C   UNL     1       5.057   3.622  -6.273  1.00  0.00     0.053 C 
BRANCH   8   9
ATOM      9  C   UNL     1       5.437   2.246  -6.723  1.00  0.00     0.041 C 
ATOM     10  O   UNL     1       5.829   2.052  -7.903  1.00  0.00    -0.550 OA
ATOM     11  O   UNL     1       5.405   1.187  -5.824  1.00  0.00    -0.550 OA
ENDBRANCH   8   9
ENDBRANCH   7   8
ENDBRANCH   6   7
ENDBRANCH   5   6
ENDBRANCH   4   5
ENDBRANCH   3   4
ENDBRANCH   2   3
ENDBRANCH   1   2
BRANCH   1  12
ATOM     12  C   UNL     1       5.555   8.694  -3.082  1.00  0.00     0.000 C 
BRANCH  12  13
ATOM     13  C   UNL     1       6.312   9.984  -2.722  1.00  0.00    -0.000 C 
BRANCH  13  14
ATOM     14  C   UNL     1       7.808   9.919  -3.075  1.00  0.00    -0.000 C 
BRANCH  14  15
ATOM     15  C   UNL     1       8.772  10.125  -1.891  1.00  0.00    -0.000 C 
BRANCH  15  16
ATOM     16  C   UNL     1       9.441   8.818  -1.431  1.00  0.00    -0.000 C 
BRANCH  16  17
ATOM     17  C   UNL     1       8.863   8.286  -0.108  1.00  0.00    -0.000 C 
BRANCH  17  18
ATOM     18  C   UNL     1       7.971   9.279   0.663  1.00  0.00    -0.000 C 
BRANCH  18  19
ATOM     19  C   UNL     1       6.580   8.718   1.025  1.00  0.00    -0.003 C 
ATOM     20  C   UNL     1       5.454   9.708   0.723  1.00  0.00     0.004 C 
ENDBRANCH  18  19
ENDBRANCH  17  18
ENDBRANCH  16  17
ENDBRANCH  15  16
ENDBRANCH  14  15
ENDBRANCH  13  14
ENDBRANCH  12  13
ENDBRANCH   1  12
TORSDOF 16
ENDMDL
MODEL 5
REMARK VINA RESULT:    -2.945     19.658     21.764
REMARK INTER + INTRA:          -8.458
REMARK INTER:                  -6.154
REMARK INTRA:                  -2.304
REMARK UNBOUND:                -2.758
REMARK SMILES CCCCCCCCCCCCCCCCCC(=O)[O-]
REMARK SMILES IDX 10 1 11 2 12 3 13 4 14 5 15 6 16 7 17 8 18 9 19 10 20 11
REMARK SMILES IDX 9 12 8 13 7 14 6 15 5 16 4 17 3 18 2 19 1 20
REMARK H PARENT
REMARK Flexibility Score: inf
ROOT
ATOM      1  C   UNL     1       5.326   2.331  -7.101  1.00  0.00     0.000 C 
ENDROOT
BRANCH   1   2
ATOM      2  C   UNL     1       4.749   3.744  -6.899  1.00  0.00     0.000 C 
BRANCH   2   3
ATOM      3  C   UNL     1       5.177   4.720  -8.006  1.00  0.00     0.000 C 
BRANCH   3   4
ATOM      4  C   UNL     1       6.081   5.849  -7.487  1.00  0.00     0.000 C 
BRANCH   4   5
ATOM      5  C   UNL     1       6.435   5.635  -6.010  1.00  0.00     0.000 C 
BRANCH   5   6
ATOM      6  C   UNL     1       7.681   6.443  -5.621  1.00  0.00     0.000 C 
BRANCH   6   7
ATOM      7  C   UNL     1       7.778   6.690  -4.106  1.00  0.00     0.006 C 
BRANCH   7   8
ATOM      8  C   UNL     1       6.405   6.701  -3.422  1.00  0.00     0.053 C 
BRANCH   8   9
ATOM      9  C   UNL     1       5.985   8.105  -3.120  1.00  0.00     0.041 C 
ATOM     10  O   UNL     1       6.488   8.722  -2.145  1.00  0.00    -0.550 OA
ATOM     11  O   UNL     1       5.073   8.751  -3.946  1.00  0.00    -0.550 OA
ENDBRANCH   8   9
ENDBRANCH   7   8
ENDBRANCH   6   7
ENDBRANCH   5   6
ENDBRANCH   4   5
ENDBRANCH   3   4
ENDBRANCH   2   3
ENDBRANCH   1   2
BRANCH   1  12
ATOM     12  C   UNL     1       6.052   2.179  -8.448  1.00  0.00     0.000 C 
BRANCH  12  13
ATOM     13  C   UNL     1       7.567   1.971  -8.282  1.00  0.00    -0.000 C 
BRANCH  13  14
ATOM     14  C   UNL     1       8.008   1.923  -6.809  1.00  0.00    -0.000 C 
BRANCH  14  15
ATOM     15  C   UNL     1       8.652   0.598  -6.358  1.00  0.00    -0.000 C 
BRANCH  15  16
ATOM     16  C   UNL     1       7.676  -0.310  -5.589  1.00  0.00    -0.000 C 
BRANCH  16  17
ATOM     17  C   UNL     1       7.136  -1.467  -6.447  1.00  0.00    -0.000 C 
BRANCH  17  18
ATOM     18  C   UNL     1       5.647  -1.359  -6.831  1.00  0.00    -0.000 C 
BRANCH  18  19
ATOM     19  C   UNL     1       5.385  -1.452  -8.348  1.00  0.00    -0.003 C 
ATOM     20  C   UNL     1       6.665  -1.690  -9.149  1.00  0.00     0.004 C 
ENDBRANCH  18  19
ENDBRANCH  17  18
ENDBRANCH  16  17
ENDBRANCH  15  16
ENDBRANCH  14  15
ENDBRANCH  13  14
ENDBRANCH  12  13
ENDBRANCH   1  12
TORSDOF 16
ENDMDL
MODEL 6
REMARK VINA RESULT:    -2.877     19.310     21.881
REMARK INTER + INTRA:          -8.326
REMARK INTER:                  -5.742
REMARK INTRA:                  -2.584
REMARK UNBOUND:                -2.758
REMARK SMILES CCCCCCCCCCCCCCCCCC(=O)[O-]
REMARK SMILES IDX 10 1 11 2 12 3 13 4 14 5 15 6 16 7 17 8 18 9 19 10 20 11
REMARK SMILES IDX 9 12 8 13 7 14 6 15 5 16 4 17 3 18 2 19 1 20
REMARK H PARENT
REMARK Flexibility Score: inf
ROOT
ATOM      1  C   UNL     1       7.737  -0.144  -5.924  1.00  0.00     0.000 C 
ENDROOT
BRANCH   1   2
ATOM      2  C   UNL     1       8.993  -0.125  -6.812  1.00  0.00     0.000 C 
BRANCH   2   3
ATOM      3  C   UNL     1       9.367   1.292  -7.275  1.00  0.00     0.000 C 
BRANCH   3   4
ATOM      4  C   UNL     1      10.125   2.088  -6.202  1.00  0.00     0.000 C 
BRANCH   4   5
ATOM      5  C   UNL     1       9.693   3.560  -6.202  1.00  0.00     0.000 C 
BRANCH   5   6
ATOM      6  C   UNL     1       8.868   3.891  -7.454  1.00  0.00     0.000 C 
BRANCH   6   7
ATOM      7  C   UNL     1       8.312   5.325  -7.434  1.00  0.00     0.006 C 
BRANCH   7   8
ATOM      8  C   UNL     1       8.131   5.868  -6.012  1.00  0.00     0.053 C 
BRANCH   8   9
ATOM      9  C   UNL     1       6.715   6.305  -5.797  1.00  0.00     0.041 C 
ATOM     10  O   UNL     1       6.056   6.804  -6.746  1.00  0.00    -0.550 OA
ATOM     11  O   UNL     1       6.108   6.116  -4.561  1.00  0.00    -0.550 OA
ENDBRANCH   8   9
ENDBRANCH   7   8
ENDBRANCH   6   7
ENDBRANCH   5   6
ENDBRANCH   4   5
ENDBRANCH   3   4
ENDBRANCH   2   3
ENDBRANCH   1   2
BRANCH   1  12
ATOM     12  C   UNL     1       7.029  -1.509  -5.934  1.00  0.00     0.000 C 
BRANCH  12  13
ATOM     13  C   UNL     1       5.725  -1.492  -6.751  1.00  0.00    -0.000 C 
BRANCH  13  14
ATOM     14  C   UNL     1       5.967  -1.570  -8.269  1.00  0.00    -0.000 C 
BRANCH  14  15
ATOM     15  C   UNL     1       5.377  -0.408  -9.089  1.00  0.00    -0.000 C 
BRANCH  15  16
ATOM     16  C   UNL     1       6.418   0.674  -9.427  1.00  0.00    -0.000 C 
BRANCH  16  17
ATOM     17  C   UNL     1       6.020   2.067  -8.908  1.00  0.00    -0.000 C 
BRANCH  17  18
ATOM     18  C   UNL     1       5.615   2.121  -7.422  1.00  0.00    -0.000 C 
BRANCH  18  19
ATOM     19  C   UNL     1       4.817   3.384  -7.038  1.00  0.00    -0.003 C 
ATOM     20  C   UNL     1       4.132   3.251  -5.678  1.00  0.00     0.004 C 
ENDBRANCH  18  19
ENDBRANCH  17  18
ENDBRANCH  16  17
ENDBRANCH  15  16
ENDBRANCH  14  15
ENDBRANCH  13  14
ENDBRANCH  12  13
ENDBRANCH   1  12
TORSDOF 16
ENDMDL
MODEL 7
REMARK VINA RESULT:    -2.868     19.223     21.068
REMARK INTER + INTRA:          -8.307
REMARK INTER:                  -6.769
REMARK INTRA:                  -1.538
REMARK UNBOUND:                -2.758
REMARK SMILES CCCCCCCCCCCCCCCCCC(=O)[O-]
REMARK SMILES IDX 10 1 11 2 12 3 13 4 14 5 15 6 16 7 17 8 18 9 19 10 20 11
REMARK SMILES IDX 9 12 8 13 7 14 6 15 5 16 4 17 3 18 2 19 1 20
REMARK H PARENT
REMARK Flexibility Score: inf
ROOT
ATOM      1  C   UNL     1       6.366   6.341  -4.338  1.00  0.00     0.000 C 
ENDROOT
BRANCH   1   2
ATOM      2  C   UNL     1       6.497   7.183  -5.619  1.00  0.00     0.000 C 
BRANCH   2   3
ATOM      3  C   UNL     1       6.490   6.324  -6.893  1.00  0.00     0.000 C 
BRANCH   3   4
ATOM      4  C   UNL     1       5.793   4.969  -6.694  1.00  0.00     0.000 C 
BRANCH   4   5
ATOM      5  C   UNL     1       6.692   3.815  -7.155  1.00  0.00     0.000 C 
BRANCH   5   6
ATOM      6  C   UNL     1       5.868   2.546  -7.415  1.00  0.00     0.000 C 
BRANCH   6   7
ATOM      7  C   UNL     1       6.688   1.259  -7.231  1.00  0.00     0.006 C 
BRANCH   7   8
ATOM      8  C   UNL     1       6.251   0.451  -6.003  1.00  0.00     0.053 C 
BRANCH   8   9
ATOM      9  C   UNL     1       6.204  -1.009  -6.330  1.00  0.00     0.041 C 
ATOM     10  O   UNL     1       5.588  -1.411  -7.351  1.00  0.00    -0.550 OA
ATOM     11  O   UNL     1       6.884  -1.922  -5.532  1.00  0.00    -0.550 OA
ENDBRANCH   8   9
ENDBRANCH   7   8
ENDBRANCH   6   7
ENDBRANCH   5   6
ENDBRANCH   4   5
ENDBRANCH   3   4
ENDBRANCH   2   3
ENDBRANCH   1   2
BRANCH   1  12
ATOM     12  C   UNL     1       6.788   7.116  -3.078  1.00  0.00     0.000 C 
BRANCH  12  13
ATOM     13  C   UNL     1       7.234   8.554  -3.392  1.00  0.00    -0.000 C 
BRANCH  13  14
ATOM     14  C   UNL     1       6.517   9.606  -2.528  1.00  0.00    -0.000 C 
BRANCH  14  15
ATOM     15  C   UNL     1       5.520   9.043  -1.499  1.00  0.00    -0.000 C 
BRANCH  15  16
ATOM     16  C   UNL     1       5.608   9.747  -0.134  1.00  0.00    -0.000 C 
BRANCH  16  17
ATOM     17  C   UNL     1       6.744   9.200   0.747  1.00  0.00    -0.000 C 
BRANCH  17  18
ATOM     18  C   UNL     1       7.080   7.711   0.533  1.00  0.00    -0.000 C 
BRANCH  18  19
ATOM     19  C   UNL     1       8.586   7.429   0.357  1.00  0.00    -0.003 C 
ATOM     20  C   UNL     1       9.328   8.600  -0.288  1.00  0.00     0.004 C 
ENDBRANCH  18  19
ENDBRANCH  17  18
ENDBRANCH  16  17
ENDBRANCH  15  16
ENDBRANCH  14  15
ENDBRANCH  13  14
ENDBRANCH  12  13
ENDBRANCH   1  12
TORSDOF 16
ENDMDL
MODEL 8
REMARK VINA RESULT:    -2.867     19.518     21.627
REMARK INTER + INTRA:          -8.305
REMARK INTER:                  -5.925
REMARK INTRA:                  -2.380
REMARK UNBOUND:                -2.758
REMARK SMILES CCCCCCCCCCCCCCCCCC(=O)[O-]
REMARK SMILES IDX 10 1 11 2 12 3 13 4 14 5 15 6 16 7 17 8 18 9 19 10 20 11
REMARK SMILES IDX 9 12 8 13 7 14 6 15 5 16 4 17 3 18 2 19 1 20
REMARK H PARENT
REMARK Flexibility Score: inf
ROOT
ATOM      1  C   UNL     1       5.176   4.107  -5.980  1.00  0.00     0.000 C 
ENDROOT
BRANCH   1   2
ATOM      2  C   UNL     1       4.194   3.451  -6.967  1.00  0.00     0.000 C 
BRANCH   2   3
ATOM      3  C   UNL     1       4.385   3.948  -8.408  1.00  0.00     0.000 C 
BRANCH   3   4
ATOM      4  C   UNL     1       4.772   2.823  -9.379  1.00  0.00     0.000 C 
BRANCH   4   5
ATOM      5  C   UNL     1       5.196   1.560  -8.618  1.00  0.00     0.000 C 
BRANCH   5   6
ATOM      6  C   UNL     1       6.725   1.450  -8.545  1.00  0.00     0.000 C 
BRANCH   6   7
ATOM      7  C   UNL     1       7.216   0.912  -7.190  1.00  0.00     0.006 C 
BRANCH   7   8
ATOM      8  C   UNL     1       6.077   0.349  -6.332  1.00  0.00     0.053 C 
BRANCH   8   9
ATOM      9  C   UNL     1       6.131  -1.147  -6.310  1.00  0.00     0.041 C 
ATOM     10  O   UNL     1       5.333  -1.819  -7.015  1.00  0.00    -0.550 OA
ATOM     11  O   UNL     1       7.095  -1.797  -5.551  1.00  0.00    -0.550 OA
ENDBRANCH   8   9
ENDBRANCH   7   8
ENDBRANCH   6   7
ENDBRANCH   5   6
ENDBRANCH   4   5
ENDBRANCH   3   4
ENDBRANCH   2   3
ENDBRANCH   1   2
BRANCH   1  12
ATOM     12  C   UNL     1       6.116   5.113  -6.666  1.00  0.00     0.000 C 
BRANCH  12  13
ATOM     13  C   UNL     1       7.551   4.578  -6.808  1.00  0.00    -0.000 C 
BRANCH  13  14
ATOM     14  C   UNL     1       8.448   5.485  -7.669  1.00  0.00    -0.000 C 
BRANCH  14  15
ATOM     15  C   UNL     1       8.392   6.985  -7.320  1.00  0.00    -0.000 C 
BRANCH  15  16
ATOM     16  C   UNL     1       9.248   7.345  -6.094  1.00  0.00    -0.000 C 
BRANCH  16  17
ATOM     17  C   UNL     1       8.403   7.792  -4.888  1.00  0.00    -0.000 C 
BRANCH  17  18
ATOM     18  C   UNL     1       8.131   6.696  -3.838  1.00  0.00    -0.000 C 
BRANCH  18  19
ATOM     19  C   UNL     1       6.677   6.672  -3.324  1.00  0.00    -0.003 C 
ATOM     20  C   UNL     1       6.526   7.357  -1.965  1.00  0.00     0.004 C 
ENDBRANCH  18  19
ENDBRANCH  17  18
ENDBRANCH  16  17
ENDBRANCH  15  16
ENDBRANCH  14  15
ENDBRANCH  13  14
ENDBRANCH  12  13
ENDBRANCH   1  12
TORSDOF 16
ENDMDL
MODEL 9
REMARK VINA RESULT:    -2.825     19.643     21.847
REMARK INTER + INTRA:          -8.224
REMARK INTER:                  -6.419
REMARK INTRA:                  -1.805
REMARK UNBOUND:                -2.758
REMARK SMILES CCCCCCCCCCCCCCCCCC(=O)[O-]
REMARK SMILES IDX 10 1 11 2 12 3 13 4 14 5 15 6 16 7 17 8 18 9 19 10 20 11
REMARK SMILES IDX 9 12 8 13 7 14 6 15 5 16 4 17 3 18 2 19 1 20
REMARK H PARENT
REMARK Flexibility Score: inf
ROOT
ATOM      1  C   UNL     1       4.928   3.753  -6.320  1.00  0.00     0.000 C 
ENDROOT
BRANCH   1   2
ATOM      2  C   UNL     1       5.961   4.882  -6.161  1.00  0.00     0.000 C 
BRANCH   2   3
ATOM      3  C   UNL     1       5.984   5.835  -7.366  1.00  0.00     0.000 C 
BRANCH   3   4
ATOM      4  C   UNL     1       6.355   7.275  -6.979  1.00  0.00     0.000 C 
BRANCH   4   5
ATOM      5  C   UNL     1       7.044   7.316  -5.610  1.00  0.00     0.000 C 
BRANCH   5   6
ATOM      6  C   UNL     1       6.528   8.493  -4.769  1.00  0.00     0.000 C 
BRANCH   6   7
ATOM      7  C   UNL     1       5.637   8.041  -3.601  1.00  0.00     0.006 C 
BRANCH   7   8
ATOM      8  C   UNL     1       5.494   9.116  -2.517  1.00  0.00     0.053 C 
BRANCH   8   9
ATOM      9  C   UNL     1       5.978   8.597  -1.199  1.00  0.00     0.041 C 
ATOM     10  O   UNL     1       5.642   9.170  -0.130  1.00  0.00    -0.550 OA
ATOM     11  O   UNL     1       6.760   7.449  -1.149  1.00  0.00    -0.550 OA
ENDBRANCH   8   9
ENDBRANCH   7   8
ENDBRANCH   6   7
ENDBRANCH   5   6
ENDBRANCH   4   5
ENDBRANCH   3   4
ENDBRANCH   2   3
ENDBRANCH   1   2
BRANCH   1  12
ATOM     12  C   UNL     1       4.481   3.564  -7.780  1.00  0.00     0.000 C 
BRANCH  12  13
ATOM     13  C   UNL     1       5.072   2.296  -8.419  1.00  0.00    -0.000 C 
BRANCH  13  14
ATOM     14  C   UNL     1       6.525   2.482  -8.889  1.00  0.00    -0.000 C 
BRANCH  14  15
ATOM     15  C   UNL     1       7.502   1.371  -8.460  1.00  0.00    -0.000 C 
BRANCH  15  16
ATOM     16  C   UNL     1       8.081   1.594  -7.053  1.00  0.00    -0.000 C 
BRANCH  16  17
ATOM     17  C   UNL     1       7.830   0.405  -6.109  1.00  0.00    -0.000 C 
BRANCH  17  18
ATOM     18  C   UNL     1       6.374  -0.099  -6.064  1.00  0.00    -0.000 C 
BRANCH  18  19
ATOM     19  C   UNL     1       6.182  -1.508  -6.662  1.00  0.00    -0.003 C 
ATOM     20  C   UNL     1       5.218  -1.512  -7.849  1.00  0.00     0.004 C 
ENDBRANCH  18  19
ENDBRANCH  17  18
ENDBRANCH  16  17
ENDBRANCH  15  16
ENDBRANCH  14  15
ENDBRANCH  13  14
ENDBRANCH  12  13
ENDBRANCH   1  12
TORSDOF 16
ENDMDL
