MODEL 1
REMARK VINA RESULT:     3.593      0.000      0.000
REMARK INTER + INTRA:           5.863
REMARK INTER:                   6.533
REMARK INTRA:                  -0.670
REMARK UNBOUND:                -0.670
REMARK SMILES CCCCCC=CCC=CCCCCCCCC(=O)[O-]
REMARK SMILES IDX 11 1 12 2 13 3 14 4 15 5 16 6 17 7 18 8 19 9 20 10 10 11
REMARK SMILES IDX 9 12 8 13 7 14 6 15 5 16 4 17 3 18 2 19 1 20
REMARK H PARENT
REMARK Flexibility Score: inf
ROOT
ATOM      1  C   UNL     1      29.425  18.787   4.332  1.00  0.00     0.027 C 
ENDROOT
BRANCH   1   2
ATOM      2  C   UNL     1      28.858  18.016   3.128  1.00  0.00     0.004 C 
BRANCH   2   3
ATOM      3  C   UNL     1      29.260  18.582   1.753  1.00  0.00     0.000 C 
BRANCH   3   4
ATOM      4  C   UNL     1      28.047  18.975   0.892  1.00  0.00     0.000 C 
BRANCH   4   5
ATOM      5  C   UNL     1      27.960  18.178  -0.422  1.00  0.00     0.000 C 
BRANCH   5   6
ATOM      6  C   UNL     1      28.602  16.776  -0.388  1.00  0.00     0.006 C 
BRANCH   6   7
ATOM      7  C   UNL     1      28.525  16.004  -1.713  1.00  0.00     0.053 C 
BRANCH   7   8
ATOM      8  C   UNL     1      29.883  15.652  -2.239  1.00  0.00     0.041 C 
ATOM      9  O   UNL     1      30.035  15.359  -3.453  1.00  0.00    -0.550 OA
ATOM     10  O   UNL     1      30.986  15.685  -1.395  1.00  0.00    -0.550 OA
ENDBRANCH   7   8
ENDBRANCH   6   7
ENDBRANCH   5   6
ENDBRANCH   4   5
ENDBRANCH   3   4
ENDBRANCH   2   3
ENDBRANCH   1   2
BRANCH   1  11
ATOM     11  C   UNL     1      30.786  18.279   4.744  1.00  0.00    -0.031 C 
ATOM     12  C   UNL     1      31.031  17.497   5.813  1.00  0.00    -0.027 C 
BRANCH  12  13
ATOM     13  C   UNL     1      29.978  16.944   6.741  1.00  0.00     0.054 C 
BRANCH  13  14
ATOM     14  C   UNL     1      30.581  16.296   7.960  1.00  0.00    -0.027 C 
ATOM     15  C   UNL     1      29.900  15.559   8.857  1.00  0.00    -0.031 C 
BRANCH  15  16
ATOM     16  C   UNL     1      28.413  15.296   8.811  1.00  0.00     0.027 C 
BRANCH  16  17
ATOM     17  C   UNL     1      27.649  16.241   9.746  1.00  0.00     0.004 C 
BRANCH  17  18
ATOM     18  C   UNL     1      28.419  17.546  10.004  1.00  0.00     0.000 C 
BRANCH  18  19
ATOM     19  C   UNL     1      27.603  18.795   9.636  1.00  0.00    -0.003 C 
ATOM     20  C   UNL     1      27.555  19.825  10.765  1.00  0.00     0.004 C 
ENDBRANCH  18  19
ENDBRANCH  17  18
ENDBRANCH  16  17
ENDBRANCH  15  16
ENDBRANCH  13  14
ENDBRANCH  12  13
ENDBRANCH   1  11
TORSDOF 14
ENDMDL
MODEL 2
REMARK VINA RESULT:     3.892      4.226      9.860
REMARK INTER + INTRA:           6.407
REMARK INTER:                   7.189
REMARK INTRA:                  -0.782
REMARK UNBOUND:                -0.670
REMARK SMILES CCCCCC=CCC=CCCCCCCCC(=O)[O-]
REMARK SMILES IDX 11 1 12 2 13 3 14 4 15 5 16 6 17 7 18 8 19 9 20 10 10 11
REMARK SMILES IDX 9 12 8 13 7 14 6 15 5 16 4 17 3 18 2 19 1 20
REMARK H PARENT
REMARK Flexibility Score: inf
ROOT
ATOM      1  C   UNL     1      30.716  17.209   5.387  1.00  0.00     0.027 C 
ENDROOT
BRANCH   1   2
ATOM      2  C   UNL     1      30.664  16.882   6.890  1.00  0.00     0.004 C 
BRANCH   2   3
ATOM      3  C   UNL     1      29.806  15.656   7.254  1.00  0.00     0.000 C 
BRANCH   3   4
ATOM      4  C   UNL     1      29.524  15.552   8.763  1.00  0.00     0.000 C 
BRANCH   4   5
ATOM      5  C   UNL     1      29.642  16.903   9.490  1.00  0.00     0.000 C 
BRANCH   5   6
ATOM      6  C   UNL     1      28.356  17.392  10.188  1.00  0.00     0.006 C 
BRANCH   6   7
ATOM      7  C   UNL     1      28.501  18.726  10.935  1.00  0.00     0.053 C 
BRANCH   7   8
ATOM      8  C   UNL     1      27.555  19.765  10.418  1.00  0.00     0.041 C 
ATOM      9  O   UNL     1      26.905  19.560   9.359  1.00  0.00    -0.550 OA
ATOM     10  O   UNL     1      27.361  20.946  11.125  1.00  0.00    -0.550 OA
ENDBRANCH   7   8
ENDBRANCH   6   7
ENDBRANCH   5   6
ENDBRANCH   4   5
ENDBRANCH   3   4
ENDBRANCH   2   3
ENDBRANCH   1   2
BRANCH   1  11
ATOM     11  C   UNL     1      30.510  18.681   5.118  1.00  0.00    -0.031 C 
ATOM     12  C   UNL     1      29.847  19.190   4.062  1.00  0.00    -0.027 C 
BRANCH  12  13
ATOM     13  C   UNL     1      29.143  18.375   3.005  1.00  0.00     0.054 C 
BRANCH  13  14
ATOM     14  C   UNL     1      28.797  19.198   1.792  1.00  0.00    -0.027 C 
ATOM     15  C   UNL     1      28.529  18.696   0.572  1.00  0.00    -0.031 C 
BRANCH  15  16
ATOM     16  C   UNL     1      28.574  17.231   0.210  1.00  0.00     0.027 C 
BRANCH  16  17
ATOM     17  C   UNL     1      28.071  16.991  -1.219  1.00  0.00     0.004 C 
BRANCH  17  18
ATOM     18  C   UNL     1      28.360  15.560  -1.700  1.00  0.00     0.000 C 
BRANCH  18  19
ATOM     19  C   UNL     1      29.857  15.214  -1.655  1.00  0.00    -0.003 C 
ATOM     20  C   UNL     1      30.625  15.751  -2.863  1.00  0.00     0.004 C 
ENDBRANCH  18  19
ENDBRANCH  17  18
ENDBRANCH  16  17
ENDBRANCH  15  16
ENDBRANCH  13  14
ENDBRANCH  12  13
ENDBRANCH   1  11
TORSDOF 14
ENDMDL
MODEL 3
REMARK VINA RESULT:     4.407      1.324      2.446
REMARK INTER + INTRA:           7.343
REMARK INTER:                   8.062
REMARK INTRA:                  -0.719
REMARK UNBOUND:                -0.670
REMARK SMILES CCCCCC=CCC=CCCCCCCCC(=O)[O-]
REMARK SMILES IDX 11 1 12 2 13 3 14 4 15 5 16 6 17 7 18 8 19 9 20 10 10 11
REMARK SMILES IDX 9 12 8 13 7 14 6 15 5 16 4 17 3 18 2 19 1 20
REMARK H PARENT
REMARK Flexibility Score: inf
ROOT
ATOM      1  C   UNL     1      29.283  18.698   4.270  1.00  0.00     0.027 C 
ENDROOT
BRANCH   1   2
ATOM      2  C   UNL     1      28.947  18.135   2.878  1.00  0.00     0.004 C 
BRANCH   2   3
ATOM      3  C   UNL     1      29.185  19.112   1.712  1.00  0.00     0.000 C 
BRANCH   3   4
ATOM      4  C   UNL     1      28.403  18.731   0.444  1.00  0.00     0.000 C 
BRANCH   4   5
ATOM      5  C   UNL     1      28.437  17.221   0.149  1.00  0.00     0.000 C 
BRANCH   5   6
ATOM      6  C   UNL     1      28.071  16.821  -1.295  1.00  0.00     0.006 C 
BRANCH   6   7
ATOM      7  C   UNL     1      28.652  15.475  -1.753  1.00  0.00     0.053 C 
BRANCH   7   8
ATOM      8  C   UNL     1      30.056  15.612  -2.258  1.00  0.00     0.041 C 
ATOM      9  O   UNL     1      31.027  15.512  -1.463  1.00  0.00    -0.550 OA
ATOM     10  O   UNL     1      30.293  15.813  -3.612  1.00  0.00    -0.550 OA
ENDBRANCH   7   8
ENDBRANCH   6   7
ENDBRANCH   5   6
ENDBRANCH   4   5
ENDBRANCH   3   4
ENDBRANCH   2   3
ENDBRANCH   1   2
BRANCH   1  11
ATOM     11  C   UNL     1      30.689  18.352   4.700  1.00  0.00    -0.031 C 
ATOM     12  C   UNL     1      31.010  17.644   5.800  1.00  0.00    -0.027 C 
BRANCH  12  13
ATOM     13  C   UNL     1      30.018  17.023   6.752  1.00  0.00     0.054 C 
BRANCH  13  14
ATOM     14  C   UNL     1      30.555  16.945   8.158  1.00  0.00    -0.027 C 
ATOM     15  C   UNL     1      29.817  16.663   9.248  1.00  0.00    -0.031 C 
BRANCH  15  16
ATOM     16  C   UNL     1      28.326  16.423   9.247  1.00  0.00     0.027 C 
BRANCH  16  17
ATOM     17  C   UNL     1      27.989  14.991   9.680  1.00  0.00     0.004 C 
BRANCH  17  18
ATOM     18  C   UNL     1      27.231  14.221   8.587  1.00  0.00     0.000 C 
BRANCH  18  19
ATOM     19  C   UNL     1      25.722  14.137   8.864  1.00  0.00    -0.003 C 
ATOM     20  C   UNL     1      25.056  12.954   8.160  1.00  0.00     0.004 C 
ENDBRANCH  18  19
ENDBRANCH  17  18
ENDBRANCH  16  17
ENDBRANCH  15  16
ENDBRANCH  13  14
ENDBRANCH  12  13
ENDBRANCH   1  11
TORSDOF 14
ENDMDL
MODEL 4
REMARK VINA RESULT:     4.686      3.999      9.827
REMARK INTER + INTRA:           7.851
REMARK INTER:                   8.601
REMARK INTRA:                  -0.750
REMARK UNBOUND:                -0.670
REMARK SMILES CCCCCC=CCC=CCCCCCCCC(=O)[O-]
REMARK SMILES IDX 11 1 12 2 13 3 14 4 15 5 16 6 17 7 18 8 19 9 20 10 10 11
REMARK SMILES IDX 9 12 8 13 7 14 6 15 5 16 4 17 3 18 2 19 1 20
REMARK H PARENT
REMARK Flexibility Score: inf
ROOT
ATOM      1  C   UNL     1      30.468  18.577   4.431  1.00  0.00     0.027 C 
ENDROOT
BRANCH   1   2
ATOM      2  C   UNL     1      31.208  17.704   5.459  1.00  0.00     0.004 C 
BRANCH   2   3
ATOM      3  C   UNL     1      30.597  17.716   6.873  1.00  0.00     0.000 C 
BRANCH   3   4
ATOM      4  C   UNL     1      29.968  16.368   7.264  1.00  0.00     0.000 C 
BRANCH   4   5
ATOM      5  C   UNL     1      29.863  16.173   8.787  1.00  0.00     0.000 C 
BRANCH   5   6
ATOM      6  C   UNL     1      28.495  16.524   9.405  1.00  0.00     0.006 C 
BRANCH   6   7
ATOM      7  C   UNL     1      28.551  17.557  10.541  1.00  0.00     0.053 C 
BRANCH   7   8
ATOM      8  C   UNL     1      27.892  18.846  10.161  1.00  0.00     0.041 C 
ATOM      9  O   UNL     1      27.902  19.822  10.957  1.00  0.00    -0.550 OA
ATOM     10  O   UNL     1      27.299  18.984   8.912  1.00  0.00    -0.550 OA
ENDBRANCH   7   8
ENDBRANCH   6   7
ENDBRANCH   5   6
ENDBRANCH   4   5
ENDBRANCH   3   4
ENDBRANCH   2   3
ENDBRANCH   1   2
BRANCH   1  11
ATOM     11  C   UNL     1      29.118  18.005   4.066  1.00  0.00    -0.031 C 
ATOM     12  C   UNL     1      28.521  18.132   2.865  1.00  0.00    -0.027 C 
BRANCH  12  13
ATOM     13  C   UNL     1      29.129  18.812   1.663  1.00  0.00     0.054 C 
BRANCH  13  14
ATOM     14  C   UNL     1      28.122  19.022   0.562  1.00  0.00    -0.027 C 
ATOM     15  C   UNL     1      27.899  18.163  -0.450  1.00  0.00    -0.031 C 
BRANCH  15  16
ATOM     16  C   UNL     1      28.649  16.872  -0.671  1.00  0.00     0.027 C 
BRANCH  16  17
ATOM     17  C   UNL     1      27.916  15.961  -1.664  1.00  0.00     0.004 C 
BRANCH  17  18
ATOM     18  C   UNL     1      28.883  15.035  -2.420  1.00  0.00     0.000 C 
BRANCH  18  19
ATOM     19  C   UNL     1      30.175  15.751  -2.842  1.00  0.00    -0.003 C 
ATOM     20  C   UNL     1      31.384  15.334  -2.004  1.00  0.00     0.004 C 
ENDBRANCH  18  19
ENDBRANCH  17  18
ENDBRANCH  16  17
ENDBRANCH  15  16
ENDBRANCH  13  14
ENDBRANCH  12  13
ENDBRANCH   1  11
TORSDOF 14
ENDMDL
MODEL 5
REMARK VINA RESULT:     5.096      3.936      9.465
REMARK INTER + INTRA:           8.596
REMARK INTER:                   9.356
REMARK INTRA:                  -0.760
REMARK UNBOUND:                -0.670
REMARK SMILES CCCCCC=CCC=CCCCCCCCC(=O)[O-]
REMARK SMILES IDX 11 1 12 2 13 3 14 4 15 5 16 6 17 7 18 8 19 9 20 10 10 11
REMARK SMILES IDX 9 12 8 13 7 14 6 15 5 16 4 17 3 18 2 19 1 20
REMARK H PARENT
REMARK Flexibility Score: inf
ROOT
ATOM      1  C   UNL     1      30.350  18.655   4.643  1.00  0.00     0.027 C 
ENDROOT
BRANCH   1   2
ATOM      2  C   UNL     1      31.088  17.847   5.725  1.00  0.00     0.004 C 
BRANCH   2   3
ATOM      3  C   UNL     1      30.203  16.860   6.508  1.00  0.00     0.000 C 
BRANCH   3   4
ATOM      4  C   UNL     1      30.122  17.191   8.009  1.00  0.00     0.000 C 
BRANCH   4   5
ATOM      5  C   UNL     1      30.078  15.935   8.898  1.00  0.00     0.000 C 
BRANCH   5   6
ATOM      6  C   UNL     1      28.957  14.929   8.565  1.00  0.00     0.006 C 
BRANCH   6   7
ATOM      7  C   UNL     1      27.694  15.069   9.428  1.00  0.00     0.053 C 
BRANCH   7   8
ATOM      8  C   UNL     1      26.556  14.255   8.894  1.00  0.00     0.041 C 
ATOM      9  O   UNL     1      26.781  13.257   8.160  1.00  0.00    -0.550 OA
ATOM     10  O   UNL     1      25.248  14.577   9.236  1.00  0.00    -0.550 OA
ENDBRANCH   7   8
ENDBRANCH   6   7
ENDBRANCH   5   6
ENDBRANCH   4   5
ENDBRANCH   3   4
ENDBRANCH   2   3
ENDBRANCH   1   2
BRANCH   1  11
ATOM     11  C   UNL     1      29.116  17.941   4.143  1.00  0.00    -0.031 C 
ATOM     12  C   UNL     1      28.613  18.044   2.897  1.00  0.00    -0.027 C 
BRANCH  12  13
ATOM     13  C   UNL     1      29.234  18.838   1.775  1.00  0.00     0.054 C 
BRANCH  13  14
ATOM     14  C   UNL     1      28.256  19.103   0.660  1.00  0.00    -0.027 C 
ATOM     15  C   UNL     1      27.969  18.241  -0.333  1.00  0.00    -0.031 C 
BRANCH  15  16
ATOM     16  C   UNL     1      28.612  16.887  -0.518  1.00  0.00     0.027 C 
BRANCH  16  17
ATOM     17  C   UNL     1      27.908  16.077  -1.613  1.00  0.00     0.004 C 
BRANCH  17  18
ATOM     18  C   UNL     1      28.865  15.099  -2.312  1.00  0.00     0.000 C 
BRANCH  18  19
ATOM     19  C   UNL     1      30.148  15.784  -2.810  1.00  0.00    -0.003 C 
ATOM     20  C   UNL     1      31.393  15.337  -2.042  1.00  0.00     0.004 C 
ENDBRANCH  18  19
ENDBRANCH  17  18
ENDBRANCH  16  17
ENDBRANCH  15  16
ENDBRANCH  13  14
ENDBRANCH  12  13
ENDBRANCH   1  11
TORSDOF 14
ENDMDL
MODEL 6
REMARK VINA RESULT:     5.229      5.888      9.640
REMARK INTER + INTRA:           8.839
REMARK INTER:                   9.452
REMARK INTRA:                  -0.613
REMARK UNBOUND:                -0.670
REMARK SMILES CCCCCC=CCC=CCCCCCCCC(=O)[O-]
REMARK SMILES IDX 11 1 12 2 13 3 14 4 15 5 16 6 17 7 18 8 19 9 20 10 10 11
REMARK SMILES IDX 9 12 8 13 7 14 6 15 5 16 4 17 3 18 2 19 1 20
REMARK H PARENT
REMARK Flexibility Score: inf
ROOT
ATOM      1  C   UNL     1      29.108  15.004   8.883  1.00  0.00     0.027 C 
ENDROOT
BRANCH   1   2
ATOM      2  C   UNL     1      27.602  14.982   9.201  1.00  0.00     0.004 C 
BRANCH   2   3
ATOM      3  C   UNL     1      26.809  13.872   8.486  1.00  0.00     0.000 C 
BRANCH   3   4
ATOM      4  C   UNL     1      25.298  13.942   8.768  1.00  0.00     0.000 C 
BRANCH   4   5
ATOM      5  C   UNL     1      24.523  12.748   8.183  1.00  0.00     0.000 C 
BRANCH   5   6
ATOM      6  C   UNL     1      23.293  12.297   8.997  1.00  0.00     0.006 C 
BRANCH   6   7
ATOM      7  C   UNL     1      23.246  10.792   9.304  1.00  0.00     0.053 C 
BRANCH   7   8
ATOM      8  C   UNL     1      21.849  10.312   9.549  1.00  0.00     0.041 C 
ATOM      9  O   UNL     1      20.875  11.097   9.403  1.00  0.00    -0.550 OA
ATOM     10  O   UNL     1      21.619   8.988   9.902  1.00  0.00    -0.550 OA
ENDBRANCH   7   8
ENDBRANCH   6   7
ENDBRANCH   5   6
ENDBRANCH   4   5
ENDBRANCH   3   4
ENDBRANCH   2   3
ENDBRANCH   1   2
BRANCH   1  11
ATOM     11  C   UNL     1      29.703  16.383   9.042  1.00  0.00    -0.031 C 
ATOM     12  C   UNL     1      30.157  17.153   8.035  1.00  0.00    -0.027 C 
BRANCH  12  13
ATOM     13  C   UNL     1      30.089  16.793   6.571  1.00  0.00     0.054 C 
BRANCH  13  14
ATOM     14  C   UNL     1      31.101  17.552   5.753  1.00  0.00    -0.027 C 
ATOM     15  C   UNL     1      30.799  18.433   4.781  1.00  0.00    -0.031 C 
BRANCH  15  16
ATOM     16  C   UNL     1      29.401  18.771   4.321  1.00  0.00     0.027 C 
BRANCH  16  17
ATOM     17  C   UNL     1      29.051  18.051   3.013  1.00  0.00     0.004 C 
BRANCH  17  18
ATOM     18  C   UNL     1      29.281  18.945   1.784  1.00  0.00     0.000 C 
BRANCH  18  19
ATOM     19  C   UNL     1      28.195  18.764   0.712  1.00  0.00    -0.003 C 
ATOM     20  C   UNL     1      28.364  17.472  -0.089  1.00  0.00     0.004 C 
ENDBRANCH  18  19
ENDBRANCH  17  18
ENDBRANCH  16  17
ENDBRANCH  15  16
ENDBRANCH  13  14
ENDBRANCH  12  13
ENDBRANCH   1  11
TORSDOF 14
ENDMDL
MODEL 7
REMARK VINA RESULT:     5.515      3.401      5.022
REMARK INTER + INTRA:           9.358
REMARK INTER:                   9.958
REMARK INTRA:                  -0.600
REMARK UNBOUND:                -0.670
REMARK SMILES CCCCCC=CCC=CCCCCCCCC(=O)[O-]
REMARK SMILES IDX 11 1 12 2 13 3 14 4 15 5 16 6 17 7 18 8 19 9 20 10 10 11
REMARK SMILES IDX 9 12 8 13 7 14 6 15 5 16 4 17 3 18 2 19 1 20
REMARK H PARENT
REMARK Flexibility Score: inf
ROOT
ATOM      1  C   UNL     1      29.931  16.825   6.927  1.00  0.00     0.027 C 
ENDROOT
BRANCH   1   2
ATOM      2  C   UNL     1      31.135  17.571   6.327  1.00  0.00     0.004 C 
BRANCH   2   3
ATOM      3  C   UNL     1      30.821  18.390   5.061  1.00  0.00     0.000 C 
BRANCH   3   4
ATOM      4  C   UNL     1      29.468  18.018   4.430  1.00  0.00     0.000 C 
BRANCH   4   5
ATOM      5  C   UNL     1      29.159  18.825   3.156  1.00  0.00     0.000 C 
BRANCH   5   6
ATOM      6  C   UNL     1      28.487  18.031   2.018  1.00  0.00     0.006 C 
BRANCH   6   7
ATOM      7  C   UNL     1      28.902  18.465   0.604  1.00  0.00     0.053 C 
BRANCH   7   8
ATOM      8  C   UNL     1      28.087  17.786  -0.454  1.00  0.00     0.041 C 
ATOM      9  O   UNL     1      27.065  18.350  -0.925  1.00  0.00    -0.550 OA
ATOM     10  O   UNL     1      28.478  16.547  -0.947  1.00  0.00    -0.550 OA
ENDBRANCH   7   8
ENDBRANCH   6   7
ENDBRANCH   5   6
ENDBRANCH   4   5
ENDBRANCH   3   4
ENDBRANCH   2   3
ENDBRANCH   1   2
BRANCH   1  11
ATOM     11  C   UNL     1      30.181  16.393   8.353  1.00  0.00    -0.031 C 
ATOM     12  C   UNL     1      29.437  15.502   9.034  1.00  0.00    -0.027 C 
BRANCH  12  13
ATOM     13  C   UNL     1      28.266  14.736   8.468  1.00  0.00     0.054 C 
BRANCH  13  14
ATOM     14  C   UNL     1      27.014  14.933   9.282  1.00  0.00    -0.027 C 
ATOM     15  C   UNL     1      25.892  14.200   9.156  1.00  0.00    -0.031 C 
BRANCH  15  16
ATOM     16  C   UNL     1      25.690  13.090   8.152  1.00  0.00     0.027 C 
BRANCH  16  17
ATOM     17  C   UNL     1      24.203  12.763   7.970  1.00  0.00     0.004 C 
BRANCH  17  18
ATOM     18  C   UNL     1      23.540  12.336   9.290  1.00  0.00     0.000 C 
BRANCH  18  19
ATOM     19  C   UNL     1      22.316  11.434   9.071  1.00  0.00    -0.003 C 
ATOM     20  C   UNL     1      22.304  10.216   9.995  1.00  0.00     0.004 C 
ENDBRANCH  18  19
ENDBRANCH  17  18
ENDBRANCH  16  17
ENDBRANCH  15  16
ENDBRANCH  13  14
ENDBRANCH  12  13
ENDBRANCH   1  11
TORSDOF 14
ENDMDL
MODEL 8
REMARK VINA RESULT:     5.646      4.419      6.711
REMARK INTER + INTRA:           9.596
REMARK INTER:                  10.261
REMARK INTRA:                  -0.666
REMARK UNBOUND:                -0.670
REMARK SMILES CCCCCC=CCC=CCCCCCCCC(=O)[O-]
REMARK SMILES IDX 11 1 12 2 13 3 14 4 15 5 16 6 17 7 18 8 19 9 20 10 10 11
REMARK SMILES IDX 9 12 8 13 7 14 6 15 5 16 4 17 3 18 2 19 1 20
REMARK H PARENT
REMARK Flexibility Score: inf
ROOT
ATOM      1  C   UNL     1      28.654  16.477   8.969  1.00  0.00     0.027 C 
ENDROOT
BRANCH   1   2
ATOM      2  C   UNL     1      29.974  16.955   8.339  1.00  0.00     0.004 C 
BRANCH   2   3
ATOM      3  C   UNL     1      30.239  16.425   6.918  1.00  0.00     0.000 C 
BRANCH   3   4
ATOM      4  C   UNL     1      30.800  17.503   5.973  1.00  0.00     0.000 C 
BRANCH   4   5
ATOM      5  C   UNL     1      29.701  18.366   5.328  1.00  0.00     0.000 C 
BRANCH   5   6
ATOM      6  C   UNL     1      29.897  18.673   3.830  1.00  0.00     0.006 C 
BRANCH   6   7
ATOM      7  C   UNL     1      28.812  18.094   2.910  1.00  0.00     0.053 C 
BRANCH   7   8
ATOM      8  C   UNL     1      28.951  18.581   1.501  1.00  0.00     0.041 C 
ATOM      9  O   UNL     1      29.747  19.518   1.230  1.00  0.00    -0.550 OA
ATOM     10  O   UNL     1      28.230  17.974   0.480  1.00  0.00    -0.550 OA
ENDBRANCH   7   8
ENDBRANCH   6   7
ENDBRANCH   5   6
ENDBRANCH   4   5
ENDBRANCH   3   4
ENDBRANCH   2   3
ENDBRANCH   1   2
BRANCH   1  11
ATOM     11  C   UNL     1      28.750  15.060   9.483  1.00  0.00    -0.031 C 
ATOM     12  C   UNL     1      27.722  14.194   9.565  1.00  0.00    -0.027 C 
BRANCH  12  13
ATOM     13  C   UNL     1      26.315  14.473   9.096  1.00  0.00     0.054 C 
BRANCH  13  14
ATOM     14  C   UNL     1      25.879  13.519   8.014  1.00  0.00    -0.027 C 
ATOM     15  C   UNL     1      24.787  12.734   8.074  1.00  0.00    -0.031 C 
BRANCH  15  16
ATOM     16  C   UNL     1      23.845  12.650   9.251  1.00  0.00     0.027 C 
BRANCH  16  17
ATOM     17  C   UNL     1      22.650  11.738   8.948  1.00  0.00     0.004 C 
BRANCH  17  18
ATOM     18  C   UNL     1      22.516  10.602   9.976  1.00  0.00     0.000 C 
BRANCH  18  19
ATOM     19  C   UNL     1      21.485   9.544   9.554  1.00  0.00    -0.003 C 
ATOM     20  C   UNL     1      21.948   8.116   9.847  1.00  0.00     0.004 C 
ENDBRANCH  18  19
ENDBRANCH  17  18
ENDBRANCH  16  17
ENDBRANCH  15  16
ENDBRANCH  13  14
ENDBRANCH  12  13
ENDBRANCH   1  11
TORSDOF 14
ENDMDL
MODEL 9
REMARK VINA RESULT:     5.899      2.037      3.342
REMARK INTER + INTRA:          10.056
REMARK INTER:                  10.657
REMARK INTRA:                  -0.601
REMARK UNBOUND:                -0.670
REMARK SMILES CCCCCC=CCC=CCCCCCCCC(=O)[O-]
REMARK SMILES IDX 11 1 12 2 13 3 14 4 15 5 16 6 17 7 18 8 19 9 20 10 10 11
REMARK SMILES IDX 9 12 8 13 7 14 6 15 5 16 4 17 3 18 2 19 1 20
REMARK H PARENT
REMARK Flexibility Score: inf
ROOT
ATOM      1  C   UNL     1      30.957  17.823   6.145  1.00  0.00     0.027 C 
ENDROOT
BRANCH   1   2
ATOM      2  C   UNL     1      30.909  18.379   4.711  1.00  0.00     0.004 C 
BRANCH   2   3
ATOM      3  C   UNL     1      29.517  18.350   4.054  1.00  0.00     0.000 C 
BRANCH   3   4
ATOM      4  C   UNL     1      29.514  18.940   2.634  1.00  0.00     0.000 C 
BRANCH   4   5
ATOM      5  C   UNL     1      28.514  18.241   1.695  1.00  0.00     0.000 C 
BRANCH   5   6
ATOM      6  C   UNL     1      29.018  17.991   0.260  1.00  0.00     0.006 C 
BRANCH   6   7
ATOM      7  C   UNL     1      28.100  17.107  -0.597  1.00  0.00     0.053 C 
BRANCH   7   8
ATOM      8  C   UNL     1      28.876  16.164  -1.463  1.00  0.00     0.041 C 
ATOM      9  O   UNL     1      28.276  15.300  -2.155  1.00  0.00    -0.550 OA
ATOM     10  O   UNL     1      30.260  16.263  -1.535  1.00  0.00    -0.550 OA
ENDBRANCH   7   8
ENDBRANCH   6   7
ENDBRANCH   5   6
ENDBRANCH   4   5
ENDBRANCH   3   4
ENDBRANCH   2   3
ENDBRANCH   1   2
BRANCH   1  11
ATOM     11  C   UNL     1      30.235  16.502   6.267  1.00  0.00    -0.031 C 
ATOM     12  C   UNL     1      29.878  15.918   7.428  1.00  0.00    -0.027 C 
BRANCH  12  13
ATOM     13  C   UNL     1      30.082  16.517   8.797  1.00  0.00     0.054 C 
BRANCH  13  14
ATOM     14  C   UNL     1      28.786  16.974   9.414  1.00  0.00    -0.027 C 
ATOM     15  C   UNL     1      27.785  16.158   9.795  1.00  0.00    -0.031 C 
BRANCH  15  16
ATOM     16  C   UNL     1      27.780  14.657   9.627  1.00  0.00     0.027 C 
BRANCH  16  17
ATOM     17  C   UNL     1      26.837  14.223   8.498  1.00  0.00     0.004 C 
BRANCH  17  18
ATOM     18  C   UNL     1      25.425  13.907   9.016  1.00  0.00     0.000 C 
BRANCH  18  19
ATOM     19  C   UNL     1      24.674  12.915   8.113  1.00  0.00    -0.003 C 
ATOM     20  C   UNL     1      23.497  12.244   8.820  1.00  0.00     0.004 C 
ENDBRANCH  18  19
ENDBRANCH  17  18
ENDBRANCH  16  17
ENDBRANCH  15  16
ENDBRANCH  13  14
ENDBRANCH  12  13
ENDBRANCH   1  11
TORSDOF 14
ENDMDL
