MODEL 1
REMARK VINA RESULT:    -3.478      0.000      0.000
REMARK INTER + INTRA:          -5.535
REMARK INTER:                  -5.104
REMARK INTRA:                  -0.431
REMARK UNBOUND:                -0.431
REMARK SMILES O=C([O-])CCCCCCCC(=O)[O-]
REMARK SMILES IDX 7 1 6 2 5 3 4 4 2 5 1 6 3 7 8 8 9 9 10 10 11 11 12 12 13 13
REMARK H PARENT
REMARK Flexibility Score: inf
ROOT
ATOM      1  C   UNL     1      -5.930  -7.132  -6.159  1.00  0.00     0.000 C 
ENDROOT
BRANCH   1   2
ATOM      2  C   UNL     1      -5.149  -6.373  -7.241  1.00  0.00     0.000 C 
BRANCH   2   3
ATOM      3  C   UNL     1      -3.999  -7.231  -7.792  1.00  0.00     0.006 C 
BRANCH   3   4
ATOM      4  C   UNL     1      -4.337  -7.848  -9.155  1.00  0.00     0.053 C 
BRANCH   4   5
ATOM      5  C   UNL     1      -4.241  -9.344  -9.127  1.00  0.00     0.041 C 
ATOM      6  O   UNL     1      -5.286 -10.046  -9.125  1.00  0.00    -0.550 OA
ATOM      7  O   UNL     1      -2.997  -9.961  -9.137  1.00  0.00    -0.550 OA
ENDBRANCH   4   5
ENDBRANCH   3   4
ENDBRANCH   2   3
ENDBRANCH   1   2
BRANCH   1   8
ATOM      8  C   UNL     1      -7.163  -7.868  -6.713  1.00  0.00     0.000 C 
BRANCH   8   9
ATOM      9  C   UNL     1      -8.504  -7.127  -6.527  1.00  0.00     0.006 C 
BRANCH   9  10
ATOM     10  C   UNL     1      -8.906  -6.230  -7.708  1.00  0.00     0.053 C 
BRANCH  10  11
ATOM     11  C   UNL     1      -9.528  -4.946  -7.252  1.00  0.00     0.041 C 
ATOM     12  O   UNL     1      -9.485  -3.925  -7.988  1.00  0.00    -0.550 OA
ATOM     13  O   UNL     1     -10.123  -4.867  -5.999  1.00  0.00    -0.550 OA
ENDBRANCH  10  11
ENDBRANCH   9  10
ENDBRANCH   8   9
ENDBRANCH   1   8
TORSDOF 8
ENDMDL
MODEL 2
REMARK VINA RESULT:    -3.346      2.066      6.348
REMARK INTER + INTRA:          -5.342
REMARK INTER:                  -4.933
REMARK INTRA:                  -0.409
REMARK UNBOUND:                -0.431
REMARK SMILES O=C([O-])CCCCCCCC(=O)[O-]
REMARK SMILES IDX 7 1 6 2 5 3 4 4 2 5 1 6 3 7 8 8 9 9 10 10 11 11 12 12 13 13
REMARK H PARENT
REMARK Flexibility Score: inf
ROOT
ATOM      1  C   UNL     1      -8.508  -7.688  -7.030  1.00  0.00     0.000 C 
ENDROOT
BRANCH   1   2
ATOM      2  C   UNL     1      -8.941  -6.588  -6.050  1.00  0.00     0.000 C 
BRANCH   2   3
ATOM      3  C   UNL     1     -10.125  -5.786  -6.613  1.00  0.00     0.006 C 
BRANCH   3   4
ATOM      4  C   UNL     1      -9.685  -4.445  -7.213  1.00  0.00     0.053 C 
BRANCH   4   5
ATOM      5  C   UNL     1      -9.973  -4.373  -8.682  1.00  0.00     0.041 C 
ATOM      6  O   UNL     1     -10.108  -5.429  -9.354  1.00  0.00    -0.550 OA
ATOM      7  O   UNL     1     -10.125  -3.139  -9.301  1.00  0.00    -0.550 OA
ENDBRANCH   4   5
ENDBRANCH   3   4
ENDBRANCH   2   3
ENDBRANCH   1   2
BRANCH   1   8
ATOM      8  C   UNL     1      -7.055  -7.523  -7.515  1.00  0.00     0.000 C 
BRANCH   8   9
ATOM      9  C   UNL     1      -5.980  -7.683  -6.420  1.00  0.00     0.006 C 
BRANCH   9  10
ATOM     10  C   UNL     1      -5.296  -9.059  -6.396  1.00  0.00     0.053 C 
BRANCH  10  11
ATOM     11  C   UNL     1      -3.844  -8.971  -6.755  1.00  0.00     0.041 C 
ATOM     12  O   UNL     1      -3.012  -9.751  -6.221  1.00  0.00    -0.550 OA
ATOM     13  O   UNL     1      -3.406  -8.005  -7.652  1.00  0.00    -0.550 OA
ENDBRANCH  10  11
ENDBRANCH   9  10
ENDBRANCH   8   9
ENDBRANCH   1   8
TORSDOF 8
ENDMDL
MODEL 3
REMARK VINA RESULT:    -3.303      2.097      2.578
REMARK INTER + INTRA:          -5.279
REMARK INTER:                  -4.522
REMARK INTRA:                  -0.757
REMARK UNBOUND:                -0.431
REMARK SMILES O=C([O-])CCCCCCCC(=O)[O-]
REMARK SMILES IDX 7 1 6 2 5 3 4 4 2 5 1 6 3 7 8 8 9 9 10 10 11 11 12 12 13 13
REMARK H PARENT
REMARK Flexibility Score: inf
ROOT
ATOM      1  C   UNL     1      -5.829  -7.155  -6.028  1.00  0.00     0.000 C 
ENDROOT
BRANCH   1   2
ATOM      2  C   UNL     1      -5.327  -6.393  -7.263  1.00  0.00     0.000 C 
BRANCH   2   3
ATOM      3  C   UNL     1      -4.018  -7.003  -7.789  1.00  0.00     0.006 C 
BRANCH   3   4
ATOM      4  C   UNL     1      -4.245  -7.899  -9.013  1.00  0.00     0.053 C 
BRANCH   4   5
ATOM      5  C   UNL     1      -4.203  -9.353  -8.653  1.00  0.00     0.041 C 
ATOM      6  O   UNL     1      -3.106  -9.969  -8.633  1.00  0.00    -0.550 OA
ATOM      7  O   UNL     1      -5.373 -10.017  -8.307  1.00  0.00    -0.550 OA
ENDBRANCH   4   5
ENDBRANCH   3   4
ENDBRANCH   2   3
ENDBRANCH   1   2
BRANCH   1   8
ATOM      8  C   UNL     1      -7.348  -7.403  -6.052  1.00  0.00     0.000 C 
BRANCH   8   9
ATOM      9  C   UNL     1      -8.154  -6.434  -6.943  1.00  0.00     0.006 C 
BRANCH   9  10
ATOM     10  C   UNL     1      -9.153  -7.119  -7.888  1.00  0.00     0.053 C 
BRANCH  10  11
ATOM     11  C   UNL     1      -8.484  -8.111  -8.789  1.00  0.00     0.041 C 
ATOM     12  O   UNL     1      -8.700  -9.344  -8.645  1.00  0.00    -0.550 OA
ATOM     13  O   UNL     1      -7.594  -7.677  -9.764  1.00  0.00    -0.550 OA
ENDBRANCH  10  11
ENDBRANCH   9  10
ENDBRANCH   8   9
ENDBRANCH   1   8
TORSDOF 8
ENDMDL
MODEL 4
REMARK VINA RESULT:    -3.238      1.801      2.295
REMARK INTER + INTRA:          -5.183
REMARK INTER:                  -4.562
REMARK INTRA:                  -0.621
REMARK UNBOUND:                -0.431
REMARK SMILES O=C([O-])CCCCCCCC(=O)[O-]
REMARK SMILES IDX 7 1 6 2 5 3 4 4 2 5 1 6 3 7 8 8 9 9 10 10 11 11 12 12 13 13
REMARK H PARENT
REMARK Flexibility Score: inf
ROOT
ATOM      1  C   UNL     1      -7.800  -8.763  -8.008  1.00  0.00     0.000 C 
ENDROOT
BRANCH   1   2
ATOM      2  C   UNL     1      -6.551  -9.233  -8.768  1.00  0.00     0.000 C 
BRANCH   2   3
ATOM      3  C   UNL     1      -5.967  -8.095  -9.620  1.00  0.00     0.006 C 
BRANCH   3   4
ATOM      4  C   UNL     1      -4.459  -7.918  -9.398  1.00  0.00     0.053 C 
BRANCH   4   5
ATOM      5  C   UNL     1      -4.154  -7.452  -8.007  1.00  0.00     0.041 C 
ATOM      6  O   UNL     1      -4.631  -6.366  -7.583  1.00  0.00    -0.550 OA
ATOM      7  O   UNL     1      -3.371  -8.234  -7.167  1.00  0.00    -0.550 OA
ENDBRANCH   4   5
ENDBRANCH   3   4
ENDBRANCH   2   3
ENDBRANCH   1   2
BRANCH   1   8
ATOM      8  C   UNL     1      -7.492  -8.311  -6.569  1.00  0.00     0.000 C 
BRANCH   8   9
ATOM      9  C   UNL     1      -7.797  -6.828  -6.271  1.00  0.00     0.006 C 
BRANCH   9  10
ATOM     10  C   UNL     1      -9.278  -6.441  -6.412  1.00  0.00     0.053 C 
BRANCH  10  11
ATOM     11  C   UNL     1      -9.500  -5.469  -7.530  1.00  0.00     0.041 C 
ATOM     12  O   UNL     1      -9.644  -5.884  -8.711  1.00  0.00    -0.550 OA
ATOM     13  O   UNL     1      -9.513  -4.104  -7.274  1.00  0.00    -0.550 OA
ENDBRANCH  10  11
ENDBRANCH   9  10
ENDBRANCH   8   9
ENDBRANCH   1   8
TORSDOF 8
ENDMDL
MODEL 5
REMARK VINA RESULT:    -3.165      1.771      2.582
REMARK INTER + INTRA:          -5.076
REMARK INTER:                  -4.846
REMARK INTRA:                  -0.230
REMARK UNBOUND:                -0.431
REMARK SMILES O=C([O-])CCCCCCCC(=O)[O-]
REMARK SMILES IDX 7 1 6 2 5 3 4 4 2 5 1 6 3 7 8 8 9 9 10 10 11 11 12 12 13 13
REMARK H PARENT
REMARK Flexibility Score: inf
ROOT
ATOM      1  C   UNL     1      -7.678  -6.717  -5.989  1.00  0.00     0.000 C 
ENDROOT
BRANCH   1   2
ATOM      2  C   UNL     1      -6.985  -8.035  -5.616  1.00  0.00     0.000 C 
BRANCH   2   3
ATOM      3  C   UNL     1      -5.694  -8.225  -6.427  1.00  0.00     0.006 C 
BRANCH   3   4
ATOM      4  C   UNL     1      -5.338  -6.981  -7.252  1.00  0.00     0.053 C 
BRANCH   4   5
ATOM      5  C   UNL     1      -4.589  -7.338  -8.500  1.00  0.00     0.041 C 
ATOM      6  O   UNL     1      -3.347  -7.538  -8.458  1.00  0.00    -0.550 OA
ATOM      7  O   UNL     1      -5.271  -7.483  -9.701  1.00  0.00    -0.550 OA
ENDBRANCH   4   5
ENDBRANCH   3   4
ENDBRANCH   2   3
ENDBRANCH   1   2
BRANCH   1   8
ATOM      8  C   UNL     1      -9.208  -6.852  -6.094  1.00  0.00     0.000 C 
BRANCH   8   9
ATOM      9  C   UNL     1      -9.968  -5.526  -6.305  1.00  0.00     0.006 C 
BRANCH   9  10
ATOM     10  C   UNL     1      -9.383  -4.624  -7.404  1.00  0.00     0.053 C 
BRANCH  10  11
ATOM     11  C   UNL     1      -9.906  -4.982  -8.761  1.00  0.00     0.041 C 
ATOM     12  O   UNL     1     -10.124  -6.186  -9.059  1.00  0.00    -0.550 OA
ATOM     13  O   UNL     1     -10.120  -3.989  -9.710  1.00  0.00    -0.550 OA
ENDBRANCH  10  11
ENDBRANCH   9  10
ENDBRANCH   8   9
ENDBRANCH   1   8
TORSDOF 8
ENDMDL
MODEL 6
REMARK VINA RESULT:    -2.986      1.808      2.500
REMARK INTER + INTRA:          -4.814
REMARK INTER:                  -4.145
REMARK INTRA:                  -0.669
REMARK UNBOUND:                -0.431
REMARK SMILES O=C([O-])CCCCCCCC(=O)[O-]
REMARK SMILES IDX 7 1 6 2 5 3 4 4 2 5 1 6 3 7 8 8 9 9 10 10 11 11 12 12 13 13
REMARK H PARENT
REMARK Flexibility Score: inf
ROOT
ATOM      1  C   UNL     1      -7.500  -9.184  -6.191  1.00  0.00     0.000 C 
ENDROOT
BRANCH   1   2
ATOM      2  C   UNL     1      -6.150  -9.873  -5.943  1.00  0.00     0.000 C 
BRANCH   2   3
ATOM      3  C   UNL     1      -4.999  -8.857  -5.986  1.00  0.00     0.006 C 
BRANCH   3   4
ATOM      4  C   UNL     1      -4.117  -9.031  -7.230  1.00  0.00     0.053 C 
BRANCH   4   5
ATOM      5  C   UNL     1      -4.031  -7.768  -8.031  1.00  0.00     0.041 C 
ATOM      6  O   UNL     1      -3.391  -7.748  -9.115  1.00  0.00    -0.550 OA
ATOM      7  O   UNL     1      -4.688  -6.624  -7.597  1.00  0.00    -0.550 OA
ENDBRANCH   4   5
ENDBRANCH   3   4
ENDBRANCH   2   3
ENDBRANCH   1   2
BRANCH   1   8
ATOM      8  C   UNL     1      -7.759  -8.891  -7.681  1.00  0.00     0.000 C 
BRANCH   8   9
ATOM      9  C   UNL     1      -8.029  -7.411  -8.018  1.00  0.00     0.006 C 
BRANCH   9  10
ATOM     10  C   UNL     1      -8.189  -6.496  -6.793  1.00  0.00     0.053 C 
BRANCH  10  11
ATOM     11  C   UNL     1      -9.404  -5.626  -6.896  1.00  0.00     0.041 C 
ATOM     12  O   UNL     1     -10.125  -5.423  -5.883  1.00  0.00    -0.550 OA
ATOM     13  O   UNL     1      -9.759  -5.069  -8.117  1.00  0.00    -0.550 OA
ENDBRANCH  10  11
ENDBRANCH   9  10
ENDBRANCH   8   9
ENDBRANCH   1   8
TORSDOF 8
ENDMDL
MODEL 7
REMARK VINA RESULT:    -1.495     16.310     17.277
REMARK INTER + INTRA:          -2.625
REMARK INTER:                  -2.816
REMARK INTRA:                   0.191
REMARK UNBOUND:                -0.431
REMARK SMILES O=C([O-])CCCCCCCC(=O)[O-]
REMARK SMILES IDX 7 1 6 2 5 3 4 4 2 5 1 6 3 7 8 8 9 9 10 10 11 11 12 12 13 13
REMARK H PARENT
REMARK Flexibility Score: inf
ROOT
ATOM      1  C   UNL     1      -0.218   8.183  -9.135  1.00  0.00     0.000 C 
ENDROOT
BRANCH   1   2
ATOM      2  C   UNL     1      -0.008   6.856  -8.391  1.00  0.00     0.000 C 
BRANCH   2   3
ATOM      3  C   UNL     1       1.385   6.277  -8.685  1.00  0.00     0.006 C 
BRANCH   3   4
ATOM      4  C   UNL     1       1.868   6.618 -10.100  1.00  0.00     0.053 C 
BRANCH   4   5
ATOM      5  C   UNL     1       3.083   7.495 -10.076  1.00  0.00     0.041 C 
ATOM      6  O   UNL     1       4.234   6.986 -10.121  1.00  0.00    -0.550 OA
ATOM      7  O   UNL     1       2.942   8.876 -10.040  1.00  0.00    -0.550 OA
ENDBRANCH   4   5
ENDBRANCH   3   4
ENDBRANCH   2   3
ENDBRANCH   1   2
BRANCH   1   8
ATOM      8  C   UNL     1      -1.704   8.551  -9.298  1.00  0.00     0.000 C 
BRANCH   8   9
ATOM      9  C   UNL     1      -2.071   9.989  -8.877  1.00  0.00     0.006 C 
BRANCH   9  10
ATOM     10  C   UNL     1      -2.567  10.123  -7.429  1.00  0.00     0.053 C 
BRANCH  10  11
ATOM     11  C   UNL     1      -1.445  10.042  -6.441  1.00  0.00     0.041 C 
ATOM     12  O   UNL     1      -1.691   9.959  -5.209  1.00  0.00    -0.550 OA
ATOM     13  O   UNL     1      -0.127  10.095  -6.878  1.00  0.00    -0.550 OA
ENDBRANCH  10  11
ENDBRANCH   9  10
ENDBRANCH   8   9
ENDBRANCH   1   8
TORSDOF 8
ENDMDL
MODEL 8
REMARK VINA RESULT:    -1.180     16.058     17.869
REMARK INTER + INTRA:          -2.163
REMARK INTER:                  -1.772
REMARK INTRA:                  -0.391
REMARK UNBOUND:                -0.431
REMARK SMILES O=C([O-])CCCCCCCC(=O)[O-]
REMARK SMILES IDX 7 1 6 2 5 3 4 4 2 5 1 6 3 7 8 8 9 9 10 10 11 11 12 12 13 13
REMARK H PARENT
REMARK Flexibility Score: inf
ROOT
ATOM      1  C   UNL     1       0.196   9.808  -7.016  1.00  0.00     0.000 C 
ENDROOT
BRANCH   1   2
ATOM      2  C   UNL     1      -1.284   9.875  -6.613  1.00  0.00     0.000 C 
BRANCH   2   3
ATOM      3  C   UNL     1      -1.430  10.119  -5.103  1.00  0.00     0.006 C 
BRANCH   3   4
ATOM      4  C   UNL     1      -0.929   8.930  -4.271  1.00  0.00     0.053 C 
BRANCH   4   5
ATOM      5  C   UNL     1      -1.178   9.132  -2.808  1.00  0.00     0.041 C 
ATOM      6  O   UNL     1      -1.842  10.125  -2.409  1.00  0.00    -0.550 OA
ATOM      7  O   UNL     1      -0.705   8.206  -1.888  1.00  0.00    -0.550 OA
ENDBRANCH   4   5
ENDBRANCH   3   4
ENDBRANCH   2   3
ENDBRANCH   1   2
BRANCH   1   8
ATOM      8  C   UNL     1       0.399   9.448  -8.500  1.00  0.00     0.000 C 
BRANCH   8   9
ATOM      9  C   UNL     1      -0.635   8.461  -9.080  1.00  0.00     0.006 C 
BRANCH   9  10
ATOM     10  C   UNL     1      -0.039   7.140  -9.589  1.00  0.00     0.053 C 
BRANCH  10  11
ATOM     11  C   UNL     1       1.052   6.635  -8.695  1.00  0.00     0.041 C 
ATOM     12  O   UNL     1       2.246   6.627  -9.096  1.00  0.00    -0.550 OA
ATOM     13  O   UNL     1       0.746   6.138  -7.435  1.00  0.00    -0.550 OA
ENDBRANCH  10  11
ENDBRANCH   9  10
ENDBRANCH   8   9
ENDBRANCH   1   8
TORSDOF 8
ENDMDL
