MODEL 1
REMARK VINA RESULT:    -4.431      0.000      0.000
REMARK INTER + INTRA:          -4.561
REMARK INTER:                  -4.561
REMARK INTRA:                   0.000
REMARK UNBOUND:                 0.000
REMARK SMILES Cc1ccccc1O
REMARK SMILES IDX 1 1 2 2 3 3 4 4 5 5 6 6 7 7 8 8
REMARK H PARENT 8 9
REMARK Flexibility Score: inf
ROOT
ATOM      1  C   UNL     1     -31.081 -22.090 -33.483  1.00  0.00     0.048 C 
ATOM      2  C   UNL     1     -30.303 -21.334 -32.441  1.00  0.00    -0.009 A 
ATOM      3  C   UNL     1     -30.709 -21.387 -31.096  1.00  0.00     0.007 A 
ATOM      4  C   UNL     1     -29.999 -20.693 -30.113  1.00  0.00     0.001 A 
ATOM      5  C   UNL     1     -28.878 -19.938 -30.462  1.00  0.00     0.004 A 
ATOM      6  C   UNL     1     -28.463 -19.877 -31.794  1.00  0.00     0.046 A 
ATOM      7  C   UNL     1     -29.165 -20.568 -32.789  1.00  0.00     0.118 A 
ENDROOT
BRANCH   7   8
ATOM      8  O   UNL     1     -28.711 -20.476 -34.107  1.00  0.00    -0.508 OA
ATOM      9  H   UNL     1     -28.469 -19.597 -34.546  1.00  0.00     0.293 HD
ENDBRANCH   7   8
TORSDOF 1
ENDMDL
MODEL 2
REMARK VINA RESULT:    -4.059      1.778      2.793
REMARK INTER + INTRA:          -4.177
REMARK INTER:                  -4.177
REMARK INTRA:                   0.000
REMARK UNBOUND:                 0.000
REMARK SMILES Cc1ccccc1O
REMARK SMILES IDX 1 1 2 2 3 3 4 4 5 5 6 6 7 7 8 8
REMARK H PARENT 8 9
REMARK Flexibility Score: inf
ROOT
ATOM      1  C   UNL     1     -30.718 -21.267 -29.568  1.00  0.00     0.048 C 
ATOM      2  C   UNL     1     -30.053 -20.885 -30.862  1.00  0.00    -0.009 A 
ATOM      3  C   UNL     1     -30.678 -21.193 -32.083  1.00  0.00     0.007 A 
ATOM      4  C   UNL     1     -30.076 -20.846 -33.295  1.00  0.00     0.001 A 
ATOM      5  C   UNL     1     -28.845 -20.188 -33.302  1.00  0.00     0.004 A 
ATOM      6  C   UNL     1     -28.213 -19.875 -32.096  1.00  0.00     0.046 A 
ATOM      7  C   UNL     1     -28.805 -20.217 -30.874  1.00  0.00     0.118 A 
ENDROOT
BRANCH   7   8
ATOM      8  O   UNL     1     -28.133 -19.883 -29.695  1.00  0.00    -0.508 OA
ATOM      9  H   UNL     1     -27.690 -18.986 -29.549  1.00  0.00     0.293 HD
ENDBRANCH   7   8
TORSDOF 1
ENDMDL
MODEL 3
REMARK VINA RESULT:    -3.990      2.318      3.354
REMARK INTER + INTRA:          -4.107
REMARK INTER:                  -4.107
REMARK INTRA:                   0.000
REMARK UNBOUND:                 0.000
REMARK SMILES Cc1ccccc1O
REMARK SMILES IDX 1 1 2 2 3 3 4 4 5 5 6 6 7 7 8 8
REMARK H PARENT 8 9
REMARK Flexibility Score: inf
ROOT
ATOM      1  C   UNL     1     -31.922 -19.885 -29.388  1.00  0.00     0.048 C 
ATOM      2  C   UNL     1     -31.214 -20.429 -30.599  1.00  0.00    -0.009 A 
ATOM      3  C   UNL     1     -31.477 -19.875 -31.865  1.00  0.00     0.007 A 
ATOM      4  C   UNL     1     -30.830 -20.366 -33.001  1.00  0.00     0.001 A 
ATOM      5  C   UNL     1     -29.915 -21.414 -32.888  1.00  0.00     0.004 A 
ATOM      6  C   UNL     1     -29.645 -21.973 -31.637  1.00  0.00     0.046 A 
ATOM      7  C   UNL     1     -30.285 -21.491 -30.489  1.00  0.00     0.118 A 
ENDROOT
BRANCH   7   8
ATOM      8  O   UNL     1     -29.981 -22.083 -29.261  1.00  0.00    -0.508 OA
ATOM      9  H   UNL     1     -29.059 -22.052 -28.848  1.00  0.00     0.293 HD
ENDBRANCH   7   8
TORSDOF 1
ENDMDL
MODEL 4
REMARK VINA RESULT:    -3.824      5.802      6.806
REMARK INTER + INTRA:          -3.936
REMARK INTER:                  -3.936
REMARK INTRA:                   0.000
REMARK UNBOUND:                 0.000
REMARK SMILES Cc1ccccc1O
REMARK SMILES IDX 1 1 2 2 3 3 4 4 5 5 6 6 7 7 8 8
REMARK H PARENT 8 9
REMARK Flexibility Score: inf
ROOT
ATOM      1  C   UNL     1     -34.069 -21.384 -36.131  1.00  0.00     0.048 C 
ATOM      2  C   UNL     1     -33.123 -22.387 -36.734  1.00  0.00    -0.009 A 
ATOM      3  C   UNL     1     -32.797 -22.303 -38.099  1.00  0.00     0.007 A 
ATOM      4  C   UNL     1     -31.921 -23.224 -38.676  1.00  0.00     0.001 A 
ATOM      5  C   UNL     1     -31.361 -24.240 -37.899  1.00  0.00     0.004 A 
ATOM      6  C   UNL     1     -31.675 -24.335 -36.542  1.00  0.00     0.046 A 
ATOM      7  C   UNL     1     -32.552 -23.417 -35.949  1.00  0.00     0.118 A 
ENDROOT
BRANCH   7   8
ATOM      8  O   UNL     1     -32.836 -23.555 -34.588  1.00  0.00    -0.508 OA
ATOM      9  H   UNL     1     -32.850 -22.773 -33.947  1.00  0.00     0.293 HD
ENDBRANCH   7   8
TORSDOF 1
ENDMDL
MODEL 5
REMARK VINA RESULT:    -3.792     21.746     22.432
REMARK INTER + INTRA:          -3.903
REMARK INTER:                  -3.903
REMARK INTRA:                   0.000
REMARK UNBOUND:                 0.000
REMARK SMILES Cc1ccccc1O
REMARK SMILES IDX 1 1 2 2 3 3 4 4 5 5 6 6 7 7 8 8
REMARK H PARENT 8 9
REMARK Flexibility Score: inf
ROOT
ATOM      1  C   UNL     1     -15.951 -36.510 -39.125  1.00  0.00     0.048 C 
ATOM      2  C   UNL     1     -16.766 -37.713 -38.735  1.00  0.00    -0.009 A 
ATOM      3  C   UNL     1     -16.164 -38.983 -38.715  1.00  0.00     0.007 A 
ATOM      4  C   UNL     1     -16.905 -40.112 -38.355  1.00  0.00     0.001 A 
ATOM      5  C   UNL     1     -18.252 -39.986 -38.012  1.00  0.00     0.004 A 
ATOM      6  C   UNL     1     -18.862 -38.729 -38.027  1.00  0.00     0.046 A 
ATOM      7  C   UNL     1     -18.132 -37.589 -38.385  1.00  0.00     0.118 A 
ENDROOT
BRANCH   7   8
ATOM      8  O   UNL     1     -18.787 -36.356 -38.386  1.00  0.00    -0.508 OA
ATOM      9  H   UNL     1     -18.662 -35.665 -39.114  1.00  0.00     0.293 HD
ENDBRANCH   7   8
TORSDOF 1
ENDMDL
MODEL 6
REMARK VINA RESULT:    -3.696      5.138      6.206
REMARK INTER + INTRA:          -3.805
REMARK INTER:                  -3.805
REMARK INTRA:                   0.000
REMARK UNBOUND:                 0.000
REMARK SMILES Cc1ccccc1O
REMARK SMILES IDX 1 1 2 2 3 3 4 4 5 5 6 6 7 7 8 8
REMARK H PARENT 8 9
REMARK Flexibility Score: inf
ROOT
ATOM      1  C   UNL     1     -31.147 -24.764 -37.635  1.00  0.00     0.048 C 
ATOM      2  C   UNL     1     -31.925 -23.662 -36.969  1.00  0.00    -0.009 A 
ATOM      3  C   UNL     1     -31.854 -23.507 -35.573  1.00  0.00     0.007 A 
ATOM      4  C   UNL     1     -32.569 -22.489 -34.937  1.00  0.00     0.001 A 
ATOM      5  C   UNL     1     -33.362 -21.617 -35.684  1.00  0.00     0.004 A 
ATOM      6  C   UNL     1     -33.441 -21.760 -37.072  1.00  0.00     0.046 A 
ATOM      7  C   UNL     1     -32.729 -22.775 -37.724  1.00  0.00     0.118 A 
ENDROOT
BRANCH   7   8
ATOM      8  O   UNL     1     -32.841 -22.877 -39.112  1.00  0.00    -0.508 OA
ATOM      9  H   UNL     1     -32.278 -22.333 -39.752  1.00  0.00     0.293 HD
ENDBRANCH   7   8
TORSDOF 1
ENDMDL
MODEL 7
REMARK VINA RESULT:    -3.579      1.972      2.506
REMARK INTER + INTRA:          -3.683
REMARK INTER:                  -3.683
REMARK INTRA:                   0.000
REMARK UNBOUND:                 0.000
REMARK SMILES Cc1ccccc1O
REMARK SMILES IDX 1 1 2 2 3 3 4 4 5 5 6 6 7 7 8 8
REMARK H PARENT 8 9
REMARK Flexibility Score: inf
ROOT
ATOM      1  C   UNL     1     -31.403 -22.508 -33.872  1.00  0.00     0.048 C 
ATOM      2  C   UNL     1     -30.768 -21.831 -32.689  1.00  0.00    -0.009 A 
ATOM      3  C   UNL     1     -30.274 -20.521 -32.820  1.00  0.00     0.007 A 
ATOM      4  C   UNL     1     -29.681 -19.875 -31.733  1.00  0.00     0.001 A 
ATOM      5  C   UNL     1     -29.573 -20.528 -30.504  1.00  0.00     0.004 A 
ATOM      6  C   UNL     1     -30.060 -21.830 -30.360  1.00  0.00     0.046 A 
ATOM      7  C   UNL     1     -30.657 -22.489 -31.441  1.00  0.00     0.118 A 
ENDROOT
BRANCH   7   8
ATOM      8  O   UNL     1     -31.128 -23.790 -31.246  1.00  0.00    -0.508 OA
ATOM      9  H   UNL     1     -31.292 -24.185 -30.330  1.00  0.00     0.293 HD
ENDBRANCH   7   8
TORSDOF 1
ENDMDL
MODEL 8
REMARK VINA RESULT:    -3.535      5.037      6.869
REMARK INTER + INTRA:          -3.638
REMARK INTER:                  -3.638
REMARK INTRA:                   0.000
REMARK UNBOUND:                 0.000
REMARK SMILES Cc1ccccc1O
REMARK SMILES IDX 1 1 2 2 3 3 4 4 5 5 6 6 7 7 8 8
REMARK H PARENT 8 9
REMARK Flexibility Score: inf
ROOT
ATOM      1  C   UNL     1     -32.192 -23.262 -35.028  1.00  0.00     0.048 C 
ATOM      2  C   UNL     1     -32.438 -22.877 -36.461  1.00  0.00    -0.009 A 
ATOM      3  C   UNL     1     -33.509 -22.023 -36.777  1.00  0.00     0.007 A 
ATOM      4  C   UNL     1     -33.753 -21.653 -38.102  1.00  0.00     0.001 A 
ATOM      5  C   UNL     1     -32.933 -22.132 -39.125  1.00  0.00     0.004 A 
ATOM      6  C   UNL     1     -31.865 -22.980 -38.825  1.00  0.00     0.046 A 
ATOM      7  C   UNL     1     -31.608 -23.359 -37.501  1.00  0.00     0.118 A 
ENDROOT
BRANCH   7   8
ATOM      8  O   UNL     1     -30.529 -24.210 -37.253  1.00  0.00    -0.508 OA
ATOM      9  H   UNL     1     -29.865 -24.482 -37.966  1.00  0.00     0.293 HD
ENDBRANCH   7   8
TORSDOF 1
ENDMDL
MODEL 9
REMARK VINA RESULT:    -3.520      5.179      7.029
REMARK INTER + INTRA:          -3.623
REMARK INTER:                  -3.623
REMARK INTRA:                   0.000
REMARK UNBOUND:                 0.000
REMARK SMILES Cc1ccccc1O
REMARK SMILES IDX 1 1 2 2 3 3 4 4 5 5 6 6 7 7 8 8
REMARK H PARENT 8 9
REMARK Flexibility Score: inf
ROOT
ATOM      1  C   UNL     1     -32.613 -22.852 -35.102  1.00  0.00     0.048 C 
ATOM      2  C   UNL     1     -32.244 -23.232 -36.510  1.00  0.00    -0.009 A 
ATOM      3  C   UNL     1     -31.541 -24.426 -36.747  1.00  0.00     0.007 A 
ATOM      4  C   UNL     1     -31.190 -24.797 -38.047  1.00  0.00     0.001 A 
ATOM      5  C   UNL     1     -31.536 -23.980 -39.125  1.00  0.00     0.004 A 
ATOM      6  C   UNL     1     -32.236 -22.791 -38.904  1.00  0.00     0.046 A 
ATOM      7  C   UNL     1     -32.594 -22.408 -37.606  1.00  0.00     0.118 A 
ENDROOT
BRANCH   7   8
ATOM      8  O   UNL     1     -33.292 -21.210 -37.437  1.00  0.00    -0.508 OA
ATOM      9  H   UNL     1     -34.020 -21.089 -36.746  1.00  0.00     0.293 HD
ENDBRANCH   7   8
TORSDOF 1
ENDMDL
