MODEL 1
REMARK VINA RESULT:    -4.635      0.000      0.000
REMARK INTER + INTRA:          -5.031
REMARK INTER:                  -4.906
REMARK INTRA:                  -0.125
REMARK UNBOUND:                -0.125
REMARK SMILES C=C(C)[C@H]1CC=C(C)CC1
REMARK SMILES IDX 8 1 7 2 6 3 5 4 4 5 10 6 9 7 2 8 1 9 3 10
REMARK H PARENT
REMARK Flexibility Score: inf
ROOT
ATOM      1  C   UNL     1      51.057  47.122  43.511  1.00  0.00     0.039 C 
ATOM      2  C   UNL     1      52.404  46.495  43.279  1.00  0.00    -0.077 C 
ATOM      3  C   UNL     1      52.555  45.627  42.255  1.00  0.00    -0.027 C 
ATOM      4  C   UNL     1      53.851  44.906  41.974  1.00  0.00     0.035 C 
ATOM      5  C   UNL     1      55.065  45.637  42.573  1.00  0.00     0.018 C 
ATOM      6  C   UNL     1      54.782  46.006  44.036  1.00  0.00     0.013 C 
ATOM      7  C   UNL     1      53.580  46.955  44.119  1.00  0.00     0.031 C 
ENDROOT
BRANCH   5   8
ATOM      8  C   UNL     1      56.333  44.804  42.441  1.00  0.00    -0.077 C 
ATOM      9  C   UNL     1      57.536  45.400  42.464  1.00  0.00     0.008 C 
ATOM     10  C   UNL     1      56.276  43.305  42.271  1.00  0.00     0.039 C 
ENDBRANCH   5   8
TORSDOF 1
ENDMDL
MODEL 2
REMARK VINA RESULT:    -4.573      1.179      4.685
REMARK INTER + INTRA:          -4.965
REMARK INTER:                  -4.835
REMARK INTRA:                  -0.131
REMARK UNBOUND:                -0.125
REMARK SMILES C=C(C)[C@H]1CC=C(C)CC1
REMARK SMILES IDX 8 1 7 2 6 3 5 4 4 5 10 6 9 7 2 8 1 9 3 10
REMARK H PARENT
REMARK Flexibility Score: inf
ROOT
ATOM      1  C   UNL     1      58.696  42.979  41.795  1.00  0.00     0.039 C 
ATOM      2  C   UNL     1      57.433  43.752  42.059  1.00  0.00    -0.077 C 
ATOM      3  C   UNL     1      56.301  43.077  42.353  1.00  0.00    -0.027 C 
ATOM      4  C   UNL     1      54.974  43.759  42.581  1.00  0.00     0.035 C 
ATOM      5  C   UNL     1      55.139  45.234  42.985  1.00  0.00     0.018 C 
ATOM      6  C   UNL     1      56.120  45.930  42.030  1.00  0.00     0.013 C 
ATOM      7  C   UNL     1      57.500  45.267  42.114  1.00  0.00     0.031 C 
ENDROOT
BRANCH   5   8
ATOM      8  C   UNL     1      53.796  45.950  43.027  1.00  0.00    -0.077 C 
ATOM      9  C   UNL     1      52.849  45.659  42.121  1.00  0.00     0.008 C 
ATOM     10  C   UNL     1      53.497  47.001  44.069  1.00  0.00     0.039 C 
ENDBRANCH   5   8
TORSDOF 1
ENDMDL
MODEL 3
REMARK VINA RESULT:    -4.571      1.872      3.430
REMARK INTER + INTRA:          -4.964
REMARK INTER:                  -4.832
REMARK INTRA:                  -0.132
REMARK UNBOUND:                -0.125
REMARK SMILES C=C(C)[C@H]1CC=C(C)CC1
REMARK SMILES IDX 8 1 7 2 6 3 5 4 4 5 10 6 9 7 2 8 1 9 3 10
REMARK H PARENT
REMARK Flexibility Score: inf
ROOT
ATOM      1  C   UNL     1      54.129  46.061  43.559  1.00  0.00     0.039 C 
ATOM      2  C   UNL     1      55.337  45.480  42.876  1.00  0.00    -0.077 C 
ATOM      3  C   UNL     1      56.230  46.315  42.303  1.00  0.00    -0.027 C 
ATOM      4  C   UNL     1      57.444  45.828  41.550  1.00  0.00     0.035 C 
ATOM      5  C   UNL     1      57.849  44.402  41.959  1.00  0.00     0.018 C 
ATOM      6  C   UNL     1      56.616  43.486  41.952  1.00  0.00     0.013 C 
ATOM      7  C   UNL     1      55.580  43.986  42.966  1.00  0.00     0.031 C 
ENDROOT
BRANCH   5   8
ATOM      8  C   UNL     1      58.953  43.860  41.062  1.00  0.00    -0.077 C 
ATOM      9  C   UNL     1      59.506  44.648  40.125  1.00  0.00     0.008 C 
ATOM     10  C   UNL     1      59.445  42.439  41.188  1.00  0.00     0.039 C 
ENDBRANCH   5   8
TORSDOF 1
ENDMDL
MODEL 4
REMARK VINA RESULT:    -4.483      1.708      2.897
REMARK INTER + INTRA:          -4.870
REMARK INTER:                  -4.742
REMARK INTRA:                  -0.128
REMARK UNBOUND:                -0.125
REMARK SMILES C=C(C)[C@H]1CC=C(C)CC1
REMARK SMILES IDX 8 1 7 2 6 3 5 4 4 5 10 6 9 7 2 8 1 9 3 10
REMARK H PARENT
REMARK Flexibility Score: inf
ROOT
ATOM      1  C   UNL     1      53.148  45.675  42.364  1.00  0.00     0.039 C 
ATOM      2  C   UNL     1      54.506  45.029  42.375  1.00  0.00    -0.077 C 
ATOM      3  C   UNL     1      54.590  43.683  42.455  1.00  0.00    -0.027 C 
ATOM      4  C   UNL     1      55.905  42.945  42.526  1.00  0.00     0.035 C 
ATOM      5  C   UNL     1      57.069  43.775  41.958  1.00  0.00     0.018 C 
ATOM      6  C   UNL     1      57.038  45.191  42.550  1.00  0.00     0.013 C 
ATOM      7  C   UNL     1      55.732  45.897  42.164  1.00  0.00     0.031 C 
ENDROOT
BRANCH   5   8
ATOM      8  C   UNL     1      58.408  43.093  42.208  1.00  0.00    -0.077 C 
ATOM      9  C   UNL     1      58.850  42.918  43.464  1.00  0.00     0.008 C 
ATOM     10  C   UNL     1      59.270  42.612  41.067  1.00  0.00     0.039 C 
ENDBRANCH   5   8
TORSDOF 1
ENDMDL
MODEL 5
REMARK VINA RESULT:    -4.260      1.524      5.006
REMARK INTER + INTRA:          -4.634
REMARK INTER:                  -4.507
REMARK INTRA:                  -0.128
REMARK UNBOUND:                -0.125
REMARK SMILES C=C(C)[C@H]1CC=C(C)CC1
REMARK SMILES IDX 8 1 7 2 6 3 5 4 4 5 10 6 9 7 2 8 1 9 3 10
REMARK H PARENT
REMARK Flexibility Score: inf
ROOT
ATOM      1  C   UNL     1      59.659  42.901  41.930  1.00  0.00     0.039 C 
ATOM      2  C   UNL     1      58.330  43.545  42.217  1.00  0.00    -0.077 C 
ATOM      3  C   UNL     1      58.017  44.705  41.600  1.00  0.00    -0.027 C 
ATOM      4  C   UNL     1      56.734  45.455  41.863  1.00  0.00     0.035 C 
ATOM      5  C   UNL     1      55.634  44.543  42.432  1.00  0.00     0.018 C 
ATOM      6  C   UNL     1      56.196  43.706  43.590  1.00  0.00     0.013 C 
ATOM      7  C   UNL     1      57.333  42.807  43.090  1.00  0.00     0.031 C 
ENDROOT
BRANCH   5   8
ATOM      8  C   UNL     1      54.415  45.348  42.863  1.00  0.00    -0.077 C 
ATOM      9  C   UNL     1      54.470  46.115  43.965  1.00  0.00     0.008 C 
ATOM     10  C   UNL     1      53.124  45.301  42.083  1.00  0.00     0.039 C 
ENDBRANCH   5   8
TORSDOF 1
ENDMDL
MODEL 6
REMARK VINA RESULT:    -3.889      2.021      3.538
REMARK INTER + INTRA:          -4.241
REMARK INTER:                  -4.121
REMARK INTRA:                  -0.120
REMARK UNBOUND:                -0.125
REMARK SMILES C=C(C)[C@H]1CC=C(C)CC1
REMARK SMILES IDX 8 1 7 2 6 3 5 4 4 5 10 6 9 7 2 8 1 9 3 10
REMARK H PARENT
REMARK Flexibility Score: inf
ROOT
ATOM      1  C   UNL     1      53.867  42.260  42.627  1.00  0.00     0.039 C 
ATOM      2  C   UNL     1      54.870  43.376  42.527  1.00  0.00    -0.077 C 
ATOM      3  C   UNL     1      56.182  43.071  42.426  1.00  0.00    -0.027 C 
ATOM      4  C   UNL     1      57.267  44.119  42.374  1.00  0.00     0.035 C 
ATOM      5  C   UNL     1      56.737  45.483  41.901  1.00  0.00     0.018 C 
ATOM      6  C   UNL     1      55.462  45.845  42.676  1.00  0.00     0.013 C 
ATOM      7  C   UNL     1      54.369  44.803  42.411  1.00  0.00     0.031 C 
ENDROOT
BRANCH   5   8
ATOM      8  C   UNL     1      57.799  46.566  42.033  1.00  0.00    -0.077 C 
ATOM      9  C   UNL     1      58.332  47.125  40.934  1.00  0.00     0.008 C 
ATOM     10  C   UNL     1      58.287  47.029  43.384  1.00  0.00     0.039 C 
ENDBRANCH   5   8
TORSDOF 1
ENDMDL
MODEL 7
REMARK VINA RESULT:    -3.559     21.534     23.542
REMARK INTER + INTRA:          -3.892
REMARK INTER:                  -3.762
REMARK INTRA:                  -0.130
REMARK UNBOUND:                -0.125
REMARK SMILES C=C(C)[C@H]1CC=C(C)CC1
REMARK SMILES IDX 8 1 7 2 6 3 5 4 4 5 10 6 9 7 2 8 1 9 3 10
REMARK H PARENT
REMARK Flexibility Score: inf
ROOT
ATOM      1  C   UNL     1      57.657  27.124  26.380  1.00  0.00     0.039 C 
ATOM      2  C   UNL     1      56.462  28.035  26.458  1.00  0.00    -0.077 C 
ATOM      3  C   UNL     1      56.614  29.341  26.150  1.00  0.00    -0.027 C 
ATOM      4  C   UNL     1      55.490  30.344  26.249  1.00  0.00     0.035 C 
ATOM      5  C   UNL     1      54.107  29.675  26.186  1.00  0.00     0.018 C 
ATOM      6  C   UNL     1      54.058  28.483  27.153  1.00  0.00     0.013 C 
ATOM      7  C   UNL     1      55.101  27.434  26.752  1.00  0.00     0.031 C 
ENDROOT
BRANCH   5   8
ATOM      8  C   UNL     1      52.994  30.675  26.473  1.00  0.00    -0.077 C 
ATOM      9  C   UNL     1      51.793  30.244  26.890  1.00  0.00     0.008 C 
ATOM     10  C   UNL     1      53.203  32.158  26.290  1.00  0.00     0.039 C 
ENDBRANCH   5   8
TORSDOF 1
ENDMDL
MODEL 8
REMARK VINA RESULT:    -3.486      3.044      6.425
REMARK INTER + INTRA:          -3.815
REMARK INTER:                  -3.695
REMARK INTRA:                  -0.120
REMARK UNBOUND:                -0.125
REMARK SMILES C=C(C)[C@H]1CC=C(C)CC1
REMARK SMILES IDX 8 1 7 2 6 3 5 4 4 5 10 6 9 7 2 8 1 9 3 10
REMARK H PARENT
REMARK Flexibility Score: inf
ROOT
ATOM      1  C   UNL     1      61.718  41.748  43.010  1.00  0.00     0.039 C 
ATOM      2  C   UNL     1      60.343  42.343  42.874  1.00  0.00    -0.077 C 
ATOM      3  C   UNL     1      59.842  42.559  41.639  1.00  0.00    -0.027 C 
ATOM      4  C   UNL     1      58.497  43.200  41.399  1.00  0.00     0.035 C 
ATOM      5  C   UNL     1      57.565  43.069  42.615  1.00  0.00     0.018 C 
ATOM      6  C   UNL     1      58.311  43.484  43.891  1.00  0.00     0.013 C 
ATOM      7  C   UNL     1      59.513  42.561  44.125  1.00  0.00     0.031 C 
ENDROOT
BRANCH   5   8
ATOM      8  C   UNL     1      56.289  43.879  42.424  1.00  0.00    -0.077 C 
ATOM      9  C   UNL     1      55.095  43.265  42.426  1.00  0.00     0.008 C 
ATOM     10  C   UNL     1      56.329  45.374  42.219  1.00  0.00     0.039 C 
ENDBRANCH   5   8
TORSDOF 1
ENDMDL
MODEL 9
REMARK VINA RESULT:    -3.462     21.554     23.629
REMARK INTER + INTRA:          -3.790
REMARK INTER:                  -3.663
REMARK INTRA:                  -0.127
REMARK UNBOUND:                -0.125
REMARK SMILES C=C(C)[C@H]1CC=C(C)CC1
REMARK SMILES IDX 8 1 7 2 6 3 5 4 4 5 10 6 9 7 2 8 1 9 3 10
REMARK H PARENT
REMARK Flexibility Score: inf
ROOT
ATOM      1  C   UNL     1      57.615  27.256  26.487  1.00  0.00     0.039 C 
ATOM      2  C   UNL     1      56.580  28.312  26.212  1.00  0.00    -0.077 C 
ATOM      3  C   UNL     1      55.503  28.402  27.022  1.00  0.00    -0.027 C 
ATOM      4  C   UNL     1      54.386  29.391  26.797  1.00  0.00     0.035 C 
ATOM      5  C   UNL     1      54.834  30.592  25.948  1.00  0.00     0.018 C 
ATOM      6  C   UNL     1      55.584  30.099  24.701  1.00  0.00     0.013 C 
ATOM      7  C   UNL     1      56.841  29.324  25.112  1.00  0.00     0.031 C 
ENDROOT
BRANCH   5   8
ATOM      8  C   UNL     1      53.654  31.479  25.577  1.00  0.00    -0.077 C 
ATOM      9  C   UNL     1      52.792  31.885  26.524  1.00  0.00     0.008 C 
ATOM     10  C   UNL     1      53.414  31.915  24.152  1.00  0.00     0.039 C 
ENDBRANCH   5   8
TORSDOF 1
ENDMDL
