MODEL 1
REMARK VINA RESULT:    -5.557      0.000      0.000
REMARK INTER + INTRA:          -6.771
REMARK INTER:                  -6.531
REMARK INTRA:                  -0.240
REMARK UNBOUND:                -0.240
REMARK SMILES CCCC[C@H]1OC(=O)C2=C1CCC=C2
REMARK SMILES IDX 3 1 2 2 1 3 4 4 5 5 10 6 6 7 9 8 11 9 7 10 14 11 12 12 8 13
REMARK SMILES IDX 13 14
REMARK H PARENT
REMARK Flexibility Score: inf
ROOT
ATOM      1  C   UNL     1      56.171  -1.245   1.298  1.00  0.00     0.004 C 
ENDROOT
BRANCH   1   2
ATOM      2  C   UNL     1      55.692  -2.700   1.338  1.00  0.00    -0.003 C 
ATOM      3  C   UNL     1      56.870  -3.670   1.302  1.00  0.00     0.004 C 
ENDBRANCH   1   2
BRANCH   1   4
ATOM      4  C   UNL     1      56.597  -0.845  -0.120  1.00  0.00     0.050 C 
BRANCH   4   5
ATOM      5  C   UNL     1      58.062  -0.393  -0.156  1.00  0.00     0.204 C 
ATOM      6  C   UNL     1      58.314   0.574  -1.289  1.00  0.00    -0.015 C 
ATOM      7  O   UNL     1      58.923  -1.492  -0.473  1.00  0.00    -0.454 OA
ATOM      8  C   UNL     1      59.229   0.096  -2.116  1.00  0.00     0.062 C 
ATOM      9  C   UNL     1      57.864   2.008  -1.371  1.00  0.00     0.040 C 
ATOM     10  C   UNL     1      59.622  -1.201  -1.631  1.00  0.00     0.338 C 
ATOM     11  C   UNL     1      59.780   0.876  -3.232  1.00  0.00     0.011 C 
ATOM     12  C   UNL     1      57.979   2.541  -2.818  1.00  0.00     0.032 C 
ATOM     13  O   UNL     1      60.476  -1.963  -2.155  1.00  0.00    -0.246 OA
ATOM     14  C   UNL     1      59.235   2.065  -3.520  1.00  0.00    -0.026 C 
ENDBRANCH   4   5
ENDBRANCH   1   4
TORSDOF 3
ENDMDL
MODEL 2
REMARK VINA RESULT:    -5.477      1.967      3.417
REMARK INTER + INTRA:          -6.678
REMARK INTER:                  -6.245
REMARK INTRA:                  -0.433
REMARK UNBOUND:                -0.240
REMARK SMILES CCCC[C@H]1OC(=O)C2=C1CCC=C2
REMARK SMILES IDX 3 1 2 2 1 3 4 4 5 5 10 6 6 7 9 8 11 9 7 10 14 11 12 12 8 13
REMARK SMILES IDX 13 14
REMARK H PARENT
REMARK Flexibility Score: inf
ROOT
ATOM      1  C   UNL     1      61.126  -1.044  -1.137  1.00  0.00     0.004 C 
ENDROOT
BRANCH   1   2
ATOM      2  C   UNL     1      61.311  -1.972   0.069  1.00  0.00    -0.003 C 
ATOM      3  C   UNL     1      60.289  -1.670   1.160  1.00  0.00     0.004 C 
ENDBRANCH   1   2
BRANCH   1   4
ATOM      4  C   UNL     1      60.609  -1.820  -2.354  1.00  0.00     0.050 C 
BRANCH   4   5
ATOM      5  C   UNL     1      59.186  -1.387  -2.729  1.00  0.00     0.204 C 
ATOM      6  C   UNL     1      59.065   0.117  -2.796  1.00  0.00    -0.015 C 
ATOM      7  O   UNL     1      58.262  -1.739  -1.694  1.00  0.00    -0.454 OA
ATOM      8  C   UNL     1      58.160   0.551  -1.935  1.00  0.00     0.062 C 
ATOM      9  C   UNL     1      59.626   1.022  -3.860  1.00  0.00     0.040 C 
ATOM     10  C   UNL     1      57.646  -0.591  -1.227  1.00  0.00     0.338 C 
ATOM     11  C   UNL     1      57.726   1.953  -1.875  1.00  0.00     0.011 C 
ATOM     12  C   UNL     1      59.625   2.495  -3.388  1.00  0.00     0.032 C 
ATOM     13  O   UNL     1      56.764  -0.574  -0.329  1.00  0.00    -0.246 OA
ATOM     14  C   UNL     1      58.373   2.863  -2.616  1.00  0.00    -0.026 C 
ENDBRANCH   4   5
ENDBRANCH   1   4
TORSDOF 3
ENDMDL
MODEL 3
REMARK VINA RESULT:    -5.275     10.570     11.653
REMARK INTER + INTRA:          -6.441
REMARK INTER:                  -6.201
REMARK INTRA:                  -0.240
REMARK UNBOUND:                -0.240
REMARK SMILES CCCC[C@H]1OC(=O)C2=C1CCC=C2
REMARK SMILES IDX 3 1 2 2 1 3 4 4 5 5 10 6 6 7 9 8 11 9 7 10 14 11 12 12 8 13
REMARK SMILES IDX 13 14
REMARK H PARENT
REMARK Flexibility Score: inf
ROOT
ATOM      1  C   UNL     1      47.341  -8.169  -1.103  1.00  0.00     0.004 C 
ENDROOT
BRANCH   1   2
ATOM      2  C   UNL     1      47.362  -6.994  -0.120  1.00  0.00    -0.003 C 
ATOM      3  C   UNL     1      46.037  -6.874   0.626  1.00  0.00     0.004 C 
ENDBRANCH   1   2
BRANCH   1   4
ATOM      4  C   UNL     1      48.747  -8.749  -1.299  1.00  0.00     0.050 C 
BRANCH   4   5
ATOM      5  C   UNL     1      49.721  -7.686  -1.821  1.00  0.00     0.204 C 
ATOM      6  C   UNL     1      49.618  -7.528  -3.319  1.00  0.00    -0.015 C 
ATOM      7  O   UNL     1      51.076  -8.107  -1.634  1.00  0.00    -0.454 OA
ATOM      8  C   UNL     1      50.778  -7.790  -3.898  1.00  0.00     0.062 C 
ATOM      9  C   UNL     1      48.494  -6.881  -4.085  1.00  0.00     0.040 C 
ATOM     10  C   UNL     1      51.707  -8.162  -2.864  1.00  0.00     0.338 C 
ATOM     11  C   UNL     1      51.017  -7.584  -5.332  1.00  0.00     0.011 C 
ATOM     12  C   UNL     1      48.565  -7.249  -5.585  1.00  0.00     0.032 C 
ATOM     13  O   UNL     1      52.915  -8.479  -3.030  1.00  0.00    -0.246 OA
ATOM     14  C   UNL     1      49.984  -7.259  -6.120  1.00  0.00    -0.026 C 
ENDBRANCH   4   5
ENDBRANCH   1   4
TORSDOF 3
ENDMDL
MODEL 4
REMARK VINA RESULT:    -5.217      2.174      5.069
REMARK INTER + INTRA:          -6.372
REMARK INTER:                  -5.971
REMARK INTRA:                  -0.402
REMARK UNBOUND:                -0.240
REMARK SMILES CCCC[C@H]1OC(=O)C2=C1CCC=C2
REMARK SMILES IDX 3 1 2 2 1 3 4 4 5 5 10 6 6 7 9 8 11 9 7 10 14 11 12 12 8 13
REMARK SMILES IDX 13 14
REMARK H PARENT
REMARK Flexibility Score: inf
ROOT
ATOM      1  C   UNL     1      59.716   1.089  -3.804  1.00  0.00     0.004 C 
ENDROOT
BRANCH   1   2
ATOM      2  C   UNL     1      59.345   2.514  -3.380  1.00  0.00    -0.003 C 
ATOM      3  C   UNL     1      57.875   2.608  -2.983  1.00  0.00     0.004 C 
ENDBRANCH   1   2
BRANCH   1   4
ATOM      4  C   UNL     1      60.811   0.513  -2.898  1.00  0.00     0.050 C 
BRANCH   4   5
ATOM      5  C   UNL     1      60.256  -0.581  -1.977  1.00  0.00     0.204 C 
ATOM      6  C   UNL     1      59.511  -1.637  -2.759  1.00  0.00    -0.015 C 
ATOM      7  O   UNL     1      59.248  -0.049  -1.112  1.00  0.00    -0.454 OA
ATOM      8  C   UNL     1      58.253  -1.715  -2.357  1.00  0.00     0.062 C 
ATOM      9  C   UNL     1      60.109  -2.688  -3.655  1.00  0.00     0.040 C 
ATOM     10  C   UNL     1      58.061  -0.725  -1.330  1.00  0.00     0.338 C 
ATOM     11  C   UNL     1      57.327  -2.748  -2.838  1.00  0.00     0.011 C 
ATOM     12  C   UNL     1      59.027  -3.323  -4.559  1.00  0.00     0.032 C 
ATOM     13  O   UNL     1      56.991  -0.503  -0.704  1.00  0.00    -0.246 OA
ATOM     14  C   UNL     1      57.717  -3.556  -3.831  1.00  0.00    -0.026 C 
ENDBRANCH   4   5
ENDBRANCH   1   4
TORSDOF 3
ENDMDL
MODEL 5
REMARK VINA RESULT:    -5.215     10.323     11.733
REMARK INTER + INTRA:          -6.370
REMARK INTER:                  -6.206
REMARK INTRA:                  -0.165
REMARK UNBOUND:                -0.240
REMARK SMILES CCCC[C@H]1OC(=O)C2=C1CCC=C2
REMARK SMILES IDX 3 1 2 2 1 3 4 4 5 5 10 6 6 7 9 8 11 9 7 10 14 11 12 12 8 13
REMARK SMILES IDX 13 14
REMARK H PARENT
REMARK Flexibility Score: inf
ROOT
ATOM      1  C   UNL     1      47.063  -7.740  -0.518  1.00  0.00     0.004 C 
ENDROOT
BRANCH   1   2
ATOM      2  C   UNL     1      46.498  -6.898   0.631  1.00  0.00    -0.003 C 
ATOM      3  C   UNL     1      45.034  -6.545   0.388  1.00  0.00     0.004 C 
ENDBRANCH   1   2
BRANCH   1   4
ATOM      4  C   UNL     1      48.369  -7.138  -1.050  1.00  0.00     0.050 C 
BRANCH   4   5
ATOM      5  C   UNL     1      48.690  -7.655  -2.458  1.00  0.00     0.204 C 
ATOM      6  C   UNL     1      50.160  -7.965  -2.612  1.00  0.00    -0.015 C 
ATOM      7  O   UNL     1      48.472  -6.632  -3.435  1.00  0.00    -0.454 OA
ATOM      8  C   UNL     1      50.692  -7.235  -3.579  1.00  0.00     0.062 C 
ATOM      9  C   UNL     1      50.907  -9.125  -2.010  1.00  0.00     0.040 C 
ATOM     10  C   UNL     1      49.656  -6.386  -4.106  1.00  0.00     0.338 C 
ATOM     11  C   UNL     1      52.071  -7.421  -4.050  1.00  0.00     0.011 C 
ATOM     12  C   UNL     1      52.434  -8.891  -2.077  1.00  0.00     0.032 C 
ATOM     13  O   UNL     1      49.784  -5.553  -5.041  1.00  0.00    -0.246 OA
ATOM     14  C   UNL     1      52.875  -8.258  -3.382  1.00  0.00    -0.026 C 
ENDBRANCH   4   5
ENDBRANCH   1   4
TORSDOF 3
ENDMDL
MODEL 6
REMARK VINA RESULT:    -5.214      1.998      4.061
REMARK INTER + INTRA:          -6.368
REMARK INTER:                  -6.052
REMARK INTRA:                  -0.316
REMARK UNBOUND:                -0.240
REMARK SMILES CCCC[C@H]1OC(=O)C2=C1CCC=C2
REMARK SMILES IDX 3 1 2 2 1 3 4 4 5 5 10 6 6 7 9 8 11 9 7 10 14 11 12 12 8 13
REMARK SMILES IDX 13 14
REMARK H PARENT
REMARK Flexibility Score: inf
ROOT
ATOM      1  C   UNL     1      60.788  -3.157  -3.233  1.00  0.00     0.004 C 
ENDROOT
BRANCH   1   2
ATOM      2  C   UNL     1      59.600  -3.561  -4.112  1.00  0.00    -0.003 C 
ATOM      3  C   UNL     1      60.045  -3.853  -5.542  1.00  0.00     0.004 C 
ENDBRANCH   1   2
BRANCH   1   4
ATOM      4  C   UNL     1      60.464  -1.902  -2.413  1.00  0.00     0.050 C 
BRANCH   4   5
ATOM      5  C   UNL     1      59.041  -1.404  -2.694  1.00  0.00     0.204 C 
ATOM      6  C   UNL     1      58.985   0.105  -2.753  1.00  0.00    -0.015 C 
ATOM      7  O   UNL     1      58.172  -1.716  -1.601  1.00  0.00    -0.454 OA
ATOM      8  C   UNL     1      58.159   0.577  -1.834  1.00  0.00     0.062 C 
ATOM      9  C   UNL     1      59.516   0.987  -3.851  1.00  0.00     0.040 C 
ATOM     10  C   UNL     1      57.641  -0.543  -1.094  1.00  0.00     0.338 C 
ATOM     11  C   UNL     1      57.795   1.997  -1.746  1.00  0.00     0.011 C 
ATOM     12  C   UNL     1      59.613   2.456  -3.380  1.00  0.00     0.032 C 
ATOM     13  O   UNL     1      56.821  -0.488  -0.140  1.00  0.00    -0.246 OA
ATOM     14  C   UNL     1      58.432   2.878  -2.527  1.00  0.00    -0.026 C 
ENDBRANCH   4   5
ENDBRANCH   1   4
TORSDOF 3
ENDMDL
MODEL 7
REMARK VINA RESULT:    -5.109      1.627      4.912
REMARK INTER + INTRA:          -6.245
REMARK INTER:                  -5.886
REMARK INTRA:                  -0.359
REMARK UNBOUND:                -0.240
REMARK SMILES CCCC[C@H]1OC(=O)C2=C1CCC=C2
REMARK SMILES IDX 3 1 2 2 1 3 4 4 5 5 10 6 6 7 9 8 11 9 7 10 14 11 12 12 8 13
REMARK SMILES IDX 13 14
REMARK H PARENT
REMARK Flexibility Score: inf
ROOT
ATOM      1  C   UNL     1      59.794   1.391  -3.592  1.00  0.00     0.004 C 
ENDROOT
BRANCH   1   2
ATOM      2  C   UNL     1      58.493   2.162  -3.345  1.00  0.00    -0.003 C 
ATOM      3  C   UNL     1      58.769   3.640  -3.085  1.00  0.00     0.004 C 
ENDBRANCH   1   2
BRANCH   1   4
ATOM      4  C   UNL     1      59.856   0.126  -2.728  1.00  0.00     0.050 C 
BRANCH   4   5
ATOM      5  C   UNL     1      58.571  -0.701  -2.855  1.00  0.00     0.204 C 
ATOM      6  C   UNL     1      58.000  -1.048  -1.501  1.00  0.00    -0.015 C 
ATOM      7  O   UNL     1      58.850  -1.984  -3.425  1.00  0.00    -0.454 OA
ATOM      8  C   UNL     1      57.931  -2.360  -1.345  1.00  0.00     0.062 C 
ATOM      9  C   UNL     1      57.309  -0.113  -0.545  1.00  0.00     0.040 C 
ATOM     10  C   UNL     1      58.464  -2.970  -2.535  1.00  0.00     0.338 C 
ATOM     11  C   UNL     1      57.287  -2.991  -0.186  1.00  0.00     0.011 C 
ATOM     12  C   UNL     1      57.211  -0.738   0.866  1.00  0.00     0.032 C 
ATOM     13  O   UNL     1      58.561  -4.205  -2.756  1.00  0.00    -0.246 OA
ATOM     14  C   UNL     1      56.883  -2.218   0.830  1.00  0.00    -0.026 C 
ENDBRANCH   4   5
ENDBRANCH   1   4
TORSDOF 3
ENDMDL
MODEL 8
REMARK VINA RESULT:    -5.016     10.438     11.721
REMARK INTER + INTRA:          -6.136
REMARK INTER:                  -5.966
REMARK INTRA:                  -0.169
REMARK UNBOUND:                -0.240
REMARK SMILES CCCC[C@H]1OC(=O)C2=C1CCC=C2
REMARK SMILES IDX 3 1 2 2 1 3 4 4 5 5 10 6 6 7 9 8 11 9 7 10 14 11 12 12 8 13
REMARK SMILES IDX 13 14
REMARK H PARENT
REMARK Flexibility Score: inf
ROOT
ATOM      1  C   UNL     1      48.509  -6.907  -2.324  1.00  0.00     0.004 C 
ENDROOT
BRANCH   1   2
ATOM      2  C   UNL     1      48.593  -8.103  -1.370  1.00  0.00    -0.003 C 
ATOM      3  C   UNL     1      47.202  -8.609  -0.996  1.00  0.00     0.004 C 
ENDBRANCH   1   2
BRANCH   1   4
ATOM      4  C   UNL     1      49.339  -7.154  -3.589  1.00  0.00     0.050 C 
BRANCH   4   5
ATOM      5  C   UNL     1      49.359  -5.915  -4.494  1.00  0.00     0.204 C 
ATOM      6  C   UNL     1      49.153  -6.285  -5.943  1.00  0.00    -0.015 C 
ATOM      7  O   UNL     1      50.658  -5.313  -4.496  1.00  0.00    -0.454 OA
ATOM      8  C   UNL     1      50.188  -5.905  -6.674  1.00  0.00     0.062 C 
ATOM      9  C   UNL     1      47.870  -6.740  -6.587  1.00  0.00     0.040 C 
ATOM     10  C   UNL     1      51.149  -5.299  -5.790  1.00  0.00     0.338 C 
ATOM     11  C   UNL     1      50.208  -6.006  -8.139  1.00  0.00     0.011 C 
ATOM     12  C   UNL     1      48.142  -7.380  -7.968  1.00  0.00     0.032 C 
ATOM     13  O   UNL     1      52.261  -4.813  -6.123  1.00  0.00    -0.246 OA
ATOM     14  C   UNL     1      49.205  -6.641  -8.758  1.00  0.00    -0.026 C 
ENDBRANCH   4   5
ENDBRANCH   1   4
TORSDOF 3
ENDMDL
MODEL 9
REMARK VINA RESULT:    -4.993      1.880      5.199
REMARK INTER + INTRA:          -6.109
REMARK INTER:                  -5.909
REMARK INTRA:                  -0.200
REMARK UNBOUND:                -0.240
REMARK SMILES CCCC[C@H]1OC(=O)C2=C1CCC=C2
REMARK SMILES IDX 3 1 2 2 1 3 4 4 5 5 10 6 6 7 9 8 11 9 7 10 14 11 12 12 8 13
REMARK SMILES IDX 13 14
REMARK H PARENT
REMARK Flexibility Score: inf
ROOT
ATOM      1  C   UNL     1      59.697   1.286  -3.454  1.00  0.00     0.004 C 
ENDROOT
BRANCH   1   2
ATOM      2  C   UNL     1      59.432   2.792  -3.348  1.00  0.00    -0.003 C 
ATOM      3  C   UNL     1      57.936   3.092  -3.355  1.00  0.00     0.004 C 
ENDBRANCH   1   2
BRANCH   1   4
ATOM      4  C   UNL     1      58.588   0.483  -2.764  1.00  0.00     0.050 C 
BRANCH   4   5
ATOM      5  C   UNL     1      58.734   0.527  -1.238  1.00  0.00     0.204 C 
ATOM      6  C   UNL     1      59.402  -0.721  -0.710  1.00  0.00    -0.015 C 
ATOM      7  O   UNL     1      57.450   0.496  -0.606  1.00  0.00    -0.454 OA
ATOM      8  C   UNL     1      58.609  -1.352   0.139  1.00  0.00     0.062 C 
ATOM      9  C   UNL     1      60.855  -1.094  -0.844  1.00  0.00     0.040 C 
ATOM     10  C   UNL     1      57.376  -0.614   0.217  1.00  0.00     0.338 C 
ATOM     11  C   UNL     1      59.044  -2.519   0.918  1.00  0.00     0.011 C 
ATOM     12  C   UNL     1      61.073  -2.590  -0.520  1.00  0.00     0.032 C 
ATOM     13  O   UNL     1      56.379  -0.906   0.928  1.00  0.00    -0.246 OA
ATOM     14  C   UNL     1      60.239  -3.063   0.656  1.00  0.00    -0.026 C 
ENDBRANCH   4   5
ENDBRANCH   1   4
TORSDOF 3
ENDMDL
