MODEL 1
REMARK VINA RESULT:    -6.820      0.000      0.000
REMARK INTER + INTRA:          -7.418
REMARK INTER:                  -7.418
REMARK INTRA:                   0.000
REMARK UNBOUND:                 0.000
REMARK SMILES Cc1cc(O)c2c(c1)C(=O)c1cc(O)cc(O)c1C2=O
REMARK SMILES IDX 1 1 2 2 8 3 7 4 6 5 4 6 3 7 19 8 20 9 18 10 11 11 9 12 10 13
REMARK SMILES IDX 12 14 13 15 15 16 16 17 5 18 17 20 14 22
REMARK H PARENT 5 19 17 21 14 23
REMARK Flexibility Score: inf
ROOT
ATOM      1  C   UNL     1      -1.500 -23.880  -2.381  1.00  0.00     0.044 C 
ATOM      2  C   UNL     1      -1.479 -23.150  -3.692  1.00  0.00    -0.047 A 
ATOM      3  C   UNL     1      -2.560 -23.258  -4.574  1.00  0.00     0.016 A 
ATOM      4  C   UNL     1      -2.563 -22.557  -5.792  1.00  0.00     0.038 A 
ATOM      5  C   UNL     1      -1.467 -21.733  -6.131  1.00  0.00     0.076 A 
ATOM      6  C   UNL     1      -0.414 -21.562  -5.196  1.00  0.00     0.127 A 
ATOM      7  C   UNL     1      -0.423 -22.287  -4.000  1.00  0.00     0.050 A 
ATOM      8  C   UNL     1      -1.438 -21.126  -7.487  1.00  0.00     0.201 C 
ATOM      9  O   UNL     1      -0.334 -20.894  -8.046  1.00  0.00    -0.288 OA
ATOM     10  C   UNL     1      -2.702 -20.968  -8.252  1.00  0.00     0.076 A 
ATOM     11  C   UNL     1      -3.798 -21.792  -7.907  1.00  0.00     0.041 A 
ATOM     12  C   UNL     1      -3.716 -22.670  -6.717  1.00  0.00     0.194 C 
ATOM     13  O   UNL     1      -4.639 -23.498  -6.477  1.00  0.00    -0.289 OA
ATOM     14  C   UNL     1      -4.963 -21.770  -8.693  1.00  0.00     0.059 A 
ATOM     15  C   UNL     1      -5.053 -20.929  -9.806  1.00  0.00     0.120 A 
ATOM     16  C   UNL     1      -3.989 -20.086 -10.125  1.00  0.00     0.093 A 
ATOM     17  C   UNL     1      -2.827 -20.074  -9.347  1.00  0.00     0.131 A 
ENDROOT
BRANCH   6  18
ATOM     18  O   UNL     1       0.634 -20.661  -5.396  1.00  0.00    -0.507 OA
ATOM     19  H   UNL     1       0.845 -19.900  -4.767  1.00  0.00     0.293 HD
ENDBRANCH   6  18
BRANCH  17  20
ATOM     20  O   UNL     1      -1.843 -19.138  -9.674  1.00  0.00    -0.507 OA
ATOM     21  H   UNL     1      -0.985 -19.374 -10.152  1.00  0.00     0.293 HD
ENDBRANCH  17  20
BRANCH  15  22
ATOM     22  O   UNL     1      -6.201 -20.915 -10.595  1.00  0.00    -0.508 OA
ATOM     23  H   UNL     1      -7.110 -20.700 -10.203  1.00  0.00     0.293 HD
ENDBRANCH  15  22
TORSDOF 3
ENDMDL
MODEL 2
REMARK VINA RESULT:    -6.638      1.641      5.551
REMARK INTER + INTRA:          -7.220
REMARK INTER:                  -7.220
REMARK INTRA:                   0.000
REMARK UNBOUND:                 0.000
REMARK SMILES Cc1cc(O)c2c(c1)C(=O)c1cc(O)cc(O)c1C2=O
REMARK SMILES IDX 1 1 2 2 8 3 7 4 6 5 4 6 3 7 19 8 20 9 18 10 11 11 9 12 10 13
REMARK SMILES IDX 12 14 13 15 15 16 16 17 5 18 17 20 14 22
REMARK H PARENT 5 19 17 21 14 23
REMARK Flexibility Score: inf
ROOT
ATOM      1  C   UNL     1      -5.830 -20.245 -10.059  1.00  0.00     0.044 C 
ATOM      2  C   UNL     1      -4.588 -20.567  -9.283  1.00  0.00    -0.047 A 
ATOM      3  C   UNL     1      -4.684 -21.109  -7.995  1.00  0.00     0.016 A 
ATOM      4  C   UNL     1      -3.527 -21.440  -7.271  1.00  0.00     0.038 A 
ATOM      5  C   UNL     1      -2.253 -21.227  -7.843  1.00  0.00     0.076 A 
ATOM      6  C   UNL     1      -2.165 -20.757  -9.180  1.00  0.00     0.127 A 
ATOM      7  C   UNL     1      -3.330 -20.414  -9.874  1.00  0.00     0.050 A 
ATOM      8  C   UNL     1      -1.054 -21.449  -6.994  1.00  0.00     0.201 C 
ATOM      9  O   UNL     1      -0.009 -20.777  -7.198  1.00  0.00    -0.288 OA
ATOM     10  C   UNL     1      -1.151 -22.322  -5.796  1.00  0.00     0.076 A 
ATOM     11  C   UNL     1      -2.427 -22.536  -5.227  1.00  0.00     0.041 A 
ATOM     12  C   UNL     1      -3.636 -22.020  -5.911  1.00  0.00     0.194 C 
ATOM     13  O   UNL     1      -4.763 -22.098  -5.347  1.00  0.00    -0.289 OA
ATOM     14  C   UNL     1      -2.544 -23.241  -4.017  1.00  0.00     0.059 A 
ATOM     15  C   UNL     1      -1.409 -23.746  -3.378  1.00  0.00     0.120 A 
ATOM     16  C   UNL     1      -0.152 -23.572  -3.957  1.00  0.00     0.093 A 
ATOM     17  C   UNL     1      -0.011 -22.892  -5.171  1.00  0.00     0.131 A 
ENDROOT
BRANCH   6  18
ATOM     18  O   UNL     1      -0.952 -20.652  -9.864  1.00  0.00    -0.507 OA
ATOM     19  H   UNL     1      -0.049 -20.719  -9.416  1.00  0.00     0.293 HD
ENDBRANCH   6  18
BRANCH  17  20
ATOM     20  O   UNL     1       1.266 -22.838  -5.734  1.00  0.00    -0.507 OA
ATOM     21  H   UNL     1       1.473 -23.136  -6.677  1.00  0.00     0.293 HD
ENDBRANCH  17  20
BRANCH  15  22
ATOM     22  O   UNL     1      -1.519 -24.434  -2.171  1.00  0.00    -0.508 OA
ATOM     23  H   UNL     1      -1.434 -25.443  -2.127  1.00  0.00     0.293 HD
ENDBRANCH  15  22
TORSDOF 3
ENDMDL
MODEL 3
REMARK VINA RESULT:    -6.590      1.432      3.474
REMARK INTER + INTRA:          -7.167
REMARK INTER:                  -7.167
REMARK INTRA:                   0.000
REMARK UNBOUND:                 0.000
REMARK SMILES Cc1cc(O)c2c(c1)C(=O)c1cc(O)cc(O)c1C2=O
REMARK SMILES IDX 1 1 2 2 8 3 7 4 6 5 4 6 3 7 19 8 20 9 18 10 11 11 9 12 10 13
REMARK SMILES IDX 12 14 13 15 15 16 16 17 5 18 17 20 14 22
REMARK H PARENT 5 19 17 21 14 23
REMARK Flexibility Score: inf
ROOT
ATOM      1  C   UNL     1      -0.522 -23.094  -2.316  1.00  0.00     0.044 C 
ATOM      2  C   UNL     1      -1.178 -22.782  -3.630  1.00  0.00    -0.047 A 
ATOM      3  C   UNL     1      -0.636 -21.804  -4.472  1.00  0.00     0.016 A 
ATOM      4  C   UNL     1      -1.227 -21.524  -5.716  1.00  0.00     0.038 A 
ATOM      5  C   UNL     1      -2.377 -22.236  -6.124  1.00  0.00     0.076 A 
ATOM      6  C   UNL     1      -2.870 -23.283  -5.304  1.00  0.00     0.127 A 
ATOM      7  C   UNL     1      -2.279 -23.529  -4.061  1.00  0.00     0.050 A 
ATOM      8  C   UNL     1      -3.058 -21.812  -7.375  1.00  0.00     0.201 C 
ATOM      9  O   UNL     1      -4.301 -21.969  -7.495  1.00  0.00    -0.288 OA
ATOM     10  C   UNL     1      -2.307 -21.038  -8.398  1.00  0.00     0.076 A 
ATOM     11  C   UNL     1      -1.155 -20.330  -7.986  1.00  0.00     0.041 A 
ATOM     12  C   UNL     1      -0.643 -20.493  -6.605  1.00  0.00     0.194 C 
ATOM     13  O   UNL     1       0.308 -19.770  -6.195  1.00  0.00    -0.289 OA
ATOM     14  C   UNL     1      -0.498 -19.478  -8.890  1.00  0.00     0.059 A 
ATOM     15  C   UNL     1      -0.967 -19.337 -10.200  1.00  0.00     0.120 A 
ATOM     16  C   UNL     1      -2.079 -20.065 -10.621  1.00  0.00     0.093 A 
ATOM     17  C   UNL     1      -2.738 -20.934  -9.746  1.00  0.00     0.131 A 
ENDROOT
BRANCH   6  18
ATOM     18  O   UNL     1      -3.914 -24.122  -5.699  1.00  0.00    -0.507 OA
ATOM     19  H   UNL     1      -3.804 -24.883  -6.354  1.00  0.00     0.293 HD
ENDBRANCH   6  18
BRANCH  17  20
ATOM     20  O   UNL     1      -3.786 -21.697 -10.265  1.00  0.00    -0.507 OA
ATOM     21  H   UNL     1      -4.713 -21.331 -10.436  1.00  0.00     0.293 HD
ENDBRANCH  17  20
BRANCH  15  22
ATOM     22  O   UNL     1      -0.326 -18.483 -11.095  1.00  0.00    -0.508 OA
ATOM     23  H   UNL     1       0.458 -17.907 -10.810  1.00  0.00     0.293 HD
ENDBRANCH  15  22
TORSDOF 3
ENDMDL
MODEL 4
REMARK VINA RESULT:    -6.586     13.081     15.659
REMARK INTER + INTRA:          -7.164
REMARK INTER:                  -7.164
REMARK INTRA:                   0.000
REMARK UNBOUND:                 0.000
REMARK SMILES Cc1cc(O)c2c(c1)C(=O)c1cc(O)cc(O)c1C2=O
REMARK SMILES IDX 1 1 2 2 8 3 7 4 6 5 4 6 3 7 19 8 20 9 18 10 11 11 9 12 10 13
REMARK SMILES IDX 12 14 13 15 15 16 16 17 5 18 17 20 14 22
REMARK H PARENT 5 19 17 21 14 23
REMARK Flexibility Score: inf
ROOT
ATOM      1  C   UNL     1      13.125 -12.061 -11.357  1.00  0.00     0.044 C 
ATOM      2  C   UNL     1      12.478 -13.219 -10.657  1.00  0.00    -0.047 A 
ATOM      3  C   UNL     1      12.063 -13.095  -9.326  1.00  0.00     0.016 A 
ATOM      4  C   UNL     1      11.432 -14.165  -8.671  1.00  0.00     0.038 A 
ATOM      5  C   UNL     1      11.210 -15.379  -9.358  1.00  0.00     0.076 A 
ATOM      6  C   UNL     1      11.557 -15.469 -10.731  1.00  0.00     0.127 A 
ATOM      7  C   UNL     1      12.203 -14.399 -11.357  1.00  0.00     0.050 A 
ATOM      8  C   UNL     1      10.675 -16.534  -8.591  1.00  0.00     0.201 C 
ATOM      9  O   UNL     1      10.980 -17.707  -8.932  1.00  0.00    -0.288 OA
ATOM     10  C   UNL     1       9.941 -16.299  -7.321  1.00  0.00     0.076 A 
ATOM     11  C   UNL     1      10.163 -15.082  -6.637  1.00  0.00     0.041 A 
ATOM     12  C   UNL     1      10.988 -14.022  -7.264  1.00  0.00     0.194 C 
ATOM     13  O   UNL     1      11.293 -12.988  -6.607  1.00  0.00    -0.289 OA
ATOM     14  C   UNL     1       9.595 -14.880  -5.367  1.00  0.00     0.059 A 
ATOM     15  C   UNL     1       8.800 -15.868  -4.780  1.00  0.00     0.120 A 
ATOM     16  C   UNL     1       8.546 -17.054  -5.470  1.00  0.00     0.093 A 
ATOM     17  C   UNL     1       9.083 -17.270  -6.743  1.00  0.00     0.131 A 
ENDROOT
BRANCH   6  18
ATOM     18  O   UNL     1      11.245 -16.582 -11.516  1.00  0.00    -0.507 OA
ATOM     19  H   UNL     1      10.742 -17.387 -11.171  1.00  0.00     0.293 HD
ENDBRANCH   6  18
BRANCH  17  20
ATOM     20  O   UNL     1       8.710 -18.441  -7.408  1.00  0.00    -0.507 OA
ATOM     21  H   UNL     1       9.210 -19.315  -7.323  1.00  0.00     0.293 HD
ENDBRANCH  17  20
BRANCH  15  22
ATOM     22  O   UNL     1       8.246 -15.677  -3.516  1.00  0.00    -0.508 OA
ATOM     23  H   UNL     1       8.386 -16.347  -2.770  1.00  0.00     0.293 HD
ENDBRANCH  15  22
TORSDOF 3
ENDMDL
MODEL 5
REMARK VINA RESULT:    -6.583      2.383      5.164
REMARK INTER + INTRA:          -7.161
REMARK INTER:                  -7.161
REMARK INTRA:                   0.000
REMARK UNBOUND:                 0.000
REMARK SMILES Cc1cc(O)c2c(c1)C(=O)c1cc(O)cc(O)c1C2=O
REMARK SMILES IDX 1 1 2 2 8 3 7 4 6 5 4 6 3 7 19 8 20 9 18 10 11 11 9 12 10 13
REMARK SMILES IDX 12 14 13 15 15 16 16 17 5 18 17 20 14 22
REMARK H PARENT 5 19 17 21 14 23
REMARK Flexibility Score: inf
ROOT
ATOM      1  C   UNL     1      -0.744 -17.505 -11.532  1.00  0.00     0.044 C 
ATOM      2  C   UNL     1      -1.026 -18.515 -10.458  1.00  0.00    -0.047 A 
ATOM      3  C   UNL     1      -2.245 -18.487  -9.769  1.00  0.00     0.016 A 
ATOM      4  C   UNL     1      -2.530 -19.444  -8.782  1.00  0.00     0.038 A 
ATOM      5  C   UNL     1      -1.581 -20.447  -8.478  1.00  0.00     0.076 A 
ATOM      6  C   UNL     1      -0.385 -20.519  -9.238  1.00  0.00     0.127 A 
ATOM      7  C   UNL     1      -0.114 -19.543 -10.202  1.00  0.00     0.050 A 
ATOM      8  C   UNL     1      -1.855 -21.349  -7.330  1.00  0.00     0.201 C 
ATOM      9  O   UNL     1      -0.896 -21.830  -6.670  1.00  0.00    -0.288 OA
ATOM     10  C   UNL     1      -3.249 -21.530  -6.850  1.00  0.00     0.076 A 
ATOM     11  C   UNL     1      -4.196 -20.527  -7.157  1.00  0.00     0.041 A 
ATOM     12  C   UNL     1      -3.825 -19.413  -8.063  1.00  0.00     0.194 C 
ATOM     13  O   UNL     1      -4.623 -18.451  -8.240  1.00  0.00    -0.289 OA
ATOM     14  C   UNL     1      -5.488 -20.592  -6.607  1.00  0.00     0.059 A 
ATOM     15  C   UNL     1      -5.848 -21.651  -5.768  1.00  0.00     0.120 A 
ATOM     16  C   UNL     1      -4.929 -22.663  -5.495  1.00  0.00     0.093 A 
ATOM     17  C   UNL     1      -3.644 -22.631  -6.047  1.00  0.00     0.131 A 
ENDROOT
BRANCH   6  18
ATOM     18  O   UNL     1       0.537 -21.558  -9.095  1.00  0.00    -0.507 OA
ATOM     19  H   UNL     1       0.923 -21.846  -8.207  1.00  0.00     0.293 HD
ENDBRANCH   6  18
BRANCH  17  20
ATOM     20  O   UNL     1      -2.811 -23.725  -5.802  1.00  0.00    -0.507 OA
ATOM     21  H   UNL     1      -2.563 -24.407  -6.507  1.00  0.00     0.293 HD
ENDBRANCH  17  20
BRANCH  15  22
ATOM     22  O   UNL     1      -7.124 -21.712  -5.210  1.00  0.00    -0.508 OA
ATOM     23  H   UNL     1      -7.675 -22.562  -5.241  1.00  0.00     0.293 HD
ENDBRANCH  15  22
TORSDOF 3
ENDMDL
MODEL 6
REMARK VINA RESULT:    -6.396      1.534      3.259
REMARK INTER + INTRA:          -6.956
REMARK INTER:                  -6.956
REMARK INTRA:                   0.000
REMARK UNBOUND:                 0.000
REMARK SMILES Cc1cc(O)c2c(c1)C(=O)c1cc(O)cc(O)c1C2=O
REMARK SMILES IDX 1 1 2 2 8 3 7 4 6 5 4 6 3 7 19 8 20 9 18 10 11 11 9 12 10 13
REMARK SMILES IDX 12 14 13 15 15 16 16 17 5 18 17 20 14 22
REMARK H PARENT 5 19 17 21 14 23
REMARK Flexibility Score: inf
ROOT
ATOM      1  C   UNL     1       2.347 -21.385  -4.250  1.00  0.00     0.044 C 
ATOM      2  C   UNL     1       0.984 -21.690  -4.797  1.00  0.00    -0.047 A 
ATOM      3  C   UNL     1       0.379 -20.817  -5.708  1.00  0.00     0.016 A 
ATOM      4  C   UNL     1      -0.885 -21.108  -6.247  1.00  0.00     0.038 A 
ATOM      5  C   UNL     1      -1.556 -22.292  -5.869  1.00  0.00     0.076 A 
ATOM      6  C   UNL     1      -0.901 -23.214  -5.011  1.00  0.00     0.127 A 
ATOM      7  C   UNL     1       0.348 -22.893  -4.470  1.00  0.00     0.050 A 
ATOM      8  C   UNL     1      -2.950 -22.493  -6.343  1.00  0.00     0.201 C 
ATOM      9  O   UNL     1      -3.760 -23.154  -5.642  1.00  0.00    -0.288 OA
ATOM     10  C   UNL     1      -3.433 -21.762  -7.543  1.00  0.00     0.076 A 
ATOM     11  C   UNL     1      -2.758 -20.579  -7.920  1.00  0.00     0.041 A 
ATOM     12  C   UNL     1      -1.515 -20.182  -7.218  1.00  0.00     0.194 C 
ATOM     13  O   UNL     1      -0.980 -19.065  -7.464  1.00  0.00    -0.289 OA
ATOM     14  C   UNL     1      -3.267 -19.786  -8.963  1.00  0.00     0.059 A 
ATOM     15  C   UNL     1      -4.429 -20.167  -9.641  1.00  0.00     0.120 A 
ATOM     16  C   UNL     1      -5.074 -21.355  -9.298  1.00  0.00     0.093 A 
ATOM     17  C   UNL     1      -4.576 -22.171  -8.278  1.00  0.00     0.131 A 
ENDROOT
BRANCH   6  18
ATOM     18  O   UNL     1      -1.435 -24.466  -4.701  1.00  0.00    -0.507 OA
ATOM     19  H   UNL     1      -1.740 -24.731  -3.775  1.00  0.00     0.293 HD
ENDBRANCH   6  18
BRANCH  17  20
ATOM     20  O   UNL     1      -5.223 -23.388  -8.054  1.00  0.00    -0.507 OA
ATOM     21  H   UNL     1      -4.759 -24.209  -7.691  1.00  0.00     0.293 HD
ENDBRANCH  17  20
BRANCH  15  22
ATOM     22  O   UNL     1      -4.943 -19.377 -10.668  1.00  0.00    -0.508 OA
ATOM     23  H   UNL     1      -5.250 -19.781 -11.544  1.00  0.00     0.293 HD
ENDBRANCH  15  22
TORSDOF 3
ENDMDL
MODEL 7
REMARK VINA RESULT:    -6.363      1.992      6.222
REMARK INTER + INTRA:          -6.921
REMARK INTER:                  -6.921
REMARK INTRA:                   0.000
REMARK UNBOUND:                 0.000
REMARK SMILES Cc1cc(O)c2c(c1)C(=O)c1cc(O)cc(O)c1C2=O
REMARK SMILES IDX 1 1 2 2 8 3 7 4 6 5 4 6 3 7 19 8 20 9 18 10 11 11 9 12 10 13
REMARK SMILES IDX 12 14 13 15 15 16 16 17 5 18 17 20 14 22
REMARK H PARENT 5 19 17 21 14 23
REMARK Flexibility Score: inf
ROOT
ATOM      1  C   UNL     1      -6.375 -18.751 -10.909  1.00  0.00     0.044 C 
ATOM      2  C   UNL     1      -5.888 -19.424  -9.660  1.00  0.00    -0.047 A 
ATOM      3  C   UNL     1      -4.569 -19.884  -9.577  1.00  0.00     0.016 A 
ATOM      4  C   UNL     1      -4.095 -20.491  -8.402  1.00  0.00     0.038 A 
ATOM      5  C   UNL     1      -4.954 -20.638  -7.290  1.00  0.00     0.076 A 
ATOM      6  C   UNL     1      -6.264 -20.094  -7.352  1.00  0.00     0.127 A 
ATOM      7  C   UNL     1      -6.720 -19.514  -8.539  1.00  0.00     0.050 A 
ATOM      8  C   UNL     1      -4.465 -21.414  -6.121  1.00  0.00     0.201 C 
ATOM      9  O   UNL     1      -5.283 -22.051  -5.406  1.00  0.00    -0.288 OA
ATOM     10  C   UNL     1      -3.005 -21.588  -5.911  1.00  0.00     0.076 A 
ATOM     11  C   UNL     1      -2.148 -21.437  -7.024  1.00  0.00     0.041 A 
ATOM     12  C   UNL     1      -2.694 -20.968  -8.319  1.00  0.00     0.194 C 
ATOM     13  O   UNL     1      -1.960 -20.952  -9.346  1.00  0.00    -0.289 OA
ATOM     14  C   UNL     1      -0.778 -21.728  -6.897  1.00  0.00     0.059 A 
ATOM     15  C   UNL     1      -0.254 -22.153  -5.673  1.00  0.00     0.120 A 
ATOM     16  C   UNL     1      -1.090 -22.264  -4.562  1.00  0.00     0.093 A 
ATOM     17  C   UNL     1      -2.452 -21.961  -4.658  1.00  0.00     0.131 A 
ENDROOT
BRANCH   6  18
ATOM     18  O   UNL     1      -7.124 -20.075  -6.252  1.00  0.00    -0.507 OA
ATOM     19  H   UNL     1      -6.810 -20.137  -5.294  1.00  0.00     0.293 HD
ENDBRANCH   6  18
BRANCH  17  20
ATOM     20  O   UNL     1      -3.206 -22.007  -3.483  1.00  0.00    -0.507 OA
ATOM     21  H   UNL     1      -4.063 -21.488  -3.349  1.00  0.00     0.293 HD
ENDBRANCH  17  20
BRANCH  15  22
ATOM     22  O   UNL     1       1.100 -22.455  -5.546  1.00  0.00    -0.508 OA
ATOM     23  H   UNL     1       1.817 -21.828  -5.891  1.00  0.00     0.293 HD
ENDBRANCH  15  22
TORSDOF 3
ENDMDL
MODEL 8
REMARK VINA RESULT:    -6.336      2.037      5.785
REMARK INTER + INTRA:          -6.892
REMARK INTER:                  -6.892
REMARK INTRA:                   0.000
REMARK UNBOUND:                 0.000
REMARK SMILES Cc1cc(O)c2c(c1)C(=O)c1cc(O)cc(O)c1C2=O
REMARK SMILES IDX 1 1 2 2 8 3 7 4 6 5 4 6 3 7 19 8 20 9 18 10 11 11 9 12 10 13
REMARK SMILES IDX 12 14 13 15 15 16 16 17 5 18 17 20 14 22
REMARK H PARENT 5 19 17 21 14 23
REMARK Flexibility Score: inf
ROOT
ATOM      1  C   UNL     1       0.671 -18.865 -10.889  1.00  0.00     0.044 C 
ATOM      2  C   UNL     1      -0.437 -19.491 -10.094  1.00  0.00    -0.047 A 
ATOM      3  C   UNL     1      -0.171 -20.059  -8.843  1.00  0.00     0.016 A 
ATOM      4  C   UNL     1      -1.206 -20.622  -8.078  1.00  0.00     0.038 A 
ATOM      5  C   UNL     1      -2.529 -20.617  -8.573  1.00  0.00     0.076 A 
ATOM      6  C   UNL     1      -2.805 -19.965  -9.803  1.00  0.00     0.127 A 
ATOM      7  C   UNL     1      -1.756 -19.429 -10.556  1.00  0.00     0.050 A 
ATOM      8  C   UNL     1      -3.569 -21.351  -7.806  1.00  0.00     0.201 C 
ATOM      9  O   UNL     1      -4.548 -21.863  -8.411  1.00  0.00    -0.288 OA
ATOM     10  C   UNL     1      -3.357 -21.638  -6.364  1.00  0.00     0.076 A 
ATOM     11  C   UNL     1      -2.032 -21.640  -5.872  1.00  0.00     0.041 A 
ATOM     12  C   UNL     1      -0.917 -21.215  -6.751  1.00  0.00     0.194 C 
ATOM     13  O   UNL     1       0.277 -21.334  -6.358  1.00  0.00    -0.289 OA
ATOM     14  C   UNL     1      -1.779 -22.041  -4.549  1.00  0.00     0.059 A 
ATOM     15  C   UNL     1      -2.829 -22.425  -3.710  1.00  0.00     0.120 A 
ATOM     16  C   UNL     1      -4.142 -22.386  -4.181  1.00  0.00     0.093 A 
ATOM     17  C   UNL     1      -4.421 -21.971  -5.486  1.00  0.00     0.131 A 
ENDROOT
BRANCH   6  18
ATOM     18  O   UNL     1      -4.102 -19.795 -10.292  1.00  0.00    -0.507 OA
ATOM     19  H   UNL     1      -4.639 -18.947 -10.172  1.00  0.00     0.293 HD
ENDBRANCH   6  18
BRANCH  17  20
ATOM     20  O   UNL     1      -5.765 -21.870  -5.855  1.00  0.00    -0.507 OA
ATOM     21  H   UNL     1      -6.130 -22.211  -6.733  1.00  0.00     0.293 HD
ENDBRANCH  17  20
BRANCH  15  22
ATOM     22  O   UNL     1      -2.580 -22.836  -2.402  1.00  0.00    -0.508 OA
ATOM     23  H   UNL     1      -1.954 -22.320  -1.795  1.00  0.00     0.293 HD
ENDBRANCH  15  22
TORSDOF 3
ENDMDL
MODEL 9
REMARK VINA RESULT:    -6.331     12.785     14.917
REMARK INTER + INTRA:          -6.886
REMARK INTER:                  -6.886
REMARK INTRA:                   0.000
REMARK UNBOUND:                 0.000
REMARK SMILES Cc1cc(O)c2c(c1)C(=O)c1cc(O)cc(O)c1C2=O
REMARK SMILES IDX 1 1 2 2 8 3 7 4 6 5 4 6 3 7 19 8 20 9 18 10 11 11 9 12 10 13
REMARK SMILES IDX 12 14 13 15 15 16 16 17 5 18 17 20 14 22
REMARK H PARENT 5 19 17 21 14 23
REMARK Flexibility Score: inf
ROOT
ATOM      1  C   UNL     1       8.727 -10.863  -2.274  1.00  0.00     0.044 C 
ATOM      2  C   UNL     1       9.249 -11.581  -3.484  1.00  0.00    -0.047 A 
ATOM      3  C   UNL     1       9.011 -12.951  -3.647  1.00  0.00     0.016 A 
ATOM      4  C   UNL     1       9.472 -13.626  -4.789  1.00  0.00     0.038 A 
ATOM      5  C   UNL     1      10.181 -12.920  -5.786  1.00  0.00     0.076 A 
ATOM      6  C   UNL     1      10.345 -11.516  -5.655  1.00  0.00     0.127 A 
ATOM      7  C   UNL     1       9.897 -10.869  -4.499  1.00  0.00     0.050 A 
ATOM      8  C   UNL     1      10.779 -13.693  -6.905  1.00  0.00     0.201 C 
ATOM      9  O   UNL     1      11.831 -13.280  -7.460  1.00  0.00    -0.288 OA
ATOM     10  C   UNL     1      10.245 -15.039  -7.239  1.00  0.00     0.076 A 
ATOM     11  C   UNL     1       9.533 -15.741  -6.241  1.00  0.00     0.041 A 
ATOM     12  C   UNL     1       9.209 -15.075  -4.958  1.00  0.00     0.194 C 
ATOM     13  O   UNL     1       8.686 -15.735  -4.017  1.00  0.00    -0.289 OA
ATOM     14  C   UNL     1       9.132 -17.069  -6.471  1.00  0.00     0.059 A 
ATOM     15  C   UNL     1       9.418 -17.695  -7.687  1.00  0.00     0.120 A 
ATOM     16  C   UNL     1      10.085 -16.991  -8.690  1.00  0.00     0.093 A 
ATOM     17  C   UNL     1      10.477 -15.663  -8.492  1.00  0.00     0.131 A 
ENDROOT
BRANCH   6  18
ATOM     18  O   UNL     1      10.910 -10.726  -6.658  1.00  0.00    -0.507 OA
ATOM     19  H   UNL     1      10.962  -9.719  -6.614  1.00  0.00     0.293 HD
ENDBRANCH   6  18
BRANCH  17  20
ATOM     20  O   UNL     1      11.057 -14.996  -9.574  1.00  0.00    -0.507 OA
ATOM     21  H   UNL     1      11.292 -14.013  -9.563  1.00  0.00     0.293 HD
ENDBRANCH  17  20
BRANCH  15  22
ATOM     22  O   UNL     1       9.034 -19.015  -7.915  1.00  0.00    -0.508 OA
ATOM     23  H   UNL     1       9.581 -19.633  -8.502  1.00  0.00     0.293 HD
ENDBRANCH  15  22
TORSDOF 3
ENDMDL
