MODEL 1
REMARK VINA RESULT:    -8.119      0.000      0.000
REMARK INTER + INTRA:         -13.613
REMARK INTER:                 -11.916
REMARK INTRA:                  -1.697
REMARK UNBOUND:                -1.697
REMARK SMILES O=c1c(O[C@H]2O[C@@H](CO)[C@H](O)[C@@H](O)[C@H]2O)c(-c2ccc(O)c(O)c2)oc2cc(O)cc(O)c12
REMARK SMILES IDX 4 1 3 2 16 3 25 4 2 5 26 6 1 7 33 8 27 9 31 10 28 11 30 12
REMARK SMILES IDX 17 13 18 14 19 15 20 16 24 17 22 18 21 19 23 21 32 23 29 25
REMARK SMILES IDX 5 27 14 28 6 29 12 30 7 31 10 32 15 33 13 35 8 37 9 38 11 40
REMARK H PARENT 21 20 23 22 32 24 29 26 15 34 13 36 9 39 11 41
REMARK Flexibility Score: inf
ROOT
ATOM      1  O   UNL     1       4.556  -9.750 -41.356  1.00  0.00    -0.454 OA
ENDROOT
BRANCH   1   2
ATOM      2  C   UNL     1       3.307 -10.244 -40.940  1.00  0.00     0.214 A 
ATOM      3  C   UNL     1       2.171  -9.423 -41.071  1.00  0.00     0.180 A 
ATOM      4  O   UNL     1       0.966  -9.901 -40.781  1.00  0.00    -0.452 OA
ATOM      5  C   UNL     1       3.142 -11.551 -40.442  1.00  0.00     0.239 A 
ATOM      6  C   UNL     1       0.759 -11.139 -40.345  1.00  0.00     0.146 A 
ATOM      7  O   UNL     1       4.151 -12.280 -40.247  1.00  0.00    -0.285 OA
ATOM      8  C   UNL     1       1.844 -12.025 -40.148  1.00  0.00     0.111 A 
ATOM      9  C   UNL     1      -0.549 -11.556 -40.090  1.00  0.00     0.094 A 
ATOM     10  C   UNL     1       1.585 -13.336 -39.684  1.00  0.00     0.134 A 
ATOM     11  C   UNL     1      -0.801 -12.850 -39.639  1.00  0.00     0.123 A 
ATOM     12  C   UNL     1       0.263 -13.735 -39.432  1.00  0.00     0.093 A 
BRANCH   3  13
ATOM     13  C   UNL     1       2.266  -8.048 -41.592  1.00  0.00     0.025 A 
ATOM     14  C   UNL     1       2.130  -7.821 -42.968  1.00  0.00     0.016 A 
ATOM     15  C   UNL     1       2.170  -6.519 -43.478  1.00  0.00     0.051 A 
ATOM     16  C   UNL     1       2.344  -5.431 -42.618  1.00  0.00     0.157 A 
ATOM     17  C   UNL     1       2.440  -6.951 -40.731  1.00  0.00     0.062 A 
ATOM     18  C   UNL     1       2.480  -5.646 -41.241  1.00  0.00     0.158 A 
BRANCH  16  19
ATOM     19  O   UNL     1       2.359  -4.130 -43.123  1.00  0.00    -0.504 OA
ATOM     20  H   UNL     1       1.776  -3.855 -43.908  1.00  0.00     0.293 HD
ENDBRANCH  16  19
BRANCH  18  21
ATOM     21  O   UNL     1       2.647  -4.559 -40.387  1.00  0.00    -0.504 OA
ATOM     22  H   UNL     1       2.898  -3.643 -40.737  1.00  0.00     0.293 HD
ENDBRANCH  18  21
ENDBRANCH   3  13
BRANCH  10  23
ATOM     23  O   UNL     1       2.627 -14.241 -39.477  1.00  0.00    -0.507 OA
ATOM     24  H   UNL     1       3.544 -13.937 -39.175  1.00  0.00     0.293 HD
ENDBRANCH  10  23
BRANCH  11  25
ATOM     25  O   UNL     1      -2.114 -13.250 -39.398  1.00  0.00    -0.508 OA
ATOM     26  H   UNL     1      -2.719 -13.568 -40.145  1.00  0.00     0.293 HD
ENDBRANCH  11  25
ENDBRANCH   1   2
BRANCH   1  27
ATOM     27  C   UNL     1       5.192 -10.097 -42.590  1.00  0.00     0.339 C 
ATOM     28  C   UNL     1       6.633 -10.612 -42.294  1.00  0.00     0.214 C 
ATOM     29  O   UNL     1       5.169  -8.956 -43.442  1.00  0.00    -0.332 OA
ATOM     30  C   UNL     1       7.672  -9.485 -42.481  1.00  0.00     0.180 C 
ATOM     31  C   UNL     1       6.127  -9.041 -44.475  1.00  0.00     0.179 C 
ATOM     32  C   UNL     1       7.542  -8.830 -43.886  1.00  0.00     0.177 C 
BRANCH  28  33
ATOM     33  O   UNL     1       6.711 -11.150 -40.997  1.00  0.00    -0.384 OA
ATOM     34  H   UNL     1       5.805 -11.494 -40.774  1.00  0.00     0.211 HD
ENDBRANCH  28  33
BRANCH  30  35
ATOM     35  O   UNL     1       7.560  -8.525 -41.456  1.00  0.00    -0.387 OA
ATOM     36  H   UNL     1       8.232  -8.736 -40.759  1.00  0.00     0.211 HD
ENDBRANCH  30  35
BRANCH  31  37
ATOM     37  C   UNL     1       5.805  -7.966 -45.524  1.00  0.00     0.191 C 
BRANCH  37  38
ATOM     38  O   UNL     1       6.906  -7.113 -45.700  1.00  0.00    -0.394 OA
ATOM     39  H   UNL     1       6.931  -6.867 -46.664  1.00  0.00     0.210 HD
ENDBRANCH  37  38
ENDBRANCH  31  37
BRANCH  32  40
ATOM     40  O   UNL     1       8.485  -9.388 -44.764  1.00  0.00    -0.387 OA
ATOM     41  H   UNL     1       9.288  -9.612 -44.224  1.00  0.00     0.211 HD
ENDBRANCH  32  40
ENDBRANCH   1  27
TORSDOF 12
ENDMDL
MODEL 2
REMARK VINA RESULT:    -8.051      5.008      8.353
REMARK INTER + INTRA:         -13.514
REMARK INTER:                 -12.041
REMARK INTRA:                  -1.473
REMARK UNBOUND:                -1.697
REMARK SMILES O=c1c(O[C@H]2O[C@@H](CO)[C@H](O)[C@@H](O)[C@H]2O)c(-c2ccc(O)c(O)c2)oc2cc(O)cc(O)c12
REMARK SMILES IDX 4 1 3 2 16 3 25 4 2 5 26 6 1 7 33 8 27 9 31 10 28 11 30 12
REMARK SMILES IDX 17 13 18 14 19 15 20 16 24 17 22 18 21 19 23 21 32 23 29 25
REMARK SMILES IDX 5 27 14 28 6 29 12 30 7 31 10 32 15 33 13 35 8 37 9 38 11 40
REMARK H PARENT 21 20 23 22 32 24 29 26 15 34 13 36 9 39 11 41
REMARK Flexibility Score: inf
ROOT
ATOM      1  O   UNL     1      10.839  -7.587 -39.835  1.00  0.00    -0.454 OA
ENDROOT
BRANCH   1   2
ATOM      2  C   UNL     1      10.036  -8.599 -40.388  1.00  0.00     0.214 A 
ATOM      3  C   UNL     1      10.434  -9.205 -41.594  1.00  0.00     0.180 A 
ATOM      4  O   UNL     1       9.748 -10.231 -42.084  1.00  0.00    -0.452 OA
ATOM      5  C   UNL     1       8.868  -9.066 -39.752  1.00  0.00     0.239 A 
ATOM      6  C   UNL     1       8.665 -10.730 -41.498  1.00  0.00     0.146 A 
ATOM      7  O   UNL     1       8.450  -8.493 -38.710  1.00  0.00    -0.285 OA
ATOM      8  C   UNL     1       8.167 -10.163 -40.301  1.00  0.00     0.111 A 
ATOM      9  C   UNL     1       8.026 -11.828 -42.079  1.00  0.00     0.094 A 
ATOM     10  C   UNL     1       7.012 -10.720 -39.705  1.00  0.00     0.134 A 
ATOM     11  C   UNL     1       6.892 -12.378 -41.486  1.00  0.00     0.123 A 
ATOM     12  C   UNL     1       6.385 -11.823 -40.305  1.00  0.00     0.093 A 
BRANCH   3  13
ATOM     13  C   UNL     1      11.648  -8.774 -42.312  1.00  0.00     0.025 A 
ATOM     14  C   UNL     1      12.889  -9.319 -41.956  1.00  0.00     0.016 A 
ATOM     15  C   UNL     1      14.047  -8.960 -42.654  1.00  0.00     0.051 A 
ATOM     16  C   UNL     1      13.975  -8.055 -43.717  1.00  0.00     0.157 A 
ATOM     17  C   UNL     1      11.580  -7.866 -43.382  1.00  0.00     0.062 A 
ATOM     18  C   UNL     1      12.740  -7.506 -44.082  1.00  0.00     0.158 A 
BRANCH  16  19
ATOM     19  O   UNL     1      15.125  -7.715 -44.431  1.00  0.00    -0.504 OA
ATOM     20  H   UNL     1      15.632  -6.855 -44.247  1.00  0.00     0.293 HD
ENDBRANCH  16  19
BRANCH  18  21
ATOM     21  O   UNL     1      12.672  -6.609 -45.146  1.00  0.00    -0.504 OA
ATOM     22  H   UNL     1      12.572  -6.927 -46.102  1.00  0.00     0.293 HD
ENDBRANCH  18  21
ENDBRANCH   3  13
BRANCH  10  23
ATOM     23  O   UNL     1       6.490 -10.191 -38.524  1.00  0.00    -0.507 OA
ATOM     24  H   UNL     1       5.528 -10.348 -38.250  1.00  0.00     0.293 HD
ENDBRANCH  10  23
BRANCH  11  25
ATOM     25  O   UNL     1       6.274 -13.479 -42.076  1.00  0.00    -0.508 OA
ATOM     26  H   UNL     1       6.809 -14.223 -42.505  1.00  0.00     0.293 HD
ENDBRANCH  11  25
ENDBRANCH   1   2
BRANCH   1  27
ATOM     27  C   UNL     1      10.598  -6.185 -39.996  1.00  0.00     0.339 C 
ATOM     28  C   UNL     1      11.044  -5.440 -38.702  1.00  0.00     0.214 C 
ATOM     29  O   UNL     1       9.221  -5.999 -40.304  1.00  0.00    -0.332 OA
ATOM     30  C   UNL     1       9.838  -5.182 -37.770  1.00  0.00     0.180 C 
ATOM     31  C   UNL     1       8.790  -4.678 -40.053  1.00  0.00     0.179 C 
ATOM     32  C   UNL     1       8.693  -4.449 -38.526  1.00  0.00     0.177 C 
BRANCH  28  33
ATOM     33  O   UNL     1      12.043  -6.165 -38.030  1.00  0.00    -0.384 OA
ATOM     34  H   UNL     1      11.579  -6.767 -37.389  1.00  0.00     0.211 HD
ENDBRANCH  28  33
BRANCH  30  35
ATOM     35  O   UNL     1       9.383  -6.384 -37.195  1.00  0.00    -0.387 OA
ATOM     36  H   UNL     1       8.500  -6.214 -36.779  1.00  0.00     0.211 HD
ENDBRANCH  30  35
BRANCH  31  37
ATOM     37  C   UNL     1       7.424  -4.478 -40.726  1.00  0.00     0.191 C 
BRANCH  37  38
ATOM     38  O   UNL     1       6.867  -3.250 -40.338  1.00  0.00    -0.394 OA
ATOM     39  H   UNL     1       6.251  -3.437 -39.579  1.00  0.00     0.210 HD
ENDBRANCH  37  38
ENDBRANCH  31  37
BRANCH  32  40
ATOM     40  O   UNL     1       8.757  -3.069 -38.272  1.00  0.00    -0.387 OA
ATOM     41  H   UNL     1       8.232  -2.901 -37.446  1.00  0.00     0.211 HD
ENDBRANCH  32  40
ENDBRANCH   1  27
TORSDOF 12
ENDMDL
MODEL 3
REMARK VINA RESULT:    -8.020      4.278      7.815
REMARK INTER + INTRA:         -13.468
REMARK INTER:                 -11.977
REMARK INTRA:                  -1.490
REMARK UNBOUND:                -1.697
REMARK SMILES O=c1c(O[C@H]2O[C@@H](CO)[C@H](O)[C@@H](O)[C@H]2O)c(-c2ccc(O)c(O)c2)oc2cc(O)cc(O)c12
REMARK SMILES IDX 4 1 3 2 16 3 25 4 2 5 26 6 1 7 33 8 27 9 31 10 28 11 30 12
REMARK SMILES IDX 17 13 18 14 19 15 20 16 24 17 22 18 21 19 23 21 32 23 29 25
REMARK SMILES IDX 5 27 14 28 6 29 12 30 7 31 10 32 15 33 13 35 8 37 9 38 11 40
REMARK H PARENT 21 20 23 22 32 24 29 26 15 34 13 36 9 39 11 41
REMARK Flexibility Score: inf
ROOT
ATOM      1  O   UNL     1       8.316  -7.247 -41.238  1.00  0.00    -0.454 OA
ENDROOT
BRANCH   1   2
ATOM      2  C   UNL     1       8.147  -8.615 -41.513  1.00  0.00     0.214 A 
ATOM      3  C   UNL     1       9.247  -9.359 -41.980  1.00  0.00     0.180 A 
ATOM      4  O   UNL     1       9.140 -10.671 -42.150  1.00  0.00    -0.452 OA
ATOM      5  C   UNL     1       6.926  -9.282 -41.293  1.00  0.00     0.239 A 
ATOM      6  C   UNL     1       8.020 -11.348 -41.918  1.00  0.00     0.146 A 
ATOM      7  O   UNL     1       5.907  -8.626 -40.946  1.00  0.00    -0.285 OA
ATOM      8  C   UNL     1       6.852 -10.680 -41.482  1.00  0.00     0.111 A 
ATOM      9  C   UNL     1       8.014 -12.732 -42.104  1.00  0.00     0.094 A 
ATOM     10  C   UNL     1       5.678 -11.432 -41.244  1.00  0.00     0.134 A 
ATOM     11  C   UNL     1       6.859 -13.471 -41.862  1.00  0.00     0.123 A 
ATOM     12  C   UNL     1       5.694 -12.823 -41.438  1.00  0.00     0.093 A 
BRANCH   3  13
ATOM     13  C   UNL     1      10.558  -8.730 -42.225  1.00  0.00     0.025 A 
ATOM     14  C   UNL     1      11.584  -8.885 -41.283  1.00  0.00     0.016 A 
ATOM     15  C   UNL     1      12.849  -8.336 -41.518  1.00  0.00     0.051 A 
ATOM     16  C   UNL     1      13.102  -7.631 -42.698  1.00  0.00     0.157 A 
ATOM     17  C   UNL     1      10.817  -8.021 -43.410  1.00  0.00     0.062 A 
ATOM     18  C   UNL     1      12.084  -7.471 -43.647  1.00  0.00     0.158 A 
BRANCH  16  19
ATOM     19  O   UNL     1      14.371  -7.105 -42.946  1.00  0.00    -0.504 OA
ATOM     20  H   UNL     1      14.750  -7.046 -43.885  1.00  0.00     0.293 HD
ENDBRANCH  16  19
BRANCH  18  21
ATOM     21  O   UNL     1      12.342  -6.773 -44.824  1.00  0.00    -0.504 OA
ATOM     22  H   UNL     1      11.802  -5.958 -45.086  1.00  0.00     0.293 HD
ENDBRANCH  18  21
ENDBRANCH   3  13
BRANCH  10  23
ATOM     23  O   UNL     1       4.505 -10.812 -40.812  1.00  0.00    -0.507 OA
ATOM     24  H   UNL     1       3.595 -11.104 -41.145  1.00  0.00     0.293 HD
ENDBRANCH  10  23
BRANCH  11  25
ATOM     25  O   UNL     1       6.876 -14.852 -42.046  1.00  0.00    -0.508 OA
ATOM     26  H   UNL     1       7.743 -15.367 -42.135  1.00  0.00     0.293 HD
ENDBRANCH  11  25
ENDBRANCH   1   2
BRANCH   1  27
ATOM     27  C   UNL     1       8.560  -6.708 -39.934  1.00  0.00     0.339 C 
ATOM     28  C   UNL     1       7.439  -5.683 -39.589  1.00  0.00     0.214 C 
ATOM     29  O   UNL     1       9.864  -6.138 -39.921  1.00  0.00    -0.332 OA
ATOM     30  C   UNL     1       7.900  -4.239 -39.886  1.00  0.00     0.180 C 
ATOM     31  C   UNL     1      10.036  -5.218 -38.865  1.00  0.00     0.179 C 
ATOM     32  C   UNL     1       9.248  -3.923 -39.175  1.00  0.00     0.177 C 
BRANCH  28  33
ATOM     33  O   UNL     1       6.259  -5.982 -40.292  1.00  0.00    -0.384 OA
ATOM     34  H   UNL     1       5.610  -6.335 -39.626  1.00  0.00     0.211 HD
ENDBRANCH  28  33
BRANCH  30  35
ATOM     35  O   UNL     1       7.990  -4.017 -41.274  1.00  0.00    -0.387 OA
ATOM     36  H   UNL     1       7.535  -4.766 -41.737  1.00  0.00     0.211 HD
ENDBRANCH  30  35
BRANCH  31  37
ATOM     37  C   UNL     1      11.536  -4.924 -38.717  1.00  0.00     0.191 C 
BRANCH  37  38
ATOM     38  O   UNL     1      12.074  -5.670 -37.656  1.00  0.00    -0.394 OA
ATOM     39  H   UNL     1      11.334  -6.221 -37.285  1.00  0.00     0.210 HD
ENDBRANCH  37  38
ENDBRANCH  31  37
BRANCH  32  40
ATOM     40  O   UNL     1       9.006  -3.241 -37.972  1.00  0.00    -0.387 OA
ATOM     41  H   UNL     1       8.248  -2.621 -38.136  1.00  0.00     0.211 HD
ENDBRANCH  32  40
ENDBRANCH   1  27
TORSDOF 12
ENDMDL
MODEL 4
REMARK VINA RESULT:    -7.962      3.318      7.890
REMARK INTER + INTRA:         -13.382
REMARK INTER:                 -11.723
REMARK INTRA:                  -1.660
REMARK UNBOUND:                -1.697
REMARK SMILES O=c1c(O[C@H]2O[C@@H](CO)[C@H](O)[C@@H](O)[C@H]2O)c(-c2ccc(O)c(O)c2)oc2cc(O)cc(O)c12
REMARK SMILES IDX 4 1 3 2 16 3 25 4 2 5 26 6 1 7 33 8 27 9 31 10 28 11 30 12
REMARK SMILES IDX 17 13 18 14 19 15 20 16 24 17 22 18 21 19 23 21 32 23 29 25
REMARK SMILES IDX 5 27 14 28 6 29 12 30 7 31 10 32 15 33 13 35 8 37 9 38 11 40
REMARK H PARENT 21 20 23 22 32 24 29 26 15 34 13 36 9 39 11 41
REMARK Flexibility Score: inf
ROOT
ATOM      1  O   UNL     1       4.497  -8.132 -42.021  1.00  0.00    -0.454 OA
ENDROOT
BRANCH   1   2
ATOM      2  C   UNL     1       5.693  -7.603 -41.506  1.00  0.00     0.214 A 
ATOM      3  C   UNL     1       6.766  -8.474 -41.237  1.00  0.00     0.180 A 
ATOM      4  O   UNL     1       7.938  -7.988 -40.847  1.00  0.00    -0.452 OA
ATOM      5  C   UNL     1       5.876  -6.222 -41.294  1.00  0.00     0.239 A 
ATOM      6  C   UNL     1       8.168  -6.691 -40.672  1.00  0.00     0.146 A 
ATOM      7  O   UNL     1       4.910  -5.429 -41.458  1.00  0.00    -0.285 OA
ATOM      8  C   UNL     1       7.140  -5.742 -40.882  1.00  0.00     0.111 A 
ATOM      9  C   UNL     1       9.443  -6.276 -40.282  1.00  0.00     0.094 A 
ATOM     10  C   UNL     1       7.420  -4.370 -40.687  1.00  0.00     0.134 A 
ATOM     11  C   UNL     1       9.718  -4.923 -40.097  1.00  0.00     0.123 A 
ATOM     12  C   UNL     1       8.709  -3.974 -40.294  1.00  0.00     0.093 A 
BRANCH   3  13
ATOM     13  C   UNL     1       6.650  -9.929 -41.442  1.00  0.00     0.025 A 
ATOM     14  C   UNL     1       7.199 -10.509 -42.594  1.00  0.00     0.016 A 
ATOM     15  C   UNL     1       7.141 -11.893 -42.787  1.00  0.00     0.051 A 
ATOM     16  C   UNL     1       6.538 -12.713 -41.827  1.00  0.00     0.157 A 
ATOM     17  C   UNL     1       6.046 -10.757 -40.481  1.00  0.00     0.062 A 
ATOM     18  C   UNL     1       5.989 -12.144 -40.672  1.00  0.00     0.158 A 
BRANCH  16  19
ATOM     19  O   UNL     1       6.503 -14.096 -42.006  1.00  0.00    -0.504 OA
ATOM     20  H   UNL     1       5.961 -14.699 -41.395  1.00  0.00     0.293 HD
ENDBRANCH  16  19
BRANCH  18  21
ATOM     21  O   UNL     1       5.394 -12.964 -39.716  1.00  0.00    -0.504 OA
ATOM     22  H   UNL     1       5.076 -13.898 -39.942  1.00  0.00     0.293 HD
ENDBRANCH  18  21
ENDBRANCH   3  13
BRANCH  10  23
ATOM     23  O   UNL     1       6.434  -3.402 -40.885  1.00  0.00    -0.507 OA
ATOM     24  H   UNL     1       5.547  -3.439 -40.399  1.00  0.00     0.293 HD
ENDBRANCH  10  23
BRANCH  11  25
ATOM     25  O   UNL     1      10.999  -4.528 -39.716  1.00  0.00    -0.508 OA
ATOM     26  H   UNL     1      11.158  -3.681 -39.184  1.00  0.00     0.293 HD
ENDBRANCH  11  25
ENDBRANCH   1   2
BRANCH   1  27
ATOM     27  C   UNL     1       4.185  -8.218 -43.415  1.00  0.00     0.339 C 
ATOM     28  C   UNL     1       2.885  -7.407 -43.697  1.00  0.00     0.214 C 
ATOM     29  O   UNL     1       4.075  -9.593 -43.766  1.00  0.00    -0.332 OA
ATOM     30  C   UNL     1       1.650  -8.334 -43.723  1.00  0.00     0.180 C 
ATOM     31  C   UNL     1       3.358  -9.783 -44.967  1.00  0.00     0.179 C 
ATOM     32  C   UNL     1       1.855  -9.512 -44.719  1.00  0.00     0.177 C 
BRANCH  28  33
ATOM     33  O   UNL     1       2.720  -6.387 -42.744  1.00  0.00    -0.384 OA
ATOM     34  H   UNL     1       1.759  -6.387 -42.487  1.00  0.00     0.211 HD
ENDBRANCH  28  33
BRANCH  30  35
ATOM     35  O   UNL     1       1.348  -8.804 -42.430  1.00  0.00    -0.387 OA
ATOM     36  H   UNL     1       2.080  -8.528 -41.822  1.00  0.00     0.211 HD
ENDBRANCH  30  35
BRANCH  31  37
ATOM     37  C   UNL     1       3.584 -11.226 -45.444  1.00  0.00     0.191 C 
BRANCH  37  38
ATOM     38  O   UNL     1       2.417 -11.985 -45.262  1.00  0.00    -0.394 OA
ATOM     39  H   UNL     1       2.445 -12.724 -45.928  1.00  0.00     0.210 HD
ENDBRANCH  37  38
ENDBRANCH  31  37
BRANCH  32  40
ATOM     40  O   UNL     1       1.240  -9.215 -45.946  1.00  0.00    -0.387 OA
ATOM     41  H   UNL     1       1.965  -8.992 -46.588  1.00  0.00     0.211 HD
ENDBRANCH  32  40
ENDBRANCH   1  27
TORSDOF 12
ENDMDL
MODEL 5
REMARK VINA RESULT:    -7.862      3.202      8.028
REMARK INTER + INTRA:         -13.237
REMARK INTER:                 -11.561
REMARK INTRA:                  -1.676
REMARK UNBOUND:                -1.697
REMARK SMILES O=c1c(O[C@H]2O[C@@H](CO)[C@H](O)[C@@H](O)[C@H]2O)c(-c2ccc(O)c(O)c2)oc2cc(O)cc(O)c12
REMARK SMILES IDX 4 1 3 2 16 3 25 4 2 5 26 6 1 7 33 8 27 9 31 10 28 11 30 12
REMARK SMILES IDX 17 13 18 14 19 15 20 16 24 17 22 18 21 19 23 21 32 23 29 25
REMARK SMILES IDX 5 27 14 28 6 29 12 30 7 31 10 32 15 33 13 35 8 37 9 38 11 40
REMARK H PARENT 21 20 23 22 32 24 29 26 15 34 13 36 9 39 11 41
REMARK Flexibility Score: inf
ROOT
ATOM      1  O   UNL     1       5.297  -7.857 -42.537  1.00  0.00    -0.454 OA
ENDROOT
BRANCH   1   2
ATOM      2  C   UNL     1       6.152  -7.455 -41.496  1.00  0.00     0.214 A 
ATOM      3  C   UNL     1       6.865  -8.436 -40.780  1.00  0.00     0.180 A 
ATOM      4  O   UNL     1       7.755  -8.076 -39.862  1.00  0.00    -0.452 OA
ATOM      5  C   UNL     1       6.361  -6.100 -41.174  1.00  0.00     0.239 A 
ATOM      6  C   UNL     1       8.012  -6.810 -39.553  1.00  0.00     0.146 A 
ATOM      7  O   UNL     1       5.682  -5.207 -41.749  1.00  0.00    -0.285 OA
ATOM      8  C   UNL     1       7.319  -5.756 -40.193  1.00  0.00     0.111 A 
ATOM      9  C   UNL     1       8.984  -6.532 -38.589  1.00  0.00     0.094 A 
ATOM     10  C   UNL     1       7.619  -4.420 -39.840  1.00  0.00     0.134 A 
ATOM     11  C   UNL     1       9.283  -5.216 -38.248  1.00  0.00     0.123 A 
ATOM     12  C   UNL     1       8.599  -4.163 -38.868  1.00  0.00     0.093 A 
BRANCH   3  13
ATOM     13  C   UNL     1       6.704  -9.872 -41.068  1.00  0.00     0.025 A 
ATOM     14  C   UNL     1       7.505 -10.473 -42.048  1.00  0.00     0.016 A 
ATOM     15  C   UNL     1       7.401 -11.845 -42.304  1.00  0.00     0.051 A 
ATOM     16  C   UNL     1       6.499 -12.630 -41.579  1.00  0.00     0.157 A 
ATOM     17  C   UNL     1       5.800 -10.665 -40.341  1.00  0.00     0.062 A 
ATOM     18  C   UNL     1       5.696 -12.039 -40.596  1.00  0.00     0.158 A 
BRANCH  16  19
ATOM     19  O   UNL     1       6.413 -14.002 -41.816  1.00  0.00    -0.504 OA
ATOM     20  H   UNL     1       6.682 -14.408 -42.706  1.00  0.00     0.293 HD
ENDBRANCH  16  19
BRANCH  18  21
ATOM     21  O   UNL     1       4.803 -12.826 -39.873  1.00  0.00    -0.504 OA
ATOM     22  H   UNL     1       4.865 -12.910 -38.866  1.00  0.00     0.293 HD
ENDBRANCH  18  21
ENDBRANCH   3  13
BRANCH  10  23
ATOM     23  O   UNL     1       6.959  -3.352 -40.449  1.00  0.00    -0.507 OA
ATOM     24  H   UNL     1       6.566  -2.592 -39.908  1.00  0.00     0.293 HD
ENDBRANCH  10  23
BRANCH  11  25
ATOM     25  O   UNL     1      10.261  -4.959 -37.290  1.00  0.00    -0.508 OA
ATOM     26  H   UNL     1      10.897  -5.680 -36.972  1.00  0.00     0.293 HD
ENDBRANCH  11  25
ENDBRANCH   1   2
BRANCH   1  27
ATOM     27  C   UNL     1       3.908  -8.158 -42.371  1.00  0.00     0.339 C 
ATOM     28  C   UNL     1       3.132  -7.695 -43.640  1.00  0.00     0.214 C 
ATOM     29  O   UNL     1       3.453  -7.533 -41.176  1.00  0.00    -0.332 OA
ATOM     30  C   UNL     1       2.496  -6.304 -43.421  1.00  0.00     0.180 C 
ATOM     31  C   UNL     1       2.048  -7.393 -41.146  1.00  0.00     0.179 C 
ATOM     32  C   UNL     1       1.619  -6.285 -42.136  1.00  0.00     0.177 C 
BRANCH  28  33
ATOM     33  O   UNL     1       3.978  -7.682 -44.763  1.00  0.00    -0.384 OA
ATOM     34  H   UNL     1       4.035  -6.738 -45.068  1.00  0.00     0.211 HD
ENDBRANCH  28  33
BRANCH  30  35
ATOM     35  O   UNL     1       3.484  -5.301 -43.381  1.00  0.00    -0.387 OA
ATOM     36  H   UNL     1       3.590  -5.008 -42.441  1.00  0.00     0.211 HD
ENDBRANCH  30  35
BRANCH  31  37
ATOM     37  C   UNL     1       1.627  -7.041 -39.712  1.00  0.00     0.191 C 
BRANCH  37  38
ATOM     38  O   UNL     1       1.224  -5.699 -39.640  1.00  0.00    -0.394 OA
ATOM     39  H   UNL     1       0.276  -5.696 -39.339  1.00  0.00     0.210 HD
ENDBRANCH  37  38
ENDBRANCH  31  37
BRANCH  32  40
ATOM     40  O   UNL     1       0.269  -6.478 -42.474  1.00  0.00    -0.387 OA
ATOM     41  H   UNL     1       0.201  -7.376 -42.893  1.00  0.00     0.211 HD
ENDBRANCH  32  40
ENDBRANCH   1  27
TORSDOF 12
ENDMDL
MODEL 6
REMARK VINA RESULT:    -7.833      2.186      2.691
REMARK INTER + INTRA:         -13.193
REMARK INTER:                 -11.642
REMARK INTRA:                  -1.551
REMARK UNBOUND:                -1.697
REMARK SMILES O=c1c(O[C@H]2O[C@@H](CO)[C@H](O)[C@@H](O)[C@H]2O)c(-c2ccc(O)c(O)c2)oc2cc(O)cc(O)c12
REMARK SMILES IDX 4 1 3 2 16 3 25 4 2 5 26 6 1 7 33 8 27 9 31 10 28 11 30 12
REMARK SMILES IDX 17 13 18 14 19 15 20 16 24 17 22 18 21 19 23 21 32 23 29 25
REMARK SMILES IDX 5 27 14 28 6 29 12 30 7 31 10 32 15 33 13 35 8 37 9 38 11 40
REMARK H PARENT 21 20 23 22 32 24 29 26 15 34 13 36 9 39 11 41
REMARK Flexibility Score: inf
ROOT
ATOM      1  O   UNL     1       4.561 -10.815 -41.539  1.00  0.00    -0.454 OA
ENDROOT
BRANCH   1   2
ATOM      2  C   UNL     1       3.612 -10.891 -40.505  1.00  0.00     0.214 A 
ATOM      3  C   UNL     1       3.090  -9.700 -39.967  1.00  0.00     0.180 A 
ATOM      4  O   UNL     1       2.120  -9.745 -39.062  1.00  0.00    -0.452 OA
ATOM      5  C   UNL     1       3.125 -12.121 -40.019  1.00  0.00     0.239 A 
ATOM      6  C   UNL     1       1.603 -10.880 -38.603  1.00  0.00     0.146 A 
ATOM      7  O   UNL     1       3.626 -13.201 -40.432  1.00  0.00    -0.285 OA
ATOM      8  C   UNL     1       2.089 -12.129 -39.058  1.00  0.00     0.111 A 
ATOM      9  C   UNL     1       0.567 -10.824 -37.668  1.00  0.00     0.094 A 
ATOM     10  C   UNL     1       1.515 -13.317 -38.549  1.00  0.00     0.134 A 
ATOM     11  C   UNL     1      -0.001 -11.995 -37.173  1.00  0.00     0.123 A 
ATOM     12  C   UNL     1       0.475 -13.237 -37.609  1.00  0.00     0.093 A 
BRANCH   3  13
ATOM     13  C   UNL     1       3.546  -8.377 -40.432  1.00  0.00     0.025 A 
ATOM     14  C   UNL     1       2.733  -7.633 -41.298  1.00  0.00     0.016 A 
ATOM     15  C   UNL     1       3.125  -6.356 -41.714  1.00  0.00     0.051 A 
ATOM     16  C   UNL     1       4.331  -5.809 -41.266  1.00  0.00     0.157 A 
ATOM     17  C   UNL     1       4.757  -7.823 -39.983  1.00  0.00     0.062 A 
ATOM     18  C   UNL     1       5.150  -6.543 -40.399  1.00  0.00     0.158 A 
BRANCH  16  19
ATOM     19  O   UNL     1       4.711  -4.525 -41.660  1.00  0.00    -0.504 OA
ATOM     20  H   UNL     1       4.043  -3.762 -41.707  1.00  0.00     0.293 HD
ENDBRANCH  16  19
BRANCH  18  21
ATOM     21  O   UNL     1       6.348  -5.992 -39.951  1.00  0.00    -0.504 OA
ATOM     22  H   UNL     1       7.038  -5.629 -40.595  1.00  0.00     0.293 HD
ENDBRANCH  18  21
ENDBRANCH   3  13
BRANCH  10  23
ATOM     23  O   UNL     1       1.964 -14.568 -38.973  1.00  0.00    -0.507 OA
ATOM     24  H   UNL     1       2.172 -15.309 -38.315  1.00  0.00     0.293 HD
ENDBRANCH  10  23
BRANCH  11  25
ATOM     25  O   UNL     1      -1.039 -11.918 -36.247  1.00  0.00    -0.508 OA
ATOM     26  H   UNL     1      -1.888 -11.403 -36.442  1.00  0.00     0.293 HD
ENDBRANCH  11  25
ENDBRANCH   1   2
BRANCH   1  27
ATOM     27  C   UNL     1       4.319 -11.220 -42.890  1.00  0.00     0.339 C 
ATOM     28  C   UNL     1       5.578 -10.899 -43.751  1.00  0.00     0.214 C 
ATOM     29  O   UNL     1       3.143 -10.565 -43.351  1.00  0.00    -0.332 OA
ATOM     30  C   UNL     1       5.410  -9.555 -44.495  1.00  0.00     0.180 C 
ATOM     31  C   UNL     1       3.060 -10.541 -44.760  1.00  0.00     0.179 C 
ATOM     32  C   UNL     1       4.091  -9.533 -45.321  1.00  0.00     0.177 C 
BRANCH  28  33
ATOM     33  O   UNL     1       6.734 -10.882 -42.953  1.00  0.00    -0.384 OA
ATOM     34  H   UNL     1       6.795 -11.774 -42.518  1.00  0.00     0.211 HD
ENDBRANCH  28  33
BRANCH  30  35
ATOM     35  O   UNL     1       5.468  -8.473 -43.596  1.00  0.00    -0.387 OA
ATOM     36  H   UNL     1       5.940  -8.775 -42.778  1.00  0.00     0.211 HD
ENDBRANCH  30  35
BRANCH  31  37
ATOM     37  C   UNL     1       1.631 -10.141 -45.156  1.00  0.00     0.191 C 
BRANCH  37  38
ATOM     38  O   UNL     1       1.658  -9.040 -46.026  1.00  0.00    -0.394 OA
ATOM     39  H   UNL     1       0.716  -8.749 -46.155  1.00  0.00     0.210 HD
ENDBRANCH  37  38
ENDBRANCH  31  37
BRANCH  32  40
ATOM     40  O   UNL     1       4.359  -9.858 -46.661  1.00  0.00    -0.387 OA
ATOM     41  H   UNL     1       4.795  -9.065 -47.070  1.00  0.00     0.211 HD
ENDBRANCH  32  40
ENDBRANCH   1  27
TORSDOF 12
ENDMDL
MODEL 7
REMARK VINA RESULT:    -7.831      2.452      6.948
REMARK INTER + INTRA:         -13.191
REMARK INTER:                 -11.574
REMARK INTRA:                  -1.617
REMARK UNBOUND:                -1.697
REMARK SMILES O=c1c(O[C@H]2O[C@@H](CO)[C@H](O)[C@@H](O)[C@H]2O)c(-c2ccc(O)c(O)c2)oc2cc(O)cc(O)c12
REMARK SMILES IDX 4 1 3 2 16 3 25 4 2 5 26 6 1 7 33 8 27 9 31 10 28 11 30 12
REMARK SMILES IDX 17 13 18 14 19 15 20 16 24 17 22 18 21 19 23 21 32 23 29 25
REMARK SMILES IDX 5 27 14 28 6 29 12 30 7 31 10 32 15 33 13 35 8 37 9 38 11 40
REMARK H PARENT 21 20 23 22 32 24 29 26 15 34 13 36 9 39 11 41
REMARK Flexibility Score: inf
ROOT
ATOM      1  O   UNL     1       1.820 -10.891 -41.449  1.00  0.00    -0.454 OA
ENDROOT
BRANCH   1   2
ATOM      2  C   UNL     1       2.617 -10.122 -42.314  1.00  0.00     0.214 A 
ATOM      3  C   UNL     1       2.219  -8.807 -42.622  1.00  0.00     0.180 A 
ATOM      4  O   UNL     1       3.006  -8.027 -43.354  1.00  0.00    -0.452 OA
ATOM      5  C   UNL     1       3.829 -10.602 -42.848  1.00  0.00     0.239 A 
ATOM      6  C   UNL     1       4.174  -8.424 -43.846  1.00  0.00     0.146 A 
ATOM      7  O   UNL     1       4.172 -11.799 -42.648  1.00  0.00    -0.285 OA
ATOM      8  C   UNL     1       4.640  -9.741 -43.620  1.00  0.00     0.111 A 
ATOM      9  C   UNL     1       4.941  -7.521 -44.585  1.00  0.00     0.094 A 
ATOM     10  C   UNL     1       5.889 -10.129 -44.158  1.00  0.00     0.134 A 
ATOM     11  C   UNL     1       6.173  -7.904 -45.108  1.00  0.00     0.123 A 
ATOM     12  C   UNL     1       6.644  -9.206 -44.898  1.00  0.00     0.093 A 
BRANCH   3  13
ATOM     13  C   UNL     1       0.969  -8.234 -42.093  1.00  0.00     0.025 A 
ATOM     14  C   UNL     1       1.019  -7.356 -41.002  1.00  0.00     0.016 A 
ATOM     15  C   UNL     1      -0.151  -6.765 -40.514  1.00  0.00     0.051 A 
ATOM     16  C   UNL     1      -1.383  -7.042 -41.114  1.00  0.00     0.157 A 
ATOM     17  C   UNL     1      -0.272  -8.509 -42.694  1.00  0.00     0.062 A 
ATOM     18  C   UNL     1      -1.444  -7.916 -42.206  1.00  0.00     0.158 A 
BRANCH  16  19
ATOM     19  O   UNL     1      -2.547  -6.433 -40.645  1.00  0.00    -0.504 OA
ATOM     20  H   UNL     1      -2.563  -5.912 -39.773  1.00  0.00     0.293 HD
ENDBRANCH  16  19
BRANCH  18  21
ATOM     21  O   UNL     1      -2.673  -8.185 -42.804  1.00  0.00    -0.504 OA
ATOM     22  H   UNL     1      -3.065  -9.118 -42.815  1.00  0.00     0.293 HD
ENDBRANCH  18  21
ENDBRANCH   3  13
BRANCH  10  23
ATOM     23  O   UNL     1       6.386 -11.418 -43.956  1.00  0.00    -0.507 OA
ATOM     24  H   UNL     1       7.379 -11.601 -43.886  1.00  0.00     0.293 HD
ENDBRANCH  10  23
BRANCH  11  25
ATOM     25  O   UNL     1       6.927  -6.986 -45.835  1.00  0.00    -0.508 OA
ATOM     26  H   UNL     1       7.579  -6.356 -45.384  1.00  0.00     0.293 HD
ENDBRANCH  11  25
ENDBRANCH   1   2
BRANCH   1  27
ATOM     27  C   UNL     1       2.177 -11.225 -40.104  1.00  0.00     0.339 C 
ATOM     28  C   UNL     1       2.198 -12.776 -39.953  1.00  0.00     0.214 C 
ATOM     29  O   UNL     1       1.256 -10.590 -39.224  1.00  0.00    -0.332 OA
ATOM     30  C   UNL     1       0.870 -13.292 -39.356  1.00  0.00     0.180 C 
ATOM     31  C   UNL     1       1.239 -11.186 -37.945  1.00  0.00     0.179 C 
ATOM     32  C   UNL     1       0.533 -12.561 -38.025  1.00  0.00     0.177 C 
BRANCH  28  33
ATOM     33  O   UNL     1       2.458 -13.391 -41.190  1.00  0.00    -0.384 OA
ATOM     34  H   UNL     1       1.774 -14.103 -41.306  1.00  0.00     0.211 HD
ENDBRANCH  28  33
BRANCH  30  35
ATOM     35  O   UNL     1      -0.179 -13.169 -40.288  1.00  0.00    -0.387 OA
ATOM     36  H   UNL     1      -0.936 -12.710 -39.843  1.00  0.00     0.211 HD
ENDBRANCH  30  35
BRANCH  31  37
ATOM     37  C   UNL     1       0.499 -10.246 -36.981  1.00  0.00     0.191 C 
BRANCH  37  38
ATOM     38  O   UNL     1       0.465 -10.800 -35.692  1.00  0.00    -0.394 OA
ATOM     39  H   UNL     1       0.838 -10.117 -35.073  1.00  0.00     0.210 HD
ENDBRANCH  37  38
ENDBRANCH  31  37
BRANCH  32  40
ATOM     40  O   UNL     1       0.940 -13.343 -36.932  1.00  0.00    -0.387 OA
ATOM     41  H   UNL     1       0.224 -14.013 -36.772  1.00  0.00     0.211 HD
ENDBRANCH  32  40
ENDBRANCH   1  27
TORSDOF 12
ENDMDL
MODEL 8
REMARK VINA RESULT:    -7.715      1.880      2.715
REMARK INTER + INTRA:         -13.020
REMARK INTER:                 -11.350
REMARK INTRA:                  -1.670
REMARK UNBOUND:                -1.697
REMARK SMILES O=c1c(O[C@H]2O[C@@H](CO)[C@H](O)[C@@H](O)[C@H]2O)c(-c2ccc(O)c(O)c2)oc2cc(O)cc(O)c12
REMARK SMILES IDX 4 1 3 2 16 3 25 4 2 5 26 6 1 7 33 8 27 9 31 10 28 11 30 12
REMARK SMILES IDX 17 13 18 14 19 15 20 16 24 17 22 18 21 19 23 21 32 23 29 25
REMARK SMILES IDX 5 27 14 28 6 29 12 30 7 31 10 32 15 33 13 35 8 37 9 38 11 40
REMARK H PARENT 21 20 23 22 32 24 29 26 15 34 13 36 9 39 11 41
REMARK Flexibility Score: inf
ROOT
ATOM      1  O   UNL     1       3.741 -10.382 -42.421  1.00  0.00    -0.454 OA
ENDROOT
BRANCH   1   2
ATOM      2  C   UNL     1       2.983 -10.540 -41.248  1.00  0.00     0.214 A 
ATOM      3  C   UNL     1       2.339  -9.416 -40.695  1.00  0.00     0.180 A 
ATOM      4  O   UNL     1       1.536  -9.557 -39.647  1.00  0.00    -0.452 OA
ATOM      5  C   UNL     1       2.802 -11.793 -40.630  1.00  0.00     0.239 A 
ATOM      6  C   UNL     1       1.305 -10.725 -39.056  1.00  0.00     0.146 A 
ATOM      7  O   UNL     1       3.426 -12.800 -41.061  1.00  0.00    -0.285 OA
ATOM      8  C   UNL     1       1.937 -11.903 -39.519  1.00  0.00     0.111 A 
ATOM      9  C   UNL     1       0.424 -10.774 -37.974  1.00  0.00     0.094 A 
ATOM     10  C   UNL     1       1.667 -13.129 -38.866  1.00  0.00     0.134 A 
ATOM     11  C   UNL     1       0.156 -11.983 -37.337  1.00  0.00     0.123 A 
ATOM     12  C   UNL     1       0.779 -13.156 -37.779  1.00  0.00     0.093 A 
BRANCH   3  13
ATOM     13  C   UNL     1       2.475  -8.076 -41.292  1.00  0.00     0.025 A 
ATOM     14  C   UNL     1       1.572  -7.666 -42.282  1.00  0.00     0.016 A 
ATOM     15  C   UNL     1       1.655  -6.381 -42.828  1.00  0.00     0.051 A 
ATOM     16  C   UNL     1       2.638  -5.491 -42.388  1.00  0.00     0.157 A 
ATOM     17  C   UNL     1       3.462  -7.177 -40.852  1.00  0.00     0.062 A 
ATOM     18  C   UNL     1       3.545  -5.889 -41.398  1.00  0.00     0.158 A 
BRANCH  16  19
ATOM     19  O   UNL     1       2.706  -4.200 -42.914  1.00  0.00    -0.504 OA
ATOM     20  H   UNL     1       3.103  -4.017 -43.830  1.00  0.00     0.293 HD
ENDBRANCH  16  19
BRANCH  18  21
ATOM     21  O   UNL     1       4.521  -4.997 -40.958  1.00  0.00    -0.504 OA
ATOM     22  H   UNL     1       5.400  -4.889 -41.447  1.00  0.00     0.293 HD
ENDBRANCH  18  21
ENDBRANCH   3  13
BRANCH  10  23
ATOM     23  O   UNL     1       2.269 -14.314 -39.292  1.00  0.00    -0.507 OA
ATOM     24  H   UNL     1       1.724 -15.087 -39.654  1.00  0.00     0.293 HD
ENDBRANCH  10  23
BRANCH  11  25
ATOM     25  O   UNL     1      -0.733 -12.013 -36.264  1.00  0.00    -0.508 OA
ATOM     26  H   UNL     1      -1.720 -12.196 -36.396  1.00  0.00     0.293 HD
ENDBRANCH  11  25
ENDBRANCH   1   2
BRANCH   1  27
ATOM     27  C   UNL     1       5.115  -9.982 -42.448  1.00  0.00     0.339 C 
ATOM     28  C   UNL     1       5.856 -10.779 -43.564  1.00  0.00     0.214 C 
ATOM     29  O   UNL     1       5.668 -10.187 -41.153  1.00  0.00    -0.332 OA
ATOM     30  C   UNL     1       6.589 -12.004 -42.974  1.00  0.00     0.180 C 
ATOM     31  C   UNL     1       7.078 -10.246 -41.175  1.00  0.00     0.179 C 
ATOM     32  C   UNL     1       7.528 -11.586 -41.806  1.00  0.00     0.177 C 
BRANCH  28  33
ATOM     33  O   UNL     1       4.958 -11.176 -44.570  1.00  0.00    -0.384 OA
ATOM     34  H   UNL     1       5.482 -11.247 -45.411  1.00  0.00     0.211 HD
ENDBRANCH  28  33
BRANCH  30  35
ATOM     35  O   UNL     1       5.670 -12.989 -42.564  1.00  0.00    -0.387 OA
ATOM     36  H   UNL     1       5.833 -13.807 -43.099  1.00  0.00     0.211 HD
ENDBRANCH  30  35
BRANCH  31  37
ATOM     37  C   UNL     1       7.592 -10.119 -39.733  1.00  0.00     0.191 C 
BRANCH  37  38
ATOM     38  O   UNL     1       7.943 -11.381 -39.230  1.00  0.00    -0.394 OA
ATOM     39  H   UNL     1       7.366 -12.048 -39.691  1.00  0.00     0.210 HD
ENDBRANCH  37  38
ENDBRANCH  31  37
BRANCH  32  40
ATOM     40  O   UNL     1       8.844 -11.444 -42.276  1.00  0.00    -0.387 OA
ATOM     41  H   UNL     1       8.881 -11.874 -43.171  1.00  0.00     0.211 HD
ENDBRANCH  32  40
ENDBRANCH   1  27
TORSDOF 12
ENDMDL
MODEL 9
REMARK VINA RESULT:    -7.714      1.889      2.818
REMARK INTER + INTRA:         -13.019
REMARK INTER:                 -11.766
REMARK INTRA:                  -1.253
REMARK UNBOUND:                -1.697
REMARK SMILES O=c1c(O[C@H]2O[C@@H](CO)[C@H](O)[C@@H](O)[C@H]2O)c(-c2ccc(O)c(O)c2)oc2cc(O)cc(O)c12
REMARK SMILES IDX 4 1 3 2 16 3 25 4 2 5 26 6 1 7 33 8 27 9 31 10 28 11 30 12
REMARK SMILES IDX 17 13 18 14 19 15 20 16 24 17 22 18 21 19 23 21 32 23 29 25
REMARK SMILES IDX 5 27 14 28 6 29 12 30 7 31 10 32 15 33 13 35 8 37 9 38 11 40
REMARK H PARENT 21 20 23 22 32 24 29 26 15 34 13 36 9 39 11 41
REMARK Flexibility Score: inf
ROOT
ATOM      1  O   UNL     1       3.005  -9.828 -42.857  1.00  0.00    -0.454 OA
ENDROOT
BRANCH   1   2
ATOM      2  C   UNL     1       2.516  -9.969 -41.547  1.00  0.00     0.214 A 
ATOM      3  C   UNL     1       2.105  -8.821 -40.844  1.00  0.00     0.180 A 
ATOM      4  O   UNL     1       1.545  -8.938 -39.645  1.00  0.00    -0.452 OA
ATOM      5  C   UNL     1       2.374 -11.226 -40.928  1.00  0.00     0.239 A 
ATOM      6  C   UNL     1       1.356 -10.105 -39.040  1.00  0.00     0.146 A 
ATOM      7  O   UNL     1       2.800 -12.262 -41.506  1.00  0.00    -0.285 OA
ATOM      8  C   UNL     1       1.769 -11.311 -39.653  1.00  0.00     0.111 A 
ATOM      9  C   UNL     1       0.735 -10.126 -37.789  1.00  0.00     0.094 A 
ATOM     10  C   UNL     1       1.551 -12.535 -38.980  1.00  0.00     0.134 A 
ATOM     11  C   UNL     1       0.516 -11.333 -37.131  1.00  0.00     0.123 A 
ATOM     12  C   UNL     1       0.926 -12.534 -37.722  1.00  0.00     0.093 A 
BRANCH   3  13
ATOM     13  C   UNL     1       2.216  -7.474 -41.431  1.00  0.00     0.025 A 
ATOM     14  C   UNL     1       1.165  -6.973 -42.212  1.00  0.00     0.016 A 
ATOM     15  C   UNL     1       1.230  -5.679 -42.740  1.00  0.00     0.051 A 
ATOM     16  C   UNL     1       2.344  -4.872 -42.490  1.00  0.00     0.157 A 
ATOM     17  C   UNL     1       3.333  -6.658 -41.182  1.00  0.00     0.062 A 
ATOM     18  C   UNL     1       3.398  -5.362 -41.710  1.00  0.00     0.158 A 
BRANCH  16  19
ATOM     19  O   UNL     1       2.398  -3.572 -42.995  1.00  0.00    -0.504 OA
ATOM     20  H   UNL     1       1.557  -3.061 -43.246  1.00  0.00     0.293 HD
ENDBRANCH  16  19
BRANCH  18  21
ATOM     21  O   UNL     1       4.503  -4.552 -41.459  1.00  0.00    -0.504 OA
ATOM     22  H   UNL     1       4.445  -3.543 -41.512  1.00  0.00     0.293 HD
ENDBRANCH  18  21
ENDBRANCH   3  13
BRANCH  10  23
ATOM     23  O   UNL     1       1.943 -13.747 -39.551  1.00  0.00    -0.507 OA
ATOM     24  H   UNL     1       1.427 -14.166 -40.314  1.00  0.00     0.293 HD
ENDBRANCH  10  23
BRANCH  11  25
ATOM     25  O   UNL     1      -0.112 -11.334 -35.887  1.00  0.00    -0.508 OA
ATOM     26  H   UNL     1      -0.439 -10.479 -35.455  1.00  0.00     0.293 HD
ENDBRANCH  11  25
ENDBRANCH   1   2
BRANCH   1  27
ATOM     27  C   UNL     1       4.355  -9.479 -43.183  1.00  0.00     0.339 C 
ATOM     28  C   UNL     1       4.392  -8.876 -44.619  1.00  0.00     0.214 C 
ATOM     29  O   UNL     1       5.165 -10.641 -43.041  1.00  0.00    -0.332 OA
ATOM     30  C   UNL     1       4.790  -9.948 -45.658  1.00  0.00     0.180 C 
ATOM     31  C   UNL     1       6.386 -10.530 -43.741  1.00  0.00     0.179 C 
ATOM     32  C   UNL     1       6.123 -10.646 -45.261  1.00  0.00     0.177 C 
BRANCH  28  33
ATOM     33  O   UNL     1       3.153  -8.302 -44.949  1.00  0.00    -0.384 OA
ATOM     34  H   UNL     1       2.702  -8.078 -44.091  1.00  0.00     0.211 HD
ENDBRANCH  28  33
BRANCH  30  35
ATOM     35  O   UNL     1       3.754 -10.885 -45.833  1.00  0.00    -0.387 OA
ATOM     36  H   UNL     1       4.094 -11.776 -45.564  1.00  0.00     0.211 HD
ENDBRANCH  30  35
BRANCH  31  37
ATOM     37  C   UNL     1       7.323 -11.649 -43.260  1.00  0.00     0.191 C 
BRANCH  37  38
ATOM     38  O   UNL     1       6.596 -12.622 -42.556  1.00  0.00    -0.394 OA
ATOM     39  H   UNL     1       6.355 -12.224 -41.677  1.00  0.00     0.210 HD
ENDBRANCH  37  38
ENDBRANCH  31  37
BRANCH  32  40
ATOM     40  O   UNL     1       7.196 -10.059 -45.951  1.00  0.00    -0.387 OA
ATOM     41  H   UNL     1       8.007 -10.190 -45.393  1.00  0.00     0.211 HD
ENDBRANCH  32  40
ENDBRANCH   1  27
TORSDOF 12
ENDMDL
