MODEL 1
REMARK VINA RESULT:    -5.188      0.000      0.000
REMARK INTER + INTRA:         -11.823
REMARK INTER:                  -9.737
REMARK INTRA:                  -2.086
REMARK UNBOUND:                -2.086
REMARK SMILES O=C([O-])CCCCCCCCCCCCCCC(=O)[O-]
REMARK SMILES IDX 10 1 9 2 8 3 7 4 6 5 5 6 4 7 2 8 1 9 3 10 11 11 12 12 13 13
REMARK SMILES IDX 14 14 15 15 16 16 17 17 18 18 19 19 20 20
REMARK H PARENT
REMARK Flexibility Score: inf
ROOT
ATOM      1  C   UNL     1      16.833  43.207   4.991  1.00  0.00     0.000 C 
ENDROOT
BRANCH   1   2
ATOM      2  C   UNL     1      17.604  43.705   6.220  1.00  0.00     0.000 C 
BRANCH   2   3
ATOM      3  C   UNL     1      16.974  44.989   6.781  1.00  0.00     0.000 C 
BRANCH   3   4
ATOM      4  C   UNL     1      16.867  44.983   8.317  1.00  0.00     0.000 C 
BRANCH   4   5
ATOM      5  C   UNL     1      16.613  43.602   8.948  1.00  0.00     0.000 C 
BRANCH   5   6
ATOM      6  C   UNL     1      15.134  43.189   8.909  1.00  0.00     0.006 C 
BRANCH   6   7
ATOM      7  C   UNL     1      14.949  41.890   8.120  1.00  0.00     0.053 C 
BRANCH   7   8
ATOM      8  C   UNL     1      15.139  40.703   9.009  1.00  0.00     0.041 C 
ATOM      9  O   UNL     1      16.211  40.042   8.964  1.00  0.00    -0.550 OA
ATOM     10  O   UNL     1      14.114  40.293   9.852  1.00  0.00    -0.550 OA
ENDBRANCH   7   8
ENDBRANCH   6   7
ENDBRANCH   5   6
ENDBRANCH   4   5
ENDBRANCH   3   4
ENDBRANCH   2   3
ENDBRANCH   1   2
BRANCH   1  11
ATOM     11  C   UNL     1      16.051  44.353   4.331  1.00  0.00     0.000 C 
BRANCH  11  12
ATOM     12  C   UNL     1      14.750  43.881   3.660  1.00  0.00     0.000 C 
BRANCH  12  13
ATOM     13  C   UNL     1      13.455  44.413   4.306  1.00  0.00     0.000 C 
BRANCH  13  14
ATOM     14  C   UNL     1      13.219  45.928   4.147  1.00  0.00     0.000 C 
BRANCH  14  15
ATOM     15  C   UNL     1      13.333  46.745   5.449  1.00  0.00     0.000 C 
BRANCH  15  16
ATOM     16  C   UNL     1      13.706  45.928   6.698  1.00  0.00     0.006 C 
BRANCH  16  17
ATOM     17  C   UNL     1      12.798  46.223   7.898  1.00  0.00     0.053 C 
BRANCH  17  18
ATOM     18  C   UNL     1      11.933  45.042   8.203  1.00  0.00     0.041 C 
ATOM     19  O   UNL     1      11.824  44.626   9.387  1.00  0.00    -0.550 OA
ATOM     20  O   UNL     1      11.207  44.432   7.189  1.00  0.00    -0.550 OA
ENDBRANCH  17  18
ENDBRANCH  16  17
ENDBRANCH  15  16
ENDBRANCH  14  15
ENDBRANCH  13  14
ENDBRANCH  12  13
ENDBRANCH  11  12
ENDBRANCH   1  11
TORSDOF 15
ENDMDL
MODEL 2
REMARK VINA RESULT:    -5.068      2.272      3.595
REMARK INTER + INTRA:         -11.599
REMARK INTER:                  -9.570
REMARK INTRA:                  -2.029
REMARK UNBOUND:                -2.086
REMARK SMILES O=C([O-])CCCCCCCCCCCCCCC(=O)[O-]
REMARK SMILES IDX 10 1 9 2 8 3 7 4 6 5 5 6 4 7 2 8 1 9 3 10 11 11 12 12 13 13
REMARK SMILES IDX 14 14 15 15 16 16 17 17 18 18 19 19 20 20
REMARK H PARENT
REMARK Flexibility Score: inf
ROOT
ATOM      1  C   UNL     1      14.671  43.723   3.793  1.00  0.00     0.000 C 
ENDROOT
BRANCH   1   2
ATOM      2  C   UNL     1      13.308  43.186   3.338  1.00  0.00     0.000 C 
BRANCH   2   3
ATOM      3  C   UNL     1      12.668  42.318   4.430  1.00  0.00     0.000 C 
BRANCH   3   4
ATOM      4  C   UNL     1      12.815  42.920   5.840  1.00  0.00     0.000 C 
BRANCH   4   5
ATOM      5  C   UNL     1      13.945  42.316   6.692  1.00  0.00     0.000 C 
BRANCH   5   6
ATOM      6  C   UNL     1      14.689  43.365   7.532  1.00  0.00     0.006 C 
BRANCH   6   7
ATOM      7  C   UNL     1      16.182  43.040   7.620  1.00  0.00     0.053 C 
BRANCH   7   8
ATOM      8  C   UNL     1      16.988  44.071   6.897  1.00  0.00     0.041 C 
ATOM      9  O   UNL     1      16.883  45.288   7.203  1.00  0.00    -0.550 OA
ATOM     10  O   UNL     1      17.819  43.695   5.848  1.00  0.00    -0.550 OA
ENDBRANCH   7   8
ENDBRANCH   6   7
ENDBRANCH   5   6
ENDBRANCH   4   5
ENDBRANCH   3   4
ENDBRANCH   2   3
ENDBRANCH   1   2
BRANCH   1  11
ATOM     11  C   UNL     1      14.743  45.249   3.627  1.00  0.00     0.000 C 
BRANCH  11  12
ATOM     12  C   UNL     1      14.286  46.010   4.884  1.00  0.00     0.000 C 
BRANCH  12  13
ATOM     13  C   UNL     1      12.834  46.528   4.838  1.00  0.00     0.000 C 
BRANCH  13  14
ATOM     14  C   UNL     1      12.332  47.179   6.141  1.00  0.00     0.000 C 
BRANCH  14  15
ATOM     15  C   UNL     1      12.579  46.353   7.420  1.00  0.00     0.000 C 
BRANCH  15  16
ATOM     16  C   UNL     1      11.355  45.577   7.938  1.00  0.00     0.006 C 
BRANCH  16  17
ATOM     17  C   UNL     1      11.672  44.711   9.163  1.00  0.00     0.053 C 
BRANCH  17  18
ATOM     18  C   UNL     1      10.411  44.289   9.846  1.00  0.00     0.041 C 
ATOM     19  O   UNL     1      10.427  43.963  11.063  1.00  0.00    -0.550 OA
ATOM     20  O   UNL     1       9.207  44.302   9.153  1.00  0.00    -0.550 OA
ENDBRANCH  17  18
ENDBRANCH  16  17
ENDBRANCH  15  16
ENDBRANCH  14  15
ENDBRANCH  13  14
ENDBRANCH  12  13
ENDBRANCH  11  12
ENDBRANCH   1  11
TORSDOF 15
ENDMDL
MODEL 3
REMARK VINA RESULT:    -4.996      2.381      5.171
REMARK INTER + INTRA:         -11.463
REMARK INTER:                  -9.189
REMARK INTRA:                  -2.274
REMARK UNBOUND:                -2.086
REMARK SMILES O=C([O-])CCCCCCCCCCCCCCC(=O)[O-]
REMARK SMILES IDX 10 1 9 2 8 3 7 4 6 5 5 6 4 7 2 8 1 9 3 10 11 11 12 12 13 13
REMARK SMILES IDX 14 14 15 15 16 16 17 17 18 18 19 19 20 20
REMARK H PARENT
REMARK Flexibility Score: inf
ROOT
ATOM      1  C   UNL     1      13.816  45.818   4.005  1.00  0.00     0.000 C 
ENDROOT
BRANCH   1   2
ATOM      2  C   UNL     1      14.069  46.415   5.395  1.00  0.00     0.000 C 
BRANCH   2   3
ATOM      3  C   UNL     1      12.747  46.803   6.075  1.00  0.00     0.000 C 
BRANCH   3   4
ATOM      4  C   UNL     1      12.724  46.469   7.578  1.00  0.00     0.000 C 
BRANCH   4   5
ATOM      5  C   UNL     1      11.432  45.796   8.076  1.00  0.00     0.000 C 
BRANCH   5   6
ATOM      6  C   UNL     1      10.373  45.644   6.975  1.00  0.00     0.006 C 
BRANCH   6   7
ATOM      7  C   UNL     1       8.963  45.845   7.537  1.00  0.00     0.053 C 
BRANCH   7   8
ATOM      8  C   UNL     1       8.177  44.576   7.453  1.00  0.00     0.041 C 
ATOM      9  O   UNL     1       8.685  43.488   7.834  1.00  0.00    -0.550 OA
ATOM     10  O   UNL     1       6.901  44.584   6.904  1.00  0.00    -0.550 OA
ENDBRANCH   7   8
ENDBRANCH   6   7
ENDBRANCH   5   6
ENDBRANCH   4   5
ENDBRANCH   3   4
ENDBRANCH   2   3
ENDBRANCH   1   2
BRANCH   1  11
ATOM     11  C   UNL     1      14.885  44.771   3.654  1.00  0.00     0.000 C 
BRANCH  11  12
ATOM     12  C   UNL     1      14.286  43.395   3.315  1.00  0.00     0.000 C 
BRANCH  12  13
ATOM     13  C   UNL     1      12.830  43.186   3.778  1.00  0.00     0.000 C 
BRANCH  13  14
ATOM     14  C   UNL     1      12.665  42.314   5.037  1.00  0.00     0.000 C 
BRANCH  14  15
ATOM     15  C   UNL     1      13.112  42.979   6.355  1.00  0.00     0.000 C 
BRANCH  15  16
ATOM     16  C   UNL     1      14.375  42.373   6.991  1.00  0.00     0.006 C 
BRANCH  16  17
ATOM     17  C   UNL     1      15.590  43.305   6.910  1.00  0.00     0.053 C 
BRANCH  17  18
ATOM     18  C   UNL     1      15.761  44.056   8.192  1.00  0.00     0.041 C 
ATOM     19  O   UNL     1      16.145  45.256   8.177  1.00  0.00    -0.550 OA
ATOM     20  O   UNL     1      15.447  43.448   9.400  1.00  0.00    -0.550 OA
ENDBRANCH  17  18
ENDBRANCH  16  17
ENDBRANCH  15  16
ENDBRANCH  14  15
ENDBRANCH  13  14
ENDBRANCH  12  13
ENDBRANCH  11  12
ENDBRANCH   1  11
TORSDOF 15
ENDMDL
MODEL 4
REMARK VINA RESULT:    -4.989      2.381      5.130
REMARK INTER + INTRA:         -11.450
REMARK INTER:                  -9.059
REMARK INTRA:                  -2.391
REMARK UNBOUND:                -2.086
REMARK SMILES O=C([O-])CCCCCCCCCCCCCCC(=O)[O-]
REMARK SMILES IDX 10 1 9 2 8 3 7 4 6 5 5 6 4 7 2 8 1 9 3 10 11 11 12 12 13 13
REMARK SMILES IDX 14 14 15 15 16 16 17 17 18 18 19 19 20 20
REMARK H PARENT
REMARK Flexibility Score: inf
ROOT
ATOM      1  C   UNL     1      14.577  45.160   3.642  1.00  0.00     0.000 C 
ENDROOT
BRANCH   1   2
ATOM      2  C   UNL     1      13.417  45.977   4.226  1.00  0.00     0.000 C 
BRANCH   2   3
ATOM      3  C   UNL     1      13.842  46.687   5.520  1.00  0.00     0.000 C 
BRANCH   3   4
ATOM      4  C   UNL     1      12.657  46.990   6.455  1.00  0.00     0.000 C 
BRANCH   4   5
ATOM      5  C   UNL     1      11.273  46.610   5.899  1.00  0.00     0.000 C 
BRANCH   5   6
ATOM      6  C   UNL     1      10.236  46.349   7.001  1.00  0.00     0.006 C 
BRANCH   6   7
ATOM      7  C   UNL     1      10.319  44.904   7.501  1.00  0.00     0.053 C 
BRANCH   7   8
ATOM      8  C   UNL     1       9.981  44.831   8.956  1.00  0.00     0.041 C 
ATOM      9  O   UNL     1       8.969  45.434   9.403  1.00  0.00    -0.550 OA
ATOM     10  O   UNL     1      10.812  44.141   9.830  1.00  0.00    -0.550 OA
ENDBRANCH   7   8
ENDBRANCH   6   7
ENDBRANCH   5   6
ENDBRANCH   4   5
ENDBRANCH   3   4
ENDBRANCH   2   3
ENDBRANCH   1   2
BRANCH   1  11
ATOM     11  C   UNL     1      14.214  43.669   3.562  1.00  0.00     0.000 C 
BRANCH  11  12
ATOM     12  C   UNL     1      12.705  43.412   3.716  1.00  0.00     0.000 C 
BRANCH  12  13
ATOM     13  C   UNL     1      12.318  42.489   4.890  1.00  0.00     0.000 C 
BRANCH  13  14
ATOM     14  C   UNL     1      13.404  42.317   5.970  1.00  0.00     0.000 C 
BRANCH  14  15
ATOM     15  C   UNL     1      13.406  43.398   7.070  1.00  0.00     0.000 C 
BRANCH  15  16
ATOM     16  C   UNL     1      14.749  43.580   7.797  1.00  0.00     0.006 C 
BRANCH  16  17
ATOM     17  C   UNL     1      15.929  42.962   7.037  1.00  0.00     0.053 C 
BRANCH  17  18
ATOM     18  C   UNL     1      16.929  44.014   6.678  1.00  0.00     0.041 C 
ATOM     19  O   UNL     1      17.918  43.726   5.953  1.00  0.00    -0.550 OA
ATOM     20  O   UNL     1      16.744  45.323   7.101  1.00  0.00    -0.550 OA
ENDBRANCH  17  18
ENDBRANCH  16  17
ENDBRANCH  15  16
ENDBRANCH  14  15
ENDBRANCH  13  14
ENDBRANCH  12  13
ENDBRANCH  11  12
ENDBRANCH   1  11
TORSDOF 15
ENDMDL
MODEL 5
REMARK VINA RESULT:    -4.981      1.757      3.459
REMARK INTER + INTRA:         -11.434
REMARK INTER:                  -9.400
REMARK INTRA:                  -2.034
REMARK UNBOUND:                -2.086
REMARK SMILES O=C([O-])CCCCCCCCCCCCCCC(=O)[O-]
REMARK SMILES IDX 10 1 9 2 8 3 7 4 6 5 5 6 4 7 2 8 1 9 3 10 11 11 12 12 13 13
REMARK SMILES IDX 14 14 15 15 16 16 17 17 18 18 19 19 20 20
REMARK H PARENT
REMARK Flexibility Score: inf
ROOT
ATOM      1  C   UNL     1      12.581  43.940   4.702  1.00  0.00     0.000 C 
ENDROOT
BRANCH   1   2
ATOM      2  C   UNL     1      13.868  43.107   4.643  1.00  0.00     0.000 C 
BRANCH   2   3
ATOM      3  C   UNL     1      14.855  43.694   3.624  1.00  0.00     0.000 C 
BRANCH   3   4
ATOM      4  C   UNL     1      16.112  44.294   4.281  1.00  0.00     0.000 C 
BRANCH   4   5
ATOM      5  C   UNL     1      16.946  43.306   5.116  1.00  0.00     0.000 C 
BRANCH   5   6
ATOM      6  C   UNL     1      17.534  43.942   6.385  1.00  0.00     0.006 C 
BRANCH   6   7
ATOM      7  C   UNL     1      16.424  44.463   7.302  1.00  0.00     0.053 C 
BRANCH   7   8
ATOM      8  C   UNL     1      16.445  43.744   8.613  1.00  0.00     0.041 C 
ATOM      9  O   UNL     1      15.378  43.288   9.104  1.00  0.00    -0.550 OA
ATOM     10  O   UNL     1      17.634  43.623   9.321  1.00  0.00    -0.550 OA
ENDBRANCH   7   8
ENDBRANCH   6   7
ENDBRANCH   5   6
ENDBRANCH   4   5
ENDBRANCH   3   4
ENDBRANCH   2   3
ENDBRANCH   1   2
BRANCH   1  11
ATOM     11  C   UNL     1      12.645  45.121   3.723  1.00  0.00     0.000 C 
BRANCH  11  12
ATOM     12  C   UNL     1      12.530  46.486   4.424  1.00  0.00     0.000 C 
BRANCH  12  13
ATOM     13  C   UNL     1      13.411  46.649   5.679  1.00  0.00     0.000 C 
BRANCH  13  14
ATOM     14  C   UNL     1      12.639  46.868   6.995  1.00  0.00     0.000 C 
BRANCH  14  15
ATOM     15  C   UNL     1      13.039  45.928   8.150  1.00  0.00     0.000 C 
BRANCH  15  16
ATOM     16  C   UNL     1      12.232  44.621   8.231  1.00  0.00     0.006 C 
BRANCH  16  17
ATOM     17  C   UNL     1      10.729  44.832   8.012  1.00  0.00     0.053 C 
BRANCH  17  18
ATOM     18  C   UNL     1       9.967  44.500   9.256  1.00  0.00     0.041 C 
ATOM     19  O   UNL     1       8.713  44.607   9.278  1.00  0.00    -0.550 OA
ATOM     20  O   UNL     1      10.637  44.023  10.375  1.00  0.00    -0.550 OA
ENDBRANCH  17  18
ENDBRANCH  16  17
ENDBRANCH  15  16
ENDBRANCH  14  15
ENDBRANCH  13  14
ENDBRANCH  12  13
ENDBRANCH  11  12
ENDBRANCH   1  11
TORSDOF 15
ENDMDL
MODEL 6
REMARK VINA RESULT:    -4.966      1.170      2.200
REMARK INTER + INTRA:         -11.406
REMARK INTER:                  -9.740
REMARK INTRA:                  -1.666
REMARK UNBOUND:                -2.086
REMARK SMILES O=C([O-])CCCCCCCCCCCCCCC(=O)[O-]
REMARK SMILES IDX 10 1 9 2 8 3 7 4 6 5 5 6 4 7 2 8 1 9 3 10 11 11 12 12 13 13
REMARK SMILES IDX 14 14 15 15 16 16 17 17 18 18 19 19 20 20
REMARK H PARENT
REMARK Flexibility Score: inf
ROOT
ATOM      1  C   UNL     1      15.095  43.723   3.679  1.00  0.00     0.000 C 
ENDROOT
BRANCH   1   2
ATOM      2  C   UNL     1      15.523  43.373   5.110  1.00  0.00     0.000 C 
BRANCH   2   3
ATOM      3  C   UNL     1      17.053  43.293   5.222  1.00  0.00     0.000 C 
BRANCH   3   4
ATOM      4  C   UNL     1      17.606  44.046   6.446  1.00  0.00     0.000 C 
BRANCH   4   5
ATOM      5  C   UNL     1      16.693  45.158   6.994  1.00  0.00     0.000 C 
BRANCH   5   6
ATOM      6  C   UNL     1      16.305  44.943   8.465  1.00  0.00     0.006 C 
BRANCH   6   7
ATOM      7  C   UNL     1      16.541  43.491   8.888  1.00  0.00     0.053 C 
BRANCH   7   8
ATOM      8  C   UNL     1      15.254  42.729   8.895  1.00  0.00     0.041 C 
ATOM      9  O   UNL     1      15.249  41.495   9.146  1.00  0.00    -0.550 OA
ATOM     10  O   UNL     1      14.065  43.370   8.572  1.00  0.00    -0.550 OA
ENDBRANCH   7   8
ENDBRANCH   6   7
ENDBRANCH   5   6
ENDBRANCH   4   5
ENDBRANCH   3   4
ENDBRANCH   2   3
ENDBRANCH   1   2
BRANCH   1  11
ATOM     11  C   UNL     1      13.592  43.476   3.479  1.00  0.00     0.000 C 
BRANCH  11  12
ATOM     12  C   UNL     1      12.713  44.446   4.288  1.00  0.00     0.000 C 
BRANCH  12  13
ATOM     13  C   UNL     1      13.054  45.938   4.106  1.00  0.00     0.000 C 
BRANCH  13  14
ATOM     14  C   UNL     1      13.656  46.626   5.347  1.00  0.00     0.000 C 
BRANCH  14  15
ATOM     15  C   UNL     1      12.624  47.183   6.349  1.00  0.00     0.000 C 
BRANCH  15  16
ATOM     16  C   UNL     1      12.266  46.235   7.506  1.00  0.00     0.006 C 
BRANCH  16  17
ATOM     17  C   UNL     1      10.755  46.125   7.742  1.00  0.00     0.053 C 
BRANCH  17  18
ATOM     18  C   UNL     1      10.444  44.936   8.594  1.00  0.00     0.041 C 
ATOM     19  O   UNL     1       9.450  44.209   8.329  1.00  0.00    -0.550 OA
ATOM     20  O   UNL     1      11.278  44.602   9.653  1.00  0.00    -0.550 OA
ENDBRANCH  17  18
ENDBRANCH  16  17
ENDBRANCH  15  16
ENDBRANCH  14  15
ENDBRANCH  13  14
ENDBRANCH  12  13
ENDBRANCH  11  12
ENDBRANCH   1  11
TORSDOF 15
ENDMDL
MODEL 7
REMARK VINA RESULT:    -4.960      2.253      4.400
REMARK INTER + INTRA:         -11.396
REMARK INTER:                  -9.399
REMARK INTRA:                  -1.997
REMARK UNBOUND:                -2.086
REMARK SMILES O=C([O-])CCCCCCCCCCCCCCC(=O)[O-]
REMARK SMILES IDX 10 1 9 2 8 3 7 4 6 5 5 6 4 7 2 8 1 9 3 10 11 11 12 12 13 13
REMARK SMILES IDX 14 14 15 15 16 16 17 17 18 18 19 19 20 20
REMARK H PARENT
REMARK Flexibility Score: inf
ROOT
ATOM      1  C   UNL     1      10.935  46.119   7.108  1.00  0.00     0.000 C 
ENDROOT
BRANCH   1   2
ATOM      2  C   UNL     1      12.053  45.990   8.150  1.00  0.00     0.000 C 
BRANCH   2   3
ATOM      3  C   UNL     1      12.285  44.520   8.528  1.00  0.00     0.000 C 
BRANCH   3   4
ATOM      4  C   UNL     1      13.758  44.091   8.401  1.00  0.00     0.000 C 
BRANCH   4   5
ATOM      5  C   UNL     1      13.993  42.799   7.597  1.00  0.00     0.000 C 
BRANCH   5   6
ATOM      6  C   UNL     1      15.401  42.217   7.798  1.00  0.00     0.006 C 
BRANCH   6   7
ATOM      7  C   UNL     1      16.401  42.853   6.829  1.00  0.00     0.053 C 
BRANCH   7   8
ATOM      8  C   UNL     1      17.306  43.798   7.553  1.00  0.00     0.041 C 
ATOM      9  O   UNL     1      17.846  43.455   8.638  1.00  0.00    -0.550 OA
ATOM     10  O   UNL     1      17.512  45.080   7.058  1.00  0.00    -0.550 OA
ENDBRANCH   7   8
ENDBRANCH   6   7
ENDBRANCH   5   6
ENDBRANCH   4   5
ENDBRANCH   3   4
ENDBRANCH   2   3
ENDBRANCH   1   2
BRANCH   1  11
ATOM     11  C   UNL     1      11.272  47.200   6.070  1.00  0.00     0.000 C 
BRANCH  11  12
ATOM     12  C   UNL     1      12.125  46.666   4.906  1.00  0.00     0.000 C 
BRANCH  12  13
ATOM     13  C   UNL     1      13.649  46.798   5.102  1.00  0.00     0.000 C 
BRANCH  13  14
ATOM     14  C   UNL     1      14.432  45.472   5.041  1.00  0.00     0.000 C 
BRANCH  14  15
ATOM     15  C   UNL     1      14.497  44.816   3.647  1.00  0.00     0.000 C 
BRANCH  15  16
ATOM     16  C   UNL     1      14.347  43.285   3.643  1.00  0.00     0.006 C 
BRANCH  16  17
ATOM     17  C   UNL     1      12.927  42.826   3.289  1.00  0.00     0.053 C 
BRANCH  17  18
ATOM     18  C   UNL     1      12.194  42.397   4.520  1.00  0.00     0.041 C 
ATOM     19  O   UNL     1      12.243  41.197   4.900  1.00  0.00    -0.550 OA
ATOM     20  O   UNL     1      11.498  43.330   5.276  1.00  0.00    -0.550 OA
ENDBRANCH  17  18
ENDBRANCH  16  17
ENDBRANCH  15  16
ENDBRANCH  14  15
ENDBRANCH  13  14
ENDBRANCH  12  13
ENDBRANCH  11  12
ENDBRANCH   1  11
TORSDOF 15
ENDMDL
MODEL 8
REMARK VINA RESULT:    -4.960      2.485      5.637
REMARK INTER + INTRA:         -11.395
REMARK INTER:                  -9.444
REMARK INTRA:                  -1.951
REMARK UNBOUND:                -2.086
REMARK SMILES O=C([O-])CCCCCCCCCCCCCCC(=O)[O-]
REMARK SMILES IDX 10 1 9 2 8 3 7 4 6 5 5 6 4 7 2 8 1 9 3 10 11 11 12 12 13 13
REMARK SMILES IDX 14 14 15 15 16 16 17 17 18 18 19 19 20 20
REMARK H PARENT
REMARK Flexibility Score: inf
ROOT
ATOM      1  C   UNL     1      12.107  45.045   5.957  1.00  0.00     0.000 C 
ENDROOT
BRANCH   1   2
ATOM      2  C   UNL     1      12.841  46.294   6.463  1.00  0.00     0.000 C 
BRANCH   2   3
ATOM      3  C   UNL     1      11.936  47.532   6.386  1.00  0.00     0.000 C 
BRANCH   3   4
ATOM      4  C   UNL     1      10.522  47.212   5.867  1.00  0.00     0.000 C 
BRANCH   4   5
ATOM      5  C   UNL     1       9.379  47.939   6.597  1.00  0.00     0.000 C 
BRANCH   5   6
ATOM      6  C   UNL     1       8.780  47.112   7.745  1.00  0.00     0.006 C 
BRANCH   6   7
ATOM      7  C   UNL     1       8.597  45.650   7.331  1.00  0.00     0.053 C 
BRANCH   7   8
ATOM      8  C   UNL     1       9.246  44.738   8.323  1.00  0.00     0.041 C 
ATOM      9  O   UNL     1       8.741  43.611   8.574  1.00  0.00    -0.550 OA
ATOM     10  O   UNL     1      10.380  45.151   9.011  1.00  0.00    -0.550 OA
ENDBRANCH   7   8
ENDBRANCH   6   7
ENDBRANCH   5   6
ENDBRANCH   4   5
ENDBRANCH   3   4
ENDBRANCH   2   3
ENDBRANCH   1   2
BRANCH   1  11
ATOM     11  C   UNL     1      12.759  44.506   4.676  1.00  0.00     0.000 C 
BRANCH  11  12
ATOM     12  C   UNL     1      13.577  45.572   3.925  1.00  0.00     0.000 C 
BRANCH  12  13
ATOM     13  C   UNL     1      15.011  45.149   3.552  1.00  0.00     0.000 C 
BRANCH  13  14
ATOM     14  C   UNL     1      15.289  43.636   3.638  1.00  0.00     0.000 C 
BRANCH  14  15
ATOM     15  C   UNL     1      16.749  43.258   3.962  1.00  0.00     0.000 C 
BRANCH  15  16
ATOM     16  C   UNL     1      17.100  43.252   5.461  1.00  0.00     0.006 C 
BRANCH  16  17
ATOM     17  C   UNL     1      15.910  42.872   6.351  1.00  0.00     0.053 C 
BRANCH  17  18
ATOM     18  C   UNL     1      15.566  43.999   7.272  1.00  0.00     0.041 C 
ATOM     19  O   UNL     1      14.844  43.791   8.284  1.00  0.00    -0.550 OA
ATOM     20  O   UNL     1      16.083  45.267   7.043  1.00  0.00    -0.550 OA
ENDBRANCH  17  18
ENDBRANCH  16  17
ENDBRANCH  15  16
ENDBRANCH  14  15
ENDBRANCH  13  14
ENDBRANCH  12  13
ENDBRANCH  11  12
ENDBRANCH   1  11
TORSDOF 15
ENDMDL
MODEL 9
REMARK VINA RESULT:    -4.921      2.258      5.627
REMARK INTER + INTRA:         -11.323
REMARK INTER:                  -9.066
REMARK INTRA:                  -2.256
REMARK UNBOUND:                -2.086
REMARK SMILES O=C([O-])CCCCCCCCCCCCCCC(=O)[O-]
REMARK SMILES IDX 10 1 9 2 8 3 7 4 6 5 5 6 4 7 2 8 1 9 3 10 11 11 12 12 13 13
REMARK SMILES IDX 14 14 15 15 16 16 17 17 18 18 19 19 20 20
REMARK H PARENT
REMARK Flexibility Score: inf
ROOT
ATOM      1  C   UNL     1      12.628  46.679   5.018  1.00  0.00     0.000 C 
ENDROOT
BRANCH   1   2
ATOM      2  C   UNL     1      13.530  46.277   6.192  1.00  0.00     0.000 C 
BRANCH   2   3
ATOM      3  C   UNL     1      12.827  46.523   7.534  1.00  0.00     0.000 C 
BRANCH   3   4
ATOM      4  C   UNL     1      12.604  45.232   8.342  1.00  0.00     0.000 C 
BRANCH   4   5
ATOM      5  C   UNL     1      11.131  44.871   8.603  1.00  0.00     0.000 C 
BRANCH   5   6
ATOM      6  C   UNL     1      10.360  44.535   7.318  1.00  0.00     0.006 C 
BRANCH   6   7
ATOM      7  C   UNL     1       8.932  45.085   7.375  1.00  0.00     0.053 C 
BRANCH   7   8
ATOM      8  C   UNL     1       8.948  46.572   7.530  1.00  0.00     0.041 C 
ATOM      9  O   UNL     1       8.409  47.111   8.532  1.00  0.00    -0.550 OA
ATOM     10  O   UNL     1       9.512  47.368   6.541  1.00  0.00    -0.550 OA
ENDBRANCH   7   8
ENDBRANCH   6   7
ENDBRANCH   5   6
ENDBRANCH   4   5
ENDBRANCH   3   4
ENDBRANCH   2   3
ENDBRANCH   1   2
BRANCH   1  11
ATOM     11  C   UNL     1      12.593  45.577   3.948  1.00  0.00     0.000 C 
BRANCH  11  12
ATOM     12  C   UNL     1      12.744  44.164   4.540  1.00  0.00     0.000 C 
BRANCH  12  13
ATOM     13  C   UNL     1      13.667  43.220   3.744  1.00  0.00     0.000 C 
BRANCH  13  14
ATOM     14  C   UNL     1      15.037  43.815   3.363  1.00  0.00     0.000 C 
BRANCH  14  15
ATOM     15  C   UNL     1      15.952  44.162   4.555  1.00  0.00     0.000 C 
BRANCH  15  16
ATOM     16  C   UNL     1      16.216  43.000   5.529  1.00  0.00     0.006 C 
BRANCH  16  17
ATOM     17  C   UNL     1      15.618  43.241   6.921  1.00  0.00     0.053 C 
BRANCH  17  18
ATOM     18  C   UNL     1      16.591  43.974   7.789  1.00  0.00     0.041 C 
ATOM     19  O   UNL     1      16.490  45.220   7.942  1.00  0.00    -0.550 OA
ATOM     20  O   UNL     1      17.580  43.275   8.468  1.00  0.00    -0.550 OA
ENDBRANCH  17  18
ENDBRANCH  16  17
ENDBRANCH  15  16
ENDBRANCH  14  15
ENDBRANCH  13  14
ENDBRANCH  12  13
ENDBRANCH  11  12
ENDBRANCH   1  11
TORSDOF 15
ENDMDL
