MODEL 1
REMARK VINA RESULT:    -2.863      0.000      0.000
REMARK INTER + INTRA:          -5.123
REMARK INTER:                  -4.370
REMARK INTRA:                  -0.753
REMARK UNBOUND:                -0.753
REMARK SMILES O=C([O-])CCCCCCCCC(=O)[O-]
REMARK SMILES IDX 7 1 6 2 5 3 4 4 2 5 1 6 3 7 8 8 9 9 10 10 11 11 12 12 13 13
REMARK SMILES IDX 14 14
REMARK H PARENT
REMARK Flexibility Score: inf
ROOT
ATOM      1  C   UNL     1      22.213  28.306  49.027  1.00  0.00     0.000 C 
ENDROOT
BRANCH   1   2
ATOM      2  C   UNL     1      22.535  28.935  47.660  1.00  0.00     0.000 C 
BRANCH   2   3
ATOM      3  C   UNL     1      23.835  29.759  47.679  1.00  0.00     0.006 C 
BRANCH   3   4
ATOM      4  C   UNL     1      23.740  31.090  46.915  1.00  0.00     0.053 C 
BRANCH   4   5
ATOM      5  C   UNL     1      24.684  31.140  45.753  1.00  0.00     0.041 C 
ATOM      6  O   UNL     1      25.613  31.990  45.728  1.00  0.00    -0.550 OA
ATOM      7  O   UNL     1      24.551  30.237  44.706  1.00  0.00    -0.550 OA
ENDBRANCH   4   5
ENDBRANCH   3   4
ENDBRANCH   2   3
ENDBRANCH   1   2
BRANCH   1   8
ATOM      8  C   UNL     1      22.726  29.168  50.201  1.00  0.00     0.000 C 
BRANCH   8   9
ATOM      9  C   UNL     1      21.604  29.746  51.086  1.00  0.00     0.000 C 
BRANCH   9  10
ATOM     10  C   UNL     1      21.478  31.277  51.049  1.00  0.00     0.006 C 
BRANCH  10  11
ATOM     11  C   UNL     1      21.166  31.815  49.646  1.00  0.00     0.053 C 
BRANCH  11  12
ATOM     12  C   UNL     1      20.019  32.772  49.700  1.00  0.00     0.041 C 
ATOM     13  O   UNL     1      20.168  33.962  49.313  1.00  0.00    -0.550 OA
ATOM     14  O   UNL     1      18.798  32.368  50.224  1.00  0.00    -0.550 OA
ENDBRANCH  11  12
ENDBRANCH  10  11
ENDBRANCH   9  10
ENDBRANCH   8   9
ENDBRANCH   1   8
TORSDOF 9
ENDMDL
MODEL 2
REMARK VINA RESULT:    -2.823      2.012      5.993
REMARK INTER + INTRA:          -5.061
REMARK INTER:                  -4.402
REMARK INTRA:                  -0.658
REMARK UNBOUND:                -0.753
REMARK SMILES O=C([O-])CCCCCCCCC(=O)[O-]
REMARK SMILES IDX 7 1 6 2 5 3 4 4 2 5 1 6 3 7 8 8 9 9 10 10 11 11 12 12 13 13
REMARK SMILES IDX 14 14
REMARK H PARENT
REMARK Flexibility Score: inf
ROOT
ATOM      1  C   UNL     1      20.859  32.408  47.955  1.00  0.00     0.000 C 
ENDROOT
BRANCH   1   2
ATOM      2  C   UNL     1      20.804  33.035  49.360  1.00  0.00     0.000 C 
BRANCH   2   3
ATOM      3  C   UNL     1      20.386  32.024  50.443  1.00  0.00     0.006 C 
BRANCH   3   4
ATOM      4  C   UNL     1      21.568  31.304  51.113  1.00  0.00     0.053 C 
BRANCH   4   5
ATOM      5  C   UNL     1      21.595  29.843  50.782  1.00  0.00     0.041 C 
ATOM      6  O   UNL     1      20.527  29.234  50.514  1.00  0.00    -0.550 OA
ATOM      7  O   UNL     1      22.802  29.157  50.752  1.00  0.00    -0.550 OA
ENDBRANCH   4   5
ENDBRANCH   3   4
ENDBRANCH   2   3
ENDBRANCH   1   2
BRANCH   1   8
ATOM      8  C   UNL     1      22.300  32.052  47.532  1.00  0.00     0.000 C 
BRANCH   8   9
ATOM      9  C   UNL     1      22.533  30.542  47.325  1.00  0.00     0.000 C 
BRANCH   9  10
ATOM     10  C   UNL     1      23.954  30.164  46.875  1.00  0.00     0.006 C 
BRANCH  10  11
ATOM     11  C   UNL     1      24.135  30.235  45.353  1.00  0.00     0.053 C 
BRANCH  11  12
ATOM     12  C   UNL     1      25.306  31.100  45.009  1.00  0.00     0.041 C 
ATOM     13  O   UNL     1      25.612  32.073  45.748  1.00  0.00    -0.550 OA
ATOM     14  O   UNL     1      26.029  30.864  43.847  1.00  0.00    -0.550 OA
ENDBRANCH  11  12
ENDBRANCH  10  11
ENDBRANCH   9  10
ENDBRANCH   8   9
ENDBRANCH   1   8
TORSDOF 9
ENDMDL
MODEL 3
REMARK VINA RESULT:    -2.821      1.552      2.247
REMARK INTER + INTRA:          -5.059
REMARK INTER:                  -4.336
REMARK INTRA:                  -0.723
REMARK UNBOUND:                -0.753
REMARK SMILES O=C([O-])CCCCCCCCC(=O)[O-]
REMARK SMILES IDX 7 1 6 2 5 3 4 4 2 5 1 6 3 7 8 8 9 9 10 10 11 11 12 12 13 13
REMARK SMILES IDX 14 14
REMARK H PARENT
REMARK Flexibility Score: inf
ROOT
ATOM      1  C   UNL     1      23.445  29.017  46.686  1.00  0.00     0.000 C 
ENDROOT
BRANCH   1   2
ATOM      2  C   UNL     1      23.735  30.061  45.593  1.00  0.00     0.000 C 
BRANCH   2   3
ATOM      3  C   UNL     1      24.159  31.423  46.173  1.00  0.00     0.006 C 
BRANCH   3   4
ATOM      4  C   UNL     1      25.545  31.895  45.704  1.00  0.00     0.053 C 
BRANCH   4   5
ATOM      5  C   UNL     1      25.668  31.883  44.211  1.00  0.00     0.041 C 
ATOM      6  O   UNL     1      25.051  32.734  43.518  1.00  0.00    -0.550 OA
ATOM      7  O   UNL     1      26.476  30.943  43.585  1.00  0.00    -0.550 OA
ENDBRANCH   4   5
ENDBRANCH   3   4
ENDBRANCH   2   3
ENDBRANCH   1   2
BRANCH   1   8
ATOM      8  C   UNL     1      23.830  29.523  48.093  1.00  0.00     0.000 C 
BRANCH   8   9
ATOM      9  C   UNL     1      22.744  29.282  49.160  1.00  0.00     0.000 C 
BRANCH   9  10
ATOM     10  C   UNL     1      21.412  30.003  48.900  1.00  0.00     0.006 C 
BRANCH  10  11
ATOM     11  C   UNL     1      21.575  31.522  48.764  1.00  0.00     0.053 C 
BRANCH  11  12
ATOM     12  C   UNL     1      20.894  32.221  49.897  1.00  0.00     0.041 C 
ATOM     13  O   UNL     1      21.072  31.829  51.081  1.00  0.00    -0.550 OA
ATOM     14  O   UNL     1      20.023  33.273  49.645  1.00  0.00    -0.550 OA
ENDBRANCH  11  12
ENDBRANCH  10  11
ENDBRANCH   9  10
ENDBRANCH   8   9
ENDBRANCH   1   8
TORSDOF 9
ENDMDL
MODEL 4
REMARK VINA RESULT:    -2.810      1.250      5.230
REMARK INTER + INTRA:          -5.041
REMARK INTER:                  -4.428
REMARK INTRA:                  -0.613
REMARK UNBOUND:                -0.753
REMARK SMILES O=C([O-])CCCCCCCCC(=O)[O-]
REMARK SMILES IDX 7 1 6 2 5 3 4 4 2 5 1 6 3 7 8 8 9 9 10 10 11 11 12 12 13 13
REMARK SMILES IDX 14 14
REMARK H PARENT
REMARK Flexibility Score: inf
ROOT
ATOM      1  C   UNL     1      22.418  27.935  49.294  1.00  0.00     0.000 C 
ENDROOT
BRANCH   1   2
ATOM      2  C   UNL     1      22.683  28.723  50.589  1.00  0.00     0.000 C 
BRANCH   2   3
ATOM      3  C   UNL     1      21.474  29.571  51.024  1.00  0.00     0.006 C 
BRANCH   3   4
ATOM      4  C   UNL     1      21.707  31.087  50.922  1.00  0.00     0.053 C 
BRANCH   4   5
ATOM      5  C   UNL     1      20.914  31.704  49.811  1.00  0.00     0.041 C 
ATOM      6  O   UNL     1      20.666  32.938  49.819  1.00  0.00    -0.550 OA
ATOM      7  O   UNL     1      20.464  30.920  48.757  1.00  0.00    -0.550 OA
ENDBRANCH   4   5
ENDBRANCH   3   4
ENDBRANCH   2   3
ENDBRANCH   1   2
BRANCH   1   8
ATOM      8  C   UNL     1      23.476  28.226  48.207  1.00  0.00     0.000 C 
BRANCH   8   9
ATOM      9  C   UNL     1      23.769  29.727  48.010  1.00  0.00     0.000 C 
BRANCH   9  10
ATOM     10  C   UNL     1      23.811  30.189  46.545  1.00  0.00     0.006 C 
BRANCH  10  11
ATOM     11  C   UNL     1      24.572  31.509  46.359  1.00  0.00     0.053 C 
BRANCH  11  12
ATOM     12  C   UNL     1      24.596  31.895  44.915  1.00  0.00     0.041 C 
ATOM     13  O   UNL     1      25.681  31.882  44.275  1.00  0.00    -0.550 OA
ATOM     14  O   UNL     1      23.432  32.320  44.288  1.00  0.00    -0.550 OA
ENDBRANCH  11  12
ENDBRANCH  10  11
ENDBRANCH   9  10
ENDBRANCH   8   9
ENDBRANCH   1   8
TORSDOF 9
ENDMDL
MODEL 5
REMARK VINA RESULT:    -2.790      1.495      2.036
REMARK INTER + INTRA:          -5.012
REMARK INTER:                  -4.047
REMARK INTRA:                  -0.964
REMARK UNBOUND:                -0.753
REMARK SMILES O=C([O-])CCCCCCCCC(=O)[O-]
REMARK SMILES IDX 7 1 6 2 5 3 4 4 2 5 1 6 3 7 8 8 9 9 10 10 11 11 12 12 13 13
REMARK SMILES IDX 14 14
REMARK H PARENT
REMARK Flexibility Score: inf
ROOT
ATOM      1  C   UNL     1      22.848  27.514  47.599  1.00  0.00     0.000 C 
ENDROOT
BRANCH   1   2
ATOM      2  C   UNL     1      22.978  28.785  46.741  1.00  0.00     0.000 C 
BRANCH   2   3
ATOM      3  C   UNL     1      23.959  29.808  47.342  1.00  0.00     0.006 C 
BRANCH   3   4
ATOM      4  C   UNL     1      23.597  31.271  47.037  1.00  0.00     0.053 C 
BRANCH   4   5
ATOM      5  C   UNL     1      24.300  31.780  45.815  1.00  0.00     0.041 C 
ATOM      6  O   UNL     1      25.555  31.876  45.801  1.00  0.00    -0.550 OA
ATOM      7  O   UNL     1      23.571  32.133  44.688  1.00  0.00    -0.550 OA
ENDBRANCH   4   5
ENDBRANCH   3   4
ENDBRANCH   2   3
ENDBRANCH   1   2
BRANCH   1   8
ATOM      8  C   UNL     1      23.699  27.590  48.886  1.00  0.00     0.000 C 
BRANCH   8   9
ATOM      9  C   UNL     1      22.887  27.394  50.181  1.00  0.00     0.000 C 
BRANCH   9  10
ATOM     10  C   UNL     1      21.765  28.422  50.402  1.00  0.00     0.006 C 
BRANCH  10  11
ATOM     11  C   UNL     1      22.294  29.853  50.566  1.00  0.00     0.053 C 
BRANCH  11  12
ATOM     12  C   UNL     1      21.308  30.836  50.020  1.00  0.00     0.041 C 
ATOM     13  O   UNL     1      21.072  31.906  50.641  1.00  0.00    -0.550 OA
ATOM     14  O   UNL     1      20.612  30.550  48.853  1.00  0.00    -0.550 OA
ENDBRANCH  11  12
ENDBRANCH  10  11
ENDBRANCH   9  10
ENDBRANCH   8   9
ENDBRANCH   1   8
TORSDOF 9
ENDMDL
MODEL 6
REMARK VINA RESULT:    -2.745      2.622      5.301
REMARK INTER + INTRA:          -4.942
REMARK INTER:                  -3.998
REMARK INTRA:                  -0.944
REMARK UNBOUND:                -0.753
REMARK SMILES O=C([O-])CCCCCCCCC(=O)[O-]
REMARK SMILES IDX 7 1 6 2 5 3 4 4 2 5 1 6 3 7 8 8 9 9 10 10 11 11 12 12 13 13
REMARK SMILES IDX 14 14
REMARK H PARENT
REMARK Flexibility Score: inf
ROOT
ATOM      1  C   UNL     1      20.601  31.267  49.643  1.00  0.00     0.000 C 
ENDROOT
BRANCH   1   2
ATOM      2  C   UNL     1      21.363  31.151  50.975  1.00  0.00     0.000 C 
BRANCH   2   3
ATOM      3  C   UNL     1      22.099  29.807  51.122  1.00  0.00     0.006 C 
BRANCH   3   4
ATOM      4  C   UNL     1      21.293  28.598  50.620  1.00  0.00     0.053 C 
BRANCH   4   5
ATOM      5  C   UNL     1      22.179  27.522  50.069  1.00  0.00     0.041 C 
ATOM      6  O   UNL     1      23.223  27.184  50.686  1.00  0.00    -0.550 OA
ATOM      7  O   UNL     1      21.844  26.881  48.884  1.00  0.00    -0.550 OA
ENDBRANCH   4   5
ENDBRANCH   3   4
ENDBRANCH   2   3
ENDBRANCH   1   2
BRANCH   1   8
ATOM      8  C   UNL     1      21.307  32.213  48.648  1.00  0.00     0.000 C 
BRANCH   8   9
ATOM      9  C   UNL     1      21.634  31.559  47.291  1.00  0.00     0.000 C 
BRANCH   9  10
ATOM     10  C   UNL     1      22.231  30.146  47.383  1.00  0.00     0.006 C 
BRANCH  10  11
ATOM     11  C   UNL     1      23.763  30.152  47.469  1.00  0.00     0.053 C 
BRANCH  11  12
ATOM     12  C   UNL     1      24.353  30.661  46.192  1.00  0.00     0.041 C 
ATOM     13  O   UNL     1      25.003  31.740  46.182  1.00  0.00    -0.550 OA
ATOM     14  O   UNL     1      24.143  29.972  45.005  1.00  0.00    -0.550 OA
ENDBRANCH  11  12
ENDBRANCH  10  11
ENDBRANCH   9  10
ENDBRANCH   8   9
ENDBRANCH   1   8
TORSDOF 9
ENDMDL
MODEL 7
REMARK VINA RESULT:    -2.735      2.054      3.401
REMARK INTER + INTRA:          -4.927
REMARK INTER:                  -3.929
REMARK INTRA:                  -0.998
REMARK UNBOUND:                -0.753
REMARK SMILES O=C([O-])CCCCCCCCC(=O)[O-]
REMARK SMILES IDX 7 1 6 2 5 3 4 4 2 5 1 6 3 7 8 8 9 9 10 10 11 11 12 12 13 13
REMARK SMILES IDX 14 14
REMARK H PARENT
REMARK Flexibility Score: inf
ROOT
ATOM      1  C   UNL     1      20.391  32.121  48.540  1.00  0.00     0.000 C 
ENDROOT
BRANCH   1   2
ATOM      2  C   UNL     1      21.876  32.218  48.147  1.00  0.00     0.000 C 
BRANCH   2   3
ATOM      3  C   UNL     1      22.245  31.274  46.989  1.00  0.00     0.006 C 
BRANCH   3   4
ATOM      4  C   UNL     1      23.651  30.663  47.106  1.00  0.00     0.053 C 
BRANCH   4   5
ATOM      5  C   UNL     1      24.486  30.939  45.893  1.00  0.00     0.041 C 
ATOM      6  O   UNL     1      25.299  31.900  45.890  1.00  0.00    -0.550 OA
ATOM      7  O   UNL     1      24.380  30.125  44.773  1.00  0.00    -0.550 OA
ENDBRANCH   4   5
ENDBRANCH   3   4
ENDBRANCH   2   3
ENDBRANCH   1   2
BRANCH   1   8
ATOM      8  C   UNL     1      20.202  31.901  50.057  1.00  0.00     0.000 C 
BRANCH   8   9
ATOM      9  C   UNL     1      21.476  31.419  50.779  1.00  0.00     0.000 C 
BRANCH   9  10
ATOM     10  C   UNL     1      21.494  29.921  51.125  1.00  0.00     0.006 C 
BRANCH  10  11
ATOM     11  C   UNL     1      22.593  29.152  50.380  1.00  0.00     0.053 C 
BRANCH  11  12
ATOM     12  C   UNL     1      21.992  28.288  49.316  1.00  0.00     0.041 C 
ATOM     13  O   UNL     1      20.825  28.516  48.901  1.00  0.00    -0.550 OA
ATOM     14  O   UNL     1      22.701  27.202  48.819  1.00  0.00    -0.550 OA
ENDBRANCH  11  12
ENDBRANCH  10  11
ENDBRANCH   9  10
ENDBRANCH   8   9
ENDBRANCH   1   8
TORSDOF 9
ENDMDL
MODEL 8
REMARK VINA RESULT:    -2.729      1.651      4.797
REMARK INTER + INTRA:          -4.918
REMARK INTER:                  -3.831
REMARK INTRA:                  -1.087
REMARK UNBOUND:                -0.753
REMARK SMILES O=C([O-])CCCCCCCCC(=O)[O-]
REMARK SMILES IDX 7 1 6 2 5 3 4 4 2 5 1 6 3 7 8 8 9 9 10 10 11 11 12 12 13 13
REMARK SMILES IDX 14 14
REMARK H PARENT
REMARK Flexibility Score: inf
ROOT
ATOM      1  C   UNL     1      21.183  28.441  50.359  1.00  0.00     0.000 C 
ENDROOT
BRANCH   1   2
ATOM      2  C   UNL     1      22.115  29.406  51.113  1.00  0.00     0.000 C 
BRANCH   2   3
ATOM      3  C   UNL     1      21.704  30.880  50.944  1.00  0.00     0.006 C 
BRANCH   3   4
ATOM      4  C   UNL     1      20.188  31.089  50.788  1.00  0.00     0.053 C 
BRANCH   4   5
ATOM      5  C   UNL     1      19.871  32.263  49.912  1.00  0.00     0.041 C 
ATOM      6  O   UNL     1      18.724  32.384  49.408  1.00  0.00    -0.550 OA
ATOM      7  O   UNL     1      20.836  33.231  49.665  1.00  0.00    -0.550 OA
ENDBRANCH   4   5
ENDBRANCH   3   4
ENDBRANCH   2   3
ENDBRANCH   1   2
BRANCH   1   8
ATOM      8  C   UNL     1      21.966  27.336  49.617  1.00  0.00     0.000 C 
BRANCH   8   9
ATOM      9  C   UNL     1      23.334  27.797  49.078  1.00  0.00     0.000 C 
BRANCH   9  10
ATOM     10  C   UNL     1      23.295  28.437  47.681  1.00  0.00     0.006 C 
BRANCH  10  11
ATOM     11  C   UNL     1      23.796  29.887  47.677  1.00  0.00     0.053 C 
BRANCH  11  12
ATOM     12  C   UNL     1      22.662  30.828  47.422  1.00  0.00     0.041 C 
ATOM     13  O   UNL     1      21.478  30.400  47.399  1.00  0.00    -0.550 OA
ATOM     14  O   UNL     1      22.914  32.168  47.161  1.00  0.00    -0.550 OA
ENDBRANCH  11  12
ENDBRANCH  10  11
ENDBRANCH   9  10
ENDBRANCH   8   9
ENDBRANCH   1   8
TORSDOF 9
ENDMDL
MODEL 9
REMARK VINA RESULT:    -2.694      2.571      3.594
REMARK INTER + INTRA:          -4.864
REMARK INTER:                  -3.876
REMARK INTRA:                  -0.988
REMARK UNBOUND:                -0.753
REMARK SMILES O=C([O-])CCCCCCCCC(=O)[O-]
REMARK SMILES IDX 7 1 6 2 5 3 4 4 2 5 1 6 3 7 8 8 9 9 10 10 11 11 12 12 13 13
REMARK SMILES IDX 14 14
REMARK H PARENT
REMARK Flexibility Score: inf
ROOT
ATOM      1  C   UNL     1      21.037  31.139  47.844  1.00  0.00     0.000 C 
ENDROOT
BRANCH   1   2
ATOM      2  C   UNL     1      22.189  32.099  47.497  1.00  0.00     0.000 C 
BRANCH   2   3
ATOM      3  C   UNL     1      23.451  31.360  47.017  1.00  0.00     0.006 C 
BRANCH   3   4
ATOM      4  C   UNL     1      23.674  29.999  47.698  1.00  0.00     0.053 C 
BRANCH   4   5
ATOM      5  C   UNL     1      23.550  28.861  46.731  1.00  0.00     0.041 C 
ATOM      6  O   UNL     1      23.508  29.083  45.493  1.00  0.00    -0.550 OA
ATOM      7  O   UNL     1      23.499  27.553  47.196  1.00  0.00    -0.550 OA
ENDBRANCH   4   5
ENDBRANCH   3   4
ENDBRANCH   2   3
ENDBRANCH   1   2
BRANCH   1   8
ATOM      8  C   UNL     1      20.206  31.636  49.047  1.00  0.00     0.000 C 
BRANCH   8   9
ATOM      9  C   UNL     1      21.047  31.936  50.303  1.00  0.00     0.000 C 
BRANCH   9  10
ATOM     10  C   UNL     1      21.832  30.735  50.856  1.00  0.00     0.006 C 
BRANCH  10  11
ATOM     11  C   UNL     1      20.953  29.496  51.067  1.00  0.00     0.053 C 
BRANCH  11  12
ATOM     12  C   UNL     1      21.491  28.339  50.287  1.00  0.00     0.041 C 
ATOM     13  O   UNL     1      22.617  27.853  50.572  1.00  0.00    -0.550 OA
ATOM     14  O   UNL     1      20.773  27.829  49.213  1.00  0.00    -0.550 OA
ENDBRANCH  11  12
ENDBRANCH  10  11
ENDBRANCH   9  10
ENDBRANCH   8   9
ENDBRANCH   1   8
TORSDOF 9
ENDMDL
