MODEL 1
REMARK VINA RESULT:    -7.443      0.000      0.000
REMARK INTER + INTRA:          -8.180
REMARK INTER:                  -7.878
REMARK INTRA:                  -0.302
REMARK UNBOUND:                -0.302
REMARK SMILES C[C@H]1O[C@@H](OC[C@H]2O[C@@H](Oc3c(-c4ccc(O)c(O)c4)oc4cc(O)cc(O)c4c3=O)[C@@H](O)[C@@H](O)[C@@H]2O)[C@H](O)[C@@H](O)[C@H]1O
REMARK SMILES IDX 7 1 36 2 34 3 32 4 9 5 8 6 6 7 5 8 4 9 1 10 2 11 42 12 3 13
REMARK SMILES IDX 40 14 38 15 43 16 41 18 39 20 37 22 35 24 10 26 11 27 12 28
REMARK SMILES IDX 30 29 21 30 29 31 31 32 22 33 27 34 23 35 26 36 24 37 13 38
REMARK SMILES IDX 20 39 14 40 18 41 15 42 16 43 19 44 17 46 28 48 25 50 33 52
REMARK H PARENT 43 17 41 19 39 21 37 23 35 25 19 45 17 47 28 49 25 51 33 53
REMARK Flexibility Score: inf
ROOT
ATOM      1  C   UNL     1      30.892 179.616  31.608  1.00  0.00     0.180 C 
ATOM      2  C   UNL     1      29.487 177.773  30.560  1.00  0.00     0.177 C 
ATOM      3  C   UNL     1      29.815 175.784  31.343  1.00  0.00     0.180 C 
ATOM      4  C   UNL     1      31.520 177.235  32.548  1.00  0.00     0.214 C 
ATOM      5  C   UNL     1      32.807 176.589  31.431  1.00  0.00     0.339 C 
ATOM      6  O   UNL     1      31.635 178.635  30.131  1.00  0.00    -0.332 OA
ENDROOT
BRANCH   1   7
ATOM      7  C   UNL     1      33.950 181.152  31.749  1.00  0.00     0.198 C 
BRANCH   7   8
ATOM      8  O   UNL     1      35.214 183.977  30.458  1.00  0.00    -0.347 OA
BRANCH   8   9
ATOM      9  C   UNL     1      36.130 184.377  34.388  1.00  0.00     0.281 C 
ATOM     10  C   UNL     1      36.023 189.106  33.267  1.00  0.00     0.041 C 
ATOM     11  C   UNL     1      38.881 187.758  33.798  1.00  0.00     0.150 C 
ATOM     12  C   UNL     1      41.090 185.823  34.525  1.00  0.00     0.174 C 
ATOM     13  O   UNL     1      37.460 186.866  34.874  1.00  0.00    -0.344 OA
ATOM     14  C   UNL     1      41.566 183.717  34.888  1.00  0.00     0.179 C 
ATOM     15  C   UNL     1      39.056 184.385  34.623  1.00  0.00     0.202 C 
BRANCH  12  16
ATOM     16  O   UNL     1      42.272 186.347  33.730  1.00  0.00    -0.388 OA
ATOM     17  H   UNL     1      43.044 185.924  32.725  1.00  0.00     0.211 HD
ENDBRANCH  12  16
BRANCH  14  18
ATOM     18  O   UNL     1      43.663 184.438  33.940  1.00  0.00    -0.387 OA
ATOM     19  H   UNL     1      45.734 185.148  32.846  1.00  0.00     0.211 HD
ENDBRANCH  14  18
BRANCH  15  20
ATOM     20  O   UNL     1      37.728 184.116  33.296  1.00  0.00    -0.385 OA
ATOM     21  H   UNL     1      36.953 184.814  33.365  1.00  0.00     0.211 HD
ENDBRANCH  15  20
ENDBRANCH   8   9
ENDBRANCH   7   8
ENDBRANCH   1   7
BRANCH   2  22
ATOM     22  O   UNL     1      28.932 177.382  28.669  1.00  0.00    -0.387 OA
ATOM     23  H   UNL     1      28.266 178.261  27.670  1.00  0.00     0.211 HD
ENDBRANCH   2  22
BRANCH   3  24
ATOM     24  O   UNL     1      27.730 176.141  32.792  1.00  0.00    -0.387 OA
ATOM     25  H   UNL     1      26.091 176.733  34.127  1.00  0.00     0.211 HD
ENDBRANCH   3  24
BRANCH   5  26
ATOM     26  O   UNL     1      34.921 174.316  31.759  1.00  0.00    -0.454 OA
BRANCH  26  27
ATOM     27  C   UNL     1      34.269 172.834  30.899  1.00  0.00     0.214 A 
ATOM     28  C   UNL     1      35.770 171.649  31.054  1.00  0.00     0.180 A 
ATOM     29  C   UNL     1      32.137 172.502  29.653  1.00  0.00     0.239 A 
ATOM     30  O   UNL     1      33.295 172.289  31.173  1.00  0.00    -0.452 OA
ATOM     31  C   UNL     1      30.146 173.041  29.846  1.00  0.00     0.111 A 
ATOM     32  O   UNL     1      32.353 172.046  28.421  1.00  0.00    -0.285 OA
ATOM     33  C   UNL     1      30.691 172.355  31.286  1.00  0.00     0.146 A 
ATOM     34  C   UNL     1      28.030 172.818  29.299  1.00  0.00     0.134 A 
ATOM     35  C   UNL     1      28.254 171.919  31.965  1.00  0.00     0.094 A 
ATOM     36  C   UNL     1      27.336 171.537  29.907  1.00  0.00     0.093 A 
ATOM     37  C   UNL     1      28.576 171.000  30.358  1.00  0.00     0.123 A 
BRANCH  28  38
ATOM     38  C   UNL     1      39.785 171.301  30.679  1.00  0.00     0.025 A 
ATOM     39  C   UNL     1      41.663 172.218  32.222  1.00  0.00     0.062 A 
ATOM     40  C   UNL     1      41.325 172.347  29.919  1.00  0.00     0.016 A 
ATOM     41  C   UNL     1      43.973 173.094  31.222  1.00  0.00     0.158 A 
ATOM     42  C   UNL     1      43.489 173.271  30.170  1.00  0.00     0.051 A 
ATOM     43  C   UNL     1      44.265 174.252  31.548  1.00  0.00     0.157 A 
BRANCH  41  44
ATOM     44  O   UNL     1      46.037 173.081  30.051  1.00  0.00    -0.504 OA
ATOM     45  H   UNL     1      47.431 174.346  30.699  1.00  0.00     0.293 HD
ENDBRANCH  41  44
BRANCH  43  46
ATOM     46  O   UNL     1      45.588 174.895  32.273  1.00  0.00    -0.504 OA
ATOM     47  H   UNL     1      45.477 176.195  31.982  1.00  0.00     0.293 HD
ENDBRANCH  43  46
ENDBRANCH  28  38
BRANCH  34  48
ATOM     48  O   UNL     1      27.797 173.479  27.844  1.00  0.00    -0.507 OA
ATOM     49  H   UNL     1      27.572 174.505  27.187  1.00  0.00     0.293 HD
ENDBRANCH  34  48
BRANCH  37  50
ATOM     50  O   UNL     1      29.996 169.895  30.892  1.00  0.00    -0.508 OA
ATOM     51  H   UNL     1      30.097 168.677  31.190  1.00  0.00     0.293 HD
ENDBRANCH  37  50
ENDBRANCH  26  27
ENDBRANCH   5  26
BRANCH   4  52
ATOM     52  O   UNL     1      32.001 178.937  33.527  1.00  0.00    -0.384 OA
ATOM     53  H   UNL     1      31.891 180.877  33.868  1.00  0.00     0.211 HD
ENDBRANCH   4  52
TORSDOF 16
ENDMDL
MODEL 2
REMARK VINA RESULT:    -7.442      5.310     13.240
REMARK INTER + INTRA:          -8.179
REMARK INTER:                  -7.110
REMARK INTRA:                  -1.069
REMARK UNBOUND:                -0.302
REMARK SMILES C[C@H]1O[C@@H](OC[C@H]2O[C@@H](Oc3c(-c4ccc(O)c(O)c4)oc4cc(O)cc(O)c4c3=O)[C@@H](O)[C@@H](O)[C@@H]2O)[C@H](O)[C@@H](O)[C@H]1O
REMARK SMILES IDX 7 1 36 2 34 3 32 4 9 5 8 6 6 7 5 8 4 9 1 10 2 11 42 12 3 13
REMARK SMILES IDX 40 14 38 15 43 16 41 18 39 20 37 22 35 24 10 26 11 27 12 28
REMARK SMILES IDX 30 29 21 30 29 31 31 32 22 33 27 34 23 35 26 36 24 37 13 38
REMARK SMILES IDX 20 39 14 40 18 41 15 42 16 43 19 44 17 46 28 48 25 50 33 52
REMARK H PARENT 43 17 41 19 39 21 37 23 35 25 19 45 17 47 28 49 25 51 33 53
REMARK Flexibility Score: inf
ROOT
ATOM      1  C   UNL     1      29.743 171.615  30.115  1.00  0.00     0.180 C 
ATOM      2  C   UNL     1      28.690 171.930  32.409  1.00  0.00     0.177 C 
ATOM      3  C   UNL     1      29.341 173.676  33.508  1.00  0.00     0.180 C 
ATOM      4  C   UNL     1      30.754 173.688  31.393  1.00  0.00     0.214 C 
ATOM      5  C   UNL     1      32.150 173.033  32.365  1.00  0.00     0.339 C 
ATOM      6  O   UNL     1      30.667 170.904  31.644  1.00  0.00    -0.332 OA
ENDROOT
BRANCH   1   7
ATOM      7  C   UNL     1      32.491 170.592  28.345  1.00  0.00     0.198 C 
BRANCH   7   8
ATOM      8  O   UNL     1      33.230 170.383  25.081  1.00  0.00    -0.347 OA
BRANCH   8   9
ATOM      9  C   UNL     1      29.183 170.625  25.003  1.00  0.00     0.281 C 
ATOM     10  C   UNL     1      30.082 173.654  21.308  1.00  0.00     0.041 C 
ATOM     11  C   UNL     1      29.075 174.923  24.073  1.00  0.00     0.150 C 
ATOM     12  C   UNL     1      28.028 175.297  26.887  1.00  0.00     0.174 C 
ATOM     13  O   UNL     1      28.334 173.090  23.818  1.00  0.00    -0.344 OA
ATOM     14  C   UNL     1      27.679 174.302  28.806  1.00  0.00     0.179 C 
ATOM     15  C   UNL     1      28.390 172.834  26.767  1.00  0.00     0.202 C 
BRANCH  12  16
ATOM     16  O   UNL     1      28.555 176.670  27.263  1.00  0.00    -0.388 OA
ATOM     17  H   UNL     1      29.705 177.195  27.700  1.00  0.00     0.211 HD
ENDBRANCH  12  16
BRANCH  14  18
ATOM     18  O   UNL     1      28.172 176.526  29.599  1.00  0.00    -0.387 OA
ATOM     19  H   UNL     1      28.655 178.829  30.269  1.00  0.00     0.211 HD
ENDBRANCH  14  18
BRANCH  15  20
ATOM     20  O   UNL     1      29.958 171.887  26.276  1.00  0.00    -0.385 OA
ATOM     21  H   UNL     1      30.720 172.525  25.948  1.00  0.00     0.211 HD
ENDBRANCH  15  20
ENDBRANCH   8   9
ENDBRANCH   7   8
ENDBRANCH   1   7
BRANCH   2  22
ATOM     22  O   UNL     1      28.240 170.655  33.896  1.00  0.00    -0.387 OA
ATOM     23  H   UNL     1      28.371 170.825  35.369  1.00  0.00     0.211 HD
ENDBRANCH   2  22
BRANCH   3  24
ATOM     24  O   UNL     1      27.202 174.835  32.695  1.00  0.00    -0.387 OA
ATOM     25  H   UNL     1      25.415 176.033  32.262  1.00  0.00     0.211 HD
ENDBRANCH   3  24
BRANCH   5  26
ATOM     26  O   UNL     1      34.615 174.416  33.688  1.00  0.00    -0.454 OA
BRANCH  26  27
ATOM     27  C   UNL     1      35.866 174.678  32.374  1.00  0.00     0.214 A 
ATOM     28  C   UNL     1      35.351 176.414  31.739  1.00  0.00     0.180 A 
ATOM     29  C   UNL     1      37.602 173.134  31.470  1.00  0.00     0.239 A 
ATOM     30  O   UNL     1      37.003 174.625  32.527  1.00  0.00    -0.452 OA
ATOM     31  C   UNL     1      38.931 171.724  32.201  1.00  0.00     0.111 A 
ATOM     32  O   UNL     1      37.511 173.012  30.148  1.00  0.00    -0.285 OA
ATOM     33  C   UNL     1      39.087 173.156  33.074  1.00  0.00     0.146 A 
ATOM     34  C   UNL     1      40.691 170.431  31.960  1.00  0.00     0.134 A 
ATOM     35  C   UNL     1      41.403 172.385  33.867  1.00  0.00     0.094 A 
ATOM     36  C   UNL     1      42.071 171.196  32.033  1.00  0.00     0.093 A 
ATOM     37  C   UNL     1      41.439 172.471  31.991  1.00  0.00     0.123 A 
BRANCH  28  38
ATOM     38  C   UNL     1      32.250 178.756  30.609  1.00  0.00     0.025 A 
ATOM     39  C   UNL     1      31.889 181.299  30.995  1.00  0.00     0.062 A 
ATOM     40  C   UNL     1      30.525 179.448  31.376  1.00  0.00     0.016 A 
ATOM     41  C   UNL     1      29.463 182.300  31.457  1.00  0.00     0.158 A 
ATOM     42  C   UNL     1      29.064 181.258  31.815  1.00  0.00     0.051 A 
ATOM     43  C   UNL     1      29.371 182.960  32.501  1.00  0.00     0.157 A 
BRANCH  41  44
ATOM     44  O   UNL     1      27.175 182.836  31.117  1.00  0.00    -0.504 OA
ATOM     45  H   UNL     1      25.986 182.692  32.706  1.00  0.00     0.293 HD
ENDBRANCH  41  44
BRANCH  43  46
ATOM     46  O   UNL     1      28.867 184.492  32.799  1.00  0.00    -0.504 OA
ATOM     47  H   UNL     1      28.625 184.468  34.113  1.00  0.00     0.293 HD
ENDBRANCH  43  46
ENDBRANCH  28  38
BRANCH  34  48
ATOM     48  O   UNL     1      40.294 169.184  31.012  1.00  0.00    -0.507 OA
ATOM     49  H   UNL     1      40.599 168.466  30.051  1.00  0.00     0.293 HD
ENDBRANCH  34  48
BRANCH  37  50
ATOM     50  O   UNL     1      40.998 174.279  31.739  1.00  0.00    -0.508 OA
ATOM     51  H   UNL     1      40.809 175.253  32.511  1.00  0.00     0.293 HD
ENDBRANCH  37  50
ENDBRANCH  26  27
ENDBRANCH   5  26
BRANCH   4  52
ATOM     52  O   UNL     1      30.921 173.475  29.390  1.00  0.00    -0.384 OA
ATOM     53  H   UNL     1      30.398 172.738  27.636  1.00  0.00     0.211 HD
ENDBRANCH   4  52
TORSDOF 16
ENDMDL
MODEL 3
REMARK VINA RESULT:    -7.186      5.352     14.559
REMARK INTER + INTRA:          -7.908
REMARK INTER:                  -7.306
REMARK INTRA:                  -0.602
REMARK UNBOUND:                -0.302
REMARK SMILES C[C@H]1O[C@@H](OC[C@H]2O[C@@H](Oc3c(-c4ccc(O)c(O)c4)oc4cc(O)cc(O)c4c3=O)[C@@H](O)[C@@H](O)[C@@H]2O)[C@H](O)[C@@H](O)[C@H]1O
REMARK SMILES IDX 7 1 36 2 34 3 32 4 9 5 8 6 6 7 5 8 4 9 1 10 2 11 42 12 3 13
REMARK SMILES IDX 40 14 38 15 43 16 41 18 39 20 37 22 35 24 10 26 11 27 12 28
REMARK SMILES IDX 30 29 21 30 29 31 31 32 22 33 27 34 23 35 26 36 24 37 13 38
REMARK SMILES IDX 20 39 14 40 18 41 15 42 16 43 19 44 17 46 28 48 25 50 33 52
REMARK H PARENT 43 17 41 19 39 21 37 23 35 25 19 45 17 47 28 49 25 51 33 53
REMARK Flexibility Score: inf
ROOT
ATOM      1  C   UNL     1      26.500 181.514  30.375  1.00  0.00     0.180 C 
ATOM      2  C   UNL     1      26.993 182.570  32.636  1.00  0.00     0.177 C 
ATOM      3  C   UNL     1      28.636 183.975  32.677  1.00  0.00     0.180 C 
ATOM      4  C   UNL     1      28.624 183.074  30.299  1.00  0.00     0.214 C 
ATOM      5  C   UNL     1      30.035 182.006  30.735  1.00  0.00     0.339 C 
ATOM      6  O   UNL     1      27.819 180.681  31.499  1.00  0.00    -0.332 OA
ENDROOT
BRANCH   1   7
ATOM      7  C   UNL     1      27.399 179.151  28.065  1.00  0.00     0.198 C 
BRANCH   7   8
ATOM      8  O   UNL     1      29.208 176.329  28.183  1.00  0.00    -0.347 OA
BRANCH   8   9
ATOM      9  C   UNL     1      26.484 175.450  25.311  1.00  0.00     0.281 C 
ATOM     10  C   UNL     1      26.183 171.276  27.783  1.00  0.00     0.041 C 
ATOM     11  C   UNL     1      27.665 171.229  24.942  1.00  0.00     0.150 C 
ATOM     12  C   UNL     1      28.772 171.987  22.231  1.00  0.00     0.174 C 
ATOM     13  O   UNL     1      26.234 172.617  24.979  1.00  0.00    -0.344 OA
ATOM     14  C   UNL     1      29.251 173.664  20.907  1.00  0.00     0.179 C 
ATOM     15  C   UNL     1      27.914 174.162  23.093  1.00  0.00     0.202 C 
BRANCH  12  16
ATOM     16  O   UNL     1      29.934 171.025  22.060  1.00  0.00    -0.388 OA
ATOM     17  H   UNL     1      31.232 170.989  22.376  1.00  0.00     0.211 HD
ENDBRANCH  12  16
BRANCH  14  18
ATOM     18  O   UNL     1      30.995 172.132  20.251  1.00  0.00    -0.387 OA
ATOM     19  H   UNL     1      32.852 170.645  19.679  1.00  0.00     0.211 HD
ENDBRANCH  14  18
BRANCH  15  20
ATOM     20  O   UNL     1      28.301 175.024  24.737  1.00  0.00    -0.385 OA
ATOM     21  H   UNL     1      28.756 175.956  24.598  1.00  0.00     0.211 HD
ENDBRANCH  15  20
ENDBRANCH   8   9
ENDBRANCH   7   8
ENDBRANCH   1   7
BRANCH   2  22
ATOM     22  O   UNL     1      27.033 181.840  34.508  1.00  0.00    -0.387 OA
ATOM     23  H   UNL     1      25.944 181.223  35.314  1.00  0.00     0.211 HD
ENDBRANCH   2  22
BRANCH   3  24
ATOM     24  O   UNL     1      26.884 185.842  32.521  1.00  0.00    -0.387 OA
ATOM     25  H   UNL     1      25.527 187.512  32.092  1.00  0.00     0.211 HD
ENDBRANCH   3  24
BRANCH   5  26
ATOM     26  O   UNL     1      33.111 182.315  30.307  1.00  0.00    -0.454 OA
BRANCH  26  27
ATOM     27  C   UNL     1      33.889 182.393  31.965  1.00  0.00     0.214 A 
ATOM     28  C   UNL     1      34.119 180.524  32.333  1.00  0.00     0.180 A 
ATOM     29  C   UNL     1      34.313 184.345  33.456  1.00  0.00     0.239 A 
ATOM     30  O   UNL     1      34.847 182.975  32.216  1.00  0.00    -0.452 OA
ATOM     31  C   UNL     1      34.940 186.310  33.270  1.00  0.00     0.111 A 
ATOM     32  O   UNL     1      33.795 184.159  34.668  1.00  0.00    -0.285 OA
ATOM     33  C   UNL     1      36.016 185.292  32.466  1.00  0.00     0.146 A 
ATOM     34  C   UNL     1      35.698 188.179  34.142  1.00  0.00     0.134 A 
ATOM     35  C   UNL     1      37.786 187.150  32.545  1.00  0.00     0.094 A 
ATOM     36  C   UNL     1      37.229 188.138  34.530  1.00  0.00     0.093 A 
ATOM     37  C   UNL     1      37.312 186.733  34.314  1.00  0.00     0.123 A 
BRANCH  28  38
ATOM     38  C   UNL     1      32.364 176.879  32.254  1.00  0.00     0.025 A 
ATOM     39  C   UNL     1      33.299 174.626  31.360  1.00  0.00     0.062 A 
ATOM     40  C   UNL     1      31.291 175.748  30.983  1.00  0.00     0.016 A 
ATOM     41  C   UNL     1      31.718 172.850  30.156  1.00  0.00     0.158 A 
ATOM     42  C   UNL     1      30.929 173.676  29.898  1.00  0.00     0.051 A 
ATOM     43  C   UNL     1      32.092 172.516  29.024  1.00  0.00     0.157 A 
BRANCH  41  44
ATOM     44  O   UNL     1      29.931 171.322  29.832  1.00  0.00    -0.504 OA
ATOM     45  H   UNL     1      28.203 172.096  29.219  1.00  0.00     0.293 HD
ENDBRANCH  41  44
BRANCH  43  46
ATOM     46  O   UNL     1      32.415 171.055  28.353  1.00  0.00    -0.504 OA
ATOM     47  H   UNL     1      32.482 170.253  29.420  1.00  0.00     0.293 HD
ENDBRANCH  43  46
ENDBRANCH  28  38
BRANCH  34  48
ATOM     48  O   UNL     1      34.493 188.912  34.928  1.00  0.00    -0.507 OA
ATOM     49  H   UNL     1      33.570 189.737  34.889  1.00  0.00     0.293 HD
ENDBRANCH  34  48
BRANCH  37  50
ATOM     50  O   UNL     1      37.749 184.908  34.348  1.00  0.00    -0.508 OA
ATOM     51  H   UNL     1      38.047 184.092  35.257  1.00  0.00     0.293 HD
ENDBRANCH  37  50
ENDBRANCH  26  27
ENDBRANCH   5  26
BRANCH   4  52
ATOM     52  O   UNL     1      27.622 182.542  28.626  1.00  0.00    -0.384 OA
ATOM     53  H   UNL     1      27.030 182.788  26.760  1.00  0.00     0.211 HD
ENDBRANCH   4  52
TORSDOF 16
ENDMDL
MODEL 4
REMARK VINA RESULT:    -7.144      5.953     10.609
REMARK INTER + INTRA:          -7.864
REMARK INTER:                  -7.165
REMARK INTRA:                  -0.699
REMARK UNBOUND:                -0.302
REMARK SMILES C[C@H]1O[C@@H](OC[C@H]2O[C@@H](Oc3c(-c4ccc(O)c(O)c4)oc4cc(O)cc(O)c4c3=O)[C@@H](O)[C@@H](O)[C@@H]2O)[C@H](O)[C@@H](O)[C@H]1O
REMARK SMILES IDX 7 1 36 2 34 3 32 4 9 5 8 6 6 7 5 8 4 9 1 10 2 11 42 12 3 13
REMARK SMILES IDX 40 14 38 15 43 16 41 18 39 20 37 22 35 24 10 26 11 27 12 28
REMARK SMILES IDX 30 29 21 30 29 31 31 32 22 33 27 34 23 35 26 36 24 37 13 38
REMARK SMILES IDX 20 39 14 40 18 41 15 42 16 43 19 44 17 46 28 48 25 50 33 52
REMARK H PARENT 43 17 41 19 39 21 37 23 35 25 19 45 17 47 28 49 25 51 33 53
REMARK Flexibility Score: inf
ROOT
ATOM      1  C   UNL     1      27.262 175.311  23.940  1.00  0.00     0.180 C 
ATOM      2  C   UNL     1      28.457 173.847  22.237  1.00  0.00     0.177 C 
ATOM      3  C   UNL     1      28.390 171.719  22.619  1.00  0.00     0.180 C 
ATOM      4  C   UNL     1      27.232 172.766  24.626  1.00  0.00     0.214 C 
ATOM      5  C   UNL     1      28.752 172.500  25.597  1.00  0.00     0.339 C 
ATOM      6  O   UNL     1      29.090 174.826  24.283  1.00  0.00    -0.332 OA
ENDROOT
BRANCH   1   7
ATOM      7  C   UNL     1      27.374 176.774  27.034  1.00  0.00     0.198 C 
BRANCH   7   8
ATOM      8  O   UNL     1      27.882 179.903  28.128  1.00  0.00    -0.347 OA
BRANCH   8   9
ATOM      9  C   UNL     1      30.666 177.829  30.222  1.00  0.00     0.281 C 
ATOM     10  C   UNL     1      27.436 178.381  33.814  1.00  0.00     0.041 C 
ATOM     11  C   UNL     1      30.128 180.115  33.942  1.00  0.00     0.150 C 
ATOM     12  C   UNL     1      32.873 181.263  33.392  1.00  0.00     0.174 C 
ATOM     13  O   UNL     1      30.444 178.373  33.025  1.00  0.00    -0.344 OA
ATOM     14  C   UNL     1      34.475 181.420  31.907  1.00  0.00     0.179 C 
ATOM     15  C   UNL     1      32.505 179.775  31.427  1.00  0.00     0.202 C 
BRANCH  12  16
ATOM     16  O   UNL     1      32.787 182.649  34.005  1.00  0.00    -0.388 OA
ATOM     17  H   UNL     1      31.825 183.495  34.390  1.00  0.00     0.211 HD
ENDBRANCH  12  16
BRANCH  14  18
ATOM     18  O   UNL     1      34.720 183.566  32.981  1.00  0.00    -0.387 OA
ATOM     19  H   UNL     1      34.877 185.698  34.171  1.00  0.00     0.211 HD
ENDBRANCH  14  18
BRANCH  15  20
ATOM     20  O   UNL     1      31.045 179.745  30.217  1.00  0.00    -0.385 OA
ATOM     21  H   UNL     1      30.616 178.794  30.138  1.00  0.00     0.211 HD
ENDBRANCH  15  20
ENDBRANCH   8   9
ENDBRANCH   7   8
ENDBRANCH   1   7
BRANCH   2  22
ATOM     22  O   UNL     1      30.202 174.032  21.258  1.00  0.00    -0.387 OA
ATOM     23  H   UNL     1      30.494 173.927  19.802  1.00  0.00     0.211 HD
ENDBRANCH   2  22
BRANCH   3  24
ATOM     24  O   UNL     1      26.466 171.599  20.928  1.00  0.00    -0.387 OA
ATOM     25  H   UNL     1      24.618 171.548  19.744  1.00  0.00     0.211 HD
ENDBRANCH   3  24
BRANCH   5  26
ATOM     26  O   UNL     1      29.596 170.261  27.601  1.00  0.00    -0.454 OA
BRANCH  26  27
ATOM     27  C   UNL     1      31.408 170.396  27.841  1.00  0.00     0.214 A 
ATOM     28  C   UNL     1      31.971 170.785  26.048  1.00  0.00     0.180 A 
ATOM     29  C   UNL     1      32.804 169.959  29.858  1.00  0.00     0.239 A 
ATOM     30  O   UNL     1      31.923 171.101  28.587  1.00  0.00    -0.452 OA
ATOM     31  C   UNL     1      32.694 170.284  31.900  1.00  0.00     0.111 A 
ATOM     32  O   UNL     1      33.782 169.092  29.601  1.00  0.00    -0.285 OA
ATOM     33  C   UNL     1      32.377 171.721  31.079  1.00  0.00     0.146 A 
ATOM     34  C   UNL     1      33.627 170.382  33.887  1.00  0.00     0.134 A 
ATOM     35  C   UNL     1      32.908 173.029  33.223  1.00  0.00     0.094 A 
ATOM     36  C   UNL     1      34.509 171.670  34.125  1.00  0.00     0.093 A 
ATOM     37  C   UNL     1      34.441 172.049  32.754  1.00  0.00     0.123 A 
BRANCH  28  38
ATOM     38  C   UNL     1      31.579 169.779  22.147  1.00  0.00     0.025 A 
ATOM     39  C   UNL     1      33.387 169.698  20.284  1.00  0.00     0.062 A 
ATOM     40  C   UNL     1      31.278 170.687  20.379  1.00  0.00     0.016 A 
ATOM     41  C   UNL     1      32.817 170.376  17.771  1.00  0.00     0.158 A 
ATOM     42  C   UNL     1      31.890 171.004  18.114  1.00  0.00     0.051 A 
ATOM     43  C   UNL     1      33.544 171.264  17.302  1.00  0.00     0.157 A 
BRANCH  41  44
ATOM     44  O   UNL     1      31.763 170.352  15.644  1.00  0.00    -0.504 OA
ATOM     45  H   UNL     1      30.489 171.833  15.269  1.00  0.00     0.293 HD
ENDBRANCH  41  44
BRANCH  43  46
ATOM     46  O   UNL     1      34.479 171.329  15.957  1.00  0.00    -0.504 OA
ATOM     47  H   UNL     1      35.516 172.070  16.359  1.00  0.00     0.293 HD
ENDBRANCH  43  46
ENDBRANCH  28  38
BRANCH  34  48
ATOM     48  O   UNL     1      33.904 168.877  34.406  1.00  0.00    -0.507 OA
ATOM     49  H   UNL     1      34.734 168.042  34.790  1.00  0.00     0.293 HD
ENDBRANCH  34  48
BRANCH  37  50
ATOM     50  O   UNL     1      34.756 172.737  31.036  1.00  0.00    -0.508 OA
ATOM     51  H   UNL     1      34.855 173.896  30.559  1.00  0.00     0.293 HD
ENDBRANCH  37  50
ENDBRANCH  26  27
ENDBRANCH   5  26
BRANCH   4  52
ATOM     52  O   UNL     1      25.932 174.104  25.405  1.00  0.00    -0.384 OA
ATOM     53  H   UNL     1      25.375 175.492  26.692  1.00  0.00     0.211 HD
ENDBRANCH   4  52
TORSDOF 16
ENDMDL
MODEL 5
REMARK VINA RESULT:    -7.034      5.079     12.212
REMARK INTER + INTRA:          -7.747
REMARK INTER:                  -7.134
REMARK INTRA:                  -0.613
REMARK UNBOUND:                -0.302
REMARK SMILES C[C@H]1O[C@@H](OC[C@H]2O[C@@H](Oc3c(-c4ccc(O)c(O)c4)oc4cc(O)cc(O)c4c3=O)[C@@H](O)[C@@H](O)[C@@H]2O)[C@H](O)[C@@H](O)[C@H]1O
REMARK SMILES IDX 7 1 36 2 34 3 32 4 9 5 8 6 6 7 5 8 4 9 1 10 2 11 42 12 3 13
REMARK SMILES IDX 40 14 38 15 43 16 41 18 39 20 37 22 35 24 10 26 11 27 12 28
REMARK SMILES IDX 30 29 21 30 29 31 31 32 22 33 27 34 23 35 26 36 24 37 13 38
REMARK SMILES IDX 20 39 14 40 18 41 15 42 16 43 19 44 17 46 28 48 25 50 33 52
REMARK H PARENT 43 17 41 19 39 21 37 23 35 25 19 45 17 47 28 49 25 51 33 53
REMARK Flexibility Score: inf
ROOT
ATOM      1  C   UNL     1      32.240 171.450  31.637  1.00  0.00     0.180 C 
ATOM      2  C   UNL     1      29.711 171.177  31.683  1.00  0.00     0.177 C 
ATOM      3  C   UNL     1      28.623 172.254  30.155  1.00  0.00     0.180 C 
ATOM      4  C   UNL     1      31.047 172.947  29.823  1.00  0.00     0.214 C 
ATOM      5  C   UNL     1      30.674 174.524  30.656  1.00  0.00     0.339 C 
ATOM      6  O   UNL     1      31.203 172.746  32.607  1.00  0.00    -0.332 OA
ENDROOT
BRANCH   1   7
ATOM      7  C   UNL     1      34.916 173.444  32.407  1.00  0.00     0.198 C 
BRANCH   7   8
ATOM      8  O   UNL     1      37.125 175.201  30.597  1.00  0.00    -0.347 OA
BRANCH   8   9
ATOM      9  C   UNL     1      39.499 173.571  33.451  1.00  0.00     0.281 C 
ATOM     10  C   UNL     1      41.249 178.101  33.667  1.00  0.00     0.041 C 
ATOM     11  C   UNL     1      43.085 175.850  32.314  1.00  0.00     0.150 C 
ATOM     12  C   UNL     1      44.196 173.216  31.324  1.00  0.00     0.174 C 
ATOM     13  O   UNL     1      41.925 175.067  33.733  1.00  0.00    -0.344 OA
ATOM     14  C   UNL     1      43.709 171.125  30.894  1.00  0.00     0.179 C 
ATOM     15  C   UNL     1      41.925 172.578  32.130  1.00  0.00     0.202 C 
BRANCH  12  16
ATOM     16  O   UNL     1      45.095 173.639  30.177  1.00  0.00    -0.388 OA
ATOM     17  H   UNL     1      45.230 174.700  29.375  1.00  0.00     0.211 HD
ENDBRANCH  12  16
BRANCH  14  18
ATOM     18  O   UNL     1      45.374 171.500  29.190  1.00  0.00    -0.387 OA
ATOM     19  H   UNL     1      47.007 172.012  27.441  1.00  0.00     0.211 HD
ENDBRANCH  14  18
BRANCH  15  20
ATOM     20  O   UNL     1      40.246 173.327  31.664  1.00  0.00    -0.385 OA
ATOM     21  H   UNL     1      39.537 173.212  32.424  1.00  0.00     0.211 HD
ENDBRANCH  15  20
ENDBRANCH   8   9
ENDBRANCH   7   8
ENDBRANCH   1   7
BRANCH   2  22
ATOM     22  O   UNL     1      28.367 171.118  33.176  1.00  0.00    -0.387 OA
ATOM     23  H   UNL     1      27.369 170.068  33.519  1.00  0.00     0.211 HD
ENDBRANCH   2  22
BRANCH   3  24
ATOM     24  O   UNL     1      28.538 170.056  28.837  1.00  0.00    -0.387 OA
ATOM     25  H   UNL     1      28.769 168.262  27.594  1.00  0.00     0.211 HD
ENDBRANCH   3  24
BRANCH   5  26
ATOM     26  O   UNL     1      30.000 177.368  29.558  1.00  0.00    -0.454 OA
BRANCH  26  27
ATOM     27  C   UNL     1      28.714 177.165  28.267  1.00  0.00     0.214 A 
ATOM     28  C   UNL     1      28.019 178.952  28.181  1.00  0.00     0.180 A 
ATOM     29  C   UNL     1      27.901 175.113  27.110  1.00  0.00     0.239 A 
ATOM     30  O   UNL     1      28.900 176.753  27.211  1.00  0.00    -0.452 OA
ATOM     31  C   UNL     1      28.706 173.375  26.323  1.00  0.00     0.111 A 
ATOM     32  O   UNL     1      26.580 174.982  27.213  1.00  0.00    -0.285 OA
ATOM     33  C   UNL     1      29.544 174.709  25.726  1.00  0.00     0.146 A 
ATOM     34  C   UNL     1      28.548 171.575  25.073  1.00  0.00     0.134 A 
ATOM     35  C   UNL     1      30.421 173.258  23.798  1.00  0.00     0.094 A 
ATOM     36  C   UNL     1      28.638 171.854  23.521  1.00  0.00     0.093 A 
ATOM     37  C   UNL     1      28.545 173.264  23.705  1.00  0.00     0.123 A 
BRANCH  28  38
ATOM     38  C   UNL     1      26.742 182.130  30.336  1.00  0.00     0.025 A 
ATOM     39  C   UNL     1      25.901 184.444  29.506  1.00  0.00     0.062 A 
ATOM     40  C   UNL     1      27.489 183.833  31.099  1.00  0.00     0.016 A 
ATOM     41  C   UNL     1      26.428 186.677  30.861  1.00  0.00     0.158 A 
ATOM     42  C   UNL     1      27.343 186.177  31.395  1.00  0.00     0.051 A 
ATOM     43  C   UNL     1      26.992 187.558  30.198  1.00  0.00     0.157 A 
BRANCH  41  44
ATOM     44  O   UNL     1      26.483 188.230  32.655  1.00  0.00    -0.504 OA
ATOM     45  H   UNL     1      28.079 189.414  32.755  1.00  0.00     0.293 HD
ENDBRANCH  41  44
BRANCH  43  46
ATOM     46  O   UNL     1      26.615 189.125  29.897  1.00  0.00    -0.504 OA
ATOM     47  H   UNL     1      25.892 189.462  30.969  1.00  0.00     0.293 HD
ENDBRANCH  43  46
ENDBRANCH  28  38
BRANCH  34  48
ATOM     48  O   UNL     1      27.624 170.492  25.836  1.00  0.00    -0.507 OA
ATOM     49  H   UNL     1      26.709 169.660  25.758  1.00  0.00     0.293 HD
ENDBRANCH  34  48
BRANCH  37  50
ATOM     50  O   UNL     1      28.232 175.106  23.531  1.00  0.00    -0.508 OA
ATOM     51  H   UNL     1      28.499 175.964  22.652  1.00  0.00     0.293 HD
ENDBRANCH  37  50
ENDBRANCH  26  27
ENDBRANCH   5  26
BRANCH   4  52
ATOM     52  O   UNL     1      33.010 172.476  29.706  1.00  0.00    -0.384 OA
ATOM     53  H   UNL     1      34.532 171.345  29.161  1.00  0.00     0.211 HD
ENDBRANCH   4  52
TORSDOF 16
ENDMDL
MODEL 6
REMARK VINA RESULT:    -7.022      5.336     13.872
REMARK INTER + INTRA:          -7.735
REMARK INTER:                  -7.073
REMARK INTRA:                  -0.662
REMARK UNBOUND:                -0.302
REMARK SMILES C[C@H]1O[C@@H](OC[C@H]2O[C@@H](Oc3c(-c4ccc(O)c(O)c4)oc4cc(O)cc(O)c4c3=O)[C@@H](O)[C@@H](O)[C@@H]2O)[C@H](O)[C@@H](O)[C@H]1O
REMARK SMILES IDX 7 1 36 2 34 3 32 4 9 5 8 6 6 7 5 8 4 9 1 10 2 11 42 12 3 13
REMARK SMILES IDX 40 14 38 15 43 16 41 18 39 20 37 22 35 24 10 26 11 27 12 28
REMARK SMILES IDX 30 29 21 30 29 31 31 32 22 33 27 34 23 35 26 36 24 37 13 38
REMARK SMILES IDX 20 39 14 40 18 41 15 42 16 43 19 44 17 46 28 48 25 50 33 52
REMARK H PARENT 43 17 41 19 39 21 37 23 35 25 19 45 17 47 28 49 25 51 33 53
REMARK Flexibility Score: inf
ROOT
ATOM      1  C   UNL     1      29.506 170.926  28.753  1.00  0.00     0.180 C 
ATOM      2  C   UNL     1      29.751 170.618  31.266  1.00  0.00     0.177 C 
ATOM      3  C   UNL     1      29.577 172.417  32.453  1.00  0.00     0.180 C 
ATOM      4  C   UNL     1      29.433 173.223  30.046  1.00  0.00     0.214 C 
ATOM      5  C   UNL     1      31.166 173.775  30.165  1.00  0.00     0.339 C 
ATOM      6  O   UNL     1      31.249 171.160  29.532  1.00  0.00    -0.332 OA
ENDROOT
BRANCH   1   7
ATOM      7  C   UNL     1      30.998 171.918  25.834  1.00  0.00     0.198 C 
BRANCH   7   8
ATOM      8  O   UNL     1      30.394 174.347  23.603  1.00  0.00    -0.347 OA
BRANCH   8   9
ATOM      9  C   UNL     1      29.274 171.035  21.550  1.00  0.00     0.281 C 
ATOM     10  C   UNL     1      32.734 168.969  24.268  1.00  0.00     0.041 C 
ATOM     11  C   UNL     1      33.351 169.430  21.158  1.00  0.00     0.150 C 
ATOM     12  C   UNL     1      33.110 170.095  18.216  1.00  0.00     0.174 C 
ATOM     13  O   UNL     1      31.404 169.124  21.462  1.00  0.00    -0.344 OA
ATOM     14  C   UNL     1      31.894 171.128  16.716  1.00  0.00     0.179 C 
ATOM     15  C   UNL     1      30.930 170.886  19.130  1.00  0.00     0.202 C 
BRANCH  12  16
ATOM     16  O   UNL     1      34.543 170.407  17.823  1.00  0.00    -0.388 OA
ATOM     17  H   UNL     1      35.458 169.917  16.981  1.00  0.00     0.211 HD
ENDBRANCH  12  16
BRANCH  14  18
ATOM     18  O   UNL     1      34.078 171.451  15.744  1.00  0.00    -0.387 OA
ATOM     19  H   UNL     1      36.263 171.672  14.665  1.00  0.00     0.211 HD
ENDBRANCH  14  18
BRANCH  15  20
ATOM     20  O   UNL     1      30.608 172.074  20.573  1.00  0.00    -0.385 OA
ATOM     21  H   UNL     1      31.473 172.262  21.131  1.00  0.00     0.211 HD
ENDBRANCH  15  20
ENDBRANCH   8   9
ENDBRANCH   7   8
ENDBRANCH   1   7
BRANCH   2  22
ATOM     22  O   UNL     1      30.983 169.501  32.395  1.00  0.00    -0.387 OA
ATOM     23  H   UNL     1      30.768 168.158  32.998  1.00  0.00     0.211 HD
ENDBRANCH   2  22
BRANCH   3  24
ATOM     24  O   UNL     1      27.146 171.737  32.907  1.00  0.00    -0.387 OA
ATOM     25  H   UNL     1      25.137 170.880  33.117  1.00  0.00     0.211 HD
ENDBRANCH   3  24
BRANCH   5  26
ATOM     26  O   UNL     1      32.443 176.567  30.731  1.00  0.00    -0.454 OA
BRANCH  26  27
ATOM     27  C   UNL     1      33.957 176.284  31.725  1.00  0.00     0.214 A 
ATOM     28  C   UNL     1      34.115 177.978  32.613  1.00  0.00     0.180 A 
ATOM     29  C   UNL     1      35.531 174.352  31.750  1.00  0.00     0.239 A 
ATOM     30  O   UNL     1      34.105 175.422  32.470  1.00  0.00    -0.452 OA
ATOM     31  C   UNL     1      35.425 172.286  31.659  1.00  0.00     0.111 A 
ATOM     32  O   UNL     1      36.788 174.740  31.547  1.00  0.00    -0.285 OA
ATOM     33  C   UNL     1      34.373 172.856  32.845  1.00  0.00     0.146 A 
ATOM     34  C   UNL     1      36.330 170.299  31.910  1.00  0.00     0.134 A 
ATOM     35  C   UNL     1      34.337 170.515  33.896  1.00  0.00     0.094 A 
ATOM     36  C   UNL     1      36.466 169.835  33.413  1.00  0.00     0.093 A 
ATOM     37  C   UNL     1      36.114 171.123  33.909  1.00  0.00     0.123 A 
BRANCH  28  38
ATOM     38  C   UNL     1      33.988 181.997  32.157  1.00  0.00     0.025 A 
ATOM     39  C   UNL     1      35.947 183.701  32.064  1.00  0.00     0.062 A 
ATOM     40  C   UNL     1      33.976 183.646  33.308  1.00  0.00     0.016 A 
ATOM     41  C   UNL     1      35.715 186.138  33.116  1.00  0.00     0.158 A 
ATOM     42  C   UNL     1      34.842 185.789  33.816  1.00  0.00     0.051 A 
ATOM     43  C   UNL     1      36.587 186.421  33.949  1.00  0.00     0.157 A 
BRANCH  41  44
ATOM     44  O   UNL     1      34.880 188.327  33.495  1.00  0.00    -0.504 OA
ATOM     45  H   UNL     1      36.074 189.833  32.977  1.00  0.00     0.293 HD
ENDBRANCH  41  44
BRANCH  43  46
ATOM     46  O   UNL     1      37.651 187.664  34.053  1.00  0.00    -0.504 OA
ATOM     47  H   UNL     1      37.996 187.645  35.344  1.00  0.00     0.293 HD
ENDBRANCH  43  46
ENDBRANCH  28  38
BRANCH  34  48
ATOM     48  O   UNL     1      37.360 170.040  30.692  1.00  0.00    -0.507 OA
ATOM     49  H   UNL     1      37.566 169.502  29.596  1.00  0.00     0.293 HD
ENDBRANCH  34  48
BRANCH  37  50
ATOM     50  O   UNL     1      35.914 172.695  34.916  1.00  0.00    -0.508 OA
ATOM     51  H   UNL     1      35.161 173.698  34.837  1.00  0.00     0.293 HD
ENDBRANCH  37  50
ENDBRANCH  26  27
ENDBRANCH   5  26
BRANCH   4  52
ATOM     52  O   UNL     1      28.717 173.025  28.166  1.00  0.00    -0.384 OA
ATOM     53  H   UNL     1      27.279 172.909  26.820  1.00  0.00     0.211 HD
ENDBRANCH   4  52
TORSDOF 16
ENDMDL
MODEL 7
REMARK VINA RESULT:    -6.999      5.610     13.755
REMARK INTER + INTRA:          -7.711
REMARK INTER:                  -6.740
REMARK INTRA:                  -0.971
REMARK UNBOUND:                -0.302
REMARK SMILES C[C@H]1O[C@@H](OC[C@H]2O[C@@H](Oc3c(-c4ccc(O)c(O)c4)oc4cc(O)cc(O)c4c3=O)[C@@H](O)[C@@H](O)[C@@H]2O)[C@H](O)[C@@H](O)[C@H]1O
REMARK SMILES IDX 7 1 36 2 34 3 32 4 9 5 8 6 6 7 5 8 4 9 1 10 2 11 42 12 3 13
REMARK SMILES IDX 40 14 38 15 43 16 41 18 39 20 37 22 35 24 10 26 11 27 12 28
REMARK SMILES IDX 30 29 21 30 29 31 31 32 22 33 27 34 23 35 26 36 24 37 13 38
REMARK SMILES IDX 20 39 14 40 18 41 15 42 16 43 19 44 17 46 28 48 25 50 33 52
REMARK H PARENT 43 17 41 19 39 21 37 23 35 25 19 45 17 47 28 49 25 51 33 53
REMARK Flexibility Score: inf
ROOT
ATOM      1  C   UNL     1      28.563 172.091  26.435  1.00  0.00     0.180 C 
ATOM      2  C   UNL     1      28.898 170.825  28.616  1.00  0.00     0.177 C 
ATOM      3  C   UNL     1      28.617 171.978  30.423  1.00  0.00     0.180 C 
ATOM      4  C   UNL     1      28.348 173.665  28.539  1.00  0.00     0.214 C 
ATOM      5  C   UNL     1      30.036 174.262  28.880  1.00  0.00     0.339 C 
ATOM      6  O   UNL     1      30.302 172.134  27.253  1.00  0.00    -0.332 OA
ENDROOT
BRANCH   1   7
ATOM      7  C   UNL     1      29.896 174.284  24.167  1.00  0.00     0.198 C 
BRANCH   7   8
ATOM      8  O   UNL     1      28.867 175.528  21.228  1.00  0.00    -0.347 OA
BRANCH   8   9
ATOM      9  C   UNL     1      27.964 171.595  20.828  1.00  0.00     0.281 C 
ATOM     10  C   UNL     1      31.645 171.095  23.964  1.00  0.00     0.041 C 
ATOM     11  C   UNL     1      32.145 170.231  20.919  1.00  0.00     0.150 C 
ATOM     12  C   UNL     1      31.778 169.569  17.990  1.00  0.00     0.174 C 
ATOM     13  O   UNL     1      30.238 169.963  21.433  1.00  0.00    -0.344 OA
ATOM     14  C   UNL     1      30.447 169.790  16.265  1.00  0.00     0.179 C 
ATOM     15  C   UNL     1      29.566 170.536  18.607  1.00  0.00     0.202 C 
BRANCH  12  16
ATOM     16  O   UNL     1      33.171 169.772  17.421  1.00  0.00    -0.388 OA
ATOM     17  H   UNL     1      34.417 169.887  17.893  1.00  0.00     0.211 HD
ENDBRANCH  12  16
BRANCH  14  18
ATOM     18  O   UNL     1      32.573 169.804  15.126  1.00  0.00    -0.387 OA
ATOM     19  H   UNL     1      34.660 169.855  13.850  1.00  0.00     0.211 HD
ENDBRANCH  14  18
BRANCH  15  20
ATOM     20  O   UNL     1      29.186 172.201  19.431  1.00  0.00    -0.385 OA
ATOM     21  H   UNL     1      28.851 172.915  18.744  1.00  0.00     0.211 HD
ENDBRANCH  15  20
ENDBRANCH   8   9
ENDBRANCH   7   8
ENDBRANCH   1   7
BRANCH   2  22
ATOM     22  O   UNL     1      30.241 169.453  29.211  1.00  0.00    -0.387 OA
ATOM     23  H   UNL     1      30.909 168.374  28.434  1.00  0.00     0.211 HD
ENDBRANCH   2  22
BRANCH   3  24
ATOM     24  O   UNL     1      26.258 170.980  30.551  1.00  0.00    -0.387 OA
ATOM     25  H   UNL     1      24.319 169.968  30.374  1.00  0.00     0.211 HD
ENDBRANCH   3  24
BRANCH   5  26
ATOM     26  O   UNL     1      31.109 176.688  30.525  1.00  0.00    -0.454 OA
BRANCH  26  27
ATOM     27  C   UNL     1      32.168 176.017  31.862  1.00  0.00     0.214 A 
ATOM     28  C   UNL     1      32.342 177.565  32.983  1.00  0.00     0.180 A 
ATOM     29  C   UNL     1      33.289 173.801  32.071  1.00  0.00     0.239 A 
ATOM     30  O   UNL     1      31.924 175.088  32.492  1.00  0.00    -0.452 OA
ATOM     31  C   UNL     1      32.852 171.816  31.670  1.00  0.00     0.111 A 
ATOM     32  O   UNL     1      34.595 173.930  32.292  1.00  0.00    -0.285 OA
ATOM     33  C   UNL     1      31.604 172.501  32.571  1.00  0.00     0.146 A 
ATOM     34  C   UNL     1      33.268 169.671  31.894  1.00  0.00     0.134 A 
ATOM     35  C   UNL     1      30.831 170.146  33.237  1.00  0.00     0.094 A 
ATOM     36  C   UNL     1      32.849 169.073  33.294  1.00  0.00     0.093 A 
ATOM     37  C   UNL     1      32.596 170.363  33.842  1.00  0.00     0.123 A 
BRANCH  28  38
ATOM     38  C   UNL     1      33.077 181.544  33.067  1.00  0.00     0.025 A 
ATOM     39  C   UNL     1      34.313 183.021  31.324  1.00  0.00     0.062 A 
ATOM     40  C   UNL     1      34.546 182.794  33.632  1.00  0.00     0.016 A 
ATOM     41  C   UNL     1      35.837 185.072  32.079  1.00  0.00     0.158 A 
ATOM     42  C   UNL     1      35.973 184.621  33.151  1.00  0.00     0.051 A 
ATOM     43  C   UNL     1      37.000 185.030  31.655  1.00  0.00     0.157 A 
BRANCH  41  44
ATOM     44  O   UNL     1      36.458 187.131  33.083  1.00  0.00    -0.504 OA
ATOM     45  H   UNL     1      38.196 187.910  32.506  1.00  0.00     0.293 HD
ENDBRANCH  41  44
BRANCH  43  46
ATOM     46  O   UNL     1      37.898 186.092  30.786  1.00  0.00    -0.504 OA
ATOM     47  H   UNL     1      38.480 185.306  29.876  1.00  0.00     0.293 HD
ENDBRANCH  43  46
ENDBRANCH  28  38
BRANCH  34  48
ATOM     48  O   UNL     1      34.559 169.296  30.999  1.00  0.00    -0.507 OA
ATOM     49  H   UNL     1      35.766 169.473  30.781  1.00  0.00     0.293 HD
ENDBRANCH  34  48
BRANCH  37  50
ATOM     50  O   UNL     1      32.378 171.858  34.955  1.00  0.00    -0.508 OA
ATOM     51  H   UNL     1      32.710 173.069  34.875  1.00  0.00     0.293 HD
ENDBRANCH  37  50
ENDBRANCH  26  27
ENDBRANCH   5  26
BRANCH   4  52
ATOM     52  O   UNL     1      27.599 174.178  26.732  1.00  0.00    -0.384 OA
ATOM     53  H   UNL     1      26.152 174.694  25.495  1.00  0.00     0.211 HD
ENDBRANCH   4  52
TORSDOF 16
ENDMDL
MODEL 8
REMARK VINA RESULT:    -6.991      6.290     15.420
REMARK INTER + INTRA:          -7.702
REMARK INTER:                  -7.067
REMARK INTRA:                  -0.635
REMARK UNBOUND:                -0.302
REMARK SMILES C[C@H]1O[C@@H](OC[C@H]2O[C@@H](Oc3c(-c4ccc(O)c(O)c4)oc4cc(O)cc(O)c4c3=O)[C@@H](O)[C@@H](O)[C@@H]2O)[C@H](O)[C@@H](O)[C@H]1O
REMARK SMILES IDX 7 1 36 2 34 3 32 4 9 5 8 6 6 7 5 8 4 9 1 10 2 11 42 12 3 13
REMARK SMILES IDX 40 14 38 15 43 16 41 18 39 20 37 22 35 24 10 26 11 27 12 28
REMARK SMILES IDX 30 29 21 30 29 31 31 32 22 33 27 34 23 35 26 36 24 37 13 38
REMARK SMILES IDX 20 39 14 40 18 41 15 42 16 43 19 44 17 46 28 48 25 50 33 52
REMARK H PARENT 43 17 41 19 39 21 37 23 35 25 19 45 17 47 28 49 25 51 33 53
REMARK Flexibility Score: inf
ROOT
ATOM      1  C   UNL     1      28.966 172.452  27.219  1.00  0.00     0.180 C 
ATOM      2  C   UNL     1      29.044 171.879  29.696  1.00  0.00     0.177 C 
ATOM      3  C   UNL     1      28.281 173.396  31.034  1.00  0.00     0.180 C 
ATOM      4  C   UNL     1      28.156 174.457  28.727  1.00  0.00     0.214 C 
ATOM      5  C   UNL     1      29.657 175.412  29.123  1.00  0.00     0.339 C 
ATOM      6  O   UNL     1      30.499 173.014  28.233  1.00  0.00    -0.332 OA
ENDROOT
BRANCH   1   7
ATOM      7  C   UNL     1      30.407 174.177  24.635  1.00  0.00     0.198 C 
BRANCH   7   8
ATOM      8  O   UNL     1      29.236 175.639  21.854  1.00  0.00    -0.347 OA
BRANCH   8   9
ATOM      9  C   UNL     1      28.144 171.776  21.285  1.00  0.00     0.281 C 
ATOM     10  C   UNL     1      31.933 170.949  24.216  1.00  0.00     0.041 C 
ATOM     11  C   UNL     1      32.260 170.235  21.110  1.00  0.00     0.150 C 
ATOM     12  C   UNL     1      31.737 169.754  18.169  1.00  0.00     0.174 C 
ATOM     13  O   UNL     1      30.367 170.019  21.696  1.00  0.00    -0.344 OA
ATOM     14  C   UNL     1      30.343 170.126  16.522  1.00  0.00     0.179 C 
ATOM     15  C   UNL     1      29.599 170.777  18.939  1.00  0.00     0.202 C 
BRANCH  12  16
ATOM     16  O   UNL     1      33.111 169.930  17.549  1.00  0.00    -0.388 OA
ATOM     17  H   UNL     1      33.836 169.349  16.587  1.00  0.00     0.211 HD
ENDBRANCH  12  16
BRANCH  14  18
ATOM     18  O   UNL     1      32.416 170.114  15.289  1.00  0.00    -0.387 OA
ATOM     19  H   UNL     1      34.456 170.188  13.940  1.00  0.00     0.211 HD
ENDBRANCH  14  18
BRANCH  15  20
ATOM     20  O   UNL     1      29.330 172.408  19.867  1.00  0.00    -0.385 OA
ATOM     21  H   UNL     1      28.830 173.118  19.284  1.00  0.00     0.211 HD
ENDBRANCH  15  20
ENDBRANCH   8   9
ENDBRANCH   7   8
ENDBRANCH   1   7
BRANCH   2  22
ATOM     22  O   UNL     1      30.418 170.970  30.848  1.00  0.00    -0.387 OA
ATOM     23  H   UNL     1      30.703 171.134  32.299  1.00  0.00     0.211 HD
ENDBRANCH   2  22
BRANCH   3  24
ATOM     24  O   UNL     1      26.090 172.065  31.100  1.00  0.00    -0.387 OA
ATOM     25  H   UNL     1      24.402 170.674  31.277  1.00  0.00     0.211 HD
ENDBRANCH   3  24
BRANCH   5  26
ATOM     26  O   UNL     1      30.078 178.333  30.139  1.00  0.00    -0.454 OA
BRANCH  26  27
ATOM     27  C   UNL     1      31.184 178.250  31.599  1.00  0.00     0.214 A 
ATOM     28  C   UNL     1      30.237 179.386  32.822  1.00  0.00     0.180 A 
ATOM     29  C   UNL     1      33.418 177.180  31.870  1.00  0.00     0.239 A 
ATOM     30  O   UNL     1      31.514 177.282  32.121  1.00  0.00    -0.452 OA
ATOM     31  C   UNL     1      34.363 175.433  31.283  1.00  0.00     0.111 A 
ATOM     32  O   UNL     1      34.325 178.043  32.323  1.00  0.00    -0.285 OA
ATOM     33  C   UNL     1      32.880 175.064  31.991  1.00  0.00     0.146 A 
ATOM     34  C   UNL     1      36.007 173.984  31.450  1.00  0.00     0.134 A 
ATOM     35  C   UNL     1      33.692 172.660  32.372  1.00  0.00     0.094 A 
ATOM     36  C   UNL     1      35.919 173.048  32.718  1.00  0.00     0.093 A 
ATOM     37  C   UNL     1      34.860 173.812  33.288  1.00  0.00     0.123 A 
BRANCH  28  38
ATOM     38  C   UNL     1      28.303 182.913  33.266  1.00  0.00     0.025 A 
ATOM     39  C   UNL     1      26.827 184.202  31.560  1.00  0.00     0.062 A 
ATOM     40  C   UNL     1      28.619 184.864  32.895  1.00  0.00     0.016 A 
ATOM     41  C   UNL     1      26.829 186.865  31.460  1.00  0.00     0.158 A 
ATOM     42  C   UNL     1      27.876 186.918  31.982  1.00  0.00     0.051 A 
ATOM     43  C   UNL     1      27.095 187.335  30.345  1.00  0.00     0.157 A 
BRANCH  41  44
ATOM     44  O   UNL     1      26.585 189.118  32.165  1.00  0.00    -0.504 OA
ATOM     45  H   UNL     1      27.663 190.475  31.188  1.00  0.00     0.293 HD
ENDBRANCH  41  44
BRANCH  43  46
ATOM     46  O   UNL     1      26.298 188.386  29.371  1.00  0.00    -0.504 OA
ATOM     47  H   UNL     1      27.237 189.294  29.092  1.00  0.00     0.293 HD
ENDBRANCH  43  46
ENDBRANCH  28  38
BRANCH  34  48
ATOM     48  O   UNL     1      37.330 174.620  30.773  1.00  0.00    -0.507 OA
ATOM     49  H   UNL     1      38.455 174.422  30.296  1.00  0.00     0.293 HD
ENDBRANCH  34  48
BRANCH  37  50
ATOM     50  O   UNL     1      33.643 174.669  34.431  1.00  0.00    -0.508 OA
ATOM     51  H   UNL     1      33.008 174.320  35.459  1.00  0.00     0.293 HD
ENDBRANCH  37  50
ENDBRANCH  26  27
ENDBRANCH   5  26
BRANCH   4  52
ATOM     52  O   UNL     1      27.701 174.340  26.761  1.00  0.00    -0.384 OA
ATOM     53  H   UNL     1      26.492 174.007  25.237  1.00  0.00     0.211 HD
ENDBRANCH   4  52
TORSDOF 16
ENDMDL
MODEL 9
REMARK VINA RESULT:    -6.953      5.415     10.709
REMARK INTER + INTRA:          -7.662
REMARK INTER:                  -6.323
REMARK INTRA:                  -1.339
REMARK UNBOUND:                -0.302
REMARK SMILES C[C@H]1O[C@@H](OC[C@H]2O[C@@H](Oc3c(-c4ccc(O)c(O)c4)oc4cc(O)cc(O)c4c3=O)[C@@H](O)[C@@H](O)[C@@H]2O)[C@H](O)[C@@H](O)[C@H]1O
REMARK SMILES IDX 7 1 36 2 34 3 32 4 9 5 8 6 6 7 5 8 4 9 1 10 2 11 42 12 3 13
REMARK SMILES IDX 40 14 38 15 43 16 41 18 39 20 37 22 35 24 10 26 11 27 12 28
REMARK SMILES IDX 30 29 21 30 29 31 31 32 22 33 27 34 23 35 26 36 24 37 13 38
REMARK SMILES IDX 20 39 14 40 18 41 15 42 16 43 19 44 17 46 28 48 25 50 33 52
REMARK H PARENT 43 17 41 19 39 21 37 23 35 25 19 45 17 47 28 49 25 51 33 53
REMARK Flexibility Score: inf
ROOT
ATOM      1  C   UNL     1      37.035 173.801  33.037  1.00  0.00     0.180 C 
ATOM      2  C   UNL     1      37.571 171.315  32.989  1.00  0.00     0.177 C 
ATOM      3  C   UNL     1      37.490 170.376  31.043  1.00  0.00     0.180 C 
ATOM      4  C   UNL     1      36.735 172.769  30.630  1.00  0.00     0.214 C 
ATOM      5  C   UNL     1      35.013 172.176  30.560  1.00  0.00     0.339 C 
ATOM      6  O   UNL     1      35.577 172.554  33.166  1.00  0.00    -0.332 OA
ENDROOT
BRANCH   1   7
ATOM      7  C   UNL     1      34.593 176.202  32.979  1.00  0.00     0.198 C 
BRANCH   7   8
ATOM      8  O   UNL     1      33.721 178.706  35.031  1.00  0.00    -0.347 OA
BRANCH   8   9
ATOM      9  C   UNL     1      33.040 180.345  31.385  1.00  0.00     0.281 C 
ATOM     10  C   UNL     1      30.902 183.800  34.055  1.00  0.00     0.041 C 
ATOM     11  C   UNL     1      29.017 181.825  32.376  1.00  0.00     0.150 C 
ATOM     12  C   UNL     1      27.991 179.698  30.486  1.00  0.00     0.174 C 
ATOM     13  O   UNL     1      30.769 182.089  31.462  1.00  0.00    -0.344 OA
ATOM     14  C   UNL     1      28.552 177.938  29.309  1.00  0.00     0.179 C 
ATOM     15  C   UNL     1      30.456 179.333  30.424  1.00  0.00     0.202 C 
BRANCH  12  16
ATOM     16  O   UNL     1      26.641 179.341  31.080  1.00  0.00    -0.388 OA
ATOM     17  H   UNL     1      26.008 178.236  31.487  1.00  0.00     0.211 HD
ENDBRANCH  12  16
BRANCH  14  18
ATOM     18  O   UNL     1      26.288 177.329  29.876  1.00  0.00    -0.387 OA
ATOM     19  H   UNL     1      23.948 176.773  30.328  1.00  0.00     0.211 HD
ENDBRANCH  14  18
BRANCH  15  20
ATOM     20  O   UNL     1      31.652 179.059  31.870  1.00  0.00    -0.385 OA
ATOM     21  H   UNL     1      31.271 178.389  32.578  1.00  0.00     0.211 HD
ENDBRANCH  15  20
ENDBRANCH   8   9
ENDBRANCH   7   8
ENDBRANCH   1   7
BRANCH   2  22
ATOM     22  O   UNL     1      37.089 169.787  34.201  1.00  0.00    -0.387 OA
ATOM     23  H   UNL     1      37.090 169.712  35.687  1.00  0.00     0.211 HD
ENDBRANCH   2  22
BRANCH   3  24
ATOM     24  O   UNL     1      40.041 170.625  30.949  1.00  0.00    -0.387 OA
ATOM     25  H   UNL     1      42.191 171.013  31.154  1.00  0.00     0.211 HD
ENDBRANCH   3  24
BRANCH   5  26
ATOM     26  O   UNL     1      33.135 171.466  28.171  1.00  0.00    -0.454 OA
BRANCH  26  27
ATOM     27  C   UNL     1      31.469 172.118  28.572  1.00  0.00     0.214 A 
ATOM     28  C   UNL     1      30.420 171.261  27.212  1.00  0.00     0.180 A 
ATOM     29  C   UNL     1      30.766 173.828  30.243  1.00  0.00     0.239 A 
ATOM     30  O   UNL     1      30.955 172.027  29.595  1.00  0.00    -0.452 OA
ATOM     31  C   UNL     1      31.242 174.359  32.187  1.00  0.00     0.111 A 
ATOM     32  O   UNL     1      30.057 174.804  29.679  1.00  0.00    -0.285 OA
ATOM     33  C   UNL     1      30.924 172.706  32.112  1.00  0.00     0.146 A 
ATOM     34  C   UNL     1      30.805 175.441  34.049  1.00  0.00     0.134 A 
ATOM     35  C   UNL     1      30.538 172.696  34.650  1.00  0.00     0.094 A 
ATOM     36  C   UNL     1      29.661 174.790  34.922  1.00  0.00     0.093 A 
ATOM     37  C   UNL     1      29.298 173.883  33.886  1.00  0.00     0.123 A 
BRANCH  28  38
ATOM     38  C   UNL     1      30.184 170.345  23.277  1.00  0.00     0.025 A 
ATOM     39  C   UNL     1      31.859 169.020  21.798  1.00  0.00     0.062 A 
ATOM     40  C   UNL     1      30.812 171.084  21.516  1.00  0.00     0.016 A 
ATOM     41  C   UNL     1      32.269 169.672  19.247  1.00  0.00     0.158 A 
ATOM     42  C   UNL     1      31.873 170.760  19.426  1.00  0.00     0.051 A 
ATOM     43  C   UNL     1      33.453 169.894  18.959  1.00  0.00     0.157 A 
BRANCH  41  44
ATOM     44  O   UNL     1      31.809 170.094  16.956  1.00  0.00    -0.504 OA
ATOM     45  H   UNL     1      29.989 169.608  16.313  1.00  0.00     0.293 HD
ENDBRANCH  41  44
BRANCH  43  46
ATOM     46  O   UNL     1      34.451 169.259  17.823  1.00  0.00    -0.504 OA
ATOM     47  H   UNL     1      34.645 168.015  18.269  1.00  0.00     0.293 HD
ENDBRANCH  43  46
ENDBRANCH  28  38
BRANCH  34  48
ATOM     48  O   UNL     1      31.111 177.011  33.822  1.00  0.00    -0.507 OA
ATOM     49  H   UNL     1      31.805 177.992  34.118  1.00  0.00     0.293 HD
ENDBRANCH  34  48
BRANCH  37  50
ATOM     50  O   UNL     1      28.408 172.716  32.715  1.00  0.00    -0.508 OA
ATOM     51  H   UNL     1      28.641 171.558  32.284  1.00  0.00     0.293 HD
ENDBRANCH  37  50
ENDBRANCH  26  27
ENDBRANCH   5  26
BRANCH   4  52
ATOM     52  O   UNL     1      36.953 174.757  30.927  1.00  0.00    -0.384 OA
ATOM     53  H   UNL     1      37.273 176.359  32.033  1.00  0.00     0.211 HD
ENDBRANCH   4  52
TORSDOF 16
ENDMDL
