MODEL 1
REMARK VINA RESULT:    -4.577      0.000      0.000
REMARK INTER + INTRA:          -8.961
REMARK INTER:                  -8.055
REMARK INTRA:                  -0.906
REMARK UNBOUND:                -0.906
REMARK SMILES CCCCCCC=CCCCCCCCC(=O)[O-]
REMARK SMILES IDX 10 1 11 2 12 3 13 4 14 5 15 6 16 7 17 8 18 9 9 10 8 11 7 12
REMARK SMILES IDX 6 13 5 14 4 15 3 16 2 17 1 18
REMARK H PARENT
REMARK Flexibility Score: inf
ROOT
ATOM      1  C   UNL     1      11.420  35.869  22.426  1.00  0.00     0.004 C 
ENDROOT
BRANCH   1   2
ATOM      2  C   UNL     1      10.083  36.339  21.825  1.00  0.00     0.000 C 
BRANCH   2   3
ATOM      3  C   UNL     1      10.125  36.480  20.295  1.00  0.00     0.000 C 
BRANCH   3   4
ATOM      4  C   UNL     1       8.906  35.844  19.606  1.00  0.00     0.000 C 
BRANCH   4   5
ATOM      5  C   UNL     1       8.415  34.579  20.330  1.00  0.00     0.006 C 
BRANCH   5   6
ATOM      6  C   UNL     1       6.902  34.375  20.181  1.00  0.00     0.053 C 
BRANCH   6   7
ATOM      7  C   UNL     1       6.516  32.944  20.378  1.00  0.00     0.041 C 
ATOM      8  O   UNL     1       7.163  32.021  19.804  1.00  0.00    -0.550 OA
ATOM      9  O   UNL     1       5.411  32.630  21.166  1.00  0.00    -0.550 OA
ENDBRANCH   6   7
ENDBRANCH   5   6
ENDBRANCH   4   5
ENDBRANCH   3   4
ENDBRANCH   2   3
ENDBRANCH   1   2
BRANCH   1  10
ATOM     10  C   UNL     1      12.598  35.912  21.432  1.00  0.00     0.027 C 
BRANCH  10  11
ATOM     11  C   UNL     1      13.272  34.571  21.293  1.00  0.00    -0.031 C 
ATOM     12  C   UNL     1      14.481  34.446  20.716  1.00  0.00    -0.031 C 
BRANCH  12  13
ATOM     13  C   UNL     1      15.171  33.114  20.616  1.00  0.00     0.027 C 
BRANCH  13  14
ATOM     14  C   UNL     1      14.521  32.037  21.502  1.00  0.00     0.004 C 
BRANCH  14  15
ATOM     15  C   UNL     1      15.522  31.271  22.389  1.00  0.00     0.000 C 
BRANCH  15  16
ATOM     16  C   UNL     1      16.986  31.591  22.051  1.00  0.00    -0.000 C 
BRANCH  16  17
ATOM     17  C   UNL     1      17.946  31.267  23.205  1.00  0.00    -0.003 C 
ATOM     18  C   UNL     1      17.217  30.849  24.481  1.00  0.00     0.004 C 
ENDBRANCH  16  17
ENDBRANCH  15  16
ENDBRANCH  14  15
ENDBRANCH  13  14
ENDBRANCH  12  13
ENDBRANCH  10  11
ENDBRANCH   1  10
TORSDOF 13
ENDMDL
MODEL 2
REMARK VINA RESULT:    -4.530      3.985      8.354
REMARK INTER + INTRA:          -8.879
REMARK INTER:                  -7.594
REMARK INTRA:                  -1.285
REMARK UNBOUND:                -0.906
REMARK SMILES CCCCCCC=CCCCCCCCC(=O)[O-]
REMARK SMILES IDX 10 1 11 2 12 3 13 4 14 5 15 6 16 7 17 8 18 9 9 10 8 11 7 12
REMARK SMILES IDX 6 13 5 14 4 15 3 16 2 17 1 18
REMARK H PARENT
REMARK Flexibility Score: inf
ROOT
ATOM      1  C   UNL     1      14.171  33.248  21.086  1.00  0.00     0.004 C 
ENDROOT
BRANCH   1   2
ATOM      2  C   UNL     1      15.163  32.100  21.346  1.00  0.00     0.000 C 
BRANCH   2   3
ATOM      3  C   UNL     1      16.603  32.441  20.933  1.00  0.00     0.000 C 
BRANCH   3   4
ATOM      4  C   UNL     1      17.489  31.193  20.779  1.00  0.00     0.000 C 
BRANCH   4   5
ATOM      5  C   UNL     1      18.442  30.998  21.970  1.00  0.00     0.006 C 
BRANCH   5   6
ATOM      6  C   UNL     1      17.912  29.969  22.976  1.00  0.00     0.053 C 
BRANCH   6   7
ATOM      7  C   UNL     1      17.340  30.627  24.191  1.00  0.00     0.041 C 
ATOM      8  O   UNL     1      18.010  31.491  24.826  1.00  0.00    -0.550 OA
ATOM      9  O   UNL     1      16.078  30.255  24.647  1.00  0.00    -0.550 OA
ENDBRANCH   6   7
ENDBRANCH   5   6
ENDBRANCH   4   5
ENDBRANCH   3   4
ENDBRANCH   2   3
ENDBRANCH   1   2
BRANCH   1  10
ATOM     10  C   UNL     1      14.819  34.501  20.463  1.00  0.00     0.027 C 
BRANCH  10  11
ATOM     11  C   UNL     1      13.816  35.601  20.228  1.00  0.00    -0.031 C 
ATOM     12  C   UNL     1      13.052  35.634  19.121  1.00  0.00    -0.031 C 
BRANCH  12  13
ATOM     13  C   UNL     1      12.022  36.709  18.908  1.00  0.00     0.027 C 
BRANCH  13  14
ATOM     14  C   UNL     1      10.586  36.160  18.875  1.00  0.00     0.004 C 
BRANCH  14  15
ATOM     15  C   UNL     1       9.660  36.765  19.949  1.00  0.00     0.000 C 
BRANCH  15  16
ATOM     16  C   UNL     1       9.515  35.866  21.186  1.00  0.00    -0.000 C 
BRANCH  16  17
ATOM     17  C   UNL     1      10.466  36.265  22.324  1.00  0.00    -0.003 C 
ATOM     18  C   UNL     1      11.285  35.086  22.851  1.00  0.00     0.004 C 
ENDBRANCH  16  17
ENDBRANCH  15  16
ENDBRANCH  14  15
ENDBRANCH  13  14
ENDBRANCH  12  13
ENDBRANCH  10  11
ENDBRANCH   1  10
TORSDOF 13
ENDMDL
MODEL 3
REMARK VINA RESULT:    -4.520      1.732      2.603
REMARK INTER + INTRA:          -8.860
REMARK INTER:                  -7.288
REMARK INTRA:                  -1.573
REMARK UNBOUND:                -0.906
REMARK SMILES CCCCCCC=CCCCCCCCC(=O)[O-]
REMARK SMILES IDX 10 1 11 2 12 3 13 4 14 5 15 6 16 7 17 8 18 9 9 10 8 11 7 12
REMARK SMILES IDX 6 13 5 14 4 15 3 16 2 17 1 18
REMARK H PARENT
REMARK Flexibility Score: inf
ROOT
ATOM      1  C   UNL     1      10.336  36.287  22.139  1.00  0.00     0.004 C 
ENDROOT
BRANCH   1   2
ATOM      2  C   UNL     1       9.757  36.406  20.718  1.00  0.00     0.000 C 
BRANCH   2   3
ATOM      3  C   UNL     1       8.605  35.424  20.451  1.00  0.00     0.000 C 
BRANCH   3   4
ATOM      4  C   UNL     1       9.095  33.989  20.196  1.00  0.00     0.000 C 
BRANCH   4   5
ATOM      5  C   UNL     1       7.955  33.045  19.774  1.00  0.00     0.006 C 
BRANCH   5   6
ATOM      6  C   UNL     1       6.584  33.541  20.249  1.00  0.00     0.053 C 
BRANCH   6   7
ATOM      7  C   UNL     1       5.665  32.406  20.569  1.00  0.00     0.041 C 
ATOM      8  O   UNL     1       4.938  32.442  21.602  1.00  0.00    -0.550 OA
ATOM      9  O   UNL     1       5.641  31.284  19.743  1.00  0.00    -0.550 OA
ENDBRANCH   6   7
ENDBRANCH   5   6
ENDBRANCH   4   5
ENDBRANCH   3   4
ENDBRANCH   2   3
ENDBRANCH   1   2
BRANCH   1  10
ATOM     10  C   UNL     1      11.857  36.035  22.172  1.00  0.00     0.027 C 
BRANCH  10  11
ATOM     11  C   UNL     1      12.389  35.602  20.830  1.00  0.00    -0.031 C 
ATOM     12  C   UNL     1      13.703  35.396  20.626  1.00  0.00    -0.031 C 
BRANCH  12  13
ATOM     13  C   UNL     1      14.228  34.923  19.299  1.00  0.00     0.027 C 
BRANCH  13  14
ATOM     14  C   UNL     1      14.849  33.518  19.369  1.00  0.00     0.004 C 
BRANCH  14  15
ATOM     15  C   UNL     1      15.250  33.082  20.792  1.00  0.00     0.000 C 
BRANCH  15  16
ATOM     16  C   UNL     1      14.540  31.797  21.244  1.00  0.00    -0.000 C 
BRANCH  16  17
ATOM     17  C   UNL     1      13.194  32.074  21.931  1.00  0.00    -0.003 C 
ATOM     18  C   UNL     1      11.998  31.801  21.020  1.00  0.00     0.004 C 
ENDBRANCH  16  17
ENDBRANCH  15  16
ENDBRANCH  14  15
ENDBRANCH  13  14
ENDBRANCH  12  13
ENDBRANCH  10  11
ENDBRANCH   1  10
TORSDOF 13
ENDMDL
MODEL 4
REMARK VINA RESULT:    -4.378      2.661      3.575
REMARK INTER + INTRA:          -8.611
REMARK INTER:                  -7.508
REMARK INTRA:                  -1.103
REMARK UNBOUND:                -0.906
REMARK SMILES CCCCCCC=CCCCCCCCC(=O)[O-]
REMARK SMILES IDX 10 1 11 2 12 3 13 4 14 5 15 6 16 7 17 8 18 9 9 10 8 11 7 12
REMARK SMILES IDX 6 13 5 14 4 15 3 16 2 17 1 18
REMARK H PARENT
REMARK Flexibility Score: inf
ROOT
ATOM      1  C   UNL     1      13.326  34.819  19.455  1.00  0.00     0.004 C 
ENDROOT
BRANCH   1   2
ATOM      2  C   UNL     1      13.060  36.315  19.210  1.00  0.00     0.000 C 
BRANCH   2   3
ATOM      3  C   UNL     1      11.584  36.703  19.392  1.00  0.00     0.000 C 
BRANCH   3   4
ATOM      4  C   UNL     1      10.656  35.482  19.500  1.00  0.00     0.000 C 
BRANCH   4   5
ATOM      5  C   UNL     1       9.862  35.461  20.817  1.00  0.00     0.006 C 
BRANCH   5   6
ATOM      6  C   UNL     1      10.480  36.373  21.883  1.00  0.00     0.053 C 
BRANCH   6   7
ATOM      7  C   UNL     1      11.036  35.588  23.028  1.00  0.00     0.041 C 
ATOM      8  O   UNL     1      11.510  34.431  22.841  1.00  0.00    -0.550 OA
ATOM      9  O   UNL     1      10.993  36.121  24.315  1.00  0.00    -0.550 OA
ENDBRANCH   6   7
ENDBRANCH   5   6
ENDBRANCH   4   5
ENDBRANCH   3   4
ENDBRANCH   2   3
ENDBRANCH   1   2
BRANCH   1  10
ATOM     10  C   UNL     1      14.125  34.531  20.742  1.00  0.00     0.027 C 
BRANCH  10  11
ATOM     11  C   UNL     1      15.386  33.754  20.465  1.00  0.00    -0.031 C 
ATOM     12  C   UNL     1      15.502  32.456  20.800  1.00  0.00    -0.031 C 
BRANCH  12  13
ATOM     13  C   UNL     1      16.745  31.670  20.485  1.00  0.00     0.027 C 
BRANCH  13  14
ATOM     14  C   UNL     1      17.885  31.930  21.484  1.00  0.00     0.004 C 
BRANCH  14  15
ATOM     15  C   UNL     1      18.724  30.680  21.814  1.00  0.00     0.000 C 
BRANCH  15  16
ATOM     16  C   UNL     1      18.548  30.210  23.266  1.00  0.00    -0.000 C 
BRANCH  16  17
ATOM     17  C   UNL     1      17.519  31.048  24.040  1.00  0.00    -0.003 C 
ATOM     18  C   UNL     1      16.472  30.191  24.750  1.00  0.00     0.004 C 
ENDBRANCH  16  17
ENDBRANCH  15  16
ENDBRANCH  14  15
ENDBRANCH  13  14
ENDBRANCH  12  13
ENDBRANCH  10  11
ENDBRANCH   1  10
TORSDOF 13
ENDMDL
MODEL 5
REMARK VINA RESULT:    -4.370      1.658      2.607
REMARK INTER + INTRA:          -8.597
REMARK INTER:                  -6.826
REMARK INTRA:                  -1.771
REMARK UNBOUND:                -0.906
REMARK SMILES CCCCCCC=CCCCCCCCC(=O)[O-]
REMARK SMILES IDX 10 1 11 2 12 3 13 4 14 5 15 6 16 7 17 8 18 9 9 10 8 11 7 12
REMARK SMILES IDX 6 13 5 14 4 15 3 16 2 17 1 18
REMARK H PARENT
REMARK Flexibility Score: inf
ROOT
ATOM      1  C   UNL     1      13.762  35.662  20.001  1.00  0.00     0.004 C 
ENDROOT
BRANCH   1   2
ATOM      2  C   UNL     1      12.849  36.543  19.129  1.00  0.00     0.000 C 
BRANCH   2   3
ATOM      3  C   UNL     1      11.405  36.617  19.649  1.00  0.00     0.000 C 
BRANCH   3   4
ATOM      4  C   UNL     1      11.298  36.314  21.153  1.00  0.00     0.000 C 
BRANCH   4   5
ATOM      5  C   UNL     1      10.003  35.565  21.511  1.00  0.00     0.006 C 
BRANCH   5   6
ATOM      6  C   UNL     1       9.540  34.634  20.385  1.00  0.00     0.053 C 
BRANCH   6   7
ATOM      7  C   UNL     1       8.108  34.870  20.024  1.00  0.00     0.041 C 
ATOM      8  O   UNL     1       7.765  35.933  19.432  1.00  0.00    -0.550 OA
ATOM      9  O   UNL     1       7.143  33.931  20.379  1.00  0.00    -0.550 OA
ENDBRANCH   6   7
ENDBRANCH   5   6
ENDBRANCH   4   5
ENDBRANCH   3   4
ENDBRANCH   2   3
ENDBRANCH   1   2
BRANCH   1  10
ATOM     10  C   UNL     1      14.284  34.403  19.281  1.00  0.00     0.027 C 
BRANCH  10  11
ATOM     11  C   UNL     1      13.955  33.141  20.036  1.00  0.00    -0.031 C 
ATOM     12  C   UNL     1      13.321  33.173  21.222  1.00  0.00    -0.031 C 
BRANCH  12  13
ATOM     13  C   UNL     1      12.956  31.911  21.954  1.00  0.00     0.027 C 
BRANCH  13  14
ATOM     14  C   UNL     1      13.943  30.761  21.690  1.00  0.00     0.004 C 
BRANCH  14  15
ATOM     15  C   UNL     1      15.075  30.659  22.731  1.00  0.00     0.000 C 
BRANCH  15  16
ATOM     16  C   UNL     1      16.454  30.437  22.091  1.00  0.00    -0.000 C 
BRANCH  16  17
ATOM     17  C   UNL     1      17.378  31.655  22.236  1.00  0.00    -0.003 C 
ATOM     18  C   UNL     1      17.486  32.472  20.949  1.00  0.00     0.004 C 
ENDBRANCH  16  17
ENDBRANCH  15  16
ENDBRANCH  14  15
ENDBRANCH  13  14
ENDBRANCH  12  13
ENDBRANCH  10  11
ENDBRANCH   1  10
TORSDOF 13
ENDMDL
MODEL 6
REMARK VINA RESULT:    -4.332      2.667      7.431
REMARK INTER + INTRA:          -8.530
REMARK INTER:                  -7.364
REMARK INTRA:                  -1.166
REMARK UNBOUND:                -0.906
REMARK SMILES CCCCCCC=CCCCCCCCC(=O)[O-]
REMARK SMILES IDX 10 1 11 2 12 3 13 4 14 5 15 6 16 7 17 8 18 9 9 10 8 11 7 12
REMARK SMILES IDX 6 13 5 14 4 15 3 16 2 17 1 18
REMARK H PARENT
REMARK Flexibility Score: inf
ROOT
ATOM      1  C   UNL     1      12.294  35.863  21.792  1.00  0.00     0.004 C 
ENDROOT
BRANCH   1   2
ATOM      2  C   UNL     1      12.815  36.166  20.376  1.00  0.00     0.000 C 
BRANCH   2   3
ATOM      3  C   UNL     1      13.445  34.944  19.690  1.00  0.00     0.000 C 
BRANCH   3   4
ATOM      4  C   UNL     1      14.596  34.331  20.505  1.00  0.00     0.000 C 
BRANCH   4   5
ATOM      5  C   UNL     1      14.644  32.798  20.394  1.00  0.00     0.006 C 
BRANCH   5   6
ATOM      6  C   UNL     1      14.673  32.116  21.767  1.00  0.00     0.053 C 
BRANCH   6   7
ATOM      7  C   UNL     1      13.328  31.586  22.149  1.00  0.00     0.041 C 
ATOM      8  O   UNL     1      12.334  32.363  22.236  1.00  0.00    -0.550 OA
ATOM      9  O   UNL     1      13.179  30.234  22.449  1.00  0.00    -0.550 OA
ENDBRANCH   6   7
ENDBRANCH   5   6
ENDBRANCH   4   5
ENDBRANCH   3   4
ENDBRANCH   2   3
ENDBRANCH   1   2
BRANCH   1  10
ATOM     10  C   UNL     1      10.800  36.191  21.988  1.00  0.00     0.027 C 
BRANCH  10  11
ATOM     11  C   UNL     1       9.915  35.365  21.091  1.00  0.00    -0.031 C 
ATOM     12  C   UNL     1       8.972  35.931  20.315  1.00  0.00    -0.031 C 
BRANCH  12  13
ATOM     13  C   UNL     1       8.119  35.110  19.388  1.00  0.00     0.027 C 
BRANCH  13  14
ATOM     14  C   UNL     1       8.586  33.648  19.285  1.00  0.00     0.004 C 
BRANCH  14  15
ATOM     15  C   UNL     1       7.650  32.643  19.984  1.00  0.00     0.000 C 
BRANCH  15  16
ATOM     16  C   UNL     1       6.375  33.300  20.536  1.00  0.00    -0.000 C 
BRANCH  16  17
ATOM     17  C   UNL     1       5.283  32.277  20.883  1.00  0.00    -0.003 C 
ATOM     18  C   UNL     1       5.010  31.295  19.743  1.00  0.00     0.004 C 
ENDBRANCH  16  17
ENDBRANCH  15  16
ENDBRANCH  14  15
ENDBRANCH  13  14
ENDBRANCH  12  13
ENDBRANCH  10  11
ENDBRANCH   1  10
TORSDOF 13
ENDMDL
MODEL 7
REMARK VINA RESULT:    -4.331      2.791      6.857
REMARK INTER + INTRA:          -8.527
REMARK INTER:                  -6.699
REMARK INTRA:                  -1.828
REMARK UNBOUND:                -0.906
REMARK SMILES CCCCCCC=CCCCCCCCC(=O)[O-]
REMARK SMILES IDX 10 1 11 2 12 3 13 4 14 5 15 6 16 7 17 8 18 9 9 10 8 11 7 12
REMARK SMILES IDX 6 13 5 14 4 15 3 16 2 17 1 18
REMARK H PARENT
REMARK Flexibility Score: inf
ROOT
ATOM      1  C   UNL     1      12.092  35.275  21.749  1.00  0.00     0.004 C 
ENDROOT
BRANCH   1   2
ATOM      2  C   UNL     1      13.106  35.884  20.764  1.00  0.00     0.000 C 
BRANCH   2   3
ATOM      3  C   UNL     1      14.306  34.964  20.488  1.00  0.00     0.000 C 
BRANCH   3   4
ATOM      4  C   UNL     1      14.020  33.926  19.390  1.00  0.00     0.000 C 
BRANCH   4   5
ATOM      5  C   UNL     1      14.366  32.494  19.830  1.00  0.00     0.006 C 
BRANCH   5   6
ATOM      6  C   UNL     1      14.785  32.424  21.304  1.00  0.00     0.053 C 
BRANCH   6   7
ATOM      7  C   UNL     1      13.900  31.507  22.087  1.00  0.00     0.041 C 
ATOM      8  O   UNL     1      14.355  30.425  22.557  1.00  0.00    -0.550 OA
ATOM      9  O   UNL     1      12.557  31.831  22.265  1.00  0.00    -0.550 OA
ENDBRANCH   6   7
ENDBRANCH   5   6
ENDBRANCH   4   5
ENDBRANCH   3   4
ENDBRANCH   2   3
ENDBRANCH   1   2
BRANCH   1  10
ATOM     10  C   UNL     1      10.944  36.232  22.132  1.00  0.00     0.027 C 
BRANCH  10  11
ATOM     11  C   UNL     1       9.708  35.995  21.303  1.00  0.00    -0.031 C 
ATOM     12  C   UNL     1       9.595  36.477  20.052  1.00  0.00    -0.031 C 
BRANCH  12  13
ATOM     13  C   UNL     1       8.378  36.203  19.211  1.00  0.00     0.027 C 
BRANCH  13  14
ATOM     14  C   UNL     1       7.424  35.184  19.857  1.00  0.00     0.004 C 
BRANCH  14  15
ATOM     15  C   UNL     1       7.375  33.826  19.129  1.00  0.00     0.000 C 
BRANCH  15  16
ATOM     16  C   UNL     1       7.972  32.682  19.962  1.00  0.00    -0.000 C 
BRANCH  16  17
ATOM     17  C   UNL     1       9.194  32.035  19.293  1.00  0.00    -0.003 C 
ATOM     18  C   UNL     1      10.487  32.810  19.548  1.00  0.00     0.004 C 
ENDBRANCH  16  17
ENDBRANCH  15  16
ENDBRANCH  14  15
ENDBRANCH  13  14
ENDBRANCH  12  13
ENDBRANCH  10  11
ENDBRANCH   1  10
TORSDOF 13
ENDMDL
MODEL 8
REMARK VINA RESULT:    -4.308      4.116      8.683
REMARK INTER + INTRA:          -8.488
REMARK INTER:                  -7.428
REMARK INTRA:                  -1.060
REMARK UNBOUND:                -0.906
REMARK SMILES CCCCCCC=CCCCCCCCC(=O)[O-]
REMARK SMILES IDX 10 1 11 2 12 3 13 4 14 5 15 6 16 7 17 8 18 9 9 10 8 11 7 12
REMARK SMILES IDX 6 13 5 14 4 15 3 16 2 17 1 18
REMARK H PARENT
REMARK Flexibility Score: inf
ROOT
ATOM      1  C   UNL     1      14.134  34.138  20.653  1.00  0.00     0.004 C 
ENDROOT
BRANCH   1   2
ATOM      2  C   UNL     1      15.655  33.907  20.681  1.00  0.00     0.000 C 
BRANCH   2   3
ATOM      3  C   UNL     1      16.043  32.423  20.581  1.00  0.00     0.000 C 
BRANCH   3   4
ATOM      4  C   UNL     1      17.471  32.146  21.079  1.00  0.00     0.000 C 
BRANCH   4   5
ATOM      5  C   UNL     1      17.558  30.871  21.935  1.00  0.00     0.006 C 
BRANCH   5   6
ATOM      6  C   UNL     1      18.670  30.953  22.987  1.00  0.00     0.053 C 
BRANCH   6   7
ATOM      7  C   UNL     1      18.130  31.295  24.339  1.00  0.00     0.041 C 
ATOM      8  O   UNL     1      18.829  31.957  25.159  1.00  0.00    -0.550 OA
ATOM      9  O   UNL     1      16.864  30.848  24.709  1.00  0.00    -0.550 OA
ENDBRANCH   6   7
ENDBRANCH   5   6
ENDBRANCH   4   5
ENDBRANCH   3   4
ENDBRANCH   2   3
ENDBRANCH   1   2
BRANCH   1  10
ATOM     10  C   UNL     1      13.729  35.623  20.736  1.00  0.00     0.027 C 
BRANCH  10  11
ATOM     11  C   UNL     1      12.239  35.813  20.609  1.00  0.00    -0.031 C 
ATOM     12  C   UNL     1      11.469  36.079  21.679  1.00  0.00    -0.031 C 
BRANCH  12  13
ATOM     13  C   UNL     1       9.988  36.310  21.546  1.00  0.00     0.027 C 
BRANCH  13  14
ATOM     14  C   UNL     1       9.557  36.591  20.096  1.00  0.00     0.004 C 
BRANCH  14  15
ATOM     15  C   UNL     1       8.295  35.822  19.660  1.00  0.00     0.000 C 
BRANCH  15  16
ATOM     16  C   UNL     1       8.313  34.349  20.096  1.00  0.00    -0.000 C 
BRANCH  16  17
ATOM     17  C   UNL     1       9.134  33.460  19.149  1.00  0.00    -0.003 C 
ATOM     18  C   UNL     1      10.337  32.816  19.837  1.00  0.00     0.004 C 
ENDBRANCH  16  17
ENDBRANCH  15  16
ENDBRANCH  14  15
ENDBRANCH  13  14
ENDBRANCH  12  13
ENDBRANCH  10  11
ENDBRANCH   1  10
TORSDOF 13
ENDMDL
MODEL 9
REMARK VINA RESULT:    -4.296     18.710     21.113
REMARK INTER + INTRA:          -8.467
REMARK INTER:                  -6.696
REMARK INTRA:                  -1.771
REMARK UNBOUND:                -0.906
REMARK SMILES CCCCCCC=CCCCCCCCC(=O)[O-]
REMARK SMILES IDX 10 1 11 2 12 3 13 4 14 5 15 6 16 7 17 8 18 9 9 10 8 11 7 12
REMARK SMILES IDX 6 13 5 14 4 15 3 16 2 17 1 18
REMARK H PARENT
REMARK Flexibility Score: inf
ROOT
ATOM      1  C   UNL     1       6.139  49.108  34.699  1.00  0.00     0.004 C 
ENDROOT
BRANCH   1   2
ATOM      2  C   UNL     1       6.074  49.952  35.985  1.00  0.00     0.000 C 
BRANCH   2   3
ATOM      3  C   UNL     1       6.938  49.387  37.123  1.00  0.00     0.000 C 
BRANCH   3   4
ATOM      4  C   UNL     1       6.100  48.825  38.284  1.00  0.00     0.000 C 
BRANCH   4   5
ATOM      5  C   UNL     1       6.346  47.325  38.514  1.00  0.00     0.006 C 
BRANCH   5   6
ATOM      6  C   UNL     1       7.838  46.971  38.497  1.00  0.00     0.053 C 
BRANCH   6   7
ATOM      7  C   UNL     1       8.069  45.566  38.040  1.00  0.00     0.041 C 
ATOM      8  O   UNL     1       8.038  44.611  38.868  1.00  0.00    -0.550 OA
ATOM      9  O   UNL     1       8.359  45.315  36.701  1.00  0.00    -0.550 OA
ENDBRANCH   6   7
ENDBRANCH   5   6
ENDBRANCH   4   5
ENDBRANCH   3   4
ENDBRANCH   2   3
ENDBRANCH   1   2
BRANCH   1  10
ATOM     10  C   UNL     1       7.089  47.898  34.797  1.00  0.00     0.027 C 
BRANCH  10  11
ATOM     11  C   UNL     1       8.201  47.966  33.781  1.00  0.00    -0.031 C 
ATOM     12  C   UNL     1       8.542  49.123  33.186  1.00  0.00    -0.031 C 
BRANCH  12  13
ATOM     13  C   UNL     1       9.679  49.197  32.204  1.00  0.00     0.027 C 
BRANCH  13  14
ATOM     14  C   UNL     1       9.217  49.558  30.782  1.00  0.00     0.004 C 
BRANCH  14  15
ATOM     15  C   UNL     1       7.727  49.940  30.688  1.00  0.00     0.000 C 
BRANCH  15  16
ATOM     16  C   UNL     1       6.932  49.013  29.755  1.00  0.00    -0.000 C 
BRANCH  16  17
ATOM     17  C   UNL     1       6.165  47.922  30.516  1.00  0.00    -0.003 C 
ATOM     18  C   UNL     1       5.055  48.487  31.401  1.00  0.00     0.004 C 
ENDBRANCH  16  17
ENDBRANCH  15  16
ENDBRANCH  14  15
ENDBRANCH  13  14
ENDBRANCH  12  13
ENDBRANCH  10  11
ENDBRANCH   1  10
TORSDOF 13
ENDMDL
