MODEL 1
REMARK VINA RESULT:    -5.142      0.000      0.000
REMARK INTER + INTRA:          -5.782
REMARK INTER:                  -5.593
REMARK INTRA:                  -0.188
REMARK UNBOUND:                -0.188
REMARK SMILES CC1=CC[C@H](C(C)(C)O)CC1
REMARK SMILES IDX 6 1 7 2 8 3 5 4 1 5 2 6 3 7 11 8 4 9 10 10 9 11
REMARK H PARENT 9 12
REMARK Flexibility Score: inf
ROOT
ATOM      1  C   UNL     1     119.875 129.336 129.544  1.00  0.00     0.062 C 
ATOM      2  C   UNL     1     118.515 129.878 130.055  1.00  0.00     0.042 C 
ATOM      3  C   UNL     1     119.593 127.971 128.877  1.00  0.00     0.042 C 
ENDROOT
BRANCH   1   4
ATOM      4  C   UNL     1     120.545 130.315 128.506  1.00  0.00     0.024 C 
ATOM      5  C   UNL     1     122.536 134.008 129.846  1.00  0.00     0.039 C 
ATOM      6  C   UNL     1     121.842 132.910 129.089  1.00  0.00    -0.077 C 
ATOM      7  C   UNL     1     120.505 132.802 129.130  1.00  0.00    -0.028 C 
ATOM      8  C   UNL     1     122.622 131.850 128.352  1.00  0.00     0.031 C 
ATOM      9  C   UNL     1     119.820 131.697 128.367  1.00  0.00     0.034 C 
ATOM     10  C   UNL     1     122.083 130.474 128.760  1.00  0.00     0.011 C 
ENDBRANCH   1   4
BRANCH   1  11
ATOM     11  O   UNL     1     120.737 129.108 130.634  1.00  0.00    -0.390 OA
ATOM     12  H   UNL     1     121.318 128.334 130.412  1.00  0.00     0.211 HD
ENDBRANCH   1  11
TORSDOF 2
ENDMDL
MODEL 2
REMARK VINA RESULT:    -4.774     11.391     12.464
REMARK INTER + INTRA:          -5.381
REMARK INTER:                  -5.148
REMARK INTRA:                  -0.233
REMARK UNBOUND:                -0.188
REMARK SMILES CC1=CC[C@H](C(C)(C)O)CC1
REMARK SMILES IDX 6 1 7 2 8 3 5 4 1 5 2 6 3 7 11 8 4 9 10 10 9 11
REMARK H PARENT 9 12
REMARK Flexibility Score: inf
ROOT
ATOM      1  C   UNL     1     115.267 120.763 132.262  1.00  0.00     0.062 C 
ATOM      2  C   UNL     1     114.483 121.937 131.621  1.00  0.00     0.042 C 
ATOM      3  C   UNL     1     115.948 119.994 131.107  1.00  0.00     0.042 C 
ENDROOT
BRANCH   1   4
ATOM      4  C   UNL     1     116.354 121.272 133.285  1.00  0.00     0.024 C 
ATOM      5  C   UNL     1     119.208 118.467 135.125  1.00  0.00     0.039 C 
ATOM      6  C   UNL     1     118.314 119.620 134.764  1.00  0.00    -0.077 C 
ATOM      7  C   UNL     1     117.021 119.611 135.121  1.00  0.00    -0.028 C 
ATOM      8  C   UNL     1     118.811 120.763 133.913  1.00  0.00     0.031 C 
ATOM      9  C   UNL     1     116.134 120.773 134.754  1.00  0.00     0.034 C 
ATOM     10  C   UNL     1     117.810 120.997 132.776  1.00  0.00     0.011 C 
ENDBRANCH   1   4
BRANCH   1  11
ATOM     11  O   UNL     1     114.370 119.879 132.893  1.00  0.00    -0.390 OA
ATOM     12  H   UNL     1     113.458 120.264 132.824  1.00  0.00     0.211 HD
ENDBRANCH   1  11
TORSDOF 2
ENDMDL
MODEL 3
REMARK VINA RESULT:    -4.754     14.692     16.198
REMARK INTER + INTRA:          -5.359
REMARK INTER:                  -5.158
REMARK INTRA:                  -0.201
REMARK UNBOUND:                -0.188
REMARK SMILES CC1=CC[C@H](C(C)(C)O)CC1
REMARK SMILES IDX 6 1 7 2 8 3 5 4 1 5 2 6 3 7 11 8 4 9 10 10 9 11
REMARK H PARENT 9 12
REMARK Flexibility Score: inf
ROOT
ATOM      1  C   UNL     1     128.290 120.651 119.207  1.00  0.00     0.062 C 
ATOM      2  C   UNL     1     127.840 122.128 119.341  1.00  0.00     0.042 C 
ATOM      3  C   UNL     1     128.854 120.226 120.582  1.00  0.00     0.042 C 
ENDROOT
BRANCH   1   4
ATOM      4  C   UNL     1     127.096 119.707 118.799  1.00  0.00     0.024 C 
ATOM      5  C   UNL     1     123.437 119.512 121.243  1.00  0.00     0.039 C 
ATOM      6  C   UNL     1     124.579 119.275 120.294  1.00  0.00    -0.077 C 
ATOM      7  C   UNL     1     125.726 118.738 120.738  1.00  0.00    -0.028 C 
ATOM      8  C   UNL     1     124.509 119.721 118.855  1.00  0.00     0.031 C 
ATOM      9  C   UNL     1     126.864 118.506 119.778  1.00  0.00     0.034 C 
ATOM     10  C   UNL     1     125.780 120.513 118.526  1.00  0.00     0.011 C 
ENDBRANCH   1   4
BRANCH   1  11
ATOM     11  O   UNL     1     129.338 120.556 118.270  1.00  0.00    -0.390 OA
ATOM     12  H   UNL     1     130.179 120.372 118.763  1.00  0.00     0.211 HD
ENDBRANCH   1  11
TORSDOF 2
ENDMDL
MODEL 4
REMARK VINA RESULT:    -4.628     14.917     15.988
REMARK INTER + INTRA:          -5.222
REMARK INTER:                  -4.964
REMARK INTRA:                  -0.258
REMARK UNBOUND:                -0.188
REMARK SMILES CC1=CC[C@H](C(C)(C)O)CC1
REMARK SMILES IDX 6 1 7 2 8 3 5 4 1 5 2 6 3 7 11 8 4 9 10 10 9 11
REMARK H PARENT 9 12
REMARK Flexibility Score: inf
ROOT
ATOM      1  C   UNL     1     123.799 117.869 120.005  1.00  0.00     0.062 C 
ATOM      2  C   UNL     1     124.217 117.055 118.754  1.00  0.00     0.042 C 
ATOM      3  C   UNL     1     124.389 117.139 121.233  1.00  0.00     0.042 C 
ENDROOT
BRANCH   1   4
ATOM      4  C   UNL     1     124.337 119.350 119.949  1.00  0.00     0.024 C 
ATOM      5  C   UNL     1     128.521 120.194 118.863  1.00  0.00     0.039 C 
ATOM      6  C   UNL     1     127.107 120.217 119.373  1.00  0.00    -0.077 C 
ATOM      7  C   UNL     1     126.807 119.665 120.560  1.00  0.00    -0.028 C 
ATOM      8  C   UNL     1     125.978 120.763 118.535  1.00  0.00     0.031 C 
ATOM      9  C   UNL     1     125.386 119.694 121.060  1.00  0.00     0.034 C 
ATOM     10  C   UNL     1     124.841 119.735 118.517  1.00  0.00     0.011 C 
ENDBRANCH   1   4
BRANCH   1  11
ATOM     11  O   UNL     1     122.397 117.857 120.135  1.00  0.00    -0.390 OA
ATOM     12  H   UNL     1     122.041 117.122 119.571  1.00  0.00     0.211 HD
ENDBRANCH   1  11
TORSDOF 2
ENDMDL
MODEL 5
REMARK VINA RESULT:    -4.610      9.597     11.854
REMARK INTER + INTRA:          -5.203
REMARK INTER:                  -5.096
REMARK INTRA:                  -0.107
REMARK UNBOUND:                -0.188
REMARK SMILES CC1=CC[C@H](C(C)(C)O)CC1
REMARK SMILES IDX 6 1 7 2 8 3 5 4 1 5 2 6 3 7 11 8 4 9 10 10 9 11
REMARK H PARENT 9 12
REMARK Flexibility Score: inf
ROOT
ATOM      1  C   UNL     1     115.077 122.353 131.260  1.00  0.00     0.062 C 
ATOM      2  C   UNL     1     116.318 123.261 131.453  1.00  0.00     0.042 C 
ATOM      3  C   UNL     1     114.869 122.194 129.737  1.00  0.00     0.042 C 
ENDROOT
BRANCH   1   4
ATOM      4  C   UNL     1     115.274 120.939 131.928  1.00  0.00     0.024 C 
ATOM      5  C   UNL     1     118.245 120.347 135.125  1.00  0.00     0.039 C 
ATOM      6  C   UNL     1     117.258 120.211 133.999  1.00  0.00    -0.077 C 
ATOM      7  C   UNL     1     117.650 120.404 132.730  1.00  0.00    -0.028 C 
ATOM      8  C   UNL     1     115.795 119.956 134.264  1.00  0.00     0.031 C 
ATOM      9  C   UNL     1     116.651 120.265 131.609  1.00  0.00     0.034 C 
ATOM     10  C   UNL     1     114.969 120.971 133.465  1.00  0.00     0.011 C 
ENDBRANCH   1   4
BRANCH   1  11
ATOM     11  O   UNL     1     113.934 122.991 131.781  1.00  0.00    -0.390 OA
ATOM     12  H   UNL     1     113.277 123.099 131.045  1.00  0.00     0.211 HD
ENDBRANCH   1  11
TORSDOF 2
ENDMDL
MODEL 6
REMARK VINA RESULT:    -4.510      2.137      3.753
REMARK INTER + INTRA:          -5.093
REMARK INTER:                  -4.895
REMARK INTRA:                  -0.198
REMARK UNBOUND:                -0.188
REMARK SMILES CC1=CC[C@H](C(C)(C)O)CC1
REMARK SMILES IDX 6 1 7 2 8 3 5 4 1 5 2 6 3 7 11 8 4 9 10 10 9 11
REMARK H PARENT 9 12
REMARK Flexibility Score: inf
ROOT
ATOM      1  C   UNL     1     121.544 131.224 128.622  1.00  0.00     0.062 C 
ATOM      2  C   UNL     1     122.986 131.767 128.786  1.00  0.00     0.042 C 
ATOM      3  C   UNL     1     121.464 129.910 129.431  1.00  0.00     0.042 C 
ENDROOT
BRANCH   1   4
ATOM      4  C   UNL     1     120.466 132.247 129.148  1.00  0.00     0.024 C 
ATOM      5  C   UNL     1     117.423 133.913 126.435  1.00  0.00     0.039 C 
ATOM      6  C   UNL     1     118.387 133.618 127.550  1.00  0.00    -0.077 C 
ATOM      7  C   UNL     1     119.670 133.999 127.453  1.00  0.00    -0.028 C 
ATOM      8  C   UNL     1     117.972 132.808 128.753  1.00  0.00     0.031 C 
ATOM      9  C   UNL     1     120.628 133.697 128.577  1.00  0.00     0.034 C 
ATOM     10  C   UNL     1     119.008 131.700 128.977  1.00  0.00     0.011 C 
ENDBRANCH   1   4
BRANCH   1  11
ATOM     11  O   UNL     1     121.305 130.906 127.270  1.00  0.00    -0.390 OA
ATOM     12  H   UNL     1     120.347 131.080 127.076  1.00  0.00     0.211 HD
ENDBRANCH   1  11
TORSDOF 2
ENDMDL
MODEL 7
REMARK VINA RESULT:    -4.505     14.701     15.916
REMARK INTER + INTRA:          -5.089
REMARK INTER:                  -4.930
REMARK INTRA:                  -0.159
REMARK UNBOUND:                -0.188
REMARK SMILES CC1=CC[C@H](C(C)(C)O)CC1
REMARK SMILES IDX 6 1 7 2 8 3 5 4 1 5 2 6 3 7 11 8 4 9 10 10 9 11
REMARK H PARENT 9 12
REMARK Flexibility Score: inf
ROOT
ATOM      1  C   UNL     1     124.178 118.163 120.364  1.00  0.00     0.062 C 
ATOM      2  C   UNL     1     124.511 117.019 121.355  1.00  0.00     0.042 C 
ATOM      3  C   UNL     1     124.012 119.450 121.203  1.00  0.00     0.042 C 
ENDROOT
BRANCH   1   4
ATOM      4  C   UNL     1     125.318 118.362 119.292  1.00  0.00     0.024 C 
ATOM      5  C   UNL     1     127.798 122.001 119.285  1.00  0.00     0.039 C 
ATOM      6  C   UNL     1     127.056 120.734 118.963  1.00  0.00    -0.077 C 
ATOM      7  C   UNL     1     125.770 120.783 118.581  1.00  0.00    -0.028 C 
ATOM      8  C   UNL     1     127.692 119.380 119.156  1.00  0.00     0.031 C 
ATOM      9  C   UNL     1     125.035 119.507 118.262  1.00  0.00     0.034 C 
ATOM     10  C   UNL     1     126.729 118.497 119.959  1.00  0.00     0.011 C 
ENDBRANCH   1   4
BRANCH   1  11
ATOM     11  O   UNL     1     122.946 117.904 119.733  1.00  0.00    -0.390 OA
ATOM     12  H   UNL     1     122.912 116.939 119.505  1.00  0.00     0.211 HD
ENDBRANCH   1  11
TORSDOF 2
ENDMDL
MODEL 8
REMARK VINA RESULT:    -4.452      4.700      6.352
REMARK INTER + INTRA:          -5.030
REMARK INTER:                  -4.771
REMARK INTRA:                  -0.260
REMARK UNBOUND:                -0.188
REMARK SMILES CC1=CC[C@H](C(C)(C)O)CC1
REMARK SMILES IDX 6 1 7 2 8 3 5 4 1 5 2 6 3 7 11 8 4 9 10 10 9 11
REMARK H PARENT 9 12
REMARK Flexibility Score: inf
ROOT
ATOM      1  C   UNL     1     117.917 126.650 131.001  1.00  0.00     0.062 C 
ATOM      2  C   UNL     1     117.239 127.647 131.976  1.00  0.00     0.042 C 
ATOM      3  C   UNL     1     117.211 125.288 131.190  1.00  0.00     0.042 C 
ENDROOT
BRANCH   1   4
ATOM      4  C   UNL     1     117.793 127.118 129.501  1.00  0.00     0.024 C 
ATOM      5  C   UNL     1     118.637 124.336 126.192  1.00  0.00     0.039 C 
ATOM      6  C   UNL     1     118.406 125.524 127.084  1.00  0.00    -0.077 C 
ATOM      7  C   UNL     1     119.402 126.000 127.847  1.00  0.00    -0.028 C 
ATOM      8  C   UNL     1     117.039 126.146 127.225  1.00  0.00     0.031 C 
ATOM      9  C   UNL     1     119.159 127.192 128.738  1.00  0.00     0.034 C 
ATOM     10  C   UNL     1     116.718 126.290 128.717  1.00  0.00     0.011 C 
ENDBRANCH   1   4
BRANCH   1  11
ATOM     11  O   UNL     1     119.269 126.482 131.356  1.00  0.00    -0.390 OA
ATOM     12  H   UNL     1     119.829 126.784 130.594  1.00  0.00     0.211 HD
ENDBRANCH   1  11
TORSDOF 2
ENDMDL
MODEL 9
REMARK VINA RESULT:    -4.404      4.844      7.387
REMARK INTER + INTRA:          -4.978
REMARK INTER:                  -4.655
REMARK INTRA:                  -0.323
REMARK UNBOUND:                -0.188
REMARK SMILES CC1=CC[C@H](C(C)(C)O)CC1
REMARK SMILES IDX 6 1 7 2 8 3 5 4 1 5 2 6 3 7 11 8 4 9 10 10 9 11
REMARK H PARENT 9 12
REMARK Flexibility Score: inf
ROOT
ATOM      1  C   UNL     1     117.544 126.434 129.155  1.00  0.00     0.062 C 
ATOM      2  C   UNL     1     117.760 125.256 130.138  1.00  0.00     0.042 C 
ATOM      3  C   UNL     1     118.652 127.472 129.446  1.00  0.00     0.042 C 
ENDROOT
BRANCH   1   4
ATOM      4  C   UNL     1     117.624 125.968 127.651  1.00  0.00     0.024 C 
ATOM      5  C   UNL     1     119.947 122.402 126.516  1.00  0.00     0.039 C 
ATOM      6  C   UNL     1     119.191 123.700 126.574  1.00  0.00    -0.077 C 
ATOM      7  C   UNL     1     119.812 124.828 126.952  1.00  0.00    -0.028 C 
ATOM      8  C   UNL     1     117.706 123.757 126.311  1.00  0.00     0.031 C 
ATOM      9  C   UNL     1     119.043 126.124 127.007  1.00  0.00     0.034 C 
ATOM     10  C   UNL     1     117.036 124.529 127.454  1.00  0.00     0.011 C 
ENDBRANCH   1   4
BRANCH   1  11
ATOM     11  O   UNL     1     116.304 127.050 129.416  1.00  0.00    -0.390 OA
ATOM     12  H   UNL     1     115.592 126.367 129.314  1.00  0.00     0.211 HD
ENDBRANCH   1  11
TORSDOF 2
ENDMDL
