MODEL 1
REMARK VINA RESULT:     9.797      0.000      0.000
REMARK INTER + INTRA:          14.119
REMARK INTER:                  14.378
REMARK INTRA:                  -0.259
REMARK UNBOUND:                -0.259
REMARK SMILES O=C([O-])CCCCCCCC(=O)[O-]
REMARK SMILES IDX 7 1 6 2 5 3 4 4 2 5 1 6 3 7 8 8 9 9 10 10 11 11 12 12 13 13
REMARK H PARENT
REMARK Flexibility Score: inf
ROOT
ATOM      1  C   UNL     1      -2.006   7.969 -23.018  1.00  0.00     0.000 C 
ENDROOT
BRANCH   1   2
ATOM      2  C   UNL     1      -3.175   6.980 -22.903  1.00  0.00     0.000 C 
BRANCH   2   3
ATOM      3  C   UNL     1      -3.791   6.945 -21.493  1.00  0.00     0.006 C 
BRANCH   3   4
ATOM      4  C   UNL     1      -2.761   6.928 -20.353  1.00  0.00     0.053 C 
BRANCH   4   5
ATOM      5  C   UNL     1      -3.081   7.936 -19.292  1.00  0.00     0.041 C 
ATOM      6  O   UNL     1      -4.270   8.093 -18.905  1.00  0.00    -0.550 OA
ATOM      7  O   UNL     1      -2.073   8.723 -18.754  1.00  0.00    -0.550 OA
ENDBRANCH   4   5
ENDBRANCH   3   4
ENDBRANCH   2   3
ENDBRANCH   1   2
BRANCH   1   8
ATOM      8  C   UNL     1      -2.193   8.904 -24.219  1.00  0.00     0.000 C 
BRANCH   8   9
ATOM      9  C   UNL     1      -0.865   9.558 -24.620  1.00  0.00     0.006 C 
BRANCH   9  10
ATOM     10  C   UNL     1      -0.672   9.522 -26.139  1.00  0.00     0.053 C 
BRANCH  10  11
ATOM     11  C   UNL     1       0.646   8.903 -26.485  1.00  0.00     0.041 C 
ATOM     12  O   UNL     1       0.889   7.710 -26.161  1.00  0.00    -0.550 OA
ATOM     13  O   UNL     1       1.623   9.656 -27.121  1.00  0.00    -0.550 OA
ENDBRANCH  10  11
ENDBRANCH   9  10
ENDBRANCH   8   9
ENDBRANCH   1   8
TORSDOF 8
ENDMDL
MODEL 2
REMARK VINA RESULT:     9.876      0.730      6.792
REMARK INTER + INTRA:          14.236
REMARK INTER:                  14.539
REMARK INTRA:                  -0.303
REMARK UNBOUND:                -0.259
REMARK SMILES O=C([O-])CCCCCCCC(=O)[O-]
REMARK SMILES IDX 7 1 6 2 5 3 4 4 2 5 1 6 3 7 8 8 9 9 10 10 11 11 12 12 13 13
REMARK H PARENT
REMARK Flexibility Score: inf
ROOT
ATOM      1  C   UNL     1      -1.746   8.166 -22.906  1.00  0.00     0.000 C 
ENDROOT
BRANCH   1   2
ATOM      2  C   UNL     1      -1.919   9.402 -23.800  1.00  0.00     0.000 C 
BRANCH   2   3
ATOM      3  C   UNL     1      -0.978   9.394 -25.019  1.00  0.00     0.006 C 
BRANCH   3   4
ATOM      4  C   UNL     1      -0.064   8.162 -25.104  1.00  0.00     0.053 C 
BRANCH   4   5
ATOM      5  C   UNL     1       0.681   8.104 -26.402  1.00  0.00     0.041 C 
ATOM      6  O   UNL     1       0.911   9.161 -27.049  1.00  0.00    -0.550 OA
ATOM      7  O   UNL     1       1.093   6.882 -26.914  1.00  0.00    -0.550 OA
ENDBRANCH   4   5
ENDBRANCH   3   4
ENDBRANCH   2   3
ENDBRANCH   1   2
BRANCH   1   8
ATOM      8  C   UNL     1      -2.914   7.189 -23.088  1.00  0.00     0.000 C 
BRANCH   8   9
ATOM      9  C   UNL     1      -3.646   6.951 -21.761  1.00  0.00     0.006 C 
BRANCH   9  10
ATOM     10  C   UNL     1      -2.657   6.878 -20.594  1.00  0.00     0.053 C 
BRANCH  10  11
ATOM     11  C   UNL     1      -3.108   7.755 -19.469  1.00  0.00     0.041 C 
ATOM     12  O   UNL     1      -4.305   7.716 -19.077  1.00  0.00    -0.550 OA
ATOM     13  O   UNL     1      -2.221   8.648 -18.885  1.00  0.00    -0.550 OA
ENDBRANCH  10  11
ENDBRANCH   9  10
ENDBRANCH   8   9
ENDBRANCH   1   8
TORSDOF 8
ENDMDL
MODEL 3
REMARK VINA RESULT:    11.380      3.714      4.478
REMARK INTER + INTRA:          16.442
REMARK INTER:                  16.756
REMARK INTRA:                  -0.314
REMARK UNBOUND:                -0.259
REMARK SMILES O=C([O-])CCCCCCCC(=O)[O-]
REMARK SMILES IDX 7 1 6 2 5 3 4 4 2 5 1 6 3 7 8 8 9 9 10 10 11 11 12 12 13 13
REMARK H PARENT
REMARK Flexibility Score: inf
ROOT
ATOM      1  C   UNL     1      -3.288   9.170 -24.889  1.00  0.00     0.000 C 
ENDROOT
BRANCH   1   2
ATOM      2  C   UNL     1      -4.771   8.818 -24.703  1.00  0.00     0.000 C 
BRANCH   2   3
ATOM      3  C   UNL     1      -5.696  10.043 -24.824  1.00  0.00     0.006 C 
BRANCH   3   4
ATOM      4  C   UNL     1      -5.631  11.004 -23.627  1.00  0.00     0.053 C 
BRANCH   4   5
ATOM      5  C   UNL     1      -6.551  12.174 -23.797  1.00  0.00     0.041 C 
ATOM      6  O   UNL     1      -6.598  12.789 -24.896  1.00  0.00    -0.550 OA
ATOM      7  O   UNL     1      -7.331  12.605 -22.733  1.00  0.00    -0.550 OA
ENDBRANCH   4   5
ENDBRANCH   3   4
ENDBRANCH   2   3
ENDBRANCH   1   2
BRANCH   1   8
ATOM      8  C   UNL     1      -2.409   8.378 -23.913  1.00  0.00     0.000 C 
BRANCH   8   9
ATOM      9  C   UNL     1      -0.926   8.722 -24.103  1.00  0.00     0.006 C 
BRANCH   9  10
ATOM     10  C   UNL     1      -0.699   9.462 -25.425  1.00  0.00     0.053 C 
BRANCH  10  11
ATOM     11  C   UNL     1       0.406   8.818 -26.202  1.00  0.00     0.041 C 
ATOM     12  O   UNL     1       0.983   9.452 -27.125  1.00  0.00    -0.550 OA
ATOM     13  O   UNL     1       0.766   7.503 -25.940  1.00  0.00    -0.550 OA
ENDBRANCH  10  11
ENDBRANCH   9  10
ENDBRANCH   8   9
ENDBRANCH   1   8
TORSDOF 8
ENDMDL
MODEL 4
REMARK VINA RESULT:    11.645      3.686      6.869
REMARK INTER + INTRA:          16.832
REMARK INTER:                  17.135
REMARK INTRA:                  -0.304
REMARK UNBOUND:                -0.259
REMARK SMILES O=C([O-])CCCCCCCC(=O)[O-]
REMARK SMILES IDX 7 1 6 2 5 3 4 4 2 5 1 6 3 7 8 8 9 9 10 10 11 11 12 12 13 13
REMARK H PARENT
REMARK Flexibility Score: inf
ROOT
ATOM      1  C   UNL     1      -3.315   9.156 -24.897  1.00  0.00     0.000 C 
ENDROOT
BRANCH   1   2
ATOM      2  C   UNL     1      -2.355   8.692 -23.792  1.00  0.00     0.000 C 
BRANCH   2   3
ATOM      3  C   UNL     1      -0.875   8.802 -24.201  1.00  0.00     0.006 C 
BRANCH   3   4
ATOM      4  C   UNL     1      -0.641   9.523 -25.538  1.00  0.00     0.053 C 
BRANCH   4   5
ATOM      5  C   UNL     1       0.486   8.914 -26.314  1.00  0.00     0.041 C 
ATOM      6  O   UNL     1       1.156   9.616 -27.117  1.00  0.00    -0.550 OA
ATOM      7  O   UNL     1       0.775   7.563 -26.175  1.00  0.00    -0.550 OA
ENDBRANCH   4   5
ENDBRANCH   3   4
ENDBRANCH   2   3
ENDBRANCH   1   2
BRANCH   1   8
ATOM      8  C   UNL     1      -4.756   8.733 -24.586  1.00  0.00     0.000 C 
BRANCH   8   9
ATOM      9  C   UNL     1      -5.730   9.899 -24.797  1.00  0.00     0.006 C 
BRANCH   9  10
ATOM     10  C   UNL     1      -5.512  10.994 -23.748  1.00  0.00     0.053 C 
BRANCH  10  11
ATOM     11  C   UNL     1      -6.515  12.091 -23.920  1.00  0.00     0.041 C 
ATOM     12  O   UNL     1      -6.613  12.692 -25.023  1.00  0.00    -0.550 OA
ATOM     13  O   UNL     1      -7.308  12.482 -22.850  1.00  0.00    -0.550 OA
ENDBRANCH  10  11
ENDBRANCH   9  10
ENDBRANCH   8   9
ENDBRANCH   1   8
TORSDOF 8
ENDMDL
MODEL 5
REMARK VINA RESULT:    11.980     13.155     15.458
REMARK INTER + INTRA:          17.323
REMARK INTER:                  17.616
REMARK INTRA:                  -0.293
REMARK UNBOUND:                -0.259
REMARK SMILES O=C([O-])CCCCCCCC(=O)[O-]
REMARK SMILES IDX 7 1 6 2 5 3 4 4 2 5 1 6 3 7 8 8 9 9 10 10 11 11 12 12 13 13
REMARK H PARENT
REMARK Flexibility Score: inf
ROOT
ATOM      1  C   UNL     1       4.747  17.503 -13.772  1.00  0.00     0.000 C 
ENDROOT
BRANCH   1   2
ATOM      2  C   UNL     1       4.703  18.190 -15.144  1.00  0.00     0.000 C 
BRANCH   2   3
ATOM      3  C   UNL     1       4.889  17.204 -16.312  1.00  0.00     0.006 C 
BRANCH   3   4
ATOM      4  C   UNL     1       4.654  17.818 -17.701  1.00  0.00     0.053 C 
BRANCH   4   5
ATOM      5  C   UNL     1       3.957  16.867 -18.624  1.00  0.00     0.041 C 
ATOM      6  O   UNL     1       2.888  17.207 -19.197  1.00  0.00    -0.550 OA
ATOM      7  O   UNL     1       4.471  15.593 -18.828  1.00  0.00    -0.550 OA
ENDBRANCH   4   5
ENDBRANCH   3   4
ENDBRANCH   2   3
ENDBRANCH   1   2
BRANCH   1   8
ATOM      8  C   UNL     1       4.402  18.491 -12.651  1.00  0.00     0.000 C 
BRANCH   8   9
ATOM      9  C   UNL     1       3.537  19.643 -13.179  1.00  0.00     0.006 C 
BRANCH   9  10
ATOM     10  C   UNL     1       2.947  20.459 -12.025  1.00  0.00     0.053 C 
BRANCH  10  11
ATOM     11  C   UNL     1       1.464  20.271 -11.955  1.00  0.00     0.041 C 
ATOM     12  O   UNL     1       0.977  19.115 -11.843  1.00  0.00    -0.550 OA
ATOM     13  O   UNL     1       0.618  21.367 -12.063  1.00  0.00    -0.550 OA
ENDBRANCH  10  11
ENDBRANCH   9  10
ENDBRANCH   8   9
ENDBRANCH   1   8
TORSDOF 8
ENDMDL
MODEL 6
REMARK VINA RESULT:    12.039     13.152     14.276
REMARK INTER + INTRA:          17.410
REMARK INTER:                  17.696
REMARK INTRA:                  -0.286
REMARK UNBOUND:                -0.259
REMARK SMILES O=C([O-])CCCCCCCC(=O)[O-]
REMARK SMILES IDX 7 1 6 2 5 3 4 4 2 5 1 6 3 7 8 8 9 9 10 10 11 11 12 12 13 13
REMARK H PARENT
REMARK Flexibility Score: inf
ROOT
ATOM      1  C   UNL     1       4.682  17.406 -13.879  1.00  0.00     0.000 C 
ENDROOT
BRANCH   1   2
ATOM      2  C   UNL     1       4.381  18.385 -12.736  1.00  0.00     0.000 C 
BRANCH   2   3
ATOM      3  C   UNL     1       3.593  19.624 -13.202  1.00  0.00     0.006 C 
BRANCH   3   4
ATOM      4  C   UNL     1       2.990  20.456 -12.060  1.00  0.00     0.053 C 
BRANCH   4   5
ATOM      5  C   UNL     1       1.505  20.283 -11.964  1.00  0.00     0.041 C 
ATOM      6  O   UNL     1       1.009  19.136 -11.798  1.00  0.00    -0.550 OA
ATOM      7  O   UNL     1       0.667  21.383 -12.091  1.00  0.00    -0.550 OA
ENDBRANCH   4   5
ENDBRANCH   3   4
ENDBRANCH   2   3
ENDBRANCH   1   2
BRANCH   1   8
ATOM      8  C   UNL     1       4.863  18.150 -15.207  1.00  0.00     0.000 C 
BRANCH   8   9
ATOM      9  C   UNL     1       5.033  17.167 -16.372  1.00  0.00     0.006 C 
BRANCH   9  10
ATOM     10  C   UNL     1       4.669  17.827 -17.705  1.00  0.00     0.053 C 
BRANCH  10  11
ATOM     11  C   UNL     1       4.003  16.841 -18.613  1.00  0.00     0.041 C 
ATOM     12  O   UNL     1       4.532  15.717 -18.823  1.00  0.00    -0.550 OA
ATOM     13  O   UNL     1       2.825  17.180 -19.264  1.00  0.00    -0.550 OA
ENDBRANCH  10  11
ENDBRANCH   9  10
ENDBRANCH   8   9
ENDBRANCH   1   8
TORSDOF 8
ENDMDL
