MODEL 1
REMARK VINA RESULT:    -4.534      0.000      0.000
REMARK INTER + INTRA:          -9.378
REMARK INTER:                  -7.980
REMARK INTRA:                  -1.399
REMARK UNBOUND:                -1.399
REMARK SMILES CCCCCCCCCCCCCCC(=O)[O-]
REMARK SMILES IDX 9 1 10 2 11 3 12 4 13 5 14 6 15 7 16 8 17 9 8 10 7 11 6 12
REMARK SMILES IDX 5 13 4 14 3 15 2 16 1 17
REMARK H PARENT
REMARK Flexibility Score: inf
ROOT
ATOM      1  C   UNL     1      -6.300 -20.874  -2.367  1.00  0.00     0.000 C 
ENDROOT
BRANCH   1   2
ATOM      2  C   UNL     1      -7.155 -20.211  -3.466  1.00  0.00     0.000 C 
BRANCH   2   3
ATOM      3  C   UNL     1      -6.768 -20.594  -4.905  1.00  0.00     0.000 C 
BRANCH   3   4
ATOM      4  C   UNL     1      -7.501 -19.805  -6.007  1.00  0.00     0.000 C 
BRANCH   4   5
ATOM      5  C   UNL     1      -8.910 -19.327  -5.594  1.00  0.00     0.006 C 
BRANCH   5   6
ATOM      6  C   UNL     1      -9.680 -18.703  -6.766  1.00  0.00     0.053 C 
BRANCH   6   7
ATOM      7  C   UNL     1     -10.443 -19.754  -7.509  1.00  0.00     0.041 C 
ATOM      8  O   UNL     1     -11.052 -20.660  -6.881  1.00  0.00    -0.550 OA
ATOM      9  O   UNL     1     -10.524 -19.704  -8.895  1.00  0.00    -0.550 OA
ENDBRANCH   6   7
ENDBRANCH   5   6
ENDBRANCH   4   5
ENDBRANCH   3   4
ENDBRANCH   2   3
ENDBRANCH   1   2
BRANCH   1  10
ATOM     10  C   UNL     1      -5.628 -22.190  -2.813  1.00  0.00     0.000 C 
BRANCH  10  11
ATOM     11  C   UNL     1      -4.195 -22.329  -2.270  1.00  0.00    -0.000 C 
BRANCH  11  12
ATOM     12  C   UNL     1      -3.160 -22.575  -3.390  1.00  0.00    -0.000 C 
BRANCH  12  13
ATOM     13  C   UNL     1      -3.381 -21.706  -4.642  1.00  0.00    -0.000 C 
BRANCH  13  14
ATOM     14  C   UNL     1      -3.690 -22.487  -5.932  1.00  0.00    -0.000 C 
BRANCH  14  15
ATOM     15  C   UNL     1      -4.179 -23.931  -5.715  1.00  0.00    -0.000 C 
BRANCH  15  16
ATOM     16  C   UNL     1      -5.695 -24.084  -5.897  1.00  0.00    -0.003 C 
ATOM     17  C   UNL     1      -6.040 -25.414  -6.561  1.00  0.00     0.004 C 
ENDBRANCH  15  16
ENDBRANCH  14  15
ENDBRANCH  13  14
ENDBRANCH  12  13
ENDBRANCH  11  12
ENDBRANCH  10  11
ENDBRANCH   1  10
TORSDOF 13
ENDMDL
MODEL 2
REMARK VINA RESULT:    -4.492     10.554     12.835
REMARK INTER + INTRA:          -9.305
REMARK INTER:                  -7.533
REMARK INTRA:                  -1.772
REMARK UNBOUND:                -1.399
REMARK SMILES CCCCCCCCCCCCCCC(=O)[O-]
REMARK SMILES IDX 9 1 10 2 11 3 12 4 13 5 14 6 15 7 16 8 17 9 8 10 7 11 6 12
REMARK SMILES IDX 5 13 4 14 3 15 2 16 1 17
REMARK H PARENT
REMARK Flexibility Score: inf
ROOT
ATOM      1  C   UNL     1       0.013 -25.146 -13.354  1.00  0.00     0.000 C 
ENDROOT
BRANCH   1   2
ATOM      2  C   UNL     1       0.801 -24.344 -12.300  1.00  0.00     0.000 C 
BRANCH   2   3
ATOM      3  C   UNL     1       0.561 -22.824 -12.331  1.00  0.00     0.000 C 
BRANCH   3   4
ATOM      4  C   UNL     1       0.786 -22.103 -10.988  1.00  0.00     0.000 C 
BRANCH   4   5
ATOM      5  C   UNL     1       1.809 -20.950 -11.067  1.00  0.00     0.006 C 
BRANCH   5   6
ATOM      6  C   UNL     1       2.788 -21.118 -12.237  1.00  0.00     0.053 C 
BRANCH   6   7
ATOM      7  C   UNL     1       4.130 -21.552 -11.738  1.00  0.00     0.041 C 
ATOM      8  O   UNL     1       4.227 -22.211 -10.669  1.00  0.00    -0.550 OA
ATOM      9  O   UNL     1       5.271 -21.271 -12.479  1.00  0.00    -0.550 OA
ENDBRANCH   6   7
ENDBRANCH   5   6
ENDBRANCH   4   5
ENDBRANCH   3   4
ENDBRANCH   2   3
ENDBRANCH   1   2
BRANCH   1  10
ATOM     10  C   UNL     1       0.372 -24.778 -14.810  1.00  0.00     0.000 C 
BRANCH  10  11
ATOM     11  C   UNL     1      -0.876 -24.541 -15.678  1.00  0.00    -0.000 C 
BRANCH  11  12
ATOM     12  C   UNL     1      -0.724 -23.319 -16.610  1.00  0.00    -0.000 C 
BRANCH  12  13
ATOM     13  C   UNL     1       0.561 -22.506 -16.363  1.00  0.00    -0.000 C 
BRANCH  13  14
ATOM     14  C   UNL     1       0.392 -21.285 -15.440  1.00  0.00    -0.000 C 
BRANCH  14  15
ATOM     15  C   UNL     1      -1.065 -20.938 -15.082  1.00  0.00    -0.000 C 
BRANCH  15  16
ATOM     16  C   UNL     1      -1.175 -19.951 -13.912  1.00  0.00    -0.003 C 
ATOM     17  C   UNL     1       0.087 -19.103 -13.787  1.00  0.00     0.004 C 
ENDBRANCH  15  16
ENDBRANCH  14  15
ENDBRANCH  13  14
ENDBRANCH  12  13
ENDBRANCH  11  12
ENDBRANCH  10  11
ENDBRANCH   1  10
TORSDOF 13
ENDMDL
MODEL 3
REMARK VINA RESULT:    -4.480     10.491     12.644
REMARK INTER + INTRA:          -9.283
REMARK INTER:                  -8.561
REMARK INTRA:                  -0.723
REMARK UNBOUND:                -1.399
REMARK SMILES CCCCCCCCCCCCCCC(=O)[O-]
REMARK SMILES IDX 9 1 10 2 11 3 12 4 13 5 14 6 15 7 16 8 17 9 8 10 7 11 6 12
REMARK SMILES IDX 5 13 4 14 3 15 2 16 1 17
REMARK H PARENT
REMARK Flexibility Score: inf
ROOT
ATOM      1  C   UNL     1       0.327 -22.790 -16.472  1.00  0.00     0.000 C 
ENDROOT
BRANCH   1   2
ATOM      2  C   UNL     1       1.184 -21.860 -15.590  1.00  0.00     0.000 C 
BRANCH   2   3
ATOM      3  C   UNL     1       0.384 -20.850 -14.748  1.00  0.00     0.000 C 
BRANCH   3   4
ATOM      4  C   UNL     1       1.065 -20.416 -13.436  1.00  0.00     0.000 C 
BRANCH   4   5
ATOM      5  C   UNL     1       2.604 -20.517 -13.472  1.00  0.00     0.006 C 
BRANCH   5   6
ATOM      6  C   UNL     1       3.238 -20.282 -12.094  1.00  0.00     0.053 C 
BRANCH   6   7
ATOM      7  C   UNL     1       4.283 -21.315 -11.815  1.00  0.00     0.041 C 
ATOM      8  O   UNL     1       5.297 -21.408 -12.556  1.00  0.00    -0.550 OA
ATOM      9  O   UNL     1       4.161 -22.144 -10.707  1.00  0.00    -0.550 OA
ENDBRANCH   6   7
ENDBRANCH   5   6
ENDBRANCH   4   5
ENDBRANCH   3   4
ENDBRANCH   2   3
ENDBRANCH   1   2
BRANCH   1  10
ATOM     10  C   UNL     1      -0.568 -23.757 -15.668  1.00  0.00     0.000 C 
BRANCH  10  11
ATOM     11  C   UNL     1       0.252 -24.769 -14.849  1.00  0.00    -0.000 C 
BRANCH  11  12
ATOM     12  C   UNL     1      -0.266 -24.915 -13.402  1.00  0.00    -0.000 C 
BRANCH  12  13
ATOM     13  C   UNL     1      -0.342 -26.375 -12.914  1.00  0.00    -0.000 C 
BRANCH  13  14
ATOM     14  C   UNL     1       0.080 -26.596 -11.450  1.00  0.00    -0.000 C 
BRANCH  14  15
ATOM     15  C   UNL     1       0.080 -28.065 -10.989  1.00  0.00    -0.000 C 
BRANCH  15  16
ATOM     16  C   UNL     1      -0.382 -28.236  -9.535  1.00  0.00    -0.003 C 
ATOM     17  C   UNL     1       0.044 -27.047  -8.679  1.00  0.00     0.004 C 
ENDBRANCH  15  16
ENDBRANCH  14  15
ENDBRANCH  13  14
ENDBRANCH  12  13
ENDBRANCH  11  12
ENDBRANCH  10  11
ENDBRANCH   1  10
TORSDOF 13
ENDMDL
MODEL 4
REMARK VINA RESULT:    -4.414     10.444     12.364
REMARK INTER + INTRA:          -9.168
REMARK INTER:                  -7.309
REMARK INTRA:                  -1.859
REMARK UNBOUND:                -1.399
REMARK SMILES CCCCCCCCCCCCCCC(=O)[O-]
REMARK SMILES IDX 9 1 10 2 11 3 12 4 13 5 14 6 15 7 16 8 17 9 8 10 7 11 6 12
REMARK SMILES IDX 5 13 4 14 3 15 2 16 1 17
REMARK H PARENT
REMARK Flexibility Score: inf
ROOT
ATOM      1  C   UNL     1       0.816 -23.278 -10.741  1.00  0.00     0.000 C 
ENDROOT
BRANCH   1   2
ATOM      2  C   UNL     1       0.376 -21.927 -11.341  1.00  0.00     0.000 C 
BRANCH   2   3
ATOM      3  C   UNL     1       0.624 -21.779 -12.852  1.00  0.00     0.000 C 
BRANCH   3   4
ATOM      4  C   UNL     1       1.214 -20.422 -13.283  1.00  0.00     0.000 C 
BRANCH   4   5
ATOM      5  C   UNL     1       2.739 -20.455 -13.517  1.00  0.00     0.006 C 
BRANCH   5   6
ATOM      6  C   UNL     1       3.532 -20.100 -12.252  1.00  0.00     0.053 C 
BRANCH   6   7
ATOM      7  C   UNL     1       4.426 -21.233 -11.858  1.00  0.00     0.041 C 
ATOM      8  O   UNL     1       5.531 -21.400 -12.438  1.00  0.00    -0.550 OA
ATOM      9  O   UNL     1       4.061 -22.076 -10.817  1.00  0.00    -0.550 OA
ENDBRANCH   6   7
ENDBRANCH   5   6
ENDBRANCH   4   5
ENDBRANCH   3   4
ENDBRANCH   2   3
ENDBRANCH   1   2
BRANCH   1  10
ATOM     10  C   UNL     1       1.283 -24.303 -11.797  1.00  0.00     0.000 C 
BRANCH  10  11
ATOM     11  C   UNL     1       0.547 -25.648 -11.672  1.00  0.00    -0.000 C 
BRANCH  11  12
ATOM     12  C   UNL     1      -0.280 -25.989 -12.931  1.00  0.00    -0.000 C 
BRANCH  12  13
ATOM     13  C   UNL     1      -1.579 -25.171 -13.060  1.00  0.00    -0.000 C 
BRANCH  13  14
ATOM     14  C   UNL     1      -1.704 -24.347 -14.355  1.00  0.00    -0.000 C 
BRANCH  14  15
ATOM     15  C   UNL     1      -0.453 -24.355 -15.253  1.00  0.00    -0.000 C 
BRANCH  15  16
ATOM     16  C   UNL     1      -0.572 -23.403 -16.452  1.00  0.00    -0.003 C 
ATOM     17  C   UNL     1       0.590 -22.415 -16.488  1.00  0.00     0.004 C 
ENDBRANCH  15  16
ENDBRANCH  14  15
ENDBRANCH  13  14
ENDBRANCH  12  13
ENDBRANCH  11  12
ENDBRANCH  10  11
ENDBRANCH   1  10
TORSDOF 13
ENDMDL
MODEL 5
REMARK VINA RESULT:    -4.412     10.707     12.719
REMARK INTER + INTRA:          -9.164
REMARK INTER:                  -7.468
REMARK INTRA:                  -1.696
REMARK UNBOUND:                -1.399
REMARK SMILES CCCCCCCCCCCCCCC(=O)[O-]
REMARK SMILES IDX 9 1 10 2 11 3 12 4 13 5 14 6 15 7 16 8 17 9 8 10 7 11 6 12
REMARK SMILES IDX 5 13 4 14 3 15 2 16 1 17
REMARK H PARENT
REMARK Flexibility Score: inf
ROOT
ATOM      1  C   UNL     1      -1.939 -21.461 -14.113  1.00  0.00     0.000 C 
ENDROOT
BRANCH   1   2
ATOM      2  C   UNL     1      -0.998 -20.352 -14.624  1.00  0.00     0.000 C 
BRANCH   2   3
ATOM      3  C   UNL     1       0.474 -20.772 -14.777  1.00  0.00     0.000 C 
BRANCH   3   4
ATOM      4  C   UNL     1       1.479 -19.916 -13.983  1.00  0.00     0.000 C 
BRANCH   4   5
ATOM      5  C   UNL     1       2.781 -20.664 -13.622  1.00  0.00     0.006 C 
BRANCH   5   6
ATOM      6  C   UNL     1       3.334 -20.244 -12.254  1.00  0.00     0.053 C 
BRANCH   6   7
ATOM      7  C   UNL     1       4.430 -21.168 -11.826  1.00  0.00     0.041 C 
ATOM      8  O   UNL     1       4.188 -22.114 -11.030  1.00  0.00    -0.550 OA
ATOM      9  O   UNL     1       5.709 -21.016 -12.346  1.00  0.00    -0.550 OA
ENDBRANCH   6   7
ENDBRANCH   5   6
ENDBRANCH   4   5
ENDBRANCH   3   4
ENDBRANCH   2   3
ENDBRANCH   1   2
BRANCH   1  10
ATOM     10  C   UNL     1      -2.681 -22.213 -15.239  1.00  0.00     0.000 C 
BRANCH  10  11
ATOM     11  C   UNL     1      -2.240 -23.683 -15.350  1.00  0.00    -0.000 C 
BRANCH  11  12
ATOM     12  C   UNL     1      -0.944 -23.851 -16.174  1.00  0.00    -0.000 C 
BRANCH  12  13
ATOM     13  C   UNL     1       0.254 -24.360 -15.349  1.00  0.00    -0.000 C 
BRANCH  13  14
ATOM     14  C   UNL     1      -0.102 -25.355 -14.229  1.00  0.00    -0.000 C 
BRANCH  14  15
ATOM     15  C   UNL     1       0.481 -25.010 -12.846  1.00  0.00    -0.000 C 
BRANCH  15  16
ATOM     16  C   UNL     1       0.099 -23.601 -12.371  1.00  0.00    -0.003 C 
ATOM     17  C   UNL     1       1.006 -23.139 -11.235  1.00  0.00     0.004 C 
ENDBRANCH  15  16
ENDBRANCH  14  15
ENDBRANCH  13  14
ENDBRANCH  12  13
ENDBRANCH  11  12
ENDBRANCH  10  11
ENDBRANCH   1  10
TORSDOF 13
ENDMDL
MODEL 6
REMARK VINA RESULT:    -4.406     10.749     12.802
REMARK INTER + INTRA:          -9.154
REMARK INTER:                  -7.199
REMARK INTRA:                  -1.955
REMARK UNBOUND:                -1.399
REMARK SMILES CCCCCCCCCCCCCCC(=O)[O-]
REMARK SMILES IDX 9 1 10 2 11 3 12 4 13 5 14 6 15 7 16 8 17 9 8 10 7 11 6 12
REMARK SMILES IDX 5 13 4 14 3 15 2 16 1 17
REMARK H PARENT
REMARK Flexibility Score: inf
ROOT
ATOM      1  C   UNL     1       0.930 -21.771 -15.486  1.00  0.00     0.000 C 
ENDROOT
BRANCH   1   2
ATOM      2  C   UNL     1      -0.017 -20.642 -15.032  1.00  0.00     0.000 C 
BRANCH   2   3
ATOM      3  C   UNL     1       0.226 -20.130 -13.602  1.00  0.00     0.000 C 
BRANCH   3   4
ATOM      4  C   UNL     1       0.590 -21.220 -12.575  1.00  0.00     0.000 C 
BRANCH   4   5
ATOM      5  C   UNL     1       1.898 -20.936 -11.807  1.00  0.00     0.006 C 
BRANCH   5   6
ATOM      6  C   UNL     1       3.124 -20.915 -12.729  1.00  0.00     0.053 C 
BRANCH   6   7
ATOM      7  C   UNL     1       4.349 -21.339 -11.981  1.00  0.00     0.041 C 
ATOM      8  O   UNL     1       5.482 -20.913 -12.328  1.00  0.00    -0.550 OA
ATOM      9  O   UNL     1       4.233 -22.166 -10.871  1.00  0.00    -0.550 OA
ENDBRANCH   6   7
ENDBRANCH   5   6
ENDBRANCH   4   5
ENDBRANCH   3   4
ENDBRANCH   2   3
ENDBRANCH   1   2
BRANCH   1  10
ATOM     10  C   UNL     1       0.382 -22.604 -16.664  1.00  0.00     0.000 C 
BRANCH  10  11
ATOM     11  C   UNL     1      -0.352 -23.872 -16.193  1.00  0.00    -0.000 C 
BRANCH  11  12
ATOM     12  C   UNL     1       0.338 -24.539 -14.983  1.00  0.00    -0.000 C 
BRANCH  12  13
ATOM     13  C   UNL     1      -0.539 -24.591 -13.718  1.00  0.00    -0.000 C 
BRANCH  13  14
ATOM     14  C   UNL     1      -2.043 -24.358 -13.958  1.00  0.00    -0.000 C 
BRANCH  14  15
ATOM     15  C   UNL     1      -2.550 -22.953 -13.585  1.00  0.00    -0.000 C 
BRANCH  15  16
ATOM     16  C   UNL     1      -3.778 -22.525 -14.400  1.00  0.00    -0.003 C 
ATOM     17  C   UNL     1      -3.366 -21.777 -15.664  1.00  0.00     0.004 C 
ENDBRANCH  15  16
ENDBRANCH  14  15
ENDBRANCH  13  14
ENDBRANCH  12  13
ENDBRANCH  11  12
ENDBRANCH  10  11
ENDBRANCH   1  10
TORSDOF 13
ENDMDL
MODEL 7
REMARK VINA RESULT:    -4.376      1.458      2.222
REMARK INTER + INTRA:          -9.101
REMARK INTER:                  -7.604
REMARK INTRA:                  -1.497
REMARK UNBOUND:                -1.399
REMARK SMILES CCCCCCCCCCCCCCC(=O)[O-]
REMARK SMILES IDX 9 1 10 2 11 3 12 4 13 5 14 6 15 7 16 8 17 9 8 10 7 11 6 12
REMARK SMILES IDX 5 13 4 14 3 15 2 16 1 17
REMARK H PARENT
REMARK Flexibility Score: inf
ROOT
ATOM      1  C   UNL     1      -6.387 -21.476  -2.717  1.00  0.00     0.000 C 
ENDROOT
BRANCH   1   2
ATOM      2  C   UNL     1      -7.100 -20.252  -3.326  1.00  0.00     0.000 C 
BRANCH   2   3
ATOM      3  C   UNL     1      -7.090 -20.196  -4.863  1.00  0.00     0.000 C 
BRANCH   3   4
ATOM      4  C   UNL     1      -7.811 -18.979  -5.474  1.00  0.00     0.000 C 
BRANCH   4   5
ATOM      5  C   UNL     1      -8.128 -19.135  -6.976  1.00  0.00     0.006 C 
BRANCH   5   6
ATOM      6  C   UNL     1      -9.548 -18.670  -7.325  1.00  0.00     0.053 C 
BRANCH   6   7
ATOM      7  C   UNL     1     -10.373 -19.822  -7.804  1.00  0.00     0.041 C 
ATOM      8  O   UNL     1     -10.444 -20.083  -9.034  1.00  0.00    -0.550 OA
ATOM      9  O   UNL     1     -11.025 -20.638  -6.888  1.00  0.00    -0.550 OA
ENDBRANCH   6   7
ENDBRANCH   5   6
ENDBRANCH   4   5
ENDBRANCH   3   4
ENDBRANCH   2   3
ENDBRANCH   1   2
BRANCH   1  10
ATOM     10  C   UNL     1      -4.889 -21.566  -3.080  1.00  0.00     0.000 C 
BRANCH  10  11
ATOM     11  C   UNL     1      -4.510 -22.940  -3.660  1.00  0.00    -0.000 C 
BRANCH  11  12
ATOM     12  C   UNL     1      -5.744 -23.753  -4.110  1.00  0.00    -0.000 C 
BRANCH  12  13
ATOM     13  C   UNL     1      -5.413 -24.886  -5.100  1.00  0.00    -0.000 C 
BRANCH  13  14
ATOM     14  C   UNL     1      -6.094 -24.769  -6.476  1.00  0.00    -0.000 C 
BRANCH  14  15
ATOM     15  C   UNL     1      -6.269 -23.329  -6.993  1.00  0.00    -0.000 C 
BRANCH  15  16
ATOM     16  C   UNL     1      -7.723 -22.996  -7.354  1.00  0.00    -0.003 C 
ATOM     17  C   UNL     1      -7.818 -22.382  -8.748  1.00  0.00     0.004 C 
ENDBRANCH  15  16
ENDBRANCH  14  15
ENDBRANCH  13  14
ENDBRANCH  12  13
ENDBRANCH  11  12
ENDBRANCH  10  11
ENDBRANCH   1  10
TORSDOF 13
ENDMDL
MODEL 8
REMARK VINA RESULT:    -4.368     12.088     14.955
REMARK INTER + INTRA:          -9.087
REMARK INTER:                  -7.899
REMARK INTRA:                  -1.188
REMARK UNBOUND:                -1.399
REMARK SMILES CCCCCCCCCCCCCCC(=O)[O-]
REMARK SMILES IDX 9 1 10 2 11 3 12 4 13 5 14 6 15 7 16 8 17 9 8 10 7 11 6 12
REMARK SMILES IDX 5 13 4 14 3 15 2 16 1 17
REMARK H PARENT
REMARK Flexibility Score: inf
ROOT
ATOM      1  C   UNL     1      -9.534 -28.610 -15.402  1.00  0.00     0.000 C 
ENDROOT
BRANCH   1   2
ATOM      2  C   UNL     1      -9.572 -29.698 -16.494  1.00  0.00     0.000 C 
BRANCH   2   3
ATOM      3  C   UNL     1     -10.837 -30.574 -16.491  1.00  0.00     0.000 C 
BRANCH   3   4
ATOM      4  C   UNL     1     -10.576 -32.091 -16.543  1.00  0.00     0.000 C 
BRANCH   4   5
ATOM      5  C   UNL     1      -9.336 -32.479 -17.376  1.00  0.00     0.006 C 
BRANCH   5   6
ATOM      6  C   UNL     1      -8.180 -32.982 -16.502  1.00  0.00     0.053 C 
BRANCH   6   7
ATOM      7  C   UNL     1      -6.909 -32.276 -16.856  1.00  0.00     0.041 C 
ATOM      8  O   UNL     1      -6.751 -31.797 -18.011  1.00  0.00    -0.550 OA
ATOM      9  O   UNL     1      -5.920 -32.103 -15.897  1.00  0.00    -0.550 OA
ENDBRANCH   6   7
ENDBRANCH   5   6
ENDBRANCH   4   5
ENDBRANCH   3   4
ENDBRANCH   2   3
ENDBRANCH   1   2
BRANCH   1  10
ATOM     10  C   UNL     1     -10.286 -27.318 -15.787  1.00  0.00     0.000 C 
BRANCH  10  11
ATOM     11  C   UNL     1     -10.247 -26.263 -14.667  1.00  0.00    -0.000 C 
BRANCH  11  12
ATOM     12  C   UNL     1      -9.556 -24.955 -15.111  1.00  0.00    -0.000 C 
BRANCH  12  13
ATOM     13  C   UNL     1      -8.063 -25.125 -15.451  1.00  0.00    -0.000 C 
BRANCH  13  14
ATOM     14  C   UNL     1      -7.659 -24.660 -16.862  1.00  0.00    -0.000 C 
BRANCH  14  15
ATOM     15  C   UNL     1      -8.582 -25.146 -17.995  1.00  0.00    -0.000 C 
BRANCH  15  16
ATOM     16  C   UNL     1      -7.820 -25.855 -19.124  1.00  0.00    -0.003 C 
ATOM     17  C   UNL     1      -8.016 -27.366 -19.055  1.00  0.00     0.004 C 
ENDBRANCH  15  16
ENDBRANCH  14  15
ENDBRANCH  13  14
ENDBRANCH  12  13
ENDBRANCH  11  12
ENDBRANCH  10  11
ENDBRANCH   1  10
TORSDOF 13
ENDMDL
MODEL 9
REMARK VINA RESULT:    -4.338     10.628     12.658
REMARK INTER + INTRA:          -9.033
REMARK INTER:                  -7.178
REMARK INTRA:                  -1.855
REMARK UNBOUND:                -1.399
REMARK SMILES CCCCCCCCCCCCCCC(=O)[O-]
REMARK SMILES IDX 9 1 10 2 11 3 12 4 13 5 14 6 15 7 16 8 17 9 8 10 7 11 6 12
REMARK SMILES IDX 5 13 4 14 3 15 2 16 1 17
REMARK H PARENT
REMARK Flexibility Score: inf
ROOT
ATOM      1  C   UNL     1      -0.305 -22.837 -12.099  1.00  0.00     0.000 C 
ENDROOT
BRANCH   1   2
ATOM      2  C   UNL     1       0.249 -21.399 -12.084  1.00  0.00     0.000 C 
BRANCH   2   3
ATOM      3  C   UNL     1      -0.054 -20.575 -13.348  1.00  0.00     0.000 C 
BRANCH   3   4
ATOM      4  C   UNL     1       1.179 -19.946 -14.024  1.00  0.00     0.000 C 
BRANCH   4   5
ATOM      5  C   UNL     1       2.467 -20.781 -13.866  1.00  0.00     0.006 C 
BRANCH   5   6
ATOM      6  C   UNL     1       3.658 -19.934 -13.397  1.00  0.00     0.053 C 
BRANCH   6   7
ATOM      7  C   UNL     1       4.329 -20.578 -12.225  1.00  0.00     0.041 C 
ATOM      8  O   UNL     1       5.254 -21.413 -12.403  1.00  0.00    -0.550 OA
ATOM      9  O   UNL     1       3.966 -20.218 -10.933  1.00  0.00    -0.550 OA
ENDBRANCH   6   7
ENDBRANCH   5   6
ENDBRANCH   4   5
ENDBRANCH   3   4
ENDBRANCH   2   3
ENDBRANCH   1   2
BRANCH   1  10
ATOM     10  C   UNL     1       0.698 -23.883 -12.632  1.00  0.00     0.000 C 
BRANCH  10  11
ATOM     11  C   UNL     1       0.035 -24.901 -13.577  1.00  0.00    -0.000 C 
BRANCH  11  12
ATOM     12  C   UNL     1       0.545 -24.780 -15.029  1.00  0.00    -0.000 C 
BRANCH  12  13
ATOM     13  C   UNL     1       0.381 -23.370 -15.629  1.00  0.00    -0.000 C 
BRANCH  13  14
ATOM     14  C   UNL     1      -0.686 -23.253 -16.734  1.00  0.00    -0.000 C 
BRANCH  14  15
ATOM     15  C   UNL     1      -2.089 -23.749 -16.338  1.00  0.00    -0.000 C 
BRANCH  15  16
ATOM     16  C   UNL     1      -2.673 -22.993 -15.136  1.00  0.00    -0.003 C 
ATOM     17  C   UNL     1      -2.962 -21.537 -15.490  1.00  0.00     0.004 C 
ENDBRANCH  15  16
ENDBRANCH  14  15
ENDBRANCH  13  14
ENDBRANCH  12  13
ENDBRANCH  11  12
ENDBRANCH  10  11
ENDBRANCH   1  10
TORSDOF 13
ENDMDL
