MODEL 1
REMARK VINA RESULT:    -3.311      0.000      0.000
REMARK INTER + INTRA:          -4.191
REMARK INTER:                  -4.085
REMARK INTRA:                  -0.105
REMARK UNBOUND:                -0.105
REMARK SMILES CCCCCC(=O)[O-]
REMARK SMILES IDX 4 1 5 2 6 3 7 4 8 5 3 6 2 7 1 8
REMARK H PARENT
REMARK Flexibility Score: inf
ROOT
ATOM      1  C   UNL     1      -4.870  -2.268   2.530  1.00  0.00     0.006 C 
ENDROOT
BRANCH   1   2
ATOM      2  C   UNL     1      -5.247  -3.725   2.230  1.00  0.00     0.053 C 
BRANCH   2   3
ATOM      3  C   UNL     1      -4.799  -4.147   0.864  1.00  0.00     0.041 C 
ATOM      4  O   UNL     1      -4.514  -5.352   0.635  1.00  0.00    -0.550 OA
ATOM      5  O   UNL     1      -4.668  -3.205  -0.149  1.00  0.00    -0.550 OA
ENDBRANCH   2   3
ENDBRANCH   1   2
BRANCH   1   6
ATOM      6  C   UNL     1      -4.482  -2.058   4.003  1.00  0.00     0.000 C 
BRANCH   6   7
ATOM      7  C   UNL     1      -4.761  -3.297   4.869  1.00  0.00    -0.003 C 
ATOM      8  C   UNL     1      -4.455  -3.066   6.348  1.00  0.00     0.004 C 
ENDBRANCH   6   7
ENDBRANCH   1   6
TORSDOF 4
ENDMDL
MODEL 2
REMARK VINA RESULT:    -3.245      1.659      2.255
REMARK INTER + INTRA:          -4.109
REMARK INTER:                  -4.002
REMARK INTRA:                  -0.108
REMARK UNBOUND:                -0.105
REMARK SMILES CCCCCC(=O)[O-]
REMARK SMILES IDX 4 1 5 2 6 3 7 4 8 5 3 6 2 7 1 8
REMARK H PARENT
REMARK Flexibility Score: inf
ROOT
ATOM      1  C   UNL     1      -5.242  -4.320   1.866  1.00  0.00     0.006 C 
ENDROOT
BRANCH   1   2
ATOM      2  C   UNL     1      -4.702  -4.927   0.565  1.00  0.00     0.053 C 
BRANCH   2   3
ATOM      3  C   UNL     1      -5.806  -5.412  -0.325  1.00  0.00     0.041 C 
ATOM      4  O   UNL     1      -6.954  -5.619   0.147  1.00  0.00    -0.550 OA
ATOM      5  O   UNL     1      -5.559  -5.665  -1.669  1.00  0.00    -0.550 OA
ENDBRANCH   2   3
ENDBRANCH   1   2
BRANCH   1   6
ATOM      6  C   UNL     1      -4.948  -2.813   1.971  1.00  0.00     0.000 C 
BRANCH   6   7
ATOM      7  C   UNL     1      -4.872  -2.327   3.427  1.00  0.00    -0.003 C 
ATOM      8  C   UNL     1      -4.862  -3.476   4.434  1.00  0.00     0.004 C 
ENDBRANCH   6   7
ENDBRANCH   1   6
TORSDOF 4
ENDMDL
MODEL 3
REMARK VINA RESULT:    -3.227      2.237      3.262
REMARK INTER + INTRA:          -4.087
REMARK INTER:                  -4.040
REMARK INTRA:                  -0.047
REMARK UNBOUND:                -0.105
REMARK SMILES CCCCCC(=O)[O-]
REMARK SMILES IDX 4 1 5 2 6 3 7 4 8 5 3 6 2 7 1 8
REMARK H PARENT
REMARK Flexibility Score: inf
ROOT
ATOM      1  C   UNL     1      -4.848  -5.085   0.369  1.00  0.00     0.006 C 
ENDROOT
BRANCH   1   2
ATOM      2  C   UNL     1      -6.099  -5.484  -0.424  1.00  0.00     0.053 C 
BRANCH   2   3
ATOM      3  C   UNL     1      -5.892  -5.339  -1.902  1.00  0.00     0.041 C 
ATOM      4  O   UNL     1      -5.244  -6.209  -2.538  1.00  0.00    -0.550 OA
ATOM      5  O   UNL     1      -6.390  -4.226  -2.569  1.00  0.00    -0.550 OA
ENDBRANCH   2   3
ENDBRANCH   1   2
BRANCH   1   6
ATOM      6  C   UNL     1      -5.193  -4.551   1.770  1.00  0.00     0.000 C 
BRANCH   6   7
ATOM      7  C   UNL     1      -4.996  -3.032   1.888  1.00  0.00    -0.003 C 
ATOM      8  C   UNL     1      -4.833  -2.567   3.334  1.00  0.00     0.004 C 
ENDBRANCH   6   7
ENDBRANCH   1   6
TORSDOF 4
ENDMDL
MODEL 4
REMARK VINA RESULT:    -3.145      2.473      4.338
REMARK INTER + INTRA:          -3.986
REMARK INTER:                  -3.725
REMARK INTRA:                  -0.261
REMARK UNBOUND:                -0.105
REMARK SMILES CCCCCC(=O)[O-]
REMARK SMILES IDX 4 1 5 2 6 3 7 4 8 5 3 6 2 7 1 8
REMARK H PARENT
REMARK Flexibility Score: inf
ROOT
ATOM      1  C   UNL     1      -5.374  -4.956   1.975  1.00  0.00     0.006 C 
ENDROOT
BRANCH   1   2
ATOM      2  C   UNL     1      -5.145  -3.629   2.712  1.00  0.00     0.053 C 
BRANCH   2   3
ATOM      3  C   UNL     1      -5.927  -2.508   2.097  1.00  0.00     0.041 C 
ATOM      4  O   UNL     1      -5.332  -1.501   1.634  1.00  0.00    -0.550 OA
ATOM      5  O   UNL     1      -7.315  -2.563   2.065  1.00  0.00    -0.550 OA
ENDBRANCH   2   3
ENDBRANCH   1   2
BRANCH   1   6
ATOM      6  C   UNL     1      -4.690  -4.981   0.597  1.00  0.00     0.000 C 
BRANCH   6   7
ATOM      7  C   UNL     1      -5.671  -5.299  -0.542  1.00  0.00    -0.003 C 
ATOM      8  C   UNL     1      -7.101  -5.516  -0.048  1.00  0.00     0.004 C 
ENDBRANCH   6   7
ENDBRANCH   1   6
TORSDOF 4
ENDMDL
MODEL 5
REMARK VINA RESULT:    -3.116      6.588      7.259
REMARK INTER + INTRA:          -3.950
REMARK INTER:                  -3.875
REMARK INTRA:                  -0.076
REMARK UNBOUND:                -0.105
REMARK SMILES CCCCCC(=O)[O-]
REMARK SMILES IDX 4 1 5 2 6 3 7 4 8 5 3 6 2 7 1 8
REMARK H PARENT
REMARK Flexibility Score: inf
ROOT
ATOM      1  C   UNL     1       0.759  -0.804   5.117  1.00  0.00     0.006 C 
ENDROOT
BRANCH   1   2
ATOM      2  C   UNL     1       2.061  -1.615   5.162  1.00  0.00     0.053 C 
BRANCH   2   3
ATOM      3  C   UNL     1       2.799  -1.556   3.859  1.00  0.00     0.041 C 
ATOM      4  O   UNL     1       3.906  -0.961   3.785  1.00  0.00    -0.550 OA
ATOM      5  O   UNL     1       2.250  -2.131   2.720  1.00  0.00    -0.550 OA
ENDBRANCH   2   3
ENDBRANCH   1   2
BRANCH   1   6
ATOM      6  C   UNL     1       0.123  -0.648   6.510  1.00  0.00     0.000 C 
BRANCH   6   7
ATOM      7  C   UNL     1      -1.001   0.399   6.531  1.00  0.00    -0.003 C 
ATOM      8  C   UNL     1      -1.576   0.678   5.142  1.00  0.00     0.004 C 
ENDBRANCH   6   7
ENDBRANCH   1   6
TORSDOF 4
ENDMDL
MODEL 6
REMARK VINA RESULT:    -3.081      2.656      4.330
REMARK INTER + INTRA:          -3.908
REMARK INTER:                  -3.782
REMARK INTRA:                  -0.126
REMARK UNBOUND:                -0.105
REMARK SMILES CCCCCC(=O)[O-]
REMARK SMILES IDX 4 1 5 2 6 3 7 4 8 5 3 6 2 7 1 8
REMARK H PARENT
REMARK Flexibility Score: inf
ROOT
ATOM      1  C   UNL     1      -5.063  -2.718   2.000  1.00  0.00     0.006 C 
ENDROOT
BRANCH   1   2
ATOM      2  C   UNL     1      -5.250  -3.758   3.112  1.00  0.00     0.053 C 
BRANCH   2   3
ATOM      3  C   UNL     1      -4.750  -3.258   4.433  1.00  0.00     0.041 C 
ATOM      4  O   UNL     1      -4.795  -3.999   5.449  1.00  0.00    -0.550 OA
ATOM      5  O   UNL     1      -4.263  -1.961   4.548  1.00  0.00    -0.550 OA
ENDBRANCH   2   3
ENDBRANCH   1   2
BRANCH   1   6
ATOM      6  C   UNL     1      -4.716  -3.367   0.649  1.00  0.00     0.000 C 
BRANCH   6   7
ATOM      7  C   UNL     1      -4.852  -4.898   0.678  1.00  0.00    -0.003 C 
ATOM      8  C   UNL     1      -5.773  -5.431  -0.419  1.00  0.00     0.004 C 
ENDBRANCH   6   7
ENDBRANCH   1   6
TORSDOF 4
ENDMDL
MODEL 7
REMARK VINA RESULT:    -2.996      2.101      2.607
REMARK INTER + INTRA:          -3.802
REMARK INTER:                  -3.725
REMARK INTRA:                  -0.077
REMARK UNBOUND:                -0.105
REMARK SMILES CCCCCC(=O)[O-]
REMARK SMILES IDX 4 1 5 2 6 3 7 4 8 5 3 6 2 7 1 8
REMARK H PARENT
REMARK Flexibility Score: inf
ROOT
ATOM      1  C   UNL     1      -4.040  -1.484   4.043  1.00  0.00     0.006 C 
ENDROOT
BRANCH   1   2
ATOM      2  C   UNL     1      -4.797  -2.723   3.547  1.00  0.00     0.053 C 
BRANCH   2   3
ATOM      3  C   UNL     1      -5.025  -2.682   2.066  1.00  0.00     0.041 C 
ATOM      4  O   UNL     1      -4.761  -3.687   1.357  1.00  0.00    -0.550 OA
ATOM      5  O   UNL     1      -5.501  -1.522   1.467  1.00  0.00    -0.550 OA
ENDBRANCH   2   3
ENDBRANCH   1   2
BRANCH   1   6
ATOM      6  C   UNL     1      -3.846  -1.494   5.570  1.00  0.00     0.000 C 
BRANCH   6   7
ATOM      7  C   UNL     1      -2.980  -0.324   6.062  1.00  0.00    -0.003 C 
ATOM      8  C   UNL     1      -1.904   0.080   5.055  1.00  0.00     0.004 C 
ENDBRANCH   6   7
ENDBRANCH   1   6
TORSDOF 4
ENDMDL
MODEL 8
REMARK VINA RESULT:    -2.949      5.941      6.850
REMARK INTER + INTRA:          -3.744
REMARK INTER:                  -3.639
REMARK INTRA:                  -0.105
REMARK UNBOUND:                -0.105
REMARK SMILES CCCCCC(=O)[O-]
REMARK SMILES IDX 4 1 5 2 6 3 7 4 8 5 3 6 2 7 1 8
REMARK H PARENT
REMARK Flexibility Score: inf
ROOT
ATOM      1  C   UNL     1      -0.647  -0.023   5.154  1.00  0.00     0.006 C 
ENDROOT
BRANCH   1   2
ATOM      2  C   UNL     1      -0.075  -0.422   6.521  1.00  0.00     0.053 C 
BRANCH   2   3
ATOM      3  C   UNL     1       1.186  -1.221   6.385  1.00  0.00     0.041 C 
ATOM      4  O   UNL     1       1.764  -1.307   5.271  1.00  0.00    -0.550 OA
ATOM      5  O   UNL     1       1.705  -1.895   7.484  1.00  0.00    -0.550 OA
ENDBRANCH   2   3
ENDBRANCH   1   2
BRANCH   1   6
ATOM      6  C   UNL     1      -1.955   0.777   5.283  1.00  0.00     0.000 C 
BRANCH   6   7
ATOM      7  C   UNL     1      -3.069  -0.022   5.978  1.00  0.00    -0.003 C 
ATOM      8  C   UNL     1      -3.642  -1.130   5.095  1.00  0.00     0.004 C 
ENDBRANCH   6   7
ENDBRANCH   1   6
TORSDOF 4
ENDMDL
MODEL 9
REMARK VINA RESULT:    -2.940      3.712      4.532
REMARK INTER + INTRA:          -3.733
REMARK INTER:                  -3.610
REMARK INTRA:                  -0.123
REMARK UNBOUND:                -0.105
REMARK SMILES CCCCCC(=O)[O-]
REMARK SMILES IDX 4 1 5 2 6 3 7 4 8 5 3 6 2 7 1 8
REMARK H PARENT
REMARK Flexibility Score: inf
ROOT
ATOM      1  C   UNL     1      -3.393  -0.407   5.890  1.00  0.00     0.006 C 
ENDROOT
BRANCH   1   2
ATOM      2  C   UNL     1      -4.016  -1.760   5.523  1.00  0.00     0.053 C 
BRANCH   2   3
ATOM      3  C   UNL     1      -4.919  -1.654   4.331  1.00  0.00     0.041 C 
ATOM      4  O   UNL     1      -4.543  -2.089   3.212  1.00  0.00    -0.550 OA
ATOM      5  O   UNL     1      -6.163  -1.047   4.451  1.00  0.00    -0.550 OA
ENDBRANCH   2   3
ENDBRANCH   1   2
BRANCH   1   6
ATOM      6  C   UNL     1      -2.174  -0.071   5.015  1.00  0.00     0.000 C 
BRANCH   6   7
ATOM      7  C   UNL     1      -1.178   0.860   5.722  1.00  0.00    -0.003 C 
ATOM      8  C   UNL     1      -0.562   0.229   6.971  1.00  0.00     0.004 C 
ENDBRANCH   6   7
ENDBRANCH   1   6
TORSDOF 4
ENDMDL
