MODEL 1
REMARK VINA RESULT:    -7.194      0.000      0.000
REMARK INTER + INTRA:          -8.151
REMARK INTER:                  -8.035
REMARK INTRA:                  -0.115
REMARK UNBOUND:                -0.115
REMARK SMILES CC1(C)CC[C@]2(CO)CC=C3[C@](C)(CC[C@@H]4[C@]5(C)CC[C@@H](O)C(C)(C)[C@H]5CC[C@]34C)[C@@H]2C1
REMARK SMILES IDX 1 1 2 2 4 3 5 4 6 5 9 6 10 7 11 8 29 9 28 10 27 11 26 12
REMARK SMILES IDX 23 13 21 14 20 15 19 16 17 17 16 18 15 19 14 20 12 21 31 22
REMARK SMILES IDX 32 23 13 24 18 25 24 26 25 27 30 28 3 29 7 30 8 31 22 33
REMARK H PARENT 8 32 22 34
REMARK Flexibility Score: inf
ROOT
ATOM      1  C   UNL     1      -2.535  17.227  47.368  1.00  0.00     0.011 C 
ATOM      2  C   UNL     1      -1.239  17.186  46.542  1.00  0.00    -0.035 C 
ATOM      3  C   UNL     1      -0.090  16.549  47.370  1.00  0.00     0.007 C 
ATOM      4  C   UNL     1       0.650  17.551  48.256  1.00  0.00     0.010 C 
ATOM      5  C   UNL     1       1.203  18.781  47.485  1.00  0.00     0.001 C 
ATOM      6  C   UNL     1       1.988  19.665  48.488  1.00  0.00     0.037 C 
ATOM      7  C   UNL     1       1.908  21.115  48.146  1.00  0.00    -0.026 C 
ATOM      8  C   UNL     1       0.683  21.755  48.020  1.00  0.00    -0.062 C 
ATOM      9  C   UNL     1       0.487  23.117  48.808  1.00  0.00    -0.008 C 
ATOM     10  C   UNL     1      -0.333  24.178  48.032  1.00  0.00     0.012 C 
ATOM     11  C   UNL     1      -0.642  25.459  48.846  1.00  0.00     0.006 C 
ATOM     12  C   UNL     1      -1.353  25.134  50.185  1.00  0.00     0.003 C 
ATOM     13  C   UNL     1      -1.836  26.424  50.984  1.00  0.00    -0.006 C 
ATOM     14  C   UNL     1      -2.780  25.971  52.135  1.00  0.00     0.120 C 
ATOM     15  C   UNL     1      -2.235  24.831  52.998  1.00  0.00     0.033 C 
ATOM     16  C   UNL     1      -1.729  23.635  52.146  1.00  0.00     0.010 C 
ATOM     17  C   UNL     1      -0.673  24.016  51.064  1.00  0.00    -0.025 C 
ATOM     18  C   UNL     1      -0.259  22.740  50.153  1.00  0.00     0.005 C 
ATOM     19  C   UNL     1      -1.461  21.779  49.895  1.00  0.00     0.006 C 
ATOM     20  C   UNL     1      -1.136  20.486  49.102  1.00  0.00     0.012 C 
ATOM     21  C   UNL     1      -0.534  20.804  47.712  1.00  0.00    -0.008 C 
ATOM     22  C   UNL     1       0.023  19.567  46.843  1.00  0.00     0.008 C 
ATOM     23  C   UNL     1      -0.894  18.600  45.980  1.00  0.00     0.011 C 
ATOM     24  C   UNL     1      -1.669  21.434  46.839  1.00  0.00     0.016 C 
ATOM     25  C   UNL     1       0.605  24.479  51.835  1.00  0.00     0.012 C 
ATOM     26  C   UNL     1      -2.682  27.328  50.055  1.00  0.00     0.014 C 
ATOM     27  C   UNL     1      -0.646  27.277  51.527  1.00  0.00     0.014 C 
ATOM     28  C   UNL     1       1.882  23.773  49.079  1.00  0.00     0.016 C 
ATOM     29  C   UNL     1      -1.506  16.237  45.344  1.00  0.00     0.011 C 
ENDROOT
BRANCH   5  30
ATOM     30  C   UNL     1       2.214  18.297  46.398  1.00  0.00     0.163 C 
BRANCH  30  31
ATOM     31  O   UNL     1       3.321  17.671  46.998  1.00  0.00    -0.396 OA
ATOM     32  H   UNL     1       3.580  18.221  47.801  1.00  0.00     0.210 HD
ENDBRANCH  30  31
ENDBRANCH   5  30
BRANCH  14  33
ATOM     33  O   UNL     1      -3.061  27.076  52.999  1.00  0.00    -0.393 OA
ATOM     34  H   UNL     1      -2.311  27.730  52.917  1.00  0.00     0.210 HD
ENDBRANCH  14  33
TORSDOF 3
ENDMDL
MODEL 2
REMARK VINA RESULT:    -7.181      7.697     10.819
REMARK INTER + INTRA:          -8.136
REMARK INTER:                  -8.090
REMARK INTRA:                  -0.046
REMARK UNBOUND:                -0.115
REMARK SMILES CC1(C)CC[C@]2(CO)CC=C3[C@](C)(CC[C@@H]4[C@]5(C)CC[C@@H](O)C(C)(C)[C@H]5CC[C@]34C)[C@@H]2C1
REMARK SMILES IDX 1 1 2 2 4 3 5 4 6 5 9 6 10 7 11 8 29 9 28 10 27 11 26 12
REMARK SMILES IDX 23 13 21 14 20 15 19 16 17 17 16 18 15 19 14 20 12 21 31 22
REMARK SMILES IDX 32 23 13 24 18 25 24 26 25 27 30 28 3 29 7 30 8 31 22 33
REMARK H PARENT 8 32 22 34
REMARK Flexibility Score: inf
ROOT
ATOM      1  C   UNL     1       1.800  25.450  42.739  1.00  0.00     0.011 C 
ATOM      2  C   UNL     1       2.266  25.530  41.276  1.00  0.00    -0.035 C 
ATOM      3  C   UNL     1       1.407  24.594  40.384  1.00  0.00     0.007 C 
ATOM      4  C   UNL     1       1.919  23.155  40.341  1.00  0.00     0.010 C 
ATOM      5  C   UNL     1       3.409  23.030  39.918  1.00  0.00     0.001 C 
ATOM      6  C   UNL     1       3.765  21.524  39.845  1.00  0.00     0.037 C 
ATOM      7  C   UNL     1       5.189  21.261  40.204  1.00  0.00    -0.026 C 
ATOM      8  C   UNL     1       5.709  21.672  41.423  1.00  0.00    -0.062 C 
ATOM      9  C   UNL     1       6.505  20.597  42.275  1.00  0.00    -0.008 C 
ATOM     10  C   UNL     1       7.737  21.174  43.017  1.00  0.00     0.012 C 
ATOM     11  C   UNL     1       8.441  20.163  43.955  1.00  0.00     0.006 C 
ATOM     12  C   UNL     1       7.457  19.550  44.986  1.00  0.00     0.003 C 
ATOM     13  C   UNL     1       8.162  18.628  46.075  1.00  0.00    -0.006 C 
ATOM     14  C   UNL     1       7.137  18.322  47.205  1.00  0.00     0.120 C 
ATOM     15  C   UNL     1       5.772  17.833  46.717  1.00  0.00     0.033 C 
ATOM     16  C   UNL     1       5.177  18.751  45.614  1.00  0.00     0.010 C 
ATOM     17  C   UNL     1       6.115  18.979  44.390  1.00  0.00    -0.025 C 
ATOM     18  C   UNL     1       5.470  20.017  43.323  1.00  0.00     0.005 C 
ATOM     19  C   UNL     1       4.655  21.152  44.018  1.00  0.00     0.006 C 
ATOM     20  C   UNL     1       3.932  22.144  43.069  1.00  0.00     0.012 C 
ATOM     21  C   UNL     1       4.925  22.850  42.115  1.00  0.00    -0.008 C 
ATOM     22  C   UNL     1       4.306  23.774  40.950  1.00  0.00     0.008 C 
ATOM     23  C   UNL     1       3.800  25.263  41.167  1.00  0.00     0.011 C 
ATOM     24  C   UNL     1       5.801  23.818  42.977  1.00  0.00     0.016 C 
ATOM     25  C   UNL     1       6.254  17.595  43.675  1.00  0.00     0.012 C 
ATOM     26  C   UNL     1       9.328  19.400  46.740  1.00  0.00     0.014 C 
ATOM     27  C   UNL     1       8.744  17.313  45.465  1.00  0.00     0.014 C 
ATOM     28  C   UNL     1       7.063  19.483  41.327  1.00  0.00     0.016 C 
ATOM     29  C   UNL     1       1.989  26.981  40.801  1.00  0.00     0.011 C 
ENDROOT
BRANCH   5  30
ATOM     30  C   UNL     1       3.589  23.623  38.485  1.00  0.00     0.163 C 
BRANCH  30  31
ATOM     31  O   UNL     1       3.649  22.593  37.529  1.00  0.00    -0.396 OA
ATOM     32  H   UNL     1       2.748  22.545  37.081  1.00  0.00     0.210 HD
ENDBRANCH  30  31
ENDBRANCH   5  30
BRANCH  14  33
ATOM     33  O   UNL     1       7.665  17.327  48.087  1.00  0.00    -0.393 OA
ATOM     34  H   UNL     1       8.206  16.688  47.543  1.00  0.00     0.210 HD
ENDBRANCH  14  33
TORSDOF 3
ENDMDL
MODEL 3
REMARK VINA RESULT:    -7.178      1.653      8.303
REMARK INTER + INTRA:          -8.133
REMARK INTER:                  -8.047
REMARK INTRA:                  -0.086
REMARK UNBOUND:                -0.115
REMARK SMILES CC1(C)CC[C@]2(CO)CC=C3[C@](C)(CC[C@@H]4[C@]5(C)CC[C@@H](O)C(C)(C)[C@H]5CC[C@]34C)[C@@H]2C1
REMARK SMILES IDX 1 1 2 2 4 3 5 4 6 5 9 6 10 7 11 8 29 9 28 10 27 11 26 12
REMARK SMILES IDX 23 13 21 14 20 15 19 16 17 17 16 18 15 19 14 20 12 21 31 22
REMARK SMILES IDX 32 23 13 24 18 25 24 26 25 27 30 28 3 29 7 30 8 31 22 33
REMARK H PARENT 8 32 22 34
REMARK Flexibility Score: inf
ROOT
ATOM      1  C   UNL     1      -0.260  25.592  54.041  1.00  0.00     0.011 C 
ATOM      2  C   UNL     1      -0.392  26.775  53.068  1.00  0.00    -0.035 C 
ATOM      3  C   UNL     1      -1.885  27.158  52.884  1.00  0.00     0.007 C 
ATOM      4  C   UNL     1      -2.594  26.345  51.801  1.00  0.00     0.010 C 
ATOM      5  C   UNL     1      -1.886  26.389  50.418  1.00  0.00     0.001 C 
ATOM      6  C   UNL     1      -2.749  25.590  49.409  1.00  0.00     0.037 C 
ATOM      7  C   UNL     1      -1.923  24.922  48.363  1.00  0.00    -0.026 C 
ATOM      8  C   UNL     1      -0.906  24.042  48.706  1.00  0.00    -0.062 C 
ATOM      9  C   UNL     1      -0.885  22.633  47.979  1.00  0.00    -0.008 C 
ATOM     10  C   UNL     1       0.540  22.123  47.643  1.00  0.00     0.012 C 
ATOM     11  C   UNL     1       0.576  20.691  47.054  1.00  0.00     0.006 C 
ATOM     12  C   UNL     1      -0.134  19.669  47.979  1.00  0.00     0.003 C 
ATOM     13  C   UNL     1       0.015  18.158  47.498  1.00  0.00    -0.006 C 
ATOM     14  C   UNL     1      -0.471  17.223  48.641  1.00  0.00     0.120 C 
ATOM     15  C   UNL     1      -1.834  17.590  49.234  1.00  0.00     0.033 C 
ATOM     16  C   UNL     1      -1.922  19.092  49.623  1.00  0.00     0.010 C 
ATOM     17  C   UNL     1      -1.576  20.078  48.466  1.00  0.00    -0.025 C 
ATOM     18  C   UNL     1      -1.599  21.621  48.965  1.00  0.00     0.005 C 
ATOM     19  C   UNL     1      -1.080  21.780  50.428  1.00  0.00     0.006 C 
ATOM     20  C   UNL     1      -1.146  23.213  51.018  1.00  0.00     0.012 C 
ATOM     21  C   UNL     1      -0.339  24.220  50.164  1.00  0.00    -0.008 C 
ATOM     22  C   UNL     1      -0.458  25.781  50.546  1.00  0.00     0.008 C 
ATOM     23  C   UNL     1       0.346  26.474  51.726  1.00  0.00     0.011 C 
ATOM     24  C   UNL     1       1.178  23.876  50.337  1.00  0.00     0.016 C 
ATOM     25  C   UNL     1      -2.700  19.914  47.391  1.00  0.00     0.012 C 
ATOM     26  C   UNL     1       1.511  17.827  47.269  1.00  0.00     0.014 C 
ATOM     27  C   UNL     1      -0.747  17.871  46.166  1.00  0.00     0.014 C 
ATOM     28  C   UNL     1      -1.632  22.738  46.607  1.00  0.00     0.016 C 
ATOM     29  C   UNL     1       0.302  27.986  53.745  1.00  0.00     0.011 C 
ENDROOT
BRANCH   5  30
ATOM     30  C   UNL     1      -1.826  27.866  49.916  1.00  0.00     0.163 C 
BRANCH  30  31
ATOM     31  O   UNL     1      -3.108  28.443  49.928  1.00  0.00    -0.396 OA
ATOM     32  H   UNL     1      -3.772  27.705  49.765  1.00  0.00     0.210 HD
ENDBRANCH  30  31
ENDBRANCH   5  30
BRANCH  14  33
ATOM     33  O   UNL     1      -0.552  15.875  48.169  1.00  0.00    -0.393 OA
ATOM     34  H   UNL     1      -0.727  15.283  48.954  1.00  0.00     0.210 HD
ENDBRANCH  14  33
TORSDOF 3
ENDMDL
MODEL 4
REMARK VINA RESULT:    -6.895      3.033      9.433
REMARK INTER + INTRA:          -7.816
REMARK INTER:                  -7.772
REMARK INTRA:                  -0.044
REMARK UNBOUND:                -0.115
REMARK SMILES CC1(C)CC[C@]2(CO)CC=C3[C@](C)(CC[C@@H]4[C@]5(C)CC[C@@H](O)C(C)(C)[C@H]5CC[C@]34C)[C@@H]2C1
REMARK SMILES IDX 1 1 2 2 4 3 5 4 6 5 9 6 10 7 11 8 29 9 28 10 27 11 26 12
REMARK SMILES IDX 23 13 21 14 20 15 19 16 17 17 16 18 15 19 14 20 12 21 31 22
REMARK SMILES IDX 32 23 13 24 18 25 24 26 25 27 30 28 3 29 7 30 8 31 22 33
REMARK H PARENT 8 32 22 34
REMARK Flexibility Score: inf
ROOT
ATOM      1  C   UNL     1      -5.187  30.218  45.957  1.00  0.00     0.011 C 
ATOM      2  C   UNL     1      -5.160  31.035  47.259  1.00  0.00    -0.035 C 
ATOM      3  C   UNL     1      -3.870  31.896  47.330  1.00  0.00     0.007 C 
ATOM      4  C   UNL     1      -2.672  31.150  47.916  1.00  0.00     0.010 C 
ATOM      5  C   UNL     1      -2.942  30.527  49.314  1.00  0.00     0.001 C 
ATOM      6  C   UNL     1      -1.628  29.874  49.813  1.00  0.00     0.037 C 
ATOM      7  C   UNL     1      -1.880  28.674  50.662  1.00  0.00    -0.026 C 
ATOM      8  C   UNL     1      -2.628  27.606  50.189  1.00  0.00    -0.062 C 
ATOM      9  C   UNL     1      -2.009  26.154  50.348  1.00  0.00    -0.008 C 
ATOM     10  C   UNL     1      -3.052  25.063  50.697  1.00  0.00     0.012 C 
ATOM     11  C   UNL     1      -2.478  23.625  50.724  1.00  0.00     0.006 C 
ATOM     12  C   UNL     1      -1.775  23.260  49.390  1.00  0.00     0.003 C 
ATOM     13  C   UNL     1      -1.310  21.740  49.307  1.00  0.00    -0.006 C 
ATOM     14  C   UNL     1      -0.898  21.426  47.840  1.00  0.00     0.120 C 
ATOM     15  C   UNL     1       0.061  22.441  47.213  1.00  0.00     0.033 C 
ATOM     16  C   UNL     1      -0.431  23.904  47.387  1.00  0.00     0.010 C 
ATOM     17  C   UNL     1      -0.727  24.312  48.863  1.00  0.00    -0.025 C 
ATOM     18  C   UNL     1      -1.323  25.818  48.962  1.00  0.00     0.005 C 
ATOM     19  C   UNL     1      -2.253  26.169  47.758  1.00  0.00     0.006 C 
ATOM     20  C   UNL     1      -2.801  27.620  47.727  1.00  0.00     0.012 C 
ATOM     21  C   UNL     1      -3.607  27.953  49.005  1.00  0.00    -0.008 C 
ATOM     22  C   UNL     1      -4.087  29.479  49.203  1.00  0.00     0.008 C 
ATOM     23  C   UNL     1      -5.363  30.110  48.499  1.00  0.00     0.011 C 
ATOM     24  C   UNL     1      -4.927  27.115  48.963  1.00  0.00     0.016 C 
ATOM     25  C   UNL     1       0.646  24.299  49.611  1.00  0.00     0.012 C 
ATOM     26  C   UNL     1      -2.502  20.808  49.634  1.00  0.00     0.014 C 
ATOM     27  C   UNL     1      -0.155  21.407  50.304  1.00  0.00     0.014 C 
ATOM     28  C   UNL     1      -0.978  26.149  51.526  1.00  0.00     0.016 C 
ATOM     29  C   UNL     1      -6.355  32.023  47.188  1.00  0.00     0.011 C 
ENDROOT
BRANCH   5  30
ATOM     30  C   UNL     1      -3.313  31.661  50.321  1.00  0.00     0.163 C 
BRANCH  30  31
ATOM     31  O   UNL     1      -3.855  31.117  51.499  1.00  0.00    -0.396 OA
ATOM     32  H   UNL     1      -4.697  30.626  51.245  1.00  0.00     0.210 HD
ENDBRANCH  30  31
ENDBRANCH   5  30
BRANCH  14  33
ATOM     33  O   UNL     1      -0.276  20.140  47.771  1.00  0.00    -0.393 OA
ATOM     34  H   UNL     1      -0.941  19.496  47.395  1.00  0.00     0.210 HD
ENDBRANCH  14  33
TORSDOF 3
ENDMDL
MODEL 5
REMARK VINA RESULT:    -6.880      2.007      8.615
REMARK INTER + INTRA:          -7.799
REMARK INTER:                  -7.763
REMARK INTRA:                  -0.036
REMARK UNBOUND:                -0.115
REMARK SMILES CC1(C)CC[C@]2(CO)CC=C3[C@](C)(CC[C@@H]4[C@]5(C)CC[C@@H](O)C(C)(C)[C@H]5CC[C@]34C)[C@@H]2C1
REMARK SMILES IDX 1 1 2 2 4 3 5 4 6 5 9 6 10 7 11 8 29 9 28 10 27 11 26 12
REMARK SMILES IDX 23 13 21 14 20 15 19 16 17 17 16 18 15 19 14 20 12 21 31 22
REMARK SMILES IDX 32 23 13 24 18 25 24 26 25 27 30 28 3 29 7 30 8 31 22 33
REMARK H PARENT 8 32 22 34
REMARK Flexibility Score: inf
ROOT
ATOM      1  C   UNL     1      -1.705  29.770  48.255  1.00  0.00     0.011 C 
ATOM      2  C   UNL     1      -1.637  30.006  49.772  1.00  0.00    -0.035 C 
ATOM      3  C   UNL     1      -0.164  30.196  50.223  1.00  0.00     0.007 C 
ATOM      4  C   UNL     1       0.559  28.882  50.517  1.00  0.00     0.010 C 
ATOM      5  C   UNL     1      -0.173  27.980  51.549  1.00  0.00     0.001 C 
ATOM      6  C   UNL     1       0.704  26.728  51.803  1.00  0.00     0.037 C 
ATOM      7  C   UNL     1      -0.112  25.517  52.105  1.00  0.00    -0.026 C 
ATOM      8  C   UNL     1      -1.087  25.072  51.225  1.00  0.00    -0.062 C 
ATOM      9  C   UNL     1      -1.065  23.536  50.828  1.00  0.00    -0.008 C 
ATOM     10  C   UNL     1      -2.473  22.906  50.683  1.00  0.00     0.012 C 
ATOM     11  C   UNL     1      -2.462  21.446  50.167  1.00  0.00     0.006 C 
ATOM     12  C   UNL     1      -1.696  21.313  48.825  1.00  0.00     0.003 C 
ATOM     13  C   UNL     1      -1.793  19.865  48.172  1.00  0.00    -0.006 C 
ATOM     14  C   UNL     1      -1.250  19.938  46.716  1.00  0.00     0.120 C 
ATOM     15  C   UNL     1       0.106  20.633  46.573  1.00  0.00     0.033 C 
ATOM     16  C   UNL     1       0.141  22.012  47.286  1.00  0.00     0.010 C 
ATOM     17  C   UNL     1      -0.264  21.970  48.791  1.00  0.00    -0.025 C 
ATOM     18  C   UNL     1      -0.294  23.453  49.447  1.00  0.00     0.005 C 
ATOM     19  C   UNL     1      -0.794  24.537  48.442  1.00  0.00     0.006 C 
ATOM     20  C   UNL     1      -0.775  25.999  48.959  1.00  0.00     0.012 C 
ATOM     21  C   UNL     1      -1.637  26.166  50.234  1.00  0.00    -0.008 C 
ATOM     22  C   UNL     1      -1.573  27.586  50.993  1.00  0.00     0.008 C 
ATOM     23  C   UNL     1      -2.384  28.874  50.544  1.00  0.00     0.011 C 
ATOM     24  C   UNL     1      -3.135  25.996  49.817  1.00  0.00     0.016 C 
ATOM     25  C   UNL     1       0.848  21.152  49.527  1.00  0.00     0.012 C 
ATOM     26  C   UNL     1      -3.277  19.438  48.063  1.00  0.00     0.014 C 
ATOM     27  C   UNL     1      -1.042  18.777  49.004  1.00  0.00     0.014 C 
ATOM     28  C   UNL     1      -0.345  22.714  51.949  1.00  0.00     0.016 C 
ATOM     29  C   UNL     1      -2.367  31.347  50.047  1.00  0.00     0.011 C 
ENDROOT
BRANCH   5  30
ATOM     30  C   UNL     1      -0.301  28.745  52.904  1.00  0.00     0.163 C 
BRANCH  30  31
ATOM     31  O   UNL     1      -1.196  28.081  53.762  1.00  0.00    -0.396 OA
ATOM     32  H   UNL     1      -1.591  28.773  54.378  1.00  0.00     0.210 HD
ENDBRANCH  30  31
ENDBRANCH   5  30
BRANCH  14  33
ATOM     33  O   UNL     1      -1.124  18.621  46.174  1.00  0.00    -0.393 OA
ATOM     34  H   UNL     1      -0.881  18.706  45.209  1.00  0.00     0.210 HD
ENDBRANCH  14  33
TORSDOF 3
ENDMDL
MODEL 6
REMARK VINA RESULT:    -6.689      3.592      5.781
REMARK INTER + INTRA:          -7.587
REMARK INTER:                  -7.471
REMARK INTRA:                  -0.116
REMARK UNBOUND:                -0.115
REMARK SMILES CC1(C)CC[C@]2(CO)CC=C3[C@](C)(CC[C@@H]4[C@]5(C)CC[C@@H](O)C(C)(C)[C@H]5CC[C@]34C)[C@@H]2C1
REMARK SMILES IDX 1 1 2 2 4 3 5 4 6 5 9 6 10 7 11 8 29 9 28 10 27 11 26 12
REMARK SMILES IDX 23 13 21 14 20 15 19 16 17 17 16 18 15 19 14 20 12 21 31 22
REMARK SMILES IDX 32 23 13 24 18 25 24 26 25 27 30 28 3 29 7 30 8 31 22 33
REMARK H PARENT 8 32 22 34
REMARK Flexibility Score: inf
ROOT
ATOM      1  C   UNL     1       7.375  16.940  47.950  1.00  0.00     0.011 C 
ATOM      2  C   UNL     1       7.537  17.255  46.454  1.00  0.00    -0.035 C 
ATOM      3  C   UNL     1       8.454  18.492  46.260  1.00  0.00     0.007 C 
ATOM      4  C   UNL     1       7.707  19.823  46.335  1.00  0.00     0.010 C 
ATOM      5  C   UNL     1       6.506  19.925  45.354  1.00  0.00     0.001 C 
ATOM      6  C   UNL     1       5.895  21.343  45.485  1.00  0.00     0.037 C 
ATOM      7  C   UNL     1       4.422  21.349  45.248  1.00  0.00    -0.026 C 
ATOM      8  C   UNL     1       3.573  20.545  45.994  1.00  0.00    -0.062 C 
ATOM      9  C   UNL     1       2.301  21.236  46.645  1.00  0.00    -0.008 C 
ATOM     10  C   UNL     1       1.031  20.349  46.630  1.00  0.00     0.012 C 
ATOM     11  C   UNL     1      -0.177  20.962  47.381  1.00  0.00     0.006 C 
ATOM     12  C   UNL     1       0.180  21.331  48.844  1.00  0.00     0.003 C 
ATOM     13  C   UNL     1      -1.069  21.815  49.706  1.00  0.00    -0.006 C 
ATOM     14  C   UNL     1      -0.650  21.867  51.203  1.00  0.00     0.120 C 
ATOM     15  C   UNL     1       0.662  22.607  51.475  1.00  0.00     0.033 C 
ATOM     16  C   UNL     1       1.816  22.121  50.556  1.00  0.00     0.010 C 
ATOM     17  C   UNL     1       1.494  22.180  49.032  1.00  0.00    -0.025 C 
ATOM     18  C   UNL     1       2.704  21.574  48.138  1.00  0.00     0.005 C 
ATOM     19  C   UNL     1       3.408  20.367  48.833  1.00  0.00     0.006 C 
ATOM     20  C   UNL     1       4.633  19.777  48.086  1.00  0.00     0.012 C 
ATOM     21  C   UNL     1       4.258  19.295  46.664  1.00  0.00    -0.008 C 
ATOM     22  C   UNL     1       5.460  18.824  45.699  1.00  0.00     0.008 C 
ATOM     23  C   UNL     1       6.146  17.395  45.762  1.00  0.00     0.011 C 
ATOM     24  C   UNL     1       3.344  18.035  46.817  1.00  0.00     0.016 C 
ATOM     25  C   UNL     1       1.352  23.694  48.667  1.00  0.00     0.012 C 
ATOM     26  C   UNL     1      -2.209  20.772  49.607  1.00  0.00     0.014 C 
ATOM     27  C   UNL     1      -1.635  23.190  49.226  1.00  0.00     0.014 C 
ATOM     28  C   UNL     1       1.930  22.523  45.835  1.00  0.00     0.016 C 
ATOM     29  C   UNL     1       8.276  16.046  45.824  1.00  0.00     0.011 C 
ENDROOT
BRANCH   5  30
ATOM     30  C   UNL     1       7.022  19.771  43.889  1.00  0.00     0.163 C 
BRANCH  30  31
ATOM     31  O   UNL     1       7.878  20.836  43.554  1.00  0.00    -0.396 OA
ATOM     32  H   UNL     1       7.304  21.648  43.400  1.00  0.00     0.210 HD
ENDBRANCH  30  31
ENDBRANCH   5  30
BRANCH  14  33
ATOM     33  O   UNL     1      -1.674  22.498  51.976  1.00  0.00    -0.393 OA
ATOM     34  H   UNL     1      -1.460  23.471  52.037  1.00  0.00     0.210 HD
ENDBRANCH  14  33
TORSDOF 3
ENDMDL
MODEL 7
REMARK VINA RESULT:    -6.608      1.975      3.744
REMARK INTER + INTRA:          -7.496
REMARK INTER:                  -7.378
REMARK INTRA:                  -0.117
REMARK UNBOUND:                -0.115
REMARK SMILES CC1(C)CC[C@]2(CO)CC=C3[C@](C)(CC[C@@H]4[C@]5(C)CC[C@@H](O)C(C)(C)[C@H]5CC[C@]34C)[C@@H]2C1
REMARK SMILES IDX 1 1 2 2 4 3 5 4 6 5 9 6 10 7 11 8 29 9 28 10 27 11 26 12
REMARK SMILES IDX 23 13 21 14 20 15 19 16 17 17 16 18 15 19 14 20 12 21 31 22
REMARK SMILES IDX 32 23 13 24 18 25 24 26 25 27 30 28 3 29 7 30 8 31 22 33
REMARK H PARENT 8 32 22 34
REMARK Flexibility Score: inf
ROOT
ATOM      1  C   UNL     1       2.100  19.427  46.625  1.00  0.00     0.011 C 
ATOM      2  C   UNL     1       1.095  18.380  47.133  1.00  0.00    -0.035 C 
ATOM      3  C   UNL     1      -0.137  18.312  46.191  1.00  0.00     0.007 C 
ATOM      4  C   UNL     1      -1.219  19.337  46.528  1.00  0.00     0.010 C 
ATOM      5  C   UNL     1      -1.706  19.275  48.002  1.00  0.00     0.001 C 
ATOM      6  C   UNL     1      -2.846  20.310  48.177  1.00  0.00     0.037 C 
ATOM      7  C   UNL     1      -2.875  20.892  49.551  1.00  0.00    -0.026 C 
ATOM      8  C   UNL     1      -1.762  21.524  50.085  1.00  0.00    -0.062 C 
ATOM      9  C   UNL     1      -1.975  22.959  50.726  1.00  0.00    -0.008 C 
ATOM     10  C   UNL     1      -1.128  23.209  51.999  1.00  0.00     0.012 C 
ATOM     11  C   UNL     1      -1.230  24.652  52.553  1.00  0.00     0.006 C 
ATOM     12  C   UNL     1      -0.871  25.709  51.478  1.00  0.00     0.003 C 
ATOM     13  C   UNL     1      -0.804  27.197  52.040  1.00  0.00    -0.006 C 
ATOM     14  C   UNL     1      -0.155  28.109  50.959  1.00  0.00     0.120 C 
ATOM     15  C   UNL     1      -0.752  27.963  49.558  1.00  0.00     0.033 C 
ATOM     16  C   UNL     1      -0.839  26.480  49.104  1.00  0.00     0.010 C 
ATOM     17  C   UNL     1      -1.604  25.548  50.092  1.00  0.00    -0.025 C 
ATOM     18  C   UNL     1      -1.577  24.002  49.603  1.00  0.00     0.005 C 
ATOM     19  C   UNL     1      -0.231  23.621  48.913  1.00  0.00     0.006 C 
ATOM     20  C   UNL     1      -0.149  22.183  48.337  1.00  0.00     0.012 C 
ATOM     21  C   UNL     1      -0.388  21.115  49.431  1.00  0.00    -0.008 C 
ATOM     22  C   UNL     1      -0.514  19.580  48.956  1.00  0.00     0.008 C 
ATOM     23  C   UNL     1       0.725  18.645  48.626  1.00  0.00     0.011 C 
ATOM     24  C   UNL     1       0.843  21.141  50.395  1.00  0.00     0.016 C 
ATOM     25  C   UNL     1      -3.095  26.019  50.083  1.00  0.00     0.012 C 
ATOM     26  C   UNL     1       0.131  27.249  53.274  1.00  0.00     0.014 C 
ATOM     27  C   UNL     1      -2.202  27.740  52.476  1.00  0.00     0.014 C 
ATOM     28  C   UNL     1      -3.468  23.120  51.170  1.00  0.00     0.016 C 
ATOM     29  C   UNL     1       1.805  17.003  47.044  1.00  0.00     0.011 C 
ENDROOT
BRANCH   5  30
ATOM     30  C   UNL     1      -2.308  17.863  48.288  1.00  0.00     0.163 C 
BRANCH  30  31
ATOM     31  O   UNL     1      -3.487  17.670  47.545  1.00  0.00    -0.396 OA
ATOM     32  H   UNL     1      -3.779  16.717  47.685  1.00  0.00     0.210 HD
ENDBRANCH  30  31
ENDBRANCH   5  30
BRANCH  14  33
ATOM     33  O   UNL     1      -0.273  29.481  51.342  1.00  0.00    -0.393 OA
ATOM     34  H   UNL     1      -0.805  29.522  52.186  1.00  0.00     0.210 HD
ENDBRANCH  14  33
TORSDOF 3
ENDMDL
MODEL 8
REMARK VINA RESULT:    -6.523      2.183      4.541
REMARK INTER + INTRA:          -7.401
REMARK INTER:                  -7.308
REMARK INTRA:                  -0.092
REMARK UNBOUND:                -0.115
REMARK SMILES CC1(C)CC[C@]2(CO)CC=C3[C@](C)(CC[C@@H]4[C@]5(C)CC[C@@H](O)C(C)(C)[C@H]5CC[C@]34C)[C@@H]2C1
REMARK SMILES IDX 1 1 2 2 4 3 5 4 6 5 9 6 10 7 11 8 29 9 28 10 27 11 26 12
REMARK SMILES IDX 23 13 21 14 20 15 19 16 17 17 16 18 15 19 14 20 12 21 31 22
REMARK SMILES IDX 32 23 13 24 18 25 24 26 25 27 30 28 3 29 7 30 8 31 22 33
REMARK H PARENT 8 32 22 34
REMARK Flexibility Score: inf
ROOT
ATOM      1  C   UNL     1       6.194  22.733  47.232  1.00  0.00     0.011 C 
ATOM      2  C   UNL     1       5.909  21.225  47.156  1.00  0.00    -0.035 C 
ATOM      3  C   UNL     1       5.141  20.885  45.850  1.00  0.00     0.007 C 
ATOM      4  C   UNL     1       3.626  21.042  45.975  1.00  0.00     0.010 C 
ATOM      5  C   UNL     1       3.006  20.237  47.151  1.00  0.00     0.001 C 
ATOM      6  C   UNL     1       1.469  20.429  47.109  1.00  0.00     0.037 C 
ATOM      7  C   UNL     1       0.858  20.398  48.470  1.00  0.00    -0.026 C 
ATOM      8  C   UNL     1       1.280  21.268  49.465  1.00  0.00    -0.062 C 
ATOM      9  C   UNL     1       0.163  22.078  50.247  1.00  0.00    -0.008 C 
ATOM     10  C   UNL     1       0.459  22.255  51.757  1.00  0.00     0.012 C 
ATOM     11  C   UNL     1      -0.558  23.156  52.500  1.00  0.00     0.006 C 
ATOM     12  C   UNL     1      -0.689  24.550  51.833  1.00  0.00     0.003 C 
ATOM     13  C   UNL     1      -1.600  25.568  52.650  1.00  0.00    -0.006 C 
ATOM     14  C   UNL     1      -1.414  26.992  52.050  1.00  0.00     0.120 C 
ATOM     15  C   UNL     1      -1.549  27.068  50.528  1.00  0.00     0.033 C 
ATOM     16  C   UNL     1      -0.677  26.005  49.805  1.00  0.00     0.010 C 
ATOM     17  C   UNL     1      -0.926  24.539  50.275  1.00  0.00    -0.025 C 
ATOM     18  C   UNL     1       0.080  23.496  49.546  1.00  0.00     0.005 C 
ATOM     19  C   UNL     1       1.497  24.104  49.308  1.00  0.00     0.006 C 
ATOM     20  C   UNL     1       2.500  23.204  48.539  1.00  0.00     0.012 C 
ATOM     21  C   UNL     1       2.728  21.856  49.263  1.00  0.00    -0.008 C 
ATOM     22  C   UNL     1       3.603  20.740  48.498  1.00  0.00     0.008 C 
ATOM     23  C   UNL     1       5.189  20.730  48.450  1.00  0.00     0.011 C 
ATOM     24  C   UNL     1       3.516  22.154  50.582  1.00  0.00     0.016 C 
ATOM     25  C   UNL     1      -2.381  24.174  49.838  1.00  0.00     0.012 C 
ATOM     26  C   UNL     1      -1.112  25.646  54.118  1.00  0.00     0.014 C 
ATOM     27  C   UNL     1      -3.105  25.151  52.668  1.00  0.00     0.014 C 
ATOM     28  C   UNL     1      -1.197  21.307  50.168  1.00  0.00     0.016 C 
ATOM     29  C   UNL     1       7.286  20.516  47.064  1.00  0.00     0.011 C 
ENDROOT
BRANCH   5  30
ATOM     30  C   UNL     1       3.293  18.716  46.942  1.00  0.00     0.163 C 
BRANCH  30  31
ATOM     31  O   UNL     1       2.236  18.106  46.243  1.00  0.00    -0.396 OA
ATOM     32  H   UNL     1       2.507  17.155  46.058  1.00  0.00     0.210 HD
ENDBRANCH  30  31
ENDBRANCH   5  30
BRANCH  14  33
ATOM     33  O   UNL     1      -2.372  27.890  52.617  1.00  0.00    -0.393 OA
ATOM     34  H   UNL     1      -2.451  28.679  52.011  1.00  0.00     0.210 HD
ENDBRANCH  14  33
TORSDOF 3
ENDMDL
MODEL 9
REMARK VINA RESULT:    -6.410      4.895      7.780
REMARK INTER + INTRA:          -7.274
REMARK INTER:                  -7.231
REMARK INTRA:                  -0.043
REMARK UNBOUND:                -0.115
REMARK SMILES CC1(C)CC[C@]2(CO)CC=C3[C@](C)(CC[C@@H]4[C@]5(C)CC[C@@H](O)C(C)(C)[C@H]5CC[C@]34C)[C@@H]2C1
REMARK SMILES IDX 1 1 2 2 4 3 5 4 6 5 9 6 10 7 11 8 29 9 28 10 27 11 26 12
REMARK SMILES IDX 23 13 21 14 20 15 19 16 17 17 16 18 15 19 14 20 12 21 31 22
REMARK SMILES IDX 32 23 13 24 18 25 24 26 25 27 30 28 3 29 7 30 8 31 22 33
REMARK H PARENT 8 32 22 34
REMARK Flexibility Score: inf
ROOT
ATOM      1  C   UNL     1       8.476  20.646  42.013  1.00  0.00     0.011 C 
ATOM      2  C   UNL     1       9.223  19.471  42.666  1.00  0.00    -0.035 C 
ATOM      3  C   UNL     1       8.657  18.120  42.152  1.00  0.00     0.007 C 
ATOM      4  C   UNL     1       7.443  17.628  42.940  1.00  0.00     0.010 C 
ATOM      5  C   UNL     1       7.688  17.525  44.471  1.00  0.00     0.001 C 
ATOM      6  C   UNL     1       6.408  16.947  45.126  1.00  0.00     0.037 C 
ATOM      7  C   UNL     1       6.191  17.474  46.505  1.00  0.00    -0.026 C 
ATOM      8  C   UNL     1       6.106  18.838  46.745  1.00  0.00    -0.062 C 
ATOM      9  C   UNL     1       4.875  19.352  47.603  1.00  0.00    -0.008 C 
ATOM     10  C   UNL     1       5.226  20.509  48.572  1.00  0.00     0.012 C 
ATOM     11  C   UNL     1       4.005  21.104  49.316  1.00  0.00     0.006 C 
ATOM     12  C   UNL     1       2.902  21.571  48.331  1.00  0.00     0.003 C 
ATOM     13  C   UNL     1       1.696  22.336  49.035  1.00  0.00    -0.006 C 
ATOM     14  C   UNL     1       0.821  23.004  47.936  1.00  0.00     0.120 C 
ATOM     15  C   UNL     1       0.426  22.079  46.783  1.00  0.00     0.033 C 
ATOM     16  C   UNL     1       1.646  21.323  46.187  1.00  0.00     0.010 C 
ATOM     17  C   UNL     1       2.480  20.522  47.233  1.00  0.00    -0.025 C 
ATOM     18  C   UNL     1       3.787  19.836  46.560  1.00  0.00     0.005 C 
ATOM     19  C   UNL     1       4.416  20.725  45.442  1.00  0.00     0.006 C 
ATOM     20  C   UNL     1       5.621  20.109  44.686  1.00  0.00     0.012 C 
ATOM     21  C   UNL     1       6.778  19.749  45.649  1.00  0.00    -0.008 C 
ATOM     22  C   UNL     1       8.027  18.935  45.039  1.00  0.00     0.008 C 
ATOM     23  C   UNL     1       9.212  19.602  44.221  1.00  0.00     0.011 C 
ATOM     24  C   UNL     1       7.387  21.089  46.178  1.00  0.00     0.016 C 
ATOM     25  C   UNL     1       1.557  19.371  47.749  1.00  0.00     0.012 C 
ATOM     26  C   UNL     1       2.247  23.487  49.913  1.00  0.00     0.014 C 
ATOM     27  C   UNL     1       0.843  21.402  49.951  1.00  0.00     0.014 C 
ATOM     28  C   UNL     1       4.342  18.189  48.506  1.00  0.00     0.016 C 
ATOM     29  C   UNL     1      10.694  19.555  42.180  1.00  0.00     0.011 C 
ENDROOT
BRANCH   5  30
ATOM     30  C   UNL     1       8.849  16.516  44.741  1.00  0.00     0.163 C 
BRANCH  30  31
ATOM     31  O   UNL     1       9.302  16.629  46.068  1.00  0.00    -0.396 OA
ATOM     32  H   UNL     1      10.065  17.284  46.071  1.00  0.00     0.210 HD
ENDBRANCH  30  31
ENDBRANCH   5  30
BRANCH  14  33
ATOM     33  O   UNL     1      -0.382  23.517  48.514  1.00  0.00    -0.393 OA
ATOM     34  H   UNL     1      -0.426  23.207  49.462  1.00  0.00     0.210 HD
ENDBRANCH  14  33
TORSDOF 3
ENDMDL
