MODEL 1
REMARK VINA RESULT:    -4.154      0.000      0.000
REMARK INTER + INTRA:          -9.553
REMARK INTER:                  -7.311
REMARK INTRA:                  -2.242
REMARK UNBOUND:                -2.242
REMARK SMILES CCCCCCCCCCCCCCC(=O)[O-]
REMARK SMILES IDX 9 1 10 2 11 3 12 4 13 5 14 6 15 7 16 8 17 9 8 10 7 11 6 12
REMARK SMILES IDX 5 13 4 14 3 15 2 16 1 17
REMARK H PARENT
REMARK Flexibility Score: inf
ROOT
ATOM      1  C   UNL     1     -13.227  10.394  28.286  1.00  0.00     0.000 C 
ENDROOT
BRANCH   1   2
ATOM      2  C   UNL     1     -13.725  11.786  27.866  1.00  0.00     0.000 C 
BRANCH   2   3
ATOM      3  C   UNL     1     -14.855  12.305  28.768  1.00  0.00     0.000 C 
BRANCH   3   4
ATOM      4  C   UNL     1     -15.454  11.171  29.607  1.00  0.00     0.000 C 
BRANCH   4   5
ATOM      5  C   UNL     1     -16.844  10.779  29.092  1.00  0.00     0.006 C 
BRANCH   5   6
ATOM      6  C   UNL     1     -16.966   9.260  28.940  1.00  0.00     0.053 C 
BRANCH   6   7
ATOM      7  C   UNL     1     -18.207   8.764  29.613  1.00  0.00     0.041 C 
ATOM      8  O   UNL     1     -19.270   9.437  29.558  1.00  0.00    -0.550 OA
ATOM      9  O   UNL     1     -18.203   7.534  30.259  1.00  0.00    -0.550 OA
ENDBRANCH   6   7
ENDBRANCH   5   6
ENDBRANCH   4   5
ENDBRANCH   3   4
ENDBRANCH   2   3
ENDBRANCH   1   2
BRANCH   1  10
ATOM     10  C   UNL     1     -13.325   9.363  27.148  1.00  0.00     0.000 C 
BRANCH  10  11
ATOM     11  C   UNL     1     -13.487   7.926  27.668  1.00  0.00    -0.000 C 
BRANCH  11  12
ATOM     12  C   UNL     1     -13.428   7.845  29.203  1.00  0.00    -0.000 C 
BRANCH  12  13
ATOM     13  C   UNL     1     -14.419   6.824  29.782  1.00  0.00    -0.000 C 
BRANCH  13  14
ATOM     14  C   UNL     1     -14.836   7.159  31.225  1.00  0.00    -0.000 C 
BRANCH  14  15
ATOM     15  C   UNL     1     -14.219   8.474  31.727  1.00  0.00    -0.000 C 
BRANCH  15  16
ATOM     16  C   UNL     1     -14.909   9.010  32.990  1.00  0.00    -0.003 C 
ATOM     17  C   UNL     1     -16.368   9.361  32.712  1.00  0.00     0.004 C 
ENDBRANCH  15  16
ENDBRANCH  14  15
ENDBRANCH  13  14
ENDBRANCH  12  13
ENDBRANCH  11  12
ENDBRANCH  10  11
ENDBRANCH   1  10
TORSDOF 13
ENDMDL
MODEL 2
REMARK VINA RESULT:    -4.139     16.075     17.868
REMARK INTER + INTRA:          -9.526
REMARK INTER:                  -8.766
REMARK INTRA:                  -0.760
REMARK UNBOUND:                -2.242
REMARK SMILES CCCCCCCCCCCCCCC(=O)[O-]
REMARK SMILES IDX 9 1 10 2 11 3 12 4 13 5 14 6 15 7 16 8 17 9 8 10 7 11 6 12
REMARK SMILES IDX 5 13 4 14 3 15 2 16 1 17
REMARK H PARENT
REMARK Flexibility Score: inf
ROOT
ATOM      1  C   UNL     1     -17.084  -4.254  22.514  1.00  0.00     0.000 C 
ENDROOT
BRANCH   1   2
ATOM      2  C   UNL     1     -16.987  -5.753  22.187  1.00  0.00     0.000 C 
BRANCH   2   3
ATOM      3  C   UNL     1     -15.539  -6.266  22.190  1.00  0.00     0.000 C 
BRANCH   3   4
ATOM      4  C   UNL     1     -15.175  -6.892  20.839  1.00  0.00     0.000 C 
BRANCH   4   5
ATOM      5  C   UNL     1     -16.101  -6.384  19.728  1.00  0.00     0.006 C 
BRANCH   5   6
ATOM      6  C   UNL     1     -15.377  -5.384  18.823  1.00  0.00     0.053 C 
BRANCH   6   7
ATOM      7  C   UNL     1     -15.003  -6.026  17.526  1.00  0.00     0.041 C 
ATOM      8  O   UNL     1     -15.888  -6.548  16.797  1.00  0.00    -0.550 OA
ATOM      9  O   UNL     1     -13.682  -6.006  17.095  1.00  0.00    -0.550 OA
ENDBRANCH   6   7
ENDBRANCH   5   6
ENDBRANCH   4   5
ENDBRANCH   3   4
ENDBRANCH   2   3
ENDBRANCH   1   2
BRANCH   1  10
ATOM     10  C   UNL     1     -18.517  -3.816  22.860  1.00  0.00     0.000 C 
BRANCH  10  11
ATOM     11  C   UNL     1     -19.507  -4.992  22.867  1.00  0.00    -0.000 C 
BRANCH  11  12
ATOM     12  C   UNL     1     -20.670  -4.776  23.851  1.00  0.00    -0.000 C 
BRANCH  12  13
ATOM     13  C   UNL     1     -21.464  -6.064  24.123  1.00  0.00    -0.000 C 
BRANCH  13  14
ATOM     14  C   UNL     1     -22.806  -5.793  24.825  1.00  0.00    -0.000 C 
BRANCH  14  15
ATOM     15  C   UNL     1     -23.074  -6.768  25.983  1.00  0.00    -0.000 C 
BRANCH  15  16
ATOM     16  C   UNL     1     -22.695  -6.182  27.351  1.00  0.00    -0.003 C 
ATOM     17  C   UNL     1     -22.734  -4.657  27.326  1.00  0.00     0.004 C 
ENDBRANCH  15  16
ENDBRANCH  14  15
ENDBRANCH  13  14
ENDBRANCH  12  13
ENDBRANCH  11  12
ENDBRANCH  10  11
ENDBRANCH   1  10
TORSDOF 13
ENDMDL
MODEL 3
REMARK VINA RESULT:    -4.138     16.002     17.506
REMARK INTER + INTRA:          -9.524
REMARK INTER:                  -8.674
REMARK INTRA:                  -0.850
REMARK UNBOUND:                -2.242
REMARK SMILES CCCCCCCCCCCCCCC(=O)[O-]
REMARK SMILES IDX 9 1 10 2 11 3 12 4 13 5 14 6 15 7 16 8 17 9 8 10 7 11 6 12
REMARK SMILES IDX 5 13 4 14 3 15 2 16 1 17
REMARK H PARENT
REMARK Flexibility Score: inf
ROOT
ATOM      1  C   UNL     1     -20.163  -5.025  23.333  1.00  0.00     0.000 C 
ENDROOT
BRANCH   1   2
ATOM      2  C   UNL     1     -18.944  -5.319  22.444  1.00  0.00     0.000 C 
BRANCH   2   3
ATOM      3  C   UNL     1     -18.009  -4.108  22.303  1.00  0.00     0.000 C 
BRANCH   3   4
ATOM      4  C   UNL     1     -16.548  -4.514  22.522  1.00  0.00     0.000 C 
BRANCH   4   5
ATOM      5  C   UNL     1     -16.351  -6.016  22.288  1.00  0.00     0.006 C 
BRANCH   5   6
ATOM      6  C   UNL     1     -15.212  -6.274  21.297  1.00  0.00     0.053 C 
BRANCH   6   7
ATOM      7  C   UNL     1     -15.747  -6.420  19.909  1.00  0.00     0.041 C 
ATOM      8  O   UNL     1     -16.989  -6.511  19.714  1.00  0.00    -0.550 OA
ATOM      9  O   UNL     1     -14.880  -6.406  18.824  1.00  0.00    -0.550 OA
ENDBRANCH   6   7
ENDBRANCH   5   6
ENDBRANCH   4   5
ENDBRANCH   3   4
ENDBRANCH   2   3
ENDBRANCH   1   2
BRANCH   1  10
ATOM     10  C   UNL     1     -20.888  -6.304  23.786  1.00  0.00     0.000 C 
BRANCH  10  11
ATOM     11  C   UNL     1     -22.195  -6.005  24.537  1.00  0.00    -0.000 C 
BRANCH  11  12
ATOM     12  C   UNL     1     -22.280  -6.740  25.886  1.00  0.00    -0.000 C 
BRANCH  12  13
ATOM     13  C   UNL     1     -23.187  -6.022  26.898  1.00  0.00    -0.000 C 
BRANCH  13  14
ATOM     14  C   UNL     1     -22.828  -4.534  27.059  1.00  0.00    -0.000 C 
BRANCH  14  15
ATOM     15  C   UNL     1     -23.999  -3.603  26.702  1.00  0.00    -0.000 C 
BRANCH  15  16
ATOM     16  C   UNL     1     -25.151  -4.340  26.004  1.00  0.00    -0.003 C 
ATOM     17  C   UNL     1     -26.500  -3.734  26.382  1.00  0.00     0.004 C 
ENDBRANCH  15  16
ENDBRANCH  14  15
ENDBRANCH  13  14
ENDBRANCH  12  13
ENDBRANCH  11  12
ENDBRANCH  10  11
ENDBRANCH   1  10
TORSDOF 13
ENDMDL
MODEL 4
REMARK VINA RESULT:    -4.130      2.797      5.541
REMARK INTER + INTRA:          -9.510
REMARK INTER:                  -7.425
REMARK INTRA:                  -2.086
REMARK UNBOUND:                -2.242
REMARK SMILES CCCCCCCCCCCCCCC(=O)[O-]
REMARK SMILES IDX 9 1 10 2 11 3 12 4 13 5 14 6 15 7 16 8 17 9 8 10 7 11 6 12
REMARK SMILES IDX 5 13 4 14 3 15 2 16 1 17
REMARK H PARENT
REMARK Flexibility Score: inf
ROOT
ATOM      1  C   UNL     1     -17.360   7.120  31.042  1.00  0.00     0.000 C 
ENDROOT
BRANCH   1   2
ATOM      2  C   UNL     1     -16.731   6.756  29.687  1.00  0.00     0.000 C 
BRANCH   2   3
ATOM      3  C   UNL     1     -15.251   6.363  29.809  1.00  0.00     0.000 C 
BRANCH   3   4
ATOM      4  C   UNL     1     -15.055   5.288  30.883  1.00  0.00     0.000 C 
BRANCH   4   5
ATOM      5  C   UNL     1     -15.494   3.910  30.372  1.00  0.00     0.006 C 
BRANCH   5   6
ATOM      6  C   UNL     1     -15.868   2.986  31.534  1.00  0.00     0.053 C 
BRANCH   6   7
ATOM      7  C   UNL     1     -17.348   2.980  31.744  1.00  0.00     0.041 C 
ATOM      8  O   UNL     1     -17.842   2.429  32.764  1.00  0.00    -0.550 OA
ATOM      9  O   UNL     1     -18.182   3.624  30.839  1.00  0.00    -0.550 OA
ENDBRANCH   6   7
ENDBRANCH   5   6
ENDBRANCH   4   5
ENDBRANCH   3   4
ENDBRANCH   2   3
ENDBRANCH   1   2
BRANCH   1  10
ATOM     10  C   UNL     1     -17.632   8.627  31.183  1.00  0.00     0.000 C 
BRANCH  10  11
ATOM     11  C   UNL     1     -17.023   9.218  32.465  1.00  0.00    -0.000 C 
BRANCH  11  12
ATOM     12  C   UNL     1     -15.631   8.641  32.775  1.00  0.00    -0.000 C 
BRANCH  12  13
ATOM     13  C   UNL     1     -14.508   9.355  32.006  1.00  0.00    -0.000 C 
BRANCH  13  14
ATOM     14  C   UNL     1     -14.834  10.832  31.721  1.00  0.00    -0.000 C 
BRANCH  14  15
ATOM     15  C   UNL     1     -14.845  11.154  30.218  1.00  0.00    -0.000 C 
BRANCH  15  16
ATOM     16  C   UNL     1     -14.391   9.969  29.353  1.00  0.00    -0.003 C 
ATOM     17  C   UNL     1     -15.318   9.776  28.156  1.00  0.00     0.004 C 
ENDBRANCH  15  16
ENDBRANCH  14  15
ENDBRANCH  13  14
ENDBRANCH  12  13
ENDBRANCH  11  12
ENDBRANCH  10  11
ENDBRANCH   1  10
TORSDOF 13
ENDMDL
MODEL 5
REMARK VINA RESULT:    -4.124      3.293      5.769
REMARK INTER + INTRA:          -9.500
REMARK INTER:                  -7.805
REMARK INTRA:                  -1.695
REMARK UNBOUND:                -2.242
REMARK SMILES CCCCCCCCCCCCCCC(=O)[O-]
REMARK SMILES IDX 9 1 10 2 11 3 12 4 13 5 14 6 15 7 16 8 17 9 8 10 7 11 6 12
REMARK SMILES IDX 5 13 4 14 3 15 2 16 1 17
REMARK H PARENT
REMARK Flexibility Score: inf
ROOT
ATOM      1  C   UNL     1     -14.837   6.895  31.430  1.00  0.00     0.000 C 
ENDROOT
BRANCH   1   2
ATOM      2  C   UNL     1     -15.010   6.344  30.005  1.00  0.00     0.000 C 
BRANCH   2   3
ATOM      3  C   UNL     1     -13.978   6.916  29.021  1.00  0.00     0.000 C 
BRANCH   3   4
ATOM      4  C   UNL     1     -13.646   5.901  27.922  1.00  0.00     0.000 C 
BRANCH   4   5
ATOM      5  C   UNL     1     -14.330   4.555  28.189  1.00  0.00     0.006 C 
BRANCH   5   6
ATOM      6  C   UNL     1     -13.297   3.457  28.458  1.00  0.00     0.053 C 
BRANCH   6   7
ATOM      7  C   UNL     1     -13.942   2.109  28.421  1.00  0.00     0.041 C 
ATOM      8  O   UNL     1     -14.506   1.704  27.369  1.00  0.00    -0.550 OA
ATOM      9  O   UNL     1     -13.880   1.276  29.531  1.00  0.00    -0.550 OA
ENDBRANCH   6   7
ENDBRANCH   5   6
ENDBRANCH   4   5
ENDBRANCH   3   4
ENDBRANCH   2   3
ENDBRANCH   1   2
BRANCH   1  10
ATOM     10  C   UNL     1     -13.973   8.167  31.471  1.00  0.00     0.000 C 
BRANCH  10  11
ATOM     11  C   UNL     1     -14.449   9.168  32.535  1.00  0.00    -0.000 C 
BRANCH  11  12
ATOM     12  C   UNL     1     -15.042  10.447  31.917  1.00  0.00    -0.000 C 
BRANCH  12  13
ATOM     13  C   UNL     1     -14.704  10.596  30.425  1.00  0.00    -0.000 C 
BRANCH  13  14
ATOM     14  C   UNL     1     -15.954  10.837  29.559  1.00  0.00    -0.000 C 
BRANCH  14  15
ATOM     15  C   UNL     1     -16.697   9.535  29.221  1.00  0.00    -0.000 C 
BRANCH  15  16
ATOM     16  C   UNL     1     -17.844   9.235  30.197  1.00  0.00    -0.003 C 
ATOM     17  C   UNL     1     -18.276   7.774  30.105  1.00  0.00     0.004 C 
ENDBRANCH  15  16
ENDBRANCH  14  15
ENDBRANCH  13  14
ENDBRANCH  12  13
ENDBRANCH  11  12
ENDBRANCH  10  11
ENDBRANCH   1  10
TORSDOF 13
ENDMDL
MODEL 6
REMARK VINA RESULT:    -4.079     15.347     17.150
REMARK INTER + INTRA:          -9.422
REMARK INTER:                  -8.317
REMARK INTRA:                  -1.105
REMARK UNBOUND:                -2.242
REMARK SMILES CCCCCCCCCCCCCCC(=O)[O-]
REMARK SMILES IDX 9 1 10 2 11 3 12 4 13 5 14 6 15 7 16 8 17 9 8 10 7 11 6 12
REMARK SMILES IDX 5 13 4 14 3 15 2 16 1 17
REMARK H PARENT
REMARK Flexibility Score: inf
ROOT
ATOM      1  C   UNL     1     -18.626  -3.828  22.858  1.00  0.00     0.000 C 
ENDROOT
BRANCH   1   2
ATOM      2  C   UNL     1     -19.626  -4.993  22.943  1.00  0.00     0.000 C 
BRANCH   2   3
ATOM      3  C   UNL     1     -20.685  -4.783  24.036  1.00  0.00     0.000 C 
BRANCH   3   4
ATOM      4  C   UNL     1     -21.530  -6.047  24.232  1.00  0.00     0.000 C 
BRANCH   4   5
ATOM      5  C   UNL     1     -23.022  -5.705  24.318  1.00  0.00     0.006 C 
BRANCH   5   6
ATOM      6  C   UNL     1     -23.657  -6.326  25.565  1.00  0.00     0.053 C 
BRANCH   6   7
ATOM      7  C   UNL     1     -23.068  -5.732  26.804  1.00  0.00     0.041 C 
ATOM      8  O   UNL     1     -22.581  -6.478  27.695  1.00  0.00    -0.550 OA
ATOM      9  O   UNL     1     -23.012  -4.353  26.956  1.00  0.00    -0.550 OA
ENDBRANCH   6   7
ENDBRANCH   5   6
ENDBRANCH   4   5
ENDBRANCH   3   4
ENDBRANCH   2   3
ENDBRANCH   1   2
BRANCH   1  10
ATOM     10  C   UNL     1     -17.203  -4.295  22.506  1.00  0.00     0.000 C 
BRANCH  10  11
ATOM     11  C   UNL     1     -17.142  -5.793  22.166  1.00  0.00    -0.000 C 
BRANCH  11  12
ATOM     12  C   UNL     1     -15.795  -6.430  22.549  1.00  0.00    -0.000 C 
BRANCH  12  13
ATOM     13  C   UNL     1     -14.830  -6.539  21.358  1.00  0.00    -0.000 C 
BRANCH  13  14
ATOM     14  C   UNL     1     -15.560  -6.811  20.031  1.00  0.00    -0.000 C 
BRANCH  14  15
ATOM     15  C   UNL     1     -15.179  -5.807  18.931  1.00  0.00    -0.000 C 
BRANCH  15  16
ATOM     16  C   UNL     1     -16.054  -4.546  18.950  1.00  0.00    -0.003 C 
ATOM     17  C   UNL     1     -15.233  -3.312  19.314  1.00  0.00     0.004 C 
ENDBRANCH  15  16
ENDBRANCH  14  15
ENDBRANCH  13  14
ENDBRANCH  12  13
ENDBRANCH  11  12
ENDBRANCH  10  11
ENDBRANCH   1  10
TORSDOF 13
ENDMDL
MODEL 7
REMARK VINA RESULT:    -4.041     15.758     17.869
REMARK INTER + INTRA:          -9.354
REMARK INTER:                  -7.793
REMARK INTRA:                  -1.561
REMARK UNBOUND:                -2.242
REMARK SMILES CCCCCCCCCCCCCCC(=O)[O-]
REMARK SMILES IDX 9 1 10 2 11 3 12 4 13 5 14 6 15 7 16 8 17 9 8 10 7 11 6 12
REMARK SMILES IDX 5 13 4 14 3 15 2 16 1 17
REMARK H PARENT
REMARK Flexibility Score: inf
ROOT
ATOM      1  C   UNL     1     -17.042  -5.638  18.415  1.00  0.00     0.000 C 
ENDROOT
BRANCH   1   2
ATOM      2  C   UNL     1     -15.784  -6.415  18.837  1.00  0.00     0.000 C 
BRANCH   2   3
ATOM      3  C   UNL     1     -15.184  -5.897  20.152  1.00  0.00     0.000 C 
BRANCH   3   4
ATOM      4  C   UNL     1     -15.323  -6.939  21.268  1.00  0.00     0.000 C 
BRANCH   4   5
ATOM      5  C   UNL     1     -15.925  -6.316  22.533  1.00  0.00     0.006 C 
BRANCH   5   6
ATOM      6  C   UNL     1     -16.723  -5.052  22.198  1.00  0.00     0.053 C 
BRANCH   6   7
ATOM      7  C   UNL     1     -18.191  -5.316  22.302  1.00  0.00     0.041 C 
ATOM      8  O   UNL     1     -18.912  -4.601  23.049  1.00  0.00    -0.550 OA
ATOM      9  O   UNL     1     -18.774  -6.319  21.539  1.00  0.00    -0.550 OA
ENDBRANCH   6   7
ENDBRANCH   5   6
ENDBRANCH   4   5
ENDBRANCH   3   4
ENDBRANCH   2   3
ENDBRANCH   1   2
BRANCH   1  10
ATOM     10  C   UNL     1     -17.021  -5.239  16.929  1.00  0.00     0.000 C 
BRANCH  10  11
ATOM     11  C   UNL     1     -15.610  -5.300  16.324  1.00  0.00    -0.000 C 
BRANCH  11  12
ATOM     12  C   UNL     1     -15.000  -3.904  16.109  1.00  0.00    -0.000 C 
BRANCH  12  13
ATOM     13  C   UNL     1     -14.065  -3.482  17.254  1.00  0.00    -0.000 C 
BRANCH  13  14
ATOM     14  C   UNL     1     -14.421  -2.099  17.827  1.00  0.00    -0.000 C 
BRANCH  14  15
ATOM     15  C   UNL     1     -15.832  -1.640  17.426  1.00  0.00    -0.000 C 
BRANCH  15  16
ATOM     16  C   UNL     1     -15.888  -0.152  17.051  1.00  0.00    -0.003 C 
ATOM     17  C   UNL     1     -14.798   0.202  16.043  1.00  0.00     0.004 C 
ENDBRANCH  15  16
ENDBRANCH  14  15
ENDBRANCH  13  14
ENDBRANCH  12  13
ENDBRANCH  11  12
ENDBRANCH  10  11
ENDBRANCH   1  10
TORSDOF 13
ENDMDL
MODEL 8
REMARK VINA RESULT:    -4.001      4.385      6.642
REMARK INTER + INTRA:          -9.283
REMARK INTER:                  -7.945
REMARK INTRA:                  -1.338
REMARK UNBOUND:                -2.242
REMARK SMILES CCCCCCCCCCCCCCC(=O)[O-]
REMARK SMILES IDX 9 1 10 2 11 3 12 4 13 5 14 6 15 7 16 8 17 9 8 10 7 11 6 12
REMARK SMILES IDX 5 13 4 14 3 15 2 16 1 17
REMARK H PARENT
REMARK Flexibility Score: inf
ROOT
ATOM      1  C   UNL     1     -14.337   6.958  28.849  1.00  0.00     0.000 C 
ENDROOT
BRANCH   1   2
ATOM      2  C   UNL     1     -13.648   5.802  28.106  1.00  0.00     0.000 C 
BRANCH   2   3
ATOM      3  C   UNL     1     -14.413   4.476  28.239  1.00  0.00     0.000 C 
BRANCH   3   4
ATOM      4  C   UNL     1     -13.450   3.310  28.486  1.00  0.00     0.000 C 
BRANCH   4   5
ATOM      5  C   UNL     1     -14.200   2.072  28.994  1.00  0.00     0.006 C 
BRANCH   5   6
ATOM      6  C   UNL     1     -13.958   0.869  28.079  1.00  0.00     0.053 C 
BRANCH   6   7
ATOM      7  C   UNL     1     -14.467  -0.385  28.716  1.00  0.00     0.041 C 
ATOM      8  O   UNL     1     -15.654  -0.760  28.517  1.00  0.00    -0.550 OA
ATOM      9  O   UNL     1     -13.619  -1.166  29.490  1.00  0.00    -0.550 OA
ENDBRANCH   6   7
ENDBRANCH   5   6
ENDBRANCH   4   5
ENDBRANCH   3   4
ENDBRANCH   2   3
ENDBRANCH   1   2
BRANCH   1  10
ATOM     10  C   UNL     1     -15.323   6.468  29.923  1.00  0.00     0.000 C 
BRANCH  10  11
ATOM     11  C   UNL     1     -14.849   6.792  31.349  1.00  0.00    -0.000 C 
BRANCH  11  12
ATOM     12  C   UNL     1     -13.998   8.073  31.409  1.00  0.00    -0.000 C 
BRANCH  12  13
ATOM     13  C   UNL     1     -14.477   9.053  32.491  1.00  0.00    -0.000 C 
BRANCH  13  14
ATOM     14  C   UNL     1     -15.198  10.277  31.900  1.00  0.00    -0.000 C 
BRANCH  14  15
ATOM     15  C   UNL     1     -14.764  10.577  30.456  1.00  0.00    -0.000 C 
BRANCH  15  16
ATOM     16  C   UNL     1     -15.944  10.595  29.473  1.00  0.00    -0.003 C 
ATOM     17  C   UNL     1     -17.094   9.728  29.980  1.00  0.00     0.004 C 
ENDBRANCH  15  16
ENDBRANCH  14  15
ENDBRANCH  13  14
ENDBRANCH  12  13
ENDBRANCH  11  12
ENDBRANCH  10  11
ENDBRANCH   1  10
TORSDOF 13
ENDMDL
MODEL 9
REMARK VINA RESULT:    -3.968      2.961      4.936
REMARK INTER + INTRA:          -9.227
REMARK INTER:                  -7.138
REMARK INTRA:                  -2.089
REMARK UNBOUND:                -2.242
REMARK SMILES CCCCCCCCCCCCCCC(=O)[O-]
REMARK SMILES IDX 9 1 10 2 11 3 12 4 13 5 14 6 15 7 16 8 17 9 8 10 7 11 6 12
REMARK SMILES IDX 5 13 4 14 3 15 2 16 1 17
REMARK H PARENT
REMARK Flexibility Score: inf
ROOT
ATOM      1  C   UNL     1     -13.655   9.637  28.572  1.00  0.00     0.000 C 
ENDROOT
BRANCH   1   2
ATOM      2  C   UNL     1     -13.774   8.418  27.643  1.00  0.00     0.000 C 
BRANCH   2   3
ATOM      3  C   UNL     1     -13.235   7.130  28.286  1.00  0.00     0.000 C 
BRANCH   3   4
ATOM      4  C   UNL     1     -13.975   5.899  27.752  1.00  0.00     0.000 C 
BRANCH   4   5
ATOM      5  C   UNL     1     -13.551   4.631  28.505  1.00  0.00     0.006 C 
BRANCH   5   6
ATOM      6  C   UNL     1     -14.732   4.024  29.267  1.00  0.00     0.053 C 
BRANCH   6   7
ATOM      7  C   UNL     1     -14.703   2.532  29.176  1.00  0.00     0.041 C 
ATOM      8  O   UNL     1     -15.121   1.829  30.136  1.00  0.00    -0.550 OA
ATOM      9  O   UNL     1     -14.261   1.914  28.013  1.00  0.00    -0.550 OA
ENDBRANCH   6   7
ENDBRANCH   5   6
ENDBRANCH   4   5
ENDBRANCH   3   4
ENDBRANCH   2   3
ENDBRANCH   1   2
BRANCH   1  10
ATOM     10  C   UNL     1     -14.776  10.666  28.344  1.00  0.00     0.000 C 
BRANCH  10  11
ATOM     11  C   UNL     1     -15.645  10.875  29.594  1.00  0.00    -0.000 C 
BRANCH  11  12
ATOM     12  C   UNL     1     -14.815  10.915  30.889  1.00  0.00    -0.000 C 
BRANCH  12  13
ATOM     13  C   UNL     1     -15.327   9.930  31.952  1.00  0.00    -0.000 C 
BRANCH  13  14
ATOM     14  C   UNL     1     -14.403   8.711  32.120  1.00  0.00    -0.000 C 
BRANCH  14  15
ATOM     15  C   UNL     1     -14.943   7.459  31.409  1.00  0.00    -0.000 C 
BRANCH  15  16
ATOM     16  C   UNL     1     -16.453   7.535  31.139  1.00  0.00    -0.003 C 
ATOM     17  C   UNL     1     -16.760   7.294  29.664  1.00  0.00     0.004 C 
ENDBRANCH  15  16
ENDBRANCH  14  15
ENDBRANCH  13  14
ENDBRANCH  12  13
ENDBRANCH  11  12
ENDBRANCH  10  11
ENDBRANCH   1  10
TORSDOF 13
ENDMDL
