MODEL 1
REMARK VINA RESULT:    -4.771      0.000      0.000
REMARK INTER + INTRA:          -5.147
REMARK INTER:                  -5.050
REMARK INTRA:                  -0.096
REMARK UNBOUND:                -0.096
REMARK SMILES C=C(C)[C@H]1CC=C(C)C(=O)C1
REMARK SMILES IDX 8 1 7 2 6 3 5 4 4 5 11 6 9 7 10 8 2 9 1 10 3 11
REMARK H PARENT
REMARK Flexibility Score: inf
ROOT
ATOM      1  C   UNL     1     -26.252  -0.494  -4.764  1.00  0.00     0.048 C 
ATOM      2  C   UNL     1     -25.680  -0.389  -3.377  1.00  0.00    -0.012 C 
ATOM      3  C   UNL     1     -24.347  -0.394  -3.201  1.00  0.00    -0.019 C 
ATOM      4  C   UNL     1     -23.722  -0.309  -1.833  1.00  0.00     0.036 C 
ATOM      5  C   UNL     1     -24.586   0.540  -0.880  1.00  0.00     0.025 C 
ATOM      6  C   UNL     1     -26.025  -0.007  -0.832  1.00  0.00     0.089 C 
ATOM      7  C   UNL     1     -26.581  -0.154  -2.221  1.00  0.00     0.158 C 
ATOM      8  O   UNL     1     -27.830  -0.112  -2.389  1.00  0.00    -0.295 OA
ENDROOT
BRANCH   5   9
ATOM      9  C   UNL     1     -23.970   0.626   0.510  1.00  0.00    -0.077 C 
ATOM     10  C   UNL     1     -24.589   1.275   1.510  1.00  0.00     0.008 C 
ATOM     11  C   UNL     1     -22.638  -0.024   0.788  1.00  0.00     0.039 C 
ENDBRANCH   5   9
TORSDOF 1
ENDMDL
MODEL 2
REMARK VINA RESULT:    -4.746      2.521      6.050
REMARK INTER + INTRA:          -5.120
REMARK INTER:                  -5.026
REMARK INTRA:                  -0.094
REMARK UNBOUND:                -0.096
REMARK SMILES C=C(C)[C@H]1CC=C(C)C(=O)C1
REMARK SMILES IDX 8 1 7 2 6 3 5 4 4 5 11 6 9 7 10 8 2 9 1 10 3 11
REMARK H PARENT
REMARK Flexibility Score: inf
ROOT
ATOM      1  C   UNL     1     -26.205  -0.092  -1.383  1.00  0.00     0.048 C 
ATOM      2  C   UNL     1     -26.782  -0.538  -2.699  1.00  0.00    -0.012 C 
ATOM      3  C   UNL     1     -27.920   0.016  -3.151  1.00  0.00    -0.019 C 
ATOM      4  C   UNL     1     -28.551  -0.405  -4.453  1.00  0.00     0.036 C 
ATOM      5  C   UNL     1     -27.479  -0.825  -5.478  1.00  0.00     0.025 C 
ATOM      6  C   UNL     1     -26.573  -1.921  -4.886  1.00  0.00     0.089 C 
ATOM      7  C   UNL     1     -26.031  -1.494  -3.549  1.00  0.00     0.158 C 
ATOM      8  O   UNL     1     -24.945  -1.987  -3.142  1.00  0.00    -0.295 OA
ENDROOT
BRANCH   5   9
ATOM      9  C   UNL     1     -28.103  -1.263  -6.796  1.00  0.00    -0.077 C 
ATOM     10  C   UNL     1     -29.289  -1.893  -6.833  1.00  0.00     0.008 C 
ATOM     11  C   UNL     1     -27.390  -0.992  -8.097  1.00  0.00     0.039 C 
ENDBRANCH   5   9
TORSDOF 1
ENDMDL
MODEL 3
REMARK VINA RESULT:    -4.697      1.598      4.249
REMARK INTER + INTRA:          -5.069
REMARK INTER:                  -4.971
REMARK INTRA:                  -0.098
REMARK UNBOUND:                -0.096
REMARK SMILES C=C(C)[C@H]1CC=C(C)C(=O)C1
REMARK SMILES IDX 8 1 7 2 6 3 5 4 4 5 11 6 9 7 10 8 2 9 1 10 3 11
REMARK H PARENT
REMARK Flexibility Score: inf
ROOT
ATOM      1  C   UNL     1     -22.515  -0.139   0.610  1.00  0.00     0.048 C 
ATOM      2  C   UNL     1     -23.540  -0.013  -0.483  1.00  0.00    -0.012 C 
ATOM      3  C   UNL     1     -23.275  -0.498  -1.708  1.00  0.00    -0.019 C 
ATOM      4  C   UNL     1     -24.259  -0.382  -2.843  1.00  0.00     0.036 C 
ATOM      5  C   UNL     1     -25.710  -0.442  -2.327  1.00  0.00     0.025 C 
ATOM      6  C   UNL     1     -25.937   0.631  -1.245  1.00  0.00     0.089 C 
ATOM      7  C   UNL     1     -24.885   0.533  -0.174  1.00  0.00     0.158 C 
ATOM      8  O   UNL     1     -25.148   0.955   0.984  1.00  0.00    -0.295 OA
ENDROOT
BRANCH   5   9
ATOM      9  C   UNL     1     -26.716  -0.316  -3.463  1.00  0.00    -0.077 C 
ATOM     10  C   UNL     1     -28.000   0.002  -3.229  1.00  0.00     0.008 C 
ATOM     11  C   UNL     1     -26.280  -0.549  -4.888  1.00  0.00     0.039 C 
ENDBRANCH   5   9
TORSDOF 1
ENDMDL
MODEL 4
REMARK VINA RESULT:    -4.637      1.652      5.283
REMARK INTER + INTRA:          -5.004
REMARK INTER:                  -4.909
REMARK INTRA:                  -0.096
REMARK UNBOUND:                -0.096
REMARK SMILES C=C(C)[C@H]1CC=C(C)C(=O)C1
REMARK SMILES IDX 8 1 7 2 6 3 5 4 4 5 11 6 9 7 10 8 2 9 1 10 3 11
REMARK H PARENT
REMARK Flexibility Score: inf
ROOT
ATOM      1  C   UNL     1     -24.598   0.276  -1.309  1.00  0.00     0.048 C 
ATOM      2  C   UNL     1     -25.411   0.146  -2.568  1.00  0.00    -0.012 C 
ATOM      3  C   UNL     1     -24.818   0.290  -3.766  1.00  0.00    -0.019 C 
ATOM      4  C   UNL     1     -25.589   0.187  -5.056  1.00  0.00     0.036 C 
ATOM      5  C   UNL     1     -26.754  -0.813  -4.927  1.00  0.00     0.025 C 
ATOM      6  C   UNL     1     -27.656  -0.434  -3.737  1.00  0.00     0.089 C 
ATOM      7  C   UNL     1     -26.836  -0.261  -2.488  1.00  0.00     0.158 C 
ATOM      8  O   UNL     1     -27.385  -0.432  -1.366  1.00  0.00    -0.295 OA
ENDROOT
BRANCH   5   9
ATOM      9  C   UNL     1     -27.549  -0.918  -6.223  1.00  0.00    -0.077 C 
ATOM     10  C   UNL     1     -27.032  -0.513  -7.395  1.00  0.00     0.008 C 
ATOM     11  C   UNL     1     -28.945  -1.488  -6.209  1.00  0.00     0.039 C 
ENDBRANCH   5   9
TORSDOF 1
ENDMDL
MODEL 5
REMARK VINA RESULT:    -4.554      1.896      2.199
REMARK INTER + INTRA:          -4.917
REMARK INTER:                  -4.824
REMARK INTRA:                  -0.093
REMARK UNBOUND:                -0.096
REMARK SMILES C=C(C)[C@H]1CC=C(C)C(=O)C1
REMARK SMILES IDX 8 1 7 2 6 3 5 4 4 5 11 6 9 7 10 8 2 9 1 10 3 11
REMARK H PARENT
REMARK Flexibility Score: inf
ROOT
ATOM      1  C   UNL     1     -24.641   1.533  -5.348  1.00  0.00     0.048 C 
ATOM      2  C   UNL     1     -24.550   1.194  -3.885  1.00  0.00    -0.012 C 
ATOM      3  C   UNL     1     -23.860   0.109  -3.492  1.00  0.00    -0.019 C 
ATOM      4  C   UNL     1     -23.752  -0.286  -2.042  1.00  0.00     0.036 C 
ATOM      5  C   UNL     1     -23.756   0.955  -1.128  1.00  0.00     0.025 C 
ATOM      6  C   UNL     1     -24.999   1.821  -1.406  1.00  0.00     0.089 C 
ATOM      7  C   UNL     1     -25.114   2.123  -2.875  1.00  0.00     0.158 C 
ATOM      8  O   UNL     1     -25.731   3.160  -3.241  1.00  0.00    -0.295 OA
ENDROOT
BRANCH   5   9
ATOM      9  C   UNL     1     -23.657   0.569   0.342  1.00  0.00    -0.077 C 
ATOM     10  C   UNL     1     -22.655  -0.200   0.798  1.00  0.00     0.008 C 
ATOM     11  C   UNL     1     -24.698   1.052   1.322  1.00  0.00     0.039 C 
ENDBRANCH   5   9
TORSDOF 1
ENDMDL
MODEL 6
REMARK VINA RESULT:    -4.549      1.404      1.943
REMARK INTER + INTRA:          -4.911
REMARK INTER:                  -4.817
REMARK INTRA:                  -0.094
REMARK UNBOUND:                -0.096
REMARK SMILES C=C(C)[C@H]1CC=C(C)C(=O)C1
REMARK SMILES IDX 8 1 7 2 6 3 5 4 4 5 11 6 9 7 10 8 2 9 1 10 3 11
REMARK H PARENT
REMARK Flexibility Score: inf
ROOT
ATOM      1  C   UNL     1     -27.390  -0.508  -4.358  1.00  0.00     0.048 C 
ATOM      2  C   UNL     1     -26.627  -0.055  -3.144  1.00  0.00    -0.012 C 
ATOM      3  C   UNL     1     -26.982  -0.500  -1.926  1.00  0.00    -0.019 C 
ATOM      4  C   UNL     1     -26.264  -0.065  -0.676  1.00  0.00     0.036 C 
ATOM      5  C   UNL     1     -24.771   0.196  -0.956  1.00  0.00     0.025 C 
ATOM      6  C   UNL     1     -24.612   1.210  -2.105  1.00  0.00     0.089 C 
ATOM      7  C   UNL     1     -25.411   0.780  -3.304  1.00  0.00     0.158 C 
ATOM      8  O   UNL     1     -25.054   1.169  -4.449  1.00  0.00    -0.295 OA
ENDROOT
BRANCH   5   9
ATOM      9  C   UNL     1     -24.035   0.647   0.298  1.00  0.00    -0.077 C 
ATOM     10  C   UNL     1     -24.650   1.368   1.250  1.00  0.00     0.008 C 
ATOM     11  C   UNL     1     -22.584   0.286   0.493  1.00  0.00     0.039 C 
ENDBRANCH   5   9
TORSDOF 1
ENDMDL
MODEL 7
REMARK VINA RESULT:    -4.536      3.345      5.032
REMARK INTER + INTRA:          -4.897
REMARK INTER:                  -4.809
REMARK INTRA:                  -0.088
REMARK UNBOUND:                -0.096
REMARK SMILES C=C(C)[C@H]1CC=C(C)C(=O)C1
REMARK SMILES IDX 8 1 7 2 6 3 5 4 4 5 11 6 9 7 10 8 2 9 1 10 3 11
REMARK H PARENT
REMARK Flexibility Score: inf
ROOT
ATOM      1  C   UNL     1     -28.612  -4.629  -6.717  1.00  0.00     0.048 C 
ATOM      2  C   UNL     1     -28.066  -3.482  -5.912  1.00  0.00    -0.012 C 
ATOM      3  C   UNL     1     -26.982  -3.664  -5.139  1.00  0.00    -0.019 C 
ATOM      4  C   UNL     1     -26.405  -2.554  -4.299  1.00  0.00     0.036 C 
ATOM      5  C   UNL     1     -26.603  -1.185  -4.978  1.00  0.00     0.025 C 
ATOM      6  C   UNL     1     -28.091  -0.958  -5.302  1.00  0.00     0.089 C 
ATOM      7  C   UNL     1     -28.649  -2.126  -6.069  1.00  0.00     0.158 C 
ATOM      8  O   UNL     1     -29.643  -1.946  -6.822  1.00  0.00    -0.295 OA
ENDROOT
BRANCH   5   9
ATOM      9  C   UNL     1     -26.032  -0.052  -4.134  1.00  0.00    -0.077 C 
ATOM     10  C   UNL     1     -25.015   0.705  -4.577  1.00  0.00     0.008 C 
ATOM     11  C   UNL     1     -26.609   0.240  -2.772  1.00  0.00     0.039 C 
ENDBRANCH   5   9
TORSDOF 1
ENDMDL
MODEL 8
REMARK VINA RESULT:    -4.501      1.411      4.313
REMARK INTER + INTRA:          -4.861
REMARK INTER:                  -4.763
REMARK INTRA:                  -0.098
REMARK UNBOUND:                -0.096
REMARK SMILES C=C(C)[C@H]1CC=C(C)C(=O)C1
REMARK SMILES IDX 8 1 7 2 6 3 5 4 4 5 11 6 9 7 10 8 2 9 1 10 3 11
REMARK H PARENT
REMARK Flexibility Score: inf
ROOT
ATOM      1  C   UNL     1     -24.805   0.945   1.170  1.00  0.00     0.048 C 
ATOM      2  C   UNL     1     -25.072   0.945  -0.310  1.00  0.00    -0.012 C 
ATOM      3  C   UNL     1     -24.222   1.570  -1.143  1.00  0.00    -0.019 C 
ATOM      4  C   UNL     1     -24.451   1.616  -2.631  1.00  0.00     0.036 C 
ATOM      5  C   UNL     1     -25.154   0.335  -3.123  1.00  0.00     0.025 C 
ATOM      6  C   UNL     1     -26.459   0.106  -2.338  1.00  0.00     0.089 C 
ATOM      7  C   UNL     1     -26.200   0.151  -0.857  1.00  0.00     0.158 C 
ATOM      8  O   UNL     1     -26.977  -0.467  -0.080  1.00  0.00    -0.295 OA
ENDROOT
BRANCH   5   9
ATOM      9  C   UNL     1     -25.401   0.372  -4.626  1.00  0.00    -0.077 C 
ATOM     10  C   UNL     1     -26.328  -0.412  -5.202  1.00  0.00     0.008 C 
ATOM     11  C   UNL     1     -24.598   1.301  -5.501  1.00  0.00     0.039 C 
ENDBRANCH   5   9
TORSDOF 1
ENDMDL
MODEL 9
REMARK VINA RESULT:    -4.479      1.855      4.837
REMARK INTER + INTRA:          -4.837
REMARK INTER:                  -4.742
REMARK INTRA:                  -0.096
REMARK UNBOUND:                -0.096
REMARK SMILES C=C(C)[C@H]1CC=C(C)C(=O)C1
REMARK SMILES IDX 8 1 7 2 6 3 5 4 4 5 11 6 9 7 10 8 2 9 1 10 3 11
REMARK H PARENT
REMARK Flexibility Score: inf
ROOT
ATOM      1  C   UNL     1     -24.574   1.178   1.253  1.00  0.00     0.048 C 
ATOM      2  C   UNL     1     -25.172   0.637  -0.017  1.00  0.00    -0.012 C 
ATOM      3  C   UNL     1     -26.398   0.087   0.002  1.00  0.00    -0.019 C 
ATOM      4  C   UNL     1     -27.036  -0.485  -1.236  1.00  0.00     0.036 C 
ATOM      5  C   UNL     1     -26.597   0.288  -2.494  1.00  0.00     0.025 C 
ATOM      6  C   UNL     1     -25.060   0.323  -2.592  1.00  0.00     0.089 C 
ATOM      7  C   UNL     1     -24.460   0.822  -1.307  1.00  0.00     0.158 C 
ATOM      8  O   UNL     1     -23.325   1.370  -1.332  1.00  0.00    -0.295 OA
ENDROOT
BRANCH   5   9
ATOM      9  C   UNL     1     -27.228  -0.287  -3.756  1.00  0.00    -0.077 C 
ATOM     10  C   UNL     1     -26.496  -0.963  -4.658  1.00  0.00     0.008 C 
ATOM     11  C   UNL     1     -28.702  -0.104  -4.015  1.00  0.00     0.039 C 
ENDBRANCH   5   9
TORSDOF 1
ENDMDL
