MODEL 1
REMARK VINA RESULT:    -3.768      0.000      0.000
REMARK INTER + INTRA:          -3.768
REMARK INTER:                  -3.768
REMARK INTRA:                   0.000
REMARK UNBOUND:                 0.000
REMARK SMILES C=C1CC[C@@H]2C[C@H]1C2(C)C
REMARK SMILES IDX 9 1 8 2 5 3 4 4 3 5 2 6 1 7 7 8 6 9 10 10
REMARK H PARENT
REMARK Flexibility Score: inf
ROOT
ATOM      1  C   UNL     1       8.343  18.505  22.114  1.00  0.00     0.012 C 
ATOM      2  C   UNL     1       8.444  19.367  23.397  1.00  0.00    -0.026 C 
ATOM      3  C   UNL     1       7.740  20.738  23.230  1.00  0.00    -0.004 C 
ATOM      4  C   UNL     1       8.186  21.736  24.346  1.00  0.00     0.008 C 
ATOM      5  C   UNL     1       8.048  21.128  25.793  1.00  0.00     0.031 C 
ATOM      6  C   UNL     1       7.672  19.638  25.766  1.00  0.00    -0.074 C 
ATOM      7  C   UNL     1       7.645  18.908  26.886  1.00  0.00     0.008 C 
ATOM      8  C   UNL     1       7.324  19.034  24.410  1.00  0.00     0.021 C 
ATOM      9  C   UNL     1       6.437  20.085  23.722  1.00  0.00     0.012 C 
ATOM     10  C   UNL     1       9.916  19.341  23.890  1.00  0.00     0.012 C 
ENDROOT
TORSDOF 0
ENDMDL
MODEL 2
REMARK VINA RESULT:    -3.685      1.038      1.846
REMARK INTER + INTRA:          -3.685
REMARK INTER:                  -3.685
REMARK INTRA:                   0.000
REMARK UNBOUND:                 0.000
REMARK SMILES C=C1CC[C@@H]2C[C@H]1C2(C)C
REMARK SMILES IDX 9 1 8 2 5 3 4 4 3 5 2 6 1 7 7 8 6 9 10 10
REMARK H PARENT
REMARK Flexibility Score: inf
ROOT
ATOM      1  C   UNL     1       5.664  19.849  22.355  1.00  0.00     0.012 C 
ATOM      2  C   UNL     1       6.931  19.578  23.205  1.00  0.00    -0.026 C 
ATOM      3  C   UNL     1       8.004  20.680  23.012  1.00  0.00    -0.004 C 
ATOM      4  C   UNL     1       9.397  20.203  23.535  1.00  0.00     0.008 C 
ATOM      5  C   UNL     1       9.331  19.636  25.003  1.00  0.00     0.031 C 
ATOM      6  C   UNL     1       7.889  19.523  25.521  1.00  0.00    -0.074 C 
ATOM      7  C   UNL     1       7.613  18.935  26.689  1.00  0.00     0.008 C 
ATOM      8  C   UNL     1       6.789  20.117  24.647  1.00  0.00     0.021 C 
ATOM      9  C   UNL     1       7.350  21.464  24.162  1.00  0.00     0.012 C 
ATOM     10  C   UNL     1       7.344  18.094  23.010  1.00  0.00     0.012 C 
ENDROOT
TORSDOF 0
ENDMDL
MODEL 3
REMARK VINA RESULT:    -3.660      1.404      3.330
REMARK INTER + INTRA:          -3.660
REMARK INTER:                  -3.660
REMARK INTRA:                   0.000
REMARK UNBOUND:                 0.000
REMARK SMILES C=C1CC[C@@H]2C[C@H]1C2(C)C
REMARK SMILES IDX 9 1 8 2 5 3 4 4 3 5 2 6 1 7 7 8 6 9 10 10
REMARK H PARENT
REMARK Flexibility Score: inf
ROOT
ATOM      1  C   UNL     1      10.219  18.885  27.363  1.00  0.00     0.012 C 
ATOM      2  C   UNL     1       8.889  19.362  26.728  1.00  0.00    -0.026 C 
ATOM      3  C   UNL     1       8.733  20.903  26.800  1.00  0.00    -0.004 C 
ATOM      4  C   UNL     1       7.252  21.328  26.539  1.00  0.00     0.008 C 
ATOM      5  C   UNL     1       6.663  20.695  25.223  1.00  0.00     0.031 C 
ATOM      6  C   UNL     1       7.618  19.670  24.590  1.00  0.00    -0.074 C 
ATOM      7  C   UNL     1       7.243  18.922  23.547  1.00  0.00     0.008 C 
ATOM      8  C   UNL     1       9.011  19.552  25.198  1.00  0.00     0.021 C 
ATOM      9  C   UNL     1       9.460  21.001  25.449  1.00  0.00     0.012 C 
ATOM     10  C   UNL     1       7.740  18.470  27.271  1.00  0.00     0.012 C 
ENDROOT
TORSDOF 0
ENDMDL
MODEL 4
REMARK VINA RESULT:    -3.650     12.670     14.714
REMARK INTER + INTRA:          -3.650
REMARK INTER:                  -3.650
REMARK INTRA:                   0.000
REMARK UNBOUND:                 0.000
REMARK SMILES C=C1CC[C@@H]2C[C@H]1C2(C)C
REMARK SMILES IDX 9 1 8 2 5 3 4 4 3 5 2 6 1 7 7 8 6 9 10 10
REMARK H PARENT
REMARK Flexibility Score: inf
ROOT
ATOM      1  C   UNL     1      12.789  16.963  38.964  1.00  0.00     0.012 C 
ATOM      2  C   UNL     1      13.413  16.525  37.616  1.00  0.00    -0.026 C 
ATOM      3  C   UNL     1      13.497  17.701  36.608  1.00  0.00    -0.004 C 
ATOM      4  C   UNL     1      13.738  17.177  35.156  1.00  0.00     0.008 C 
ATOM      5  C   UNL     1      14.955  16.180  35.066  1.00  0.00     0.031 C 
ATOM      6  C   UNL     1      15.516  15.818  36.450  1.00  0.00    -0.074 C 
ATOM      7  C   UNL     1      16.458  14.880  36.595  1.00  0.00     0.008 C 
ATOM      8  C   UNL     1      14.958  16.581  37.647  1.00  0.00     0.021 C 
ATOM      9  C   UNL     1      14.881  18.045  37.184  1.00  0.00     0.012 C 
ATOM     10  C   UNL     1      12.731  15.205  37.166  1.00  0.00     0.012 C 
ENDROOT
TORSDOF 0
ENDMDL
MODEL 5
REMARK VINA RESULT:    -3.644     13.008     14.780
REMARK INTER + INTRA:          -3.644
REMARK INTER:                  -3.644
REMARK INTRA:                   0.000
REMARK UNBOUND:                 0.000
REMARK SMILES C=C1CC[C@@H]2C[C@H]1C2(C)C
REMARK SMILES IDX 9 1 8 2 5 3 4 4 3 5 2 6 1 7 7 8 6 9 10 10
REMARK H PARENT
REMARK Flexibility Score: inf
ROOT
ATOM      1  C   UNL     1      16.627  16.983  37.902  1.00  0.00     0.012 C 
ATOM      2  C   UNL     1      15.129  16.831  37.536  1.00  0.00    -0.026 C 
ATOM      3  C   UNL     1      14.857  17.192  36.053  1.00  0.00    -0.004 C 
ATOM      4  C   UNL     1      13.332  17.428  35.806  1.00  0.00     0.008 C 
ATOM      5  C   UNL     1      12.441  16.244  36.342  1.00  0.00     0.031 C 
ATOM      6  C   UNL     1      13.258  15.213  37.136  1.00  0.00    -0.074 C 
ATOM      7  C   UNL     1      12.663  14.210  37.790  1.00  0.00     0.008 C 
ATOM      8  C   UNL     1      14.774  15.380  37.138  1.00  0.00     0.021 C 
ATOM      9  C   UNL     1      15.138  15.726  35.685  1.00  0.00     0.012 C 
ATOM     10  C   UNL     1      14.283  17.523  38.639  1.00  0.00     0.012 C 
ENDROOT
TORSDOF 0
ENDMDL
MODEL 6
REMARK VINA RESULT:    -3.619     12.728     14.469
REMARK INTER + INTRA:          -3.619
REMARK INTER:                  -3.619
REMARK INTRA:                   0.000
REMARK UNBOUND:                 0.000
REMARK SMILES C=C1CC[C@@H]2C[C@H]1C2(C)C
REMARK SMILES IDX 9 1 8 2 5 3 4 4 3 5 2 6 1 7 7 8 6 9 10 10
REMARK H PARENT
REMARK Flexibility Score: inf
ROOT
ATOM      1  C   UNL     1      14.442  19.274  36.740  1.00  0.00     0.012 C 
ATOM      2  C   UNL     1      14.376  17.752  37.023  1.00  0.00    -0.026 C 
ATOM      3  C   UNL     1      12.916  17.230  37.038  1.00  0.00    -0.004 C 
ATOM      4  C   UNL     1      12.832  15.821  37.710  1.00  0.00     0.008 C 
ATOM      5  C   UNL     1      13.864  14.797  37.102  1.00  0.00     0.031 C 
ATOM      6  C   UNL     1      14.831  15.463  36.110  1.00  0.00    -0.074 C 
ATOM      7  C   UNL     1      15.866  14.794  35.594  1.00  0.00     0.008 C 
ATOM      8  C   UNL     1      14.551  16.915  35.735  1.00  0.00     0.021 C 
ATOM      9  C   UNL     1      13.030  16.985  35.523  1.00  0.00     0.012 C 
ATOM     10  C   UNL     1      15.291  17.439  38.237  1.00  0.00     0.012 C 
ENDROOT
TORSDOF 0
ENDMDL
MODEL 7
REMARK VINA RESULT:    -3.602      2.532      4.386
REMARK INTER + INTRA:          -3.602
REMARK INTER:                  -3.602
REMARK INTRA:                   0.000
REMARK UNBOUND:                 0.000
REMARK SMILES C=C1CC[C@@H]2C[C@H]1C2(C)C
REMARK SMILES IDX 9 1 8 2 5 3 4 4 3 5 2 6 1 7 7 8 6 9 10 10
REMARK H PARENT
REMARK Flexibility Score: inf
ROOT
ATOM      1  C   UNL     1      11.133  20.913  28.666  1.00  0.00     0.012 C 
ATOM      2  C   UNL     1      10.705  20.599  27.211  1.00  0.00    -0.026 C 
ATOM      3  C   UNL     1      11.643  19.560  26.543  1.00  0.00    -0.004 C 
ATOM      4  C   UNL     1      11.459  19.556  24.992  1.00  0.00     0.008 C 
ATOM      5  C   UNL     1       9.951  19.414  24.560  1.00  0.00     0.031 C 
ATOM      6  C   UNL     1       8.992  19.485  25.759  1.00  0.00    -0.074 C 
ATOM      7  C   UNL     1       7.667  19.525  25.588  1.00  0.00     0.008 C 
ATOM      8  C   UNL     1       9.619  19.500  27.150  1.00  0.00     0.021 C 
ATOM      9  C   UNL     1      10.736  18.446  27.094  1.00  0.00     0.012 C 
ATOM     10  C   UNL     1      10.439  21.942  26.478  1.00  0.00     0.012 C 
ENDROOT
TORSDOF 0
ENDMDL
MODEL 8
REMARK VINA RESULT:    -3.529      1.053      3.137
REMARK INTER + INTRA:          -3.529
REMARK INTER:                  -3.529
REMARK INTRA:                   0.000
REMARK UNBOUND:                 0.000
REMARK SMILES C=C1CC[C@@H]2C[C@H]1C2(C)C
REMARK SMILES IDX 9 1 8 2 5 3 4 4 3 5 2 6 1 7 7 8 6 9 10 10
REMARK H PARENT
REMARK Flexibility Score: inf
ROOT
ATOM      1  C   UNL     1       6.076  21.652  25.454  1.00  0.00     0.012 C 
ATOM      2  C   UNL     1       7.255  21.015  24.675  1.00  0.00    -0.026 C 
ATOM      3  C   UNL     1       8.444  20.669  25.607  1.00  0.00    -0.004 C 
ATOM      4  C   UNL     1       9.747  20.416  24.782  1.00  0.00     0.008 C 
ATOM      5  C   UNL     1       9.534  19.377  23.617  1.00  0.00     0.031 C 
ATOM      6  C   UNL     1       8.058  18.982  23.450  1.00  0.00    -0.074 C 
ATOM      7  C   UNL     1       7.654  18.220  22.428  1.00  0.00     0.008 C 
ATOM      8  C   UNL     1       7.080  19.488  24.505  1.00  0.00     0.021 C 
ATOM      9  C   UNL     1       7.804  19.291  25.847  1.00  0.00     0.012 C 
ATOM     10  C   UNL     1       7.526  21.873  23.409  1.00  0.00     0.012 C 
ENDROOT
TORSDOF 0
ENDMDL
MODEL 9
REMARK VINA RESULT:    -3.523      1.184      3.410
REMARK INTER + INTRA:          -3.523
REMARK INTER:                  -3.523
REMARK INTRA:                   0.000
REMARK UNBOUND:                 0.000
REMARK SMILES C=C1CC[C@@H]2C[C@H]1C2(C)C
REMARK SMILES IDX 9 1 8 2 5 3 4 4 3 5 2 6 1 7 7 8 6 9 10 10
REMARK H PARENT
REMARK Flexibility Score: inf
ROOT
ATOM      1  C   UNL     1       6.373  21.180  25.479  1.00  0.00     0.012 C 
ATOM      2  C   UNL     1       7.136  20.192  24.561  1.00  0.00    -0.026 C 
ATOM      3  C   UNL     1       6.187  19.478  23.565  1.00  0.00    -0.004 C 
ATOM      4  C   UNL     1       6.874  18.220  22.941  1.00  0.00     0.008 C 
ATOM      5  C   UNL     1       8.295  18.541  22.341  1.00  0.00     0.031 C 
ATOM      6  C   UNL     1       8.752  19.974  22.658  1.00  0.00    -0.074 C 
ATOM      7  C   UNL     1       9.986  20.392  22.357  1.00  0.00     0.008 C 
ATOM      8  C   UNL     1       7.735  20.897  23.322  1.00  0.00     0.021 C 
ATOM      9  C   UNL     1       6.416  20.635  22.578  1.00  0.00     0.012 C 
ATOM     10  C   UNL     1       8.075  19.328  25.446  1.00  0.00     0.012 C 
ENDROOT
TORSDOF 0
ENDMDL
