MODEL 1
REMARK VINA RESULT:    -1.368      0.000      0.000
REMARK INTER + INTRA:          -1.802
REMARK INTER:                  -1.888
REMARK INTRA:                   0.086
REMARK UNBOUND:                 0.086
REMARK SMILES CC[C@@H](CC[C@@H](C)[C@@H]1CC[C@@H]2[C@H]3CC=C4C[C@@H](O)CC[C@@]4(C)[C@@H]3CC[C@]21C)C(C)C
REMARK SMILES IDX 5 1 4 2 3 3 2 4 1 5 28 6 29 7 30 8 6 9 7 10 8 11 9 12 26 13
REMARK SMILES IDX 10 14 11 15 25 16 27 17 12 18 24 19 23 20 13 21 21 22 14 23
REMARK SMILES IDX 15 24 20 25 22 26 16 27 19 28 17 29 18 30
REMARK H PARENT 18 31
REMARK Flexibility Score: inf
ROOT
ATOM      1  C   UNL     1       3.162  47.748   8.767  1.00  0.00     0.004 C 
ENDROOT
BRANCH   1   2
ATOM      2  C   UNL     1       2.122  47.771   7.619  1.00  0.00     0.004 C 
BRANCH   2   3
ATOM      3  C   UNL     1       0.668  48.048   8.101  1.00  0.00    -0.009 C 
BRANCH   3   4
ATOM      4  C   UNL     1      -0.354  47.209   7.287  1.00  0.00     0.000 C 
ATOM      5  C   UNL     1      -0.029  45.713   7.279  1.00  0.00     0.004 C 
ENDBRANCH   3   4
BRANCH   3   6
ATOM      6  C   UNL     1       0.333  49.580   8.080  1.00  0.00    -0.014 C 
ATOM      7  C   UNL     1       1.325  50.427   7.265  1.00  0.00     0.007 C 
ATOM      8  C   UNL     1      -1.104  49.836   7.595  1.00  0.00     0.007 C 
ENDBRANCH   3   6
ENDBRANCH   2   3
ENDBRANCH   1   2
BRANCH   1   9
ATOM      9  C   UNL     1       3.750  46.348   9.100  1.00  0.00    -0.011 C 
ATOM     10  C   UNL     1       5.047  46.475   9.919  1.00  0.00     0.008 C 
BRANCH   9  11
ATOM     11  C   UNL     1       2.672  45.356   9.682  1.00  0.00    -0.002 C 
ATOM     12  C   UNL     1       1.490  45.959  10.492  1.00  0.00     0.005 C 
ATOM     13  C   UNL     1       3.206  44.222  10.597  1.00  0.00    -0.026 C 
ATOM     14  C   UNL     1       1.053  44.876  11.496  1.00  0.00     0.005 C 
ATOM     15  C   UNL     1       1.881  43.653  11.123  1.00  0.00    -0.001 C 
ATOM     16  C   UNL     1       3.929  43.079   9.853  1.00  0.00     0.007 C 
ATOM     17  C   UNL     1       4.121  44.800  11.724  1.00  0.00     0.012 C 
ATOM     18  C   UNL     1       2.074  42.538  12.173  1.00  0.00     0.000 C 
ATOM     19  C   UNL     1       4.169  41.862  10.778  1.00  0.00     0.005 C 
ATOM     20  C   UNL     1       2.885  41.364  11.530  1.00  0.00     0.003 C 
ATOM     21  C   UNL     1       0.712  42.028  12.670  1.00  0.00     0.031 C 
ATOM     22  C   UNL     1       3.143  40.222  12.591  1.00  0.00    -0.008 C 
ATOM     23  C   UNL     1       0.790  40.722  13.406  1.00  0.00    -0.027 C 
ATOM     24  C   UNL     1       1.821  39.858  13.285  1.00  0.00    -0.065 C 
ATOM     25  C   UNL     1       3.721  38.924  11.917  1.00  0.00     0.014 C 
ATOM     26  C   UNL     1       4.135  40.670  13.696  1.00  0.00     0.016 C 
ATOM     27  C   UNL     1       1.655  38.435  13.779  1.00  0.00     0.063 C 
ATOM     28  C   UNL     1       2.617  37.973  11.430  1.00  0.00     0.033 C 
ATOM     29  C   UNL     1       1.780  37.429  12.615  1.00  0.00     0.118 C 
BRANCH  29  30
ATOM     30  O   UNL     1       0.497  37.080  12.157  1.00  0.00    -0.393 OA
ATOM     31  H   UNL     1       0.218  37.794  11.527  1.00  0.00     0.210 HD
ENDBRANCH  29  30
ENDBRANCH   9  11
ENDBRANCH   1   9
TORSDOF 7
ENDMDL
MODEL 2
REMARK VINA RESULT:    -0.204      2.887      8.663
REMARK INTER + INTRA:          -0.195
REMARK INTER:                  -0.092
REMARK INTRA:                  -0.102
REMARK UNBOUND:                 0.086
REMARK SMILES CC[C@@H](CC[C@@H](C)[C@@H]1CC[C@@H]2[C@H]3CC=C4C[C@@H](O)CC[C@@]4(C)[C@@H]3CC[C@]21C)C(C)C
REMARK SMILES IDX 5 1 4 2 3 3 2 4 1 5 28 6 29 7 30 8 6 9 7 10 8 11 9 12 26 13
REMARK SMILES IDX 10 14 11 15 25 16 27 17 12 18 24 19 23 20 13 21 21 22 14 23
REMARK SMILES IDX 15 24 20 25 22 26 16 27 19 28 17 29 18 30
REMARK H PARENT 18 31
REMARK Flexibility Score: inf
ROOT
ATOM      1  C   UNL     1       2.923  40.772  11.787  1.00  0.00     0.004 C 
ENDROOT
BRANCH   1   2
ATOM      2  C   UNL     1       3.197  39.565  12.719  1.00  0.00     0.004 C 
BRANCH   2   3
ATOM      3  C   UNL     1       1.917  38.761  13.089  1.00  0.00    -0.009 C 
BRANCH   3   4
ATOM      4  C   UNL     1       1.691  37.591  12.094  1.00  0.00     0.000 C 
ATOM      5  C   UNL     1       2.983  36.852  11.736  1.00  0.00     0.004 C 
ENDBRANCH   3   4
BRANCH   3   6
ATOM      6  C   UNL     1       0.662  39.693  13.208  1.00  0.00    -0.014 C 
ATOM      7  C   UNL     1      -0.682  38.958  13.061  1.00  0.00     0.007 C 
ATOM      8  C   UNL     1       0.680  40.501  14.518  1.00  0.00     0.007 C 
ENDBRANCH   3   6
ENDBRANCH   2   3
ENDBRANCH   1   2
BRANCH   1   9
ATOM      9  C   UNL     1       3.508  42.128  12.271  1.00  0.00    -0.011 C 
ATOM     10  C   UNL     1       4.869  42.410  11.609  1.00  0.00     0.008 C 
BRANCH   9  11
ATOM     11  C   UNL     1       2.461  43.304  12.201  1.00  0.00    -0.002 C 
ATOM     12  C   UNL     1       1.021  43.028  12.717  1.00  0.00     0.005 C 
ATOM     13  C   UNL     1       2.236  43.942  10.804  1.00  0.00    -0.026 C 
ATOM     14  C   UNL     1       0.088  43.960  11.923  1.00  0.00     0.005 C 
ATOM     15  C   UNL     1       1.029  44.838  11.107  1.00  0.00    -0.001 C 
ATOM     16  C   UNL     1       3.379  44.863  10.325  1.00  0.00     0.007 C 
ATOM     17  C   UNL     1       1.939  42.845   9.732  1.00  0.00     0.012 C 
ATOM     18  C   UNL     1       0.478  45.557   9.857  1.00  0.00     0.000 C 
ATOM     19  C   UNL     1       2.962  45.683   9.080  1.00  0.00     0.005 C 
ATOM     20  C   UNL     1       1.604  46.453   9.243  1.00  0.00     0.003 C 
ATOM     21  C   UNL     1      -0.739  46.420  10.228  1.00  0.00     0.031 C 
ATOM     22  C   UNL     1       1.091  47.170   7.933  1.00  0.00    -0.008 C 
ATOM     23  C   UNL     1      -1.113  47.420   9.172  1.00  0.00    -0.027 C 
ATOM     24  C   UNL     1      -0.262  47.845   8.213  1.00  0.00    -0.065 C 
ATOM     25  C   UNL     1       2.099  48.271   7.440  1.00  0.00     0.014 C 
ATOM     26  C   UNL     1       0.872  46.166   6.770  1.00  0.00     0.016 C 
ATOM     27  C   UNL     1      -0.603  49.090   7.421  1.00  0.00     0.063 C 
ATOM     28  C   UNL     1       1.830  49.642   8.078  1.00  0.00     0.033 C 
ATOM     29  C   UNL     1       0.447  50.198   7.657  1.00  0.00     0.118 C 
BRANCH  29  30
ATOM     30  O   UNL     1      -0.020  51.085   8.643  1.00  0.00    -0.393 OA
ATOM     31  H   UNL     1       0.547  50.939   9.444  1.00  0.00     0.210 HD
ENDBRANCH  29  30
ENDBRANCH   9  11
ENDBRANCH   1   9
TORSDOF 7
ENDMDL
MODEL 3
REMARK VINA RESULT:     0.464      1.459      3.077
REMARK INTER + INTRA:           0.727
REMARK INTER:                   0.603
REMARK INTRA:                   0.124
REMARK UNBOUND:                 0.086
REMARK SMILES CC[C@@H](CC[C@@H](C)[C@@H]1CC[C@@H]2[C@H]3CC=C4C[C@@H](O)CC[C@@]4(C)[C@@H]3CC[C@]21C)C(C)C
REMARK SMILES IDX 5 1 4 2 3 3 2 4 1 5 28 6 29 7 30 8 6 9 7 10 8 11 9 12 26 13
REMARK SMILES IDX 10 14 11 15 25 16 27 17 12 18 24 19 23 20 13 21 21 22 14 23
REMARK SMILES IDX 15 24 20 25 22 26 16 27 19 28 17 29 18 30
REMARK H PARENT 18 31
REMARK Flexibility Score: inf
ROOT
ATOM      1  C   UNL     1       1.711  47.502   9.211  1.00  0.00     0.004 C 
ENDROOT
BRANCH   1   2
ATOM      2  C   UNL     1       2.928  47.200   8.301  1.00  0.00     0.004 C 
BRANCH   2   3
ATOM      3  C   UNL     1       4.047  48.277   8.378  1.00  0.00    -0.009 C 
BRANCH   3   4
ATOM      4  C   UNL     1       4.114  49.101   7.064  1.00  0.00     0.000 C 
ATOM      5  C   UNL     1       2.946  50.078   6.909  1.00  0.00     0.004 C 
ENDBRANCH   3   4
BRANCH   3   6
ATOM      6  C   UNL     1       5.432  47.648   8.759  1.00  0.00    -0.014 C 
ATOM      7  C   UNL     1       6.503  48.680   9.151  1.00  0.00     0.007 C 
ATOM      8  C   UNL     1       5.286  46.591   9.867  1.00  0.00     0.007 C 
ENDBRANCH   3   6
ENDBRANCH   2   3
ENDBRANCH   1   2
BRANCH   1   9
ATOM      9  C   UNL     1       0.370  46.860   8.759  1.00  0.00    -0.011 C 
ATOM     10  C   UNL     1       0.353  46.629   7.236  1.00  0.00     0.008 C 
BRANCH   9  11
ATOM     11  C   UNL     1      -0.041  45.619   9.639  1.00  0.00    -0.002 C 
ATOM     12  C   UNL     1      -1.055  45.851  10.795  1.00  0.00     0.005 C 
ATOM     13  C   UNL     1       1.120  44.843  10.318  1.00  0.00    -0.026 C 
ATOM     14  C   UNL     1      -0.741  44.793  11.868  1.00  0.00     0.005 C 
ATOM     15  C   UNL     1       0.321  43.905  11.231  1.00  0.00    -0.001 C 
ATOM     16  C   UNL     1       1.946  43.956   9.362  1.00  0.00     0.007 C 
ATOM     17  C   UNL     1       2.058  45.817  11.100  1.00  0.00     0.012 C 
ATOM     18  C   UNL     1       1.215  43.041  12.146  1.00  0.00     0.000 C 
ATOM     19  C   UNL     1       2.882  43.001  10.143  1.00  0.00     0.005 C 
ATOM     20  C   UNL     1       2.161  42.166  11.259  1.00  0.00     0.003 C 
ATOM     21  C   UNL     1       0.353  42.142  13.045  1.00  0.00     0.031 C 
ATOM     22  C   UNL     1       3.126  41.301  12.162  1.00  0.00    -0.008 C 
ATOM     23  C   UNL     1       1.120  41.028  13.697  1.00  0.00    -0.027 C 
ATOM     24  C   UNL     1       2.305  40.571  13.238  1.00  0.00    -0.065 C 
ATOM     25  C   UNL     1       3.902  40.225  11.319  1.00  0.00     0.014 C 
ATOM     26  C   UNL     1       4.173  42.179  12.899  1.00  0.00     0.016 C 
ATOM     27  C   UNL     1       2.828  39.240  13.737  1.00  0.00     0.063 C 
ATOM     28  C   UNL     1       3.129  38.903  11.197  1.00  0.00     0.033 C 
ATOM     29  C   UNL     1       2.949  38.226  12.578  1.00  0.00     0.118 C 
BRANCH  29  30
ATOM     30  O   UNL     1       1.808  37.406  12.551  1.00  0.00    -0.393 OA
ATOM     31  H   UNL     1       1.468  37.426  11.619  1.00  0.00     0.210 HD
ENDBRANCH  29  30
ENDBRANCH   9  11
ENDBRANCH   1   9
TORSDOF 7
ENDMDL
MODEL 4
REMARK VINA RESULT:     0.471      3.159      8.559
REMARK INTER + INTRA:           0.736
REMARK INTER:                   1.422
REMARK INTRA:                  -0.686
REMARK UNBOUND:                 0.086
REMARK SMILES CC[C@@H](CC[C@@H](C)[C@@H]1CC[C@@H]2[C@H]3CC=C4C[C@@H](O)CC[C@@]4(C)[C@@H]3CC[C@]21C)C(C)C
REMARK SMILES IDX 5 1 4 2 3 3 2 4 1 5 28 6 29 7 30 8 6 9 7 10 8 11 9 12 26 13
REMARK SMILES IDX 10 14 11 15 25 16 27 17 12 18 24 19 23 20 13 21 21 22 14 23
REMARK SMILES IDX 15 24 20 25 22 26 16 27 19 28 17 29 18 30
REMARK H PARENT 18 31
REMARK Flexibility Score: inf
ROOT
ATOM      1  C   UNL     1       1.272  41.948  13.257  1.00  0.00     0.004 C 
ENDROOT
BRANCH   1   2
ATOM      2  C   UNL     1       1.141  40.433  13.554  1.00  0.00     0.004 C 
BRANCH   2   3
ATOM      3  C   UNL     1       2.362  39.597  13.073  1.00  0.00    -0.009 C 
BRANCH   3   4
ATOM      4  C   UNL     1       3.393  40.495  12.336  1.00  0.00     0.000 C 
ATOM      5  C   UNL     1       4.819  40.329  12.867  1.00  0.00     0.004 C 
ENDBRANCH   3   4
BRANCH   3   6
ATOM      6  C   UNL     1       1.917  38.367  12.209  1.00  0.00    -0.014 C 
ATOM      7  C   UNL     1       3.029  37.329  11.975  1.00  0.00     0.007 C 
ATOM      8  C   UNL     1       0.672  37.682  12.799  1.00  0.00     0.007 C 
ENDBRANCH   3   6
ENDBRANCH   2   3
ENDBRANCH   1   2
BRANCH   1   9
ATOM      9  C   UNL     1      -0.039  42.650  12.807  1.00  0.00    -0.011 C 
ATOM     10  C   UNL     1      -1.119  42.559  13.901  1.00  0.00     0.008 C 
BRANCH   9  11
ATOM     11  C   UNL     1       0.210  44.090  12.216  1.00  0.00    -0.002 C 
ATOM     12  C   UNL     1      -0.943  44.758  11.415  1.00  0.00     0.005 C 
ATOM     13  C   UNL     1       1.443  44.247  11.286  1.00  0.00    -0.026 C 
ATOM     14  C   UNL     1      -0.277  45.704  10.400  1.00  0.00     0.005 C 
ATOM     15  C   UNL     1       1.204  45.667  10.757  1.00  0.00    -0.001 C 
ATOM     16  C   UNL     1       2.804  44.255  12.016  1.00  0.00     0.007 C 
ATOM     17  C   UNL     1       1.437  43.159  10.165  1.00  0.00     0.012 C 
ATOM     18  C   UNL     1       2.236  46.100   9.694  1.00  0.00     0.000 C 
ATOM     19  C   UNL     1       3.948  44.705  11.076  1.00  0.00     0.005 C 
ATOM     20  C   UNL     1       3.669  46.051  10.321  1.00  0.00     0.003 C 
ATOM     21  C   UNL     1       1.927  47.520   9.193  1.00  0.00     0.031 C 
ATOM     22  C   UNL     1       4.758  46.444   9.246  1.00  0.00    -0.008 C 
ATOM     23  C   UNL     1       3.061  48.154   8.442  1.00  0.00    -0.027 C 
ATOM     24  C   UNL     1       4.346  47.751   8.551  1.00  0.00    -0.065 C 
ATOM     25  C   UNL     1       6.170  46.659   9.904  1.00  0.00     0.014 C 
ATOM     26  C   UNL     1       4.903  45.361   8.144  1.00  0.00     0.016 C 
ATOM     27  C   UNL     1       5.449  48.654   8.040  1.00  0.00     0.063 C 
ATOM     28  C   UNL     1       6.383  48.103  10.381  1.00  0.00     0.033 C 
ATOM     29  C   UNL     1       6.377  49.096   9.193  1.00  0.00     0.118 C 
BRANCH  29  30
ATOM     30  O   UNL     1       5.985  50.367   9.649  1.00  0.00    -0.393 OA
ATOM     31  H   UNL     1       5.053  50.275   9.975  1.00  0.00     0.210 HD
ENDBRANCH  29  30
ENDBRANCH   9  11
ENDBRANCH   1   9
TORSDOF 7
ENDMDL
MODEL 5
REMARK VINA RESULT:     1.222      1.761      3.495
REMARK INTER + INTRA:           1.772
REMARK INTER:                   1.815
REMARK INTRA:                  -0.042
REMARK UNBOUND:                 0.086
REMARK SMILES CC[C@@H](CC[C@@H](C)[C@@H]1CC[C@@H]2[C@H]3CC=C4C[C@@H](O)CC[C@@]4(C)[C@@H]3CC[C@]21C)C(C)C
REMARK SMILES IDX 5 1 4 2 3 3 2 4 1 5 28 6 29 7 30 8 6 9 7 10 8 11 9 12 26 13
REMARK SMILES IDX 10 14 11 15 25 16 27 17 12 18 24 19 23 20 13 21 21 22 14 23
REMARK SMILES IDX 15 24 20 25 22 26 16 27 19 28 17 29 18 30
REMARK H PARENT 18 31
REMARK Flexibility Score: inf
ROOT
ATOM      1  C   UNL     1       4.495  46.626   8.739  1.00  0.00     0.004 C 
ENDROOT
BRANCH   1   2
ATOM      2  C   UNL     1       5.481  47.359   9.681  1.00  0.00     0.004 C 
BRANCH   2   3
ATOM      3  C   UNL     1       6.454  48.320   8.940  1.00  0.00    -0.009 C 
BRANCH   3   4
ATOM      4  C   UNL     1       7.927  47.856   9.110  1.00  0.00     0.000 C 
ATOM      5  C   UNL     1       8.074  46.673  10.070  1.00  0.00     0.004 C 
ENDBRANCH   3   4
BRANCH   3   6
ATOM      6  C   UNL     1       6.244  49.810   9.379  1.00  0.00    -0.014 C 
ATOM      7  C   UNL     1       7.100  50.236  10.584  1.00  0.00     0.007 C 
ATOM      8  C   UNL     1       6.465  50.781   8.205  1.00  0.00     0.007 C 
ENDBRANCH   3   6
ENDBRANCH   2   3
ENDBRANCH   1   2
BRANCH   1   9
ATOM      9  C   UNL     1       3.000  47.019   8.908  1.00  0.00    -0.011 C 
ATOM     10  C   UNL     1       2.461  47.699   7.637  1.00  0.00     0.008 C 
BRANCH   9  11
ATOM     11  C   UNL     1       2.120  45.841   9.475  1.00  0.00    -0.002 C 
ATOM     12  C   UNL     1       0.817  46.210  10.239  1.00  0.00     0.005 C 
ATOM     13  C   UNL     1       2.835  44.844  10.426  1.00  0.00    -0.026 C 
ATOM     14  C   UNL     1       0.568  45.074  11.249  1.00  0.00     0.005 C 
ATOM     15  C   UNL     1       1.632  44.033  10.922  1.00  0.00    -0.001 C 
ATOM     16  C   UNL     1       3.792  43.857   9.724  1.00  0.00     0.007 C 
ATOM     17  C   UNL     1       3.582  45.603  11.569  1.00  0.00     0.012 C 
ATOM     18  C   UNL     1       2.004  42.989  11.997  1.00  0.00     0.000 C 
ATOM     19  C   UNL     1       4.235  42.722  10.677  1.00  0.00     0.005 C 
ATOM     20  C   UNL     1       3.050  41.990  11.400  1.00  0.00     0.003 C 
ATOM     21  C   UNL     1       0.753  42.228  12.463  1.00  0.00     0.031 C 
ATOM     22  C   UNL     1       3.492  40.934  12.488  1.00  0.00    -0.008 C 
ATOM     23  C   UNL     1       1.061  40.971  13.225  1.00  0.00    -0.027 C 
ATOM     24  C   UNL     1       2.245  40.325  13.149  1.00  0.00    -0.065 C 
ATOM     25  C   UNL     1       4.334  39.767  11.855  1.00  0.00     0.014 C 
ATOM     26  C   UNL     1       4.341  41.581  13.614  1.00  0.00     0.016 C 
ATOM     27  C   UNL     1       2.345  38.904  13.664  1.00  0.00     0.063 C 
ATOM     28  C   UNL     1       3.455  38.611  11.353  1.00  0.00     0.033 C 
ATOM     29  C   UNL     1       2.702  37.928  12.522  1.00  0.00     0.118 C 
BRANCH  29  30
ATOM     30  O   UNL     1       1.528  37.329  12.033  1.00  0.00    -0.393 OA
ATOM     31  H   UNL     1       0.769  37.820  12.442  1.00  0.00     0.210 HD
ENDBRANCH  29  30
ENDBRANCH   9  11
ENDBRANCH   1   9
TORSDOF 7
ENDMDL
