MODEL 1
REMARK VINA RESULT:    -6.688      0.000      0.000
REMARK INTER + INTRA:         -11.429
REMARK INTER:                  -9.815
REMARK INTRA:                  -1.613
REMARK UNBOUND:                -1.613
REMARK SMILES O=c1c(O[C@@H]2O[C@@H](CO)[C@@H](O)[C@H](O)[C@@H]2O)c(-c2ccc(O)c(O)c2)oc2cc(O)cc(O)c12
REMARK SMILES IDX 4 1 3 2 16 3 25 4 2 5 26 6 1 7 33 8 27 9 31 10 28 11 30 12
REMARK SMILES IDX 17 13 18 14 19 15 20 16 24 17 22 18 21 19 23 21 32 23 29 25
REMARK SMILES IDX 5 27 14 28 6 29 12 30 7 31 10 32 15 33 13 35 8 37 9 38 11 40
REMARK H PARENT 21 20 23 22 32 24 29 26 15 34 13 36 9 39 11 41
REMARK Flexibility Score: inf
ROOT
ATOM      1  O   UNL     1      16.827  -3.660 -14.175  1.00  0.00    -0.454 OA
ENDROOT
BRANCH   1   2
ATOM      2  C   UNL     1      17.428  -3.387 -15.412  1.00  0.00     0.214 A 
ATOM      3  C   UNL     1      17.660  -4.397 -16.367  1.00  0.00     0.180 A 
ATOM      4  O   UNL     1      18.341  -4.114 -17.471  1.00  0.00    -0.452 OA
ATOM      5  C   UNL     1      17.822  -2.077 -15.705  1.00  0.00     0.239 A 
ATOM      6  C   UNL     1      18.770  -2.893 -17.772  1.00  0.00     0.146 A 
ATOM      7  O   UNL     1      17.609  -1.185 -14.846  1.00  0.00    -0.285 OA
ATOM      8  C   UNL     1      18.486  -1.792 -16.923  1.00  0.00     0.111 A 
ATOM      9  C   UNL     1      19.505  -2.715 -18.945  1.00  0.00     0.094 A 
ATOM     10  C   UNL     1      18.922  -0.494 -17.324  1.00  0.00     0.134 A 
ATOM     11  C   UNL     1      19.975  -1.453 -19.300  1.00  0.00     0.123 A 
ATOM     12  C   UNL     1      19.685  -0.353 -18.490  1.00  0.00     0.093 A 
BRANCH   3  13
ATOM     13  C   UNL     1      17.158  -5.779 -16.197  1.00  0.00     0.025 A 
ATOM     14  C   UNL     1      17.988  -6.796 -15.691  1.00  0.00     0.016 A 
ATOM     15  C   UNL     1      17.493  -8.090 -15.518  1.00  0.00     0.051 A 
ATOM     16  C   UNL     1      16.164  -8.387 -15.836  1.00  0.00     0.157 A 
ATOM     17  C   UNL     1      15.818  -6.073 -16.491  1.00  0.00     0.062 A 
ATOM     18  C   UNL     1      15.319  -7.373 -16.320  1.00  0.00     0.158 A 
BRANCH  16  19
ATOM     19  O   UNL     1      15.700  -9.689 -15.658  1.00  0.00    -0.504 OA
ATOM     20  H   UNL     1      16.320 -10.488 -15.673  1.00  0.00     0.293 HD
ENDBRANCH  16  19
BRANCH  18  21
ATOM     21  O   UNL     1      13.991  -7.660 -16.629  1.00  0.00    -0.504 OA
ATOM     22  H   UNL     1      13.250  -7.551 -15.945  1.00  0.00     0.293 HD
ENDBRANCH  18  21
ENDBRANCH   3  13
BRANCH  10  23
ATOM     23  O   UNL     1      18.616   0.683 -16.633  1.00  0.00    -0.507 OA
ATOM     24  H   UNL     1      18.478   1.584 -17.063  1.00  0.00     0.293 HD
ENDBRANCH  10  23
BRANCH  11  25
ATOM     25  O   UNL     1      20.721  -1.300 -20.466  1.00  0.00    -0.508 OA
ATOM     26  H   UNL     1      20.304  -1.424 -21.382  1.00  0.00     0.293 HD
ENDBRANCH  11  25
ENDBRANCH   1   2
BRANCH   1  27
ATOM     27  C   UNL     1      17.446  -4.466 -13.163  1.00  0.00     0.339 C 
ATOM     28  C   UNL     1      18.159  -3.596 -12.108  1.00  0.00     0.214 C 
ATOM     29  O   UNL     1      16.493  -5.327 -12.557  1.00  0.00    -0.332 OA
ATOM     30  C   UNL     1      17.140  -2.818 -11.249  1.00  0.00     0.180 C 
ATOM     31  C   UNL     1      15.474  -4.592 -11.898  1.00  0.00     0.179 C 
ATOM     32  C   UNL     1      16.059  -3.777 -10.724  1.00  0.00     0.177 C 
BRANCH  28  33
ATOM     33  O   UNL     1      19.058  -2.721 -12.738  1.00  0.00    -0.384 OA
ATOM     34  H   UNL     1      19.372  -2.084 -12.043  1.00  0.00     0.211 HD
ENDBRANCH  28  33
BRANCH  30  35
ATOM     35  O   UNL     1      16.532  -1.798 -12.001  1.00  0.00    -0.387 OA
ATOM     36  H   UNL     1      16.988  -1.778 -12.881  1.00  0.00     0.211 HD
ENDBRANCH  30  35
BRANCH  31  37
ATOM     37  C   UNL     1      14.394  -5.565 -11.404  1.00  0.00     0.191 C 
BRANCH  37  38
ATOM     38  O   UNL     1      13.784  -5.068 -10.244  1.00  0.00    -0.394 OA
ATOM     39  H   UNL     1      12.833  -5.345 -10.282  1.00  0.00     0.210 HD
ENDBRANCH  37  38
ENDBRANCH  31  37
BRANCH  32  40
ATOM     40  O   UNL     1      16.614  -4.645  -9.768  1.00  0.00    -0.387 OA
ATOM     41  H   UNL     1      16.723  -5.527 -10.208  1.00  0.00     0.211 HD
ENDBRANCH  32  40
ENDBRANCH   1  27
TORSDOF 12
ENDMDL
MODEL 2
REMARK VINA RESULT:    -6.626      1.122      1.840
REMARK INTER + INTRA:         -11.338
REMARK INTER:                  -9.918
REMARK INTRA:                  -1.420
REMARK UNBOUND:                -1.613
REMARK SMILES O=c1c(O[C@@H]2O[C@@H](CO)[C@@H](O)[C@H](O)[C@@H]2O)c(-c2ccc(O)c(O)c2)oc2cc(O)cc(O)c12
REMARK SMILES IDX 4 1 3 2 16 3 25 4 2 5 26 6 1 7 33 8 27 9 31 10 28 11 30 12
REMARK SMILES IDX 17 13 18 14 19 15 20 16 24 17 22 18 21 19 23 21 32 23 29 25
REMARK SMILES IDX 5 27 14 28 6 29 12 30 7 31 10 32 15 33 13 35 8 37 9 38 11 40
REMARK H PARENT 21 20 23 22 32 24 29 26 15 34 13 36 9 39 11 41
REMARK Flexibility Score: inf
ROOT
ATOM      1  O   UNL     1      17.345  -4.063 -14.312  1.00  0.00    -0.454 OA
ENDROOT
BRANCH   1   2
ATOM      2  C   UNL     1      17.751  -3.661 -15.592  1.00  0.00     0.214 A 
ATOM      3  C   UNL     1      17.840  -4.570 -16.665  1.00  0.00     0.180 A 
ATOM      4  O   UNL     1      18.346  -4.168 -17.826  1.00  0.00    -0.452 OA
ATOM      5  C   UNL     1      18.090  -2.321 -15.810  1.00  0.00     0.239 A 
ATOM      6  C   UNL     1      18.719  -2.916 -18.066  1.00  0.00     0.146 A 
ATOM      7  O   UNL     1      18.006  -1.520 -14.845  1.00  0.00    -0.285 OA
ATOM      8  C   UNL     1      18.561  -1.907 -17.080  1.00  0.00     0.111 A 
ATOM      9  C   UNL     1      19.268  -2.611 -19.313  1.00  0.00     0.094 A 
ATOM     10  C   UNL     1      18.926  -0.568 -17.412  1.00  0.00     0.134 A 
ATOM     11  C   UNL     1      19.673  -1.312 -19.608  1.00  0.00     0.123 A 
ATOM     12  C   UNL     1      19.504  -0.301 -18.660  1.00  0.00     0.093 A 
BRANCH   3  13
ATOM     13  C   UNL     1      17.376  -5.971 -16.559  1.00  0.00     0.025 A 
ATOM     14  C   UNL     1      18.276  -7.014 -16.274  1.00  0.00     0.016 A 
ATOM     15  C   UNL     1      17.818  -8.328 -16.157  1.00  0.00     0.051 A 
ATOM     16  C   UNL     1      16.459  -8.619 -16.312  1.00  0.00     0.157 A 
ATOM     17  C   UNL     1      16.009  -6.262 -16.689  1.00  0.00     0.062 A 
ATOM     18  C   UNL     1      15.548  -7.582 -16.574  1.00  0.00     0.158 A 
BRANCH  16  19
ATOM     19  O   UNL     1      16.032  -9.941 -16.195  1.00  0.00    -0.504 OA
ATOM     20  H   UNL     1      16.659 -10.686 -15.917  1.00  0.00     0.293 HD
ENDBRANCH  16  19
BRANCH  18  21
ATOM     21  O   UNL     1      14.191  -7.864 -16.719  1.00  0.00    -0.504 OA
ATOM     22  H   UNL     1      13.764  -7.970 -17.633  1.00  0.00     0.293 HD
ENDBRANCH  18  21
ENDBRANCH   3  13
BRANCH  10  23
ATOM     23  O   UNL     1      18.723   0.530 -16.571  1.00  0.00    -0.507 OA
ATOM     24  H   UNL     1      18.330   0.480 -15.643  1.00  0.00     0.293 HD
ENDBRANCH  10  23
BRANCH  11  25
ATOM     25  O   UNL     1      20.234  -1.032 -20.852  1.00  0.00    -0.508 OA
ATOM     26  H   UNL     1      21.005  -1.578 -21.220  1.00  0.00     0.293 HD
ENDBRANCH  11  25
ENDBRANCH   1   2
BRANCH   1  27
ATOM     27  C   UNL     1      15.977  -4.324 -13.968  1.00  0.00     0.339 C 
ATOM     28  C   UNL     1      15.867  -5.407 -12.877  1.00  0.00     0.214 C 
ATOM     29  O   UNL     1      15.324  -3.128 -13.570  1.00  0.00    -0.332 OA
ATOM     30  C   UNL     1      16.391  -4.886 -11.522  1.00  0.00     0.180 C 
ATOM     31  C   UNL     1      15.917  -2.575 -12.406  1.00  0.00     0.179 C 
ATOM     32  C   UNL     1      15.748  -3.527 -11.201  1.00  0.00     0.177 C 
BRANCH  28  33
ATOM     33  O   UNL     1      16.561  -6.560 -13.276  1.00  0.00    -0.384 OA
ATOM     34  H   UNL     1      16.133  -7.327 -12.810  1.00  0.00     0.211 HD
ENDBRANCH  28  33
BRANCH  30  35
ATOM     35  O   UNL     1      17.789  -4.744 -11.551  1.00  0.00    -0.387 OA
ATOM     36  H   UNL     1      18.041  -4.572 -12.494  1.00  0.00     0.211 HD
ENDBRANCH  30  35
BRANCH  31  37
ATOM     37  C   UNL     1      15.278  -1.209 -12.118  1.00  0.00     0.191 C 
BRANCH  37  38
ATOM     38  O   UNL     1      15.165  -1.006 -10.735  1.00  0.00    -0.394 OA
ATOM     39  H   UNL     1      15.190  -0.026 -10.589  1.00  0.00     0.210 HD
ENDBRANCH  37  38
ENDBRANCH  31  37
BRANCH  32  40
ATOM     40  O   UNL     1      14.382  -3.700 -10.916  1.00  0.00    -0.387 OA
ATOM     41  H   UNL     1      13.913  -2.895 -11.256  1.00  0.00     0.211 HD
ENDBRANCH  32  40
ENDBRANCH   1  27
TORSDOF 12
ENDMDL
MODEL 3
REMARK VINA RESULT:    -6.244      3.405      8.982
REMARK INTER + INTRA:         -10.777
REMARK INTER:                  -8.702
REMARK INTRA:                  -2.075
REMARK UNBOUND:                -1.613
REMARK SMILES O=c1c(O[C@@H]2O[C@@H](CO)[C@@H](O)[C@H](O)[C@@H]2O)c(-c2ccc(O)c(O)c2)oc2cc(O)cc(O)c12
REMARK SMILES IDX 4 1 3 2 16 3 25 4 2 5 26 6 1 7 33 8 27 9 31 10 28 11 30 12
REMARK SMILES IDX 17 13 18 14 19 15 20 16 24 17 22 18 21 19 23 21 32 23 29 25
REMARK SMILES IDX 5 27 14 28 6 29 12 30 7 31 10 32 15 33 13 35 8 37 9 38 11 40
REMARK H PARENT 21 20 23 22 32 24 29 26 15 34 13 36 9 39 11 41
REMARK Flexibility Score: inf
ROOT
ATOM      1  O   UNL     1      14.924  -6.351 -13.035  1.00  0.00    -0.454 OA
ENDROOT
BRANCH   1   2
ATOM      2  C   UNL     1      14.004  -6.384 -11.977  1.00  0.00     0.214 A 
ATOM      3  C   UNL     1      14.043  -5.446 -10.927  1.00  0.00     0.180 A 
ATOM      4  O   UNL     1      13.229  -5.591  -9.887  1.00  0.00    -0.452 OA
ATOM      5  C   UNL     1      13.026  -7.384 -11.955  1.00  0.00     0.239 A 
ATOM      6  C   UNL     1      12.313  -6.549  -9.804  1.00  0.00     0.146 A 
ATOM      7  O   UNL     1      13.002  -8.215 -12.899  1.00  0.00    -0.285 OA
ATOM      8  C   UNL     1      12.127  -7.472 -10.866  1.00  0.00     0.111 A 
ATOM      9  C   UNL     1      11.532  -6.627  -8.649  1.00  0.00     0.094 A 
ATOM     10  C   UNL     1      11.089  -8.445 -10.747  1.00  0.00     0.134 A 
ATOM     11  C   UNL     1      10.560  -7.615  -8.519  1.00  0.00     0.123 A 
ATOM     12  C   UNL     1      10.345  -8.517  -9.562  1.00  0.00     0.093 A 
BRANCH   3  13
ATOM     13  C   UNL     1      14.955  -4.280 -10.937  1.00  0.00     0.025 A 
ATOM     14  C   UNL     1      14.724  -3.185 -11.789  1.00  0.00     0.016 A 
ATOM     15  C   UNL     1      15.583  -2.085 -11.772  1.00  0.00     0.051 A 
ATOM     16  C   UNL     1      16.676  -2.055 -10.900  1.00  0.00     0.157 A 
ATOM     17  C   UNL     1      16.038  -4.238 -10.046  1.00  0.00     0.062 A 
ATOM     18  C   UNL     1      16.903  -3.134 -10.028  1.00  0.00     0.158 A 
BRANCH  16  19
ATOM     19  O   UNL     1      17.519  -0.945 -10.909  1.00  0.00    -0.504 OA
ATOM     20  H   UNL     1      18.506  -1.017 -10.697  1.00  0.00     0.293 HD
ENDBRANCH  16  19
BRANCH  18  21
ATOM     21  O   UNL     1      17.985  -3.106  -9.150  1.00  0.00    -0.504 OA
ATOM     22  H   UNL     1      18.112  -3.818  -8.439  1.00  0.00     0.293 HD
ENDBRANCH  18  21
ENDBRANCH   3  13
BRANCH  10  23
ATOM     23  O   UNL     1      10.736  -9.339 -11.762  1.00  0.00    -0.507 OA
ATOM     24  H   UNL     1      11.354  -9.653 -12.494  1.00  0.00     0.293 HD
ENDBRANCH  10  23
BRANCH  11  25
ATOM     25  O   UNL     1       9.803  -7.686  -7.351  1.00  0.00    -0.508 OA
ATOM     26  H   UNL     1       8.874  -8.091  -7.346  1.00  0.00     0.293 HD
ENDBRANCH  11  25
ENDBRANCH   1   2
BRANCH   1  27
ATOM     27  C   UNL     1      16.152  -7.093 -13.030  1.00  0.00     0.339 C 
ATOM     28  C   UNL     1      16.402  -7.776 -14.390  1.00  0.00     0.214 C 
ATOM     29  O   UNL     1      17.241  -6.257 -12.669  1.00  0.00    -0.332 OA
ATOM     30  C   UNL     1      16.720  -6.735 -15.485  1.00  0.00     0.180 C 
ATOM     31  C   UNL     1      17.425  -5.209 -13.608  1.00  0.00     0.179 C 
ATOM     32  C   UNL     1      17.815  -5.776 -14.991  1.00  0.00     0.177 C 
BRANCH  28  33
ATOM     33  O   UNL     1      15.291  -8.557 -14.745  1.00  0.00    -0.384 OA
ATOM     34  H   UNL     1      15.635  -9.316 -15.287  1.00  0.00     0.211 HD
ENDBRANCH  28  33
BRANCH  30  35
ATOM     35  O   UNL     1      15.570  -5.998 -15.817  1.00  0.00    -0.387 OA
ATOM     36  H   UNL     1      14.851  -6.653 -16.005  1.00  0.00     0.211 HD
ENDBRANCH  30  35
BRANCH  31  37
ATOM     37  C   UNL     1      18.505  -4.252 -13.085  1.00  0.00     0.191 C 
BRANCH  37  38
ATOM     38  O   UNL     1      19.465  -4.957 -12.346  1.00  0.00    -0.394 OA
ATOM     39  H   UNL     1      20.277  -4.388 -12.318  1.00  0.00     0.210 HD
ENDBRANCH  37  38
ENDBRANCH  31  37
BRANCH  32  40
ATOM     40  O   UNL     1      19.041  -6.458 -14.901  1.00  0.00    -0.387 OA
ATOM     41  H   UNL     1      18.877  -7.388 -15.203  1.00  0.00     0.211 HD
ENDBRANCH  32  40
ENDBRANCH   1  27
TORSDOF 12
ENDMDL
MODEL 4
REMARK VINA RESULT:    -6.232      5.079      9.219
REMARK INTER + INTRA:         -10.760
REMARK INTER:                  -8.726
REMARK INTRA:                  -2.034
REMARK UNBOUND:                -1.613
REMARK SMILES O=c1c(O[C@@H]2O[C@@H](CO)[C@@H](O)[C@H](O)[C@@H]2O)c(-c2ccc(O)c(O)c2)oc2cc(O)cc(O)c12
REMARK SMILES IDX 4 1 3 2 16 3 25 4 2 5 26 6 1 7 33 8 27 9 31 10 28 11 30 12
REMARK SMILES IDX 17 13 18 14 19 15 20 16 24 17 22 18 21 19 23 21 32 23 29 25
REMARK SMILES IDX 5 27 14 28 6 29 12 30 7 31 10 32 15 33 13 35 8 37 9 38 11 40
REMARK H PARENT 21 20 23 22 32 24 29 26 15 34 13 36 9 39 11 41
REMARK Flexibility Score: inf
ROOT
ATOM      1  O   UNL     1      17.501  -0.354 -10.834  1.00  0.00    -0.454 OA
ENDROOT
BRANCH   1   2
ATOM      2  C   UNL     1      18.505  -0.670  -9.909  1.00  0.00     0.214 A 
ATOM      3  C   UNL     1      19.826  -0.201 -10.054  1.00  0.00     0.180 A 
ATOM      4  O   UNL     1      20.769  -0.625  -9.221  1.00  0.00    -0.452 OA
ATOM      5  C   UNL     1      18.194  -1.484  -8.815  1.00  0.00     0.239 A 
ATOM      6  C   UNL     1      20.527  -1.430  -8.193  1.00  0.00     0.146 A 
ATOM      7  O   UNL     1      17.012  -1.895  -8.696  1.00  0.00    -0.285 OA
ATOM      8  C   UNL     1      19.207  -1.864  -7.902  1.00  0.00     0.111 A 
ATOM      9  C   UNL     1      21.601  -1.840  -7.399  1.00  0.00     0.094 A 
ATOM     10  C   UNL     1      18.998  -2.682  -6.752  1.00  0.00     0.134 A 
ATOM     11  C   UNL     1      21.393  -2.684  -6.312  1.00  0.00     0.123 A 
ATOM     12  C   UNL     1      20.099  -3.102  -5.995  1.00  0.00     0.093 A 
BRANCH   3  13
ATOM     13  C   UNL     1      20.212   0.770 -11.103  1.00  0.00     0.025 A 
ATOM     14  C   UNL     1      19.969   2.146 -10.944  1.00  0.00     0.016 A 
ATOM     15  C   UNL     1      20.358   3.050 -11.935  1.00  0.00     0.051 A 
ATOM     16  C   UNL     1      21.003   2.598 -13.090  1.00  0.00     0.157 A 
ATOM     17  C   UNL     1      20.882   0.321 -12.252  1.00  0.00     0.062 A 
ATOM     18  C   UNL     1      21.272   1.227 -13.249  1.00  0.00     0.158 A 
BRANCH  16  19
ATOM     19  O   UNL     1      21.375   3.523 -14.064  1.00  0.00    -0.504 OA
ATOM     20  H   UNL     1      21.094   3.428 -15.032  1.00  0.00     0.293 HD
ENDBRANCH  16  19
BRANCH  18  21
ATOM     21  O   UNL     1      21.923   0.771 -14.394  1.00  0.00    -0.504 OA
ATOM     22  H   UNL     1      22.484  -0.074 -14.386  1.00  0.00     0.293 HD
ENDBRANCH  18  21
ENDBRANCH   3  13
BRANCH  10  23
ATOM     23  O   UNL     1      17.738  -3.087  -6.299  1.00  0.00    -0.507 OA
ATOM     24  H   UNL     1      17.019  -2.465  -5.965  1.00  0.00     0.293 HD
ENDBRANCH  10  23
BRANCH  11  25
ATOM     25  O   UNL     1      22.480  -3.094  -5.543  1.00  0.00    -0.508 OA
ATOM     26  H   UNL     1      22.361  -3.436  -4.596  1.00  0.00     0.293 HD
ENDBRANCH  11  25
ENDBRANCH   1   2
BRANCH   1  27
ATOM     27  C   UNL     1      17.199  -1.171 -11.974  1.00  0.00     0.339 C 
ATOM     28  C   UNL     1      15.683  -1.421 -12.102  1.00  0.00     0.214 C 
ATOM     29  O   UNL     1      17.724  -0.591 -13.159  1.00  0.00    -0.332 OA
ATOM     30  C   UNL     1      14.937  -0.128 -12.492  1.00  0.00     0.180 C 
ATOM     31  C   UNL     1      17.137   0.673 -13.422  1.00  0.00     0.179 C 
ATOM     32  C   UNL     1      15.624   0.527 -13.701  1.00  0.00     0.177 C 
BRANCH  28  33
ATOM     33  O   UNL     1      15.182  -1.949 -10.901  1.00  0.00    -0.384 OA
ATOM     34  H   UNL     1      14.325  -1.480 -10.718  1.00  0.00     0.211 HD
ENDBRANCH  28  33
BRANCH  30  35
ATOM     35  O   UNL     1      14.920   0.779 -11.418  1.00  0.00    -0.387 OA
ATOM     36  H   UNL     1      15.736   0.606 -10.882  1.00  0.00     0.211 HD
ENDBRANCH  30  35
BRANCH  31  37
ATOM     37  C   UNL     1      17.853   1.319 -14.617  1.00  0.00     0.191 C 
BRANCH  37  38
ATOM     38  O   UNL     1      16.999   2.219 -15.269  1.00  0.00    -0.394 OA
ATOM     39  H   UNL     1      17.049   3.073 -14.767  1.00  0.00     0.210 HD
ENDBRANCH  37  38
ENDBRANCH  31  37
BRANCH  32  40
ATOM     40  O   UNL     1      15.423  -0.259 -14.849  1.00  0.00    -0.387 OA
ATOM     41  H   UNL     1      16.025  -1.043 -14.771  1.00  0.00     0.211 HD
ENDBRANCH  32  40
ENDBRANCH   1  27
TORSDOF 12
ENDMDL
MODEL 5
REMARK VINA RESULT:    -6.126      1.235      2.152
REMARK INTER + INTRA:         -10.605
REMARK INTER:                  -9.121
REMARK INTRA:                  -1.484
REMARK UNBOUND:                -1.613
REMARK SMILES O=c1c(O[C@@H]2O[C@@H](CO)[C@@H](O)[C@H](O)[C@@H]2O)c(-c2ccc(O)c(O)c2)oc2cc(O)cc(O)c12
REMARK SMILES IDX 4 1 3 2 16 3 25 4 2 5 26 6 1 7 33 8 27 9 31 10 28 11 30 12
REMARK SMILES IDX 17 13 18 14 19 15 20 16 24 17 22 18 21 19 23 21 32 23 29 25
REMARK SMILES IDX 5 27 14 28 6 29 12 30 7 31 10 32 15 33 13 35 8 37 9 38 11 40
REMARK H PARENT 21 20 23 22 32 24 29 26 15 34 13 36 9 39 11 41
REMARK Flexibility Score: inf
ROOT
ATOM      1  O   UNL     1      17.037  -3.610 -14.698  1.00  0.00    -0.454 OA
ENDROOT
BRANCH   1   2
ATOM      2  C   UNL     1      17.638  -3.348 -15.938  1.00  0.00     0.214 A 
ATOM      3  C   UNL     1      17.856  -4.364 -16.889  1.00  0.00     0.180 A 
ATOM      4  O   UNL     1      18.538  -4.092 -17.996  1.00  0.00    -0.452 OA
ATOM      5  C   UNL     1      18.046  -2.043 -16.236  1.00  0.00     0.239 A 
ATOM      6  C   UNL     1      18.979  -2.877 -18.302  1.00  0.00     0.146 A 
ATOM      7  O   UNL     1      17.845  -1.146 -15.379  1.00  0.00    -0.285 OA
ATOM      8  C   UNL     1      18.709  -1.770 -17.457  1.00  0.00     0.111 A 
ATOM      9  C   UNL     1      19.714  -2.711 -19.478  1.00  0.00     0.094 A 
ATOM     10  C   UNL     1      19.158  -0.478 -17.863  1.00  0.00     0.134 A 
ATOM     11  C   UNL     1      20.196  -1.456 -19.838  1.00  0.00     0.123 A 
ATOM     12  C   UNL     1      19.920  -0.350 -19.032  1.00  0.00     0.093 A 
BRANCH   3  13
ATOM     13  C   UNL     1      17.340  -5.740 -16.713  1.00  0.00     0.025 A 
ATOM     14  C   UNL     1      16.012  -6.065 -17.043  1.00  0.00     0.016 A 
ATOM     15  C   UNL     1      15.547  -7.373 -16.889  1.00  0.00     0.051 A 
ATOM     16  C   UNL     1      16.399  -8.375 -16.416  1.00  0.00     0.157 A 
ATOM     17  C   UNL     1      18.201  -6.753 -16.262  1.00  0.00     0.062 A 
ATOM     18  C   UNL     1      17.735  -8.066 -16.105  1.00  0.00     0.158 A 
BRANCH  16  19
ATOM     19  O   UNL     1      15.905  -9.670 -16.268  1.00  0.00    -0.504 OA
ATOM     20  H   UNL     1      16.141 -10.413 -16.914  1.00  0.00     0.293 HD
ENDBRANCH  16  19
BRANCH  18  21
ATOM     21  O   UNL     1      18.592  -9.063 -15.642  1.00  0.00    -0.504 OA
ATOM     22  H   UNL     1      19.600  -8.962 -15.689  1.00  0.00     0.293 HD
ENDBRANCH  18  21
ENDBRANCH   3  13
BRANCH  10  23
ATOM     23  O   UNL     1      18.867   0.704 -17.176  1.00  0.00    -0.507 OA
ATOM     24  H   UNL     1      19.152   0.905 -16.229  1.00  0.00     0.293 HD
ENDBRANCH  10  23
BRANCH  11  25
ATOM     25  O   UNL     1      20.941  -1.315 -21.007  1.00  0.00    -0.508 OA
ATOM     26  H   UNL     1      21.391  -0.439 -21.246  1.00  0.00     0.293 HD
ENDBRANCH  11  25
ENDBRANCH   1   2
BRANCH   1  27
ATOM     27  C   UNL     1      17.690  -3.371 -13.444  1.00  0.00     0.339 C 
ATOM     28  C   UNL     1      16.701  -2.846 -12.384  1.00  0.00     0.214 C 
ATOM     29  O   UNL     1      18.349  -4.545 -12.991  1.00  0.00    -0.332 OA
ATOM     30  C   UNL     1      15.701  -3.945 -11.964  1.00  0.00     0.180 C 
ATOM     31  C   UNL     1      17.429  -5.599 -12.755  1.00  0.00     0.179 C 
ATOM     32  C   UNL     1      16.461  -5.233 -11.608  1.00  0.00     0.177 C 
BRANCH  28  33
ATOM     33  O   UNL     1      16.029  -1.716 -12.876  1.00  0.00    -0.384 OA
ATOM     34  H   UNL     1      15.508  -1.340 -12.118  1.00  0.00     0.211 HD
ENDBRANCH  28  33
BRANCH  30  35
ATOM     35  O   UNL     1      14.792  -4.212 -13.002  1.00  0.00    -0.387 OA
ATOM     36  H   UNL     1      14.160  -4.896 -12.662  1.00  0.00     0.211 HD
ENDBRANCH  30  35
BRANCH  31  37
ATOM     37  C   UNL     1      18.209  -6.880 -12.425  1.00  0.00     0.191 C 
BRANCH  37  38
ATOM     38  O   UNL     1      19.536  -6.571 -12.095  1.00  0.00    -0.394 OA
ATOM     39  H   UNL     1      20.070  -6.692 -12.921  1.00  0.00     0.210 HD
ENDBRANCH  37  38
ENDBRANCH  31  37
BRANCH  32  40
ATOM     40  O   UNL     1      17.180  -5.049 -10.414  1.00  0.00    -0.387 OA
ATOM     41  H   UNL     1      16.758  -4.289  -9.938  1.00  0.00     0.211 HD
ENDBRANCH  32  40
ENDBRANCH   1  27
TORSDOF 12
ENDMDL
MODEL 6
REMARK VINA RESULT:    -5.995      2.447      6.386
REMARK INTER + INTRA:         -10.412
REMARK INTER:                  -8.395
REMARK INTRA:                  -2.017
REMARK UNBOUND:                -1.613
REMARK SMILES O=c1c(O[C@@H]2O[C@@H](CO)[C@@H](O)[C@H](O)[C@@H]2O)c(-c2ccc(O)c(O)c2)oc2cc(O)cc(O)c12
REMARK SMILES IDX 4 1 3 2 16 3 25 4 2 5 26 6 1 7 33 8 27 9 31 10 28 11 30 12
REMARK SMILES IDX 17 13 18 14 19 15 20 16 24 17 22 18 21 19 23 21 32 23 29 25
REMARK SMILES IDX 5 27 14 28 6 29 12 30 7 31 10 32 15 33 13 35 8 37 9 38 11 40
REMARK H PARENT 21 20 23 22 32 24 29 26 15 34 13 36 9 39 11 41
REMARK Flexibility Score: inf
ROOT
ATOM      1  O   UNL     1      17.465  -3.202 -11.945  1.00  0.00    -0.454 OA
ENDROOT
BRANCH   1   2
ATOM      2  C   UNL     1      17.114  -3.956 -13.073  1.00  0.00     0.214 A 
ATOM      3  C   UNL     1      16.714  -3.349 -14.280  1.00  0.00     0.180 A 
ATOM      4  O   UNL     1      16.273  -4.104 -15.281  1.00  0.00    -0.452 OA
ATOM      5  C   UNL     1      17.147  -5.353 -12.997  1.00  0.00     0.239 A 
ATOM      6  C   UNL     1      16.249  -5.431 -15.239  1.00  0.00     0.146 A 
ATOM      7  O   UNL     1      17.506  -5.882 -11.915  1.00  0.00    -0.285 OA
ATOM      8  C   UNL     1      16.737  -6.133 -14.106  1.00  0.00     0.111 A 
ATOM      9  C   UNL     1      15.735  -6.124 -16.337  1.00  0.00     0.094 A 
ATOM     10  C   UNL     1      16.739  -7.559 -14.138  1.00  0.00     0.134 A 
ATOM     11  C   UNL     1      15.690  -7.515 -16.336  1.00  0.00     0.123 A 
ATOM     12  C   UNL     1      16.187  -8.224 -15.241  1.00  0.00     0.093 A 
BRANCH   3  13
ATOM     13  C   UNL     1      16.777  -1.886 -14.491  1.00  0.00     0.025 A 
ATOM     14  C   UNL     1      15.634  -1.080 -14.338  1.00  0.00     0.016 A 
ATOM     15  C   UNL     1      15.716   0.302 -14.521  1.00  0.00     0.051 A 
ATOM     16  C   UNL     1      16.936   0.901 -14.848  1.00  0.00     0.157 A 
ATOM     17  C   UNL     1      18.006  -1.279 -14.795  1.00  0.00     0.062 A 
ATOM     18  C   UNL     1      18.089   0.108 -14.982  1.00  0.00     0.158 A 
BRANCH  16  19
ATOM     19  O   UNL     1      16.985   2.282 -15.030  1.00  0.00    -0.504 OA
ATOM     20  H   UNL     1      16.332   2.769 -15.631  1.00  0.00     0.293 HD
ENDBRANCH  16  19
BRANCH  18  21
ATOM     21  O   UNL     1      19.311   0.700 -15.298  1.00  0.00    -0.504 OA
ATOM     22  H   UNL     1      20.191   0.297 -14.997  1.00  0.00     0.293 HD
ENDBRANCH  18  21
ENDBRANCH   3  13
BRANCH  10  23
ATOM     23  O   UNL     1      17.287  -8.364 -13.134  1.00  0.00    -0.507 OA
ATOM     24  H   UNL     1      17.703  -9.270 -13.285  1.00  0.00     0.293 HD
ENDBRANCH  10  23
BRANCH  11  25
ATOM     25  O   UNL     1      15.157  -8.187 -17.435  1.00  0.00    -0.508 OA
ATOM     26  H   UNL     1      14.159  -8.331 -17.534  1.00  0.00     0.293 HD
ENDBRANCH  11  25
ENDBRANCH   1   2
BRANCH   1  27
ATOM     27  C   UNL     1      16.502  -2.664 -11.029  1.00  0.00     0.339 C 
ATOM     28  C   UNL     1      16.812  -3.082  -9.577  1.00  0.00     0.214 C 
ATOM     29  O   UNL     1      16.428  -1.252 -11.151  1.00  0.00    -0.332 OA
ATOM     30  C   UNL     1      18.091  -2.390  -9.061  1.00  0.00     0.180 C 
ATOM     31  C   UNL     1      17.663  -0.637 -10.819  1.00  0.00     0.179 C 
ATOM     32  C   UNL     1      18.013  -0.879  -9.334  1.00  0.00     0.177 C 
BRANCH  28  33
ATOM     33  O   UNL     1      16.927  -4.478  -9.495  1.00  0.00    -0.384 OA
ATOM     34  H   UNL     1      17.898  -4.682  -9.432  1.00  0.00     0.211 HD
ENDBRANCH  28  33
BRANCH  30  35
ATOM     35  O   UNL     1      19.231  -2.919  -9.690  1.00  0.00    -0.387 OA
ATOM     36  H   UNL     1      19.959  -2.256  -9.573  1.00  0.00     0.211 HD
ENDBRANCH  30  35
BRANCH  31  37
ATOM     37  C   UNL     1      17.572   0.865 -11.122  1.00  0.00     0.191 C 
BRANCH  37  38
ATOM     38  O   UNL     1      16.243   1.301 -11.030  1.00  0.00    -0.394 OA
ATOM     39  H   UNL     1      16.145   2.055 -11.667  1.00  0.00     0.210 HD
ENDBRANCH  37  38
ENDBRANCH  31  37
BRANCH  32  40
ATOM     40  O   UNL     1      17.037  -0.293  -8.510  1.00  0.00    -0.387 OA
ATOM     41  H   UNL     1      16.644  -1.023  -7.966  1.00  0.00     0.211 HD
ENDBRANCH  32  40
ENDBRANCH   1  27
TORSDOF 12
ENDMDL
MODEL 7
REMARK VINA RESULT:    -5.976      3.193      8.618
REMARK INTER + INTRA:         -10.383
REMARK INTER:                  -8.855
REMARK INTRA:                  -1.529
REMARK UNBOUND:                -1.613
REMARK SMILES O=c1c(O[C@@H]2O[C@@H](CO)[C@@H](O)[C@H](O)[C@@H]2O)c(-c2ccc(O)c(O)c2)oc2cc(O)cc(O)c12
REMARK SMILES IDX 4 1 3 2 16 3 25 4 2 5 26 6 1 7 33 8 27 9 31 10 28 11 30 12
REMARK SMILES IDX 17 13 18 14 19 15 20 16 24 17 22 18 21 19 23 21 32 23 29 25
REMARK SMILES IDX 5 27 14 28 6 29 12 30 7 31 10 32 15 33 13 35 8 37 9 38 11 40
REMARK H PARENT 21 20 23 22 32 24 29 26 15 34 13 36 9 39 11 41
REMARK Flexibility Score: inf
ROOT
ATOM      1  O   UNL     1      16.011  -6.005 -12.981  1.00  0.00    -0.454 OA
ENDROOT
BRANCH   1   2
ATOM      2  C   UNL     1      14.877  -6.033 -12.157  1.00  0.00     0.214 A 
ATOM      3  C   UNL     1      14.680  -5.088 -11.130  1.00  0.00     0.180 A 
ATOM      4  O   UNL     1      13.654  -5.228 -10.298  1.00  0.00    -0.452 OA
ATOM      5  C   UNL     1      13.919  -7.034 -12.349  1.00  0.00     0.239 A 
ATOM      6  C   UNL     1      12.741  -6.186 -10.418  1.00  0.00     0.146 A 
ATOM      7  O   UNL     1      14.107  -7.870 -13.269  1.00  0.00    -0.285 OA
ATOM      8  C   UNL     1      12.797  -7.115 -11.489  1.00  0.00     0.111 A 
ATOM      9  C   UNL     1      11.721  -6.258  -9.467  1.00  0.00     0.094 A 
ATOM     10  C   UNL     1      11.759  -8.088 -11.600  1.00  0.00     0.134 A 
ATOM     11  C   UNL     1      10.744  -7.245  -9.553  1.00  0.00     0.123 A 
ATOM     12  C   UNL     1      10.768  -8.154 -10.612  1.00  0.00     0.093 A 
BRANCH   3  13
ATOM     13  C   UNL     1      15.571  -3.922 -10.943  1.00  0.00     0.025 A 
ATOM     14  C   UNL     1      15.358  -2.724 -11.648  1.00  0.00     0.016 A 
ATOM     15  C   UNL     1      16.197  -1.627 -11.444  1.00  0.00     0.051 A 
ATOM     16  C   UNL     1      17.251  -1.703 -10.529  1.00  0.00     0.157 A 
ATOM     17  C   UNL     1      16.615  -3.989 -10.007  1.00  0.00     0.062 A 
ATOM     18  C   UNL     1      17.460  -2.888  -9.802  1.00  0.00     0.158 A 
BRANCH  16  19
ATOM     19  O   UNL     1      18.075  -0.593 -10.351  1.00  0.00    -0.504 OA
ATOM     20  H   UNL     1      19.083  -0.673 -10.301  1.00  0.00     0.293 HD
ENDBRANCH  16  19
BRANCH  18  21
ATOM     21  O   UNL     1      18.503  -2.968  -8.882  1.00  0.00    -0.504 OA
ATOM     22  H   UNL     1      19.346  -3.496  -9.077  1.00  0.00     0.293 HD
ENDBRANCH  18  21
ENDBRANCH   3  13
BRANCH  10  23
ATOM     23  O   UNL     1      11.642  -8.989 -12.663  1.00  0.00    -0.507 OA
ATOM     24  H   UNL     1      11.256  -8.766 -13.567  1.00  0.00     0.293 HD
ENDBRANCH  10  23
BRANCH  11  25
ATOM     25  O   UNL     1       9.745  -7.310  -8.584  1.00  0.00    -0.508 OA
ATOM     26  H   UNL     1       9.920  -7.707  -7.668  1.00  0.00     0.293 HD
ENDBRANCH  11  25
ENDBRANCH   1   2
BRANCH   1  27
ATOM     27  C   UNL     1      16.162  -5.094 -14.079  1.00  0.00     0.339 C 
ATOM     28  C   UNL     1      17.647  -4.784 -14.354  1.00  0.00     0.214 C 
ATOM     29  O   UNL     1      15.521  -5.599 -15.241  1.00  0.00    -0.332 OA
ATOM     30  C   UNL     1      18.376  -6.018 -14.925  1.00  0.00     0.180 C 
ATOM     31  C   UNL     1      16.106  -6.820 -15.667  1.00  0.00     0.179 C 
ATOM     32  C   UNL     1      17.573  -6.601 -16.099  1.00  0.00     0.177 C 
BRANCH  28  33
ATOM     33  O   UNL     1      18.267  -4.333 -13.178  1.00  0.00    -0.384 OA
ATOM     34  H   UNL     1      19.080  -4.890 -13.050  1.00  0.00     0.211 HD
ENDBRANCH  28  33
BRANCH  30  35
ATOM     35  O   UNL     1      18.536  -7.003 -13.936  1.00  0.00    -0.387 OA
ATOM     36  H   UNL     1      17.645  -7.148 -13.526  1.00  0.00     0.211 HD
ENDBRANCH  30  35
BRANCH  31  37
ATOM     37  C   UNL     1      15.275  -7.396 -16.822  1.00  0.00     0.191 C 
BRANCH  37  38
ATOM     38  O   UNL     1      14.801  -6.364 -17.644  1.00  0.00    -0.394 OA
ATOM     39  H   UNL     1      13.878  -6.161 -17.342  1.00  0.00     0.210 HD
ENDBRANCH  37  38
ENDBRANCH  31  37
BRANCH  32  40
ATOM     40  O   UNL     1      17.623  -5.724 -17.196  1.00  0.00    -0.387 OA
ATOM     41  H   UNL     1      18.486  -5.889 -17.658  1.00  0.00     0.211 HD
ENDBRANCH  32  40
ENDBRANCH   1  27
TORSDOF 12
ENDMDL
MODEL 8
REMARK VINA RESULT:    -5.877      3.125      7.094
REMARK INTER + INTRA:         -10.239
REMARK INTER:                  -8.881
REMARK INTRA:                  -1.358
REMARK UNBOUND:                -1.613
REMARK SMILES O=c1c(O[C@@H]2O[C@@H](CO)[C@@H](O)[C@H](O)[C@@H]2O)c(-c2ccc(O)c(O)c2)oc2cc(O)cc(O)c12
REMARK SMILES IDX 4 1 3 2 16 3 25 4 2 5 26 6 1 7 33 8 27 9 31 10 28 11 30 12
REMARK SMILES IDX 17 13 18 14 19 15 20 16 24 17 22 18 21 19 23 21 32 23 29 25
REMARK SMILES IDX 5 27 14 28 6 29 12 30 7 31 10 32 15 33 13 35 8 37 9 38 11 40
REMARK H PARENT 21 20 23 22 32 24 29 26 15 34 13 36 9 39 11 41
REMARK Flexibility Score: inf
ROOT
ATOM      1  O   UNL     1      15.613  -5.200 -12.918  1.00  0.00    -0.454 OA
ENDROOT
BRANCH   1   2
ATOM      2  C   UNL     1      14.718  -6.224 -12.576  1.00  0.00     0.214 A 
ATOM      3  C   UNL     1      14.628  -7.415 -13.322  1.00  0.00     0.180 A 
ATOM      4  O   UNL     1      13.682  -8.301 -13.033  1.00  0.00    -0.452 OA
ATOM      5  C   UNL     1      13.879  -6.054 -11.469  1.00  0.00     0.239 A 
ATOM      6  C   UNL     1      12.838  -8.164 -12.018  1.00  0.00     0.146 A 
ATOM      7  O   UNL     1      13.969  -4.987 -10.811  1.00  0.00    -0.285 OA
ATOM      8  C   UNL     1      12.926  -7.049 -11.143  1.00  0.00     0.111 A 
ATOM      9  C   UNL     1      11.861  -9.143 -11.825  1.00  0.00     0.094 A 
ATOM     10  C   UNL     1      12.030  -6.982 -10.035  1.00  0.00     0.134 A 
ATOM     11  C   UNL     1      10.955  -9.039 -10.773  1.00  0.00     0.123 A 
ATOM     12  C   UNL     1      11.040  -7.963  -9.888  1.00  0.00     0.093 A 
BRANCH   3  13
ATOM     13  C   UNL     1      15.564  -7.734 -14.423  1.00  0.00     0.025 A 
ATOM     14  C   UNL     1      16.810  -8.333 -14.166  1.00  0.00     0.016 A 
ATOM     15  C   UNL     1      17.673  -8.646 -15.218  1.00  0.00     0.051 A 
ATOM     16  C   UNL     1      17.304  -8.376 -16.540  1.00  0.00     0.157 A 
ATOM     17  C   UNL     1      15.185  -7.487 -15.752  1.00  0.00     0.062 A 
ATOM     18  C   UNL     1      16.052  -7.797 -16.810  1.00  0.00     0.158 A 
BRANCH  16  19
ATOM     19  O   UNL     1      18.189  -8.694 -17.568  1.00  0.00    -0.504 OA
ATOM     20  H   UNL     1      18.984  -9.304 -17.426  1.00  0.00     0.293 HD
ENDBRANCH  16  19
BRANCH  18  21
ATOM     21  O   UNL     1      15.673  -7.535 -18.125  1.00  0.00    -0.504 OA
ATOM     22  H   UNL     1      16.012  -8.096 -18.899  1.00  0.00     0.293 HD
ENDBRANCH  18  21
ENDBRANCH   3  13
BRANCH  10  23
ATOM     23  O   UNL     1      12.082  -5.995  -9.045  1.00  0.00    -0.507 OA
ATOM     24  H   UNL     1      11.493  -5.177  -9.016  1.00  0.00     0.293 HD
ENDBRANCH  10  23
BRANCH  11  25
ATOM     25  O   UNL     1       9.977 -10.018 -10.608  1.00  0.00    -0.508 OA
ATOM     26  H   UNL     1       9.175  -9.870 -10.006  1.00  0.00     0.293 HD
ENDBRANCH  11  25
ENDBRANCH   1   2
BRANCH   1  27
ATOM     27  C   UNL     1      17.006  -5.230 -12.578  1.00  0.00     0.339 C 
ATOM     28  C   UNL     1      17.850  -4.432 -13.592  1.00  0.00     0.214 C 
ATOM     29  O   UNL     1      17.209  -4.754 -11.256  1.00  0.00    -0.332 OA
ATOM     30  C   UNL     1      17.576  -2.917 -13.474  1.00  0.00     0.180 C 
ATOM     31  C   UNL     1      16.807  -3.400 -11.124  1.00  0.00     0.179 C 
ATOM     32  C   UNL     1      17.683  -2.481 -12.003  1.00  0.00     0.177 C 
BRANCH  28  33
ATOM     33  O   UNL     1      17.593  -4.890 -14.894  1.00  0.00    -0.384 OA
ATOM     34  H   UNL     1      17.638  -5.882 -14.862  1.00  0.00     0.211 HD
ENDBRANCH  28  33
BRANCH  30  35
ATOM     35  O   UNL     1      16.294  -2.605 -13.960  1.00  0.00    -0.387 OA
ATOM     36  H   UNL     1      16.137  -3.184 -14.749  1.00  0.00     0.211 HD
ENDBRANCH  30  35
BRANCH  31  37
ATOM     37  C   UNL     1      16.898  -2.993  -9.646  1.00  0.00     0.191 C 
BRANCH  37  38
ATOM     38  O   UNL     1      17.200  -4.107  -8.851  1.00  0.00    -0.394 OA
ATOM     39  H   UNL     1      17.091  -3.822  -7.908  1.00  0.00     0.210 HD
ENDBRANCH  37  38
ENDBRANCH  31  37
BRANCH  32  40
ATOM     40  O   UNL     1      19.022  -2.548 -11.581  1.00  0.00    -0.387 OA
ATOM     41  H   UNL     1      19.069  -3.251 -10.883  1.00  0.00     0.211 HD
ENDBRANCH  32  40
ENDBRANCH   1  27
TORSDOF 12
ENDMDL
MODEL 9
REMARK VINA RESULT:    -5.866      2.646      3.986
REMARK INTER + INTRA:         -10.223
REMARK INTER:                  -8.525
REMARK INTRA:                  -1.698
REMARK UNBOUND:                -1.613
REMARK SMILES O=c1c(O[C@@H]2O[C@@H](CO)[C@@H](O)[C@H](O)[C@@H]2O)c(-c2ccc(O)c(O)c2)oc2cc(O)cc(O)c12
REMARK SMILES IDX 4 1 3 2 16 3 25 4 2 5 26 6 1 7 33 8 27 9 31 10 28 11 30 12
REMARK SMILES IDX 17 13 18 14 19 15 20 16 24 17 22 18 21 19 23 21 32 23 29 25
REMARK SMILES IDX 5 27 14 28 6 29 12 30 7 31 10 32 15 33 13 35 8 37 9 38 11 40
REMARK H PARENT 21 20 23 22 32 24 29 26 15 34 13 36 9 39 11 41
REMARK Flexibility Score: inf
ROOT
ATOM      1  O   UNL     1      16.817  -0.856 -12.794  1.00  0.00    -0.454 OA
ENDROOT
BRANCH   1   2
ATOM      2  C   UNL     1      17.074  -1.579 -13.967  1.00  0.00     0.214 A 
ATOM      3  C   UNL     1      16.663  -2.917 -14.121  1.00  0.00     0.180 A 
ATOM      4  O   UNL     1      17.035  -3.598 -15.200  1.00  0.00    -0.452 OA
ATOM      5  C   UNL     1      17.769  -0.960 -15.011  1.00  0.00     0.239 A 
ATOM      6  C   UNL     1      17.730  -3.064 -16.197  1.00  0.00     0.146 A 
ATOM      7  O   UNL     1      18.130   0.235 -14.861  1.00  0.00    -0.285 OA
ATOM      8  C   UNL     1      18.092  -1.692 -16.179  1.00  0.00     0.111 A 
ATOM      9  C   UNL     1      18.095  -3.881 -17.269  1.00  0.00     0.094 A 
ATOM     10  C   UNL     1      18.789  -1.158 -17.304  1.00  0.00     0.134 A 
ATOM     11  C   UNL     1      18.824  -3.364 -18.336  1.00  0.00     0.123 A 
ATOM     12  C   UNL     1      19.169  -2.011 -18.348  1.00  0.00     0.093 A 
BRANCH   3  13
ATOM     13  C   UNL     1      15.810  -3.606 -13.127  1.00  0.00     0.025 A 
ATOM     14  C   UNL     1      16.335  -4.607 -12.290  1.00  0.00     0.016 A 
ATOM     15  C   UNL     1      15.521  -5.233 -11.343  1.00  0.00     0.051 A 
ATOM     16  C   UNL     1      14.179  -4.862 -11.209  1.00  0.00     0.157 A 
ATOM     17  C   UNL     1      14.470  -3.218 -12.973  1.00  0.00     0.062 A 
ATOM     18  C   UNL     1      13.651  -3.847 -12.024  1.00  0.00     0.158 A 
BRANCH  16  19
ATOM     19  O   UNL     1      13.391  -5.508 -10.258  1.00  0.00    -0.504 OA
ATOM     20  H   UNL     1      12.568  -5.075  -9.858  1.00  0.00     0.293 HD
ENDBRANCH  16  19
BRANCH  18  21
ATOM     21  O   UNL     1      12.317  -3.466 -11.889  1.00  0.00    -0.504 OA
ATOM     22  H   UNL     1      11.566  -3.994 -12.320  1.00  0.00     0.293 HD
ENDBRANCH  18  21
ENDBRANCH   3  13
BRANCH  10  23
ATOM     23  O   UNL     1      19.109   0.195 -17.456  1.00  0.00    -0.507 OA
ATOM     24  H   UNL     1      18.447   0.923 -17.676  1.00  0.00     0.293 HD
ENDBRANCH  10  23
BRANCH  11  25
ATOM     25  O   UNL     1      19.193  -4.201 -19.387  1.00  0.00    -0.508 OA
ATOM     26  H   UNL     1      19.545  -5.136 -19.220  1.00  0.00     0.293 HD
ENDBRANCH  11  25
ENDBRANCH   1   2
BRANCH   1  27
ATOM     27  C   UNL     1      17.838  -0.501 -11.851  1.00  0.00     0.339 C 
ATOM     28  C   UNL     1      17.581   0.890 -11.238  1.00  0.00     0.214 C 
ATOM     29  O   UNL     1      17.953  -1.492 -10.841  1.00  0.00    -0.332 OA
ATOM     30  C   UNL     1      16.350   0.868 -10.307  1.00  0.00     0.180 C 
ATOM     31  C   UNL     1      16.755  -1.609 -10.089  1.00  0.00     0.179 C 
ATOM     32  C   UNL     1      16.465  -0.302  -9.317  1.00  0.00     0.177 C 
BRANCH  28  33
ATOM     33  O   UNL     1      17.423   1.841 -12.259  1.00  0.00    -0.384 OA
ATOM     34  H   UNL     1      17.320   1.335 -13.108  1.00  0.00     0.211 HD
ENDBRANCH  28  33
BRANCH  30  35
ATOM     35  O   UNL     1      15.166   0.733 -11.052  1.00  0.00    -0.387 OA
ATOM     36  H   UNL     1      14.418   0.998 -10.457  1.00  0.00     0.211 HD
ENDBRANCH  30  35
BRANCH  31  37
ATOM     37  C   UNL     1      16.883  -2.797  -9.125  1.00  0.00     0.191 C 
BRANCH  37  38
ATOM     38  O   UNL     1      18.228  -3.015  -8.796  1.00  0.00    -0.394 OA
ATOM     39  H   UNL     1      18.759  -2.785  -9.601  1.00  0.00     0.210 HD
ENDBRANCH  37  38
ENDBRANCH  31  37
BRANCH  32  40
ATOM     40  O   UNL     1      17.497  -0.050  -8.396  1.00  0.00    -0.387 OA
ATOM     41  H   UNL     1      17.178  -0.367  -7.512  1.00  0.00     0.211 HD
ENDBRANCH  32  40
ENDBRANCH   1  27
TORSDOF 12
ENDMDL
