MODEL 1
REMARK VINA RESULT:    -5.366      0.000      0.000
REMARK INTER + INTRA:          -9.189
REMARK INTER:                  -8.189
REMARK INTRA:                  -1.000
REMARK UNBOUND:                -1.000
REMARK SMILES CCCCCCCCCCC(=O)[O-]
REMARK SMILES IDX 7 1 8 2 9 3 10 4 11 5 12 6 13 7 6 8 5 9 4 10 3 11 2 12 1 13
REMARK H PARENT
REMARK Flexibility Score: inf
ROOT
ATOM      1  C   UNL     1       6.411  13.436   1.032  1.00  0.00     0.000 C 
ENDROOT
BRANCH   1   2
ATOM      2  C   UNL     1       5.060  13.796   0.390  1.00  0.00     0.000 C 
BRANCH   2   3
ATOM      3  C   UNL     1       3.864  13.332   1.236  1.00  0.00     0.006 C 
BRANCH   3   4
ATOM      4  C   UNL     1       2.553  14.016   0.828  1.00  0.00     0.053 C 
BRANCH   4   5
ATOM      5  C   UNL     1       1.639  14.141   2.006  1.00  0.00     0.041 C 
ATOM      6  O   UNL     1       1.942  14.899   2.965  1.00  0.00    -0.550 OA
ATOM      7  O   UNL     1       0.430  13.459   2.022  1.00  0.00    -0.550 OA
ENDBRANCH   4   5
ENDBRANCH   3   4
ENDBRANCH   2   3
ENDBRANCH   1   2
BRANCH   1   8
ATOM      8  C   UNL     1       7.504  14.480   0.743  1.00  0.00     0.000 C 
BRANCH   8   9
ATOM      9  C   UNL     1       8.618  14.564   1.806  1.00  0.00    -0.000 C 
BRANCH   9  10
ATOM     10  C   UNL     1       8.128  14.618   3.267  1.00  0.00    -0.000 C 
BRANCH  10  11
ATOM     11  C   UNL     1       7.475  15.947   3.684  1.00  0.00    -0.000 C 
BRANCH  11  12
ATOM     12  C   UNL     1       5.978  15.803   3.994  1.00  0.00    -0.003 C 
ATOM     13  C   UNL     1       5.126  16.451   2.905  1.00  0.00     0.004 C 
ENDBRANCH  11  12
ENDBRANCH  10  11
ENDBRANCH   9  10
ENDBRANCH   8   9
ENDBRANCH   1   8
TORSDOF 9
ENDMDL
MODEL 2
REMARK VINA RESULT:    -5.363      1.023      1.704
REMARK INTER + INTRA:          -9.185
REMARK INTER:                  -8.364
REMARK INTRA:                  -0.821
REMARK UNBOUND:                -1.000
REMARK SMILES CCCCCCCCCCC(=O)[O-]
REMARK SMILES IDX 7 1 8 2 9 3 10 4 11 5 12 6 13 7 6 8 5 9 4 10 3 11 2 12 1 13
REMARK H PARENT
REMARK Flexibility Score: inf
ROOT
ATOM      1  C   UNL     1       4.824  13.655   0.758  1.00  0.00     0.000 C 
ENDROOT
BRANCH   1   2
ATOM      2  C   UNL     1       3.917  13.216   1.920  1.00  0.00     0.000 C 
BRANCH   2   3
ATOM      3  C   UNL     1       2.768  14.205   2.177  1.00  0.00     0.006 C 
BRANCH   3   4
ATOM      4  C   UNL     1       1.539  13.918   1.307  1.00  0.00     0.053 C 
BRANCH   4   5
ATOM      5  C   UNL     1       0.290  13.977   2.130  1.00  0.00     0.041 C 
ATOM      6  O   UNL     1      -0.722  13.306   1.794  1.00  0.00    -0.550 OA
ATOM      7  O   UNL     1       0.261  14.733   3.294  1.00  0.00    -0.550 OA
ENDBRANCH   4   5
ENDBRANCH   3   4
ENDBRANCH   2   3
ENDBRANCH   1   2
BRANCH   1   8
ATOM      8  C   UNL     1       6.318  13.429   1.051  1.00  0.00     0.000 C 
BRANCH   8   9
ATOM      9  C   UNL     1       7.082  14.682   1.526  1.00  0.00    -0.000 C 
BRANCH   9  10
ATOM     10  C   UNL     1       7.454  14.694   3.023  1.00  0.00    -0.000 C 
BRANCH  10  11
ATOM     11  C   UNL     1       6.944  15.914   3.809  1.00  0.00    -0.000 C 
BRANCH  11  12
ATOM     12  C   UNL     1       5.444  16.172   3.600  1.00  0.00    -0.003 C 
ATOM     13  C   UNL     1       4.679  16.060   4.916  1.00  0.00     0.004 C 
ENDBRANCH  11  12
ENDBRANCH  10  11
ENDBRANCH   9  10
ENDBRANCH   8   9
ENDBRANCH   1   8
TORSDOF 9
ENDMDL
MODEL 3
REMARK VINA RESULT:    -5.306      1.613      3.724
REMARK INTER + INTRA:          -9.097
REMARK INTER:                  -7.995
REMARK INTRA:                  -1.102
REMARK UNBOUND:                -1.000
REMARK SMILES CCCCCCCCCCC(=O)[O-]
REMARK SMILES IDX 7 1 8 2 9 3 10 4 11 5 12 6 13 7 6 8 5 9 4 10 3 11 2 12 1 13
REMARK H PARENT
REMARK Flexibility Score: inf
ROOT
ATOM      1  C   UNL     1       7.761  14.539   3.110  1.00  0.00     0.000 C 
ENDROOT
BRANCH   1   2
ATOM      2  C   UNL     1       7.336  15.900   3.689  1.00  0.00     0.000 C 
BRANCH   2   3
ATOM      3  C   UNL     1       5.831  16.165   3.528  1.00  0.00     0.006 C 
BRANCH   3   4
ATOM      4  C   UNL     1       4.969  15.053   4.137  1.00  0.00     0.053 C 
BRANCH   4   5
ATOM      5  C   UNL     1       3.953  15.631   5.071  1.00  0.00     0.041 C 
ATOM      6  O   UNL     1       4.256  16.601   5.815  1.00  0.00    -0.550 OA
ATOM      7  O   UNL     1       2.657  15.132   5.083  1.00  0.00    -0.550 OA
ENDBRANCH   4   5
ENDBRANCH   3   4
ENDBRANCH   2   3
ENDBRANCH   1   2
BRANCH   1   8
ATOM      8  C   UNL     1       8.255  14.638   1.656  1.00  0.00     0.000 C 
BRANCH   8   9
ATOM      9  C   UNL     1       7.520  13.721   0.658  1.00  0.00    -0.000 C 
BRANCH   9  10
ATOM     10  C   UNL     1       6.034  14.061   0.428  1.00  0.00    -0.000 C 
BRANCH  10  11
ATOM     11  C   UNL     1       5.037  13.079   1.068  1.00  0.00    -0.000 C 
BRANCH  11  12
ATOM     12  C   UNL     1       3.592  13.600   1.046  1.00  0.00    -0.003 C 
ATOM     13  C   UNL     1       3.547  15.082   0.683  1.00  0.00     0.004 C 
ENDBRANCH  11  12
ENDBRANCH  10  11
ENDBRANCH   9  10
ENDBRANCH   8   9
ENDBRANCH   1   8
TORSDOF 9
ENDMDL
MODEL 4
REMARK VINA RESULT:    -5.273      2.069      4.370
REMARK INTER + INTRA:          -9.048
REMARK INTER:                  -8.202
REMARK INTRA:                  -0.846
REMARK UNBOUND:                -1.000
REMARK SMILES CCCCCCCCCCC(=O)[O-]
REMARK SMILES IDX 7 1 8 2 9 3 10 4 11 5 12 6 13 7 6 8 5 9 4 10 3 11 2 12 1 13
REMARK H PARENT
REMARK Flexibility Score: inf
ROOT
ATOM      1  C   UNL     1       8.299  14.182   0.784  1.00  0.00     0.000 C 
ENDROOT
BRANCH   1   2
ATOM      2  C   UNL     1       8.903  14.657   2.118  1.00  0.00     0.000 C 
BRANCH   2   3
ATOM      3  C   UNL     1       7.897  14.586   3.278  1.00  0.00     0.006 C 
BRANCH   3   4
ATOM      4  C   UNL     1       7.446  15.973   3.752  1.00  0.00     0.053 C 
BRANCH   4   5
ATOM      5  C   UNL     1       5.955  16.083   3.705  1.00  0.00     0.041 C 
ATOM      6  O   UNL     1       5.256  15.627   4.648  1.00  0.00    -0.550 OA
ATOM      7  O   UNL     1       5.340  16.732   2.642  1.00  0.00    -0.550 OA
ENDBRANCH   4   5
ENDBRANCH   3   4
ENDBRANCH   2   3
ENDBRANCH   1   2
BRANCH   1   8
ATOM      8  C   UNL     1       6.964  13.438   0.967  1.00  0.00     0.000 C 
BRANCH   8   9
ATOM      9  C   UNL     1       5.739  14.144   0.352  1.00  0.00    -0.000 C 
BRANCH   9  10
ATOM     10  C   UNL     1       4.388  13.443   0.595  1.00  0.00    -0.000 C 
BRANCH  10  11
ATOM     11  C   UNL     1       3.910  13.443   2.057  1.00  0.00    -0.000 C 
BRANCH  11  12
ATOM     12  C   UNL     1       2.770  14.440   2.311  1.00  0.00    -0.003 C 
ATOM     13  C   UNL     1       1.450  13.919   1.748  1.00  0.00     0.004 C 
ENDBRANCH  11  12
ENDBRANCH  10  11
ENDBRANCH   9  10
ENDBRANCH   8   9
ENDBRANCH   1   8
TORSDOF 9
ENDMDL
MODEL 5
REMARK VINA RESULT:    -5.249      0.708      1.520
REMARK INTER + INTRA:          -9.011
REMARK INTER:                  -8.125
REMARK INTRA:                  -0.886
REMARK UNBOUND:                -1.000
REMARK SMILES CCCCCCCCCCC(=O)[O-]
REMARK SMILES IDX 7 1 8 2 9 3 10 4 11 5 12 6 13 7 6 8 5 9 4 10 3 11 2 12 1 13
REMARK H PARENT
REMARK Flexibility Score: inf
ROOT
ATOM      1  C   UNL     1       5.747  14.989   0.144  1.00  0.00     0.000 C 
ENDROOT
BRANCH   1   2
ATOM      2  C   UNL     1       4.323  15.253   0.663  1.00  0.00     0.000 C 
BRANCH   2   3
ATOM      3  C   UNL     1       3.661  13.989   1.235  1.00  0.00     0.006 C 
BRANCH   3   4
ATOM      4  C   UNL     1       2.190  13.855   0.821  1.00  0.00     0.053 C 
BRANCH   4   5
ATOM      5  C   UNL     1       1.293  14.117   1.989  1.00  0.00     0.041 C 
ATOM      6  O   UNL     1       0.132  13.630   2.018  1.00  0.00    -0.550 OA
ATOM      7  O   UNL     1       1.756  14.857   3.069  1.00  0.00    -0.550 OA
ENDBRANCH   4   5
ENDBRANCH   3   4
ENDBRANCH   2   3
ENDBRANCH   1   2
BRANCH   1   8
ATOM      8  C   UNL     1       6.445  13.834   0.883  1.00  0.00     0.000 C 
BRANCH   8   9
ATOM      9  C   UNL     1       7.985  13.844   0.795  1.00  0.00    -0.000 C 
BRANCH   9  10
ATOM     10  C   UNL     1       8.702  14.578   1.946  1.00  0.00    -0.000 C 
BRANCH  10  11
ATOM     11  C   UNL     1       7.954  14.564   3.291  1.00  0.00    -0.000 C 
BRANCH  11  12
ATOM     12  C   UNL     1       7.443  15.953   3.702  1.00  0.00    -0.003 C 
ATOM     13  C   UNL     1       5.948  15.920   4.007  1.00  0.00     0.004 C 
ENDBRANCH  11  12
ENDBRANCH  10  11
ENDBRANCH   9  10
ENDBRANCH   8   9
ENDBRANCH   1   8
TORSDOF 9
ENDMDL
MODEL 6
REMARK VINA RESULT:    -5.205      2.359      3.923
REMARK INTER + INTRA:          -8.944
REMARK INTER:                  -8.247
REMARK INTRA:                  -0.697
REMARK UNBOUND:                -1.000
REMARK SMILES CCCCCCCCCCC(=O)[O-]
REMARK SMILES IDX 7 1 8 2 9 3 10 4 11 5 12 6 13 7 6 8 5 9 4 10 3 11 2 12 1 13
REMARK H PARENT
REMARK Flexibility Score: inf
ROOT
ATOM      1  C   UNL     1       4.438  13.174   1.537  1.00  0.00     0.000 C 
ENDROOT
BRANCH   1   2
ATOM      2  C   UNL     1       3.107  13.908   1.777  1.00  0.00     0.000 C 
BRANCH   2   3
ATOM      3  C   UNL     1       3.168  14.858   2.984  1.00  0.00     0.006 C 
BRANCH   3   4
ATOM      4  C   UNL     1       4.320  14.523   3.939  1.00  0.00     0.053 C 
BRANCH   4   5
ATOM      5  C   UNL     1       4.901  15.776   4.516  1.00  0.00     0.041 C 
ATOM      6  O   UNL     1       4.264  16.429   5.383  1.00  0.00    -0.550 OA
ATOM      7  O   UNL     1       6.169  16.194   4.131  1.00  0.00    -0.550 OA
ENDBRANCH   4   5
ENDBRANCH   3   4
ENDBRANCH   2   3
ENDBRANCH   1   2
BRANCH   1   8
ATOM      8  C   UNL     1       5.181  13.682   0.289  1.00  0.00     0.000 C 
BRANCH   8   9
ATOM      9  C   UNL     1       6.309  14.695   0.574  1.00  0.00    -0.000 C 
BRANCH   9  10
ATOM     10  C   UNL     1       7.504  14.136   1.372  1.00  0.00    -0.000 C 
BRANCH  10  11
ATOM     11  C   UNL     1       8.648  13.567   0.515  1.00  0.00    -0.000 C 
BRANCH  11  12
ATOM     12  C   UNL     1      10.037  13.885   1.089  1.00  0.00    -0.003 C 
ATOM     13  C   UNL     1      10.242  15.392   1.227  1.00  0.00     0.004 C 
ENDBRANCH  11  12
ENDBRANCH  10  11
ENDBRANCH   9  10
ENDBRANCH   8   9
ENDBRANCH   1   8
TORSDOF 9
ENDMDL
MODEL 7
REMARK VINA RESULT:    -5.200      3.423      5.833
REMARK INTER + INTRA:          -8.936
REMARK INTER:                  -7.864
REMARK INTRA:                  -1.073
REMARK UNBOUND:                -1.000
REMARK SMILES CCCCCCCCCCC(=O)[O-]
REMARK SMILES IDX 7 1 8 2 9 3 10 4 11 5 12 6 13 7 6 8 5 9 4 10 3 11 2 12 1 13
REMARK H PARENT
REMARK Flexibility Score: inf
ROOT
ATOM      1  C   UNL     1       5.903  16.114   3.465  1.00  0.00     0.000 C 
ENDROOT
BRANCH   1   2
ATOM      2  C   UNL     1       7.351  15.739   3.829  1.00  0.00     0.000 C 
BRANCH   2   3
ATOM      3  C   UNL     1       7.915  14.627   2.932  1.00  0.00     0.006 C 
BRANCH   3   4
ATOM      4  C   UNL     1       9.123  15.089   2.108  1.00  0.00     0.053 C 
BRANCH   4   5
ATOM      5  C   UNL     1       9.628  13.973   1.249  1.00  0.00     0.041 C 
ATOM      6  O   UNL     1      10.783  13.504   1.434  1.00  0.00    -0.550 OA
ATOM      7  O   UNL     1       8.806  13.418   0.278  1.00  0.00    -0.550 OA
ENDBRANCH   4   5
ENDBRANCH   3   4
ENDBRANCH   2   3
ENDBRANCH   1   2
BRANCH   1   8
ATOM      8  C   UNL     1       4.870  15.140   4.056  1.00  0.00     0.000 C 
BRANCH   8   9
ATOM      9  C   UNL     1       3.486  15.169   3.375  1.00  0.00    -0.000 C 
BRANCH   9  10
ATOM     10  C   UNL     1       3.375  14.337   2.081  1.00  0.00    -0.000 C 
BRANCH  10  11
ATOM     11  C   UNL     1       4.264  13.083   2.038  1.00  0.00    -0.000 C 
BRANCH  11  12
ATOM     12  C   UNL     1       5.290  13.119   0.896  1.00  0.00    -0.003 C 
ATOM     13  C   UNL     1       5.315  14.489   0.223  1.00  0.00     0.004 C 
ENDBRANCH  11  12
ENDBRANCH  10  11
ENDBRANCH   9  10
ENDBRANCH   8   9
ENDBRANCH   1   8
TORSDOF 9
ENDMDL
MODEL 8
REMARK VINA RESULT:    -5.185      3.787      5.570
REMARK INTER + INTRA:          -8.914
REMARK INTER:                  -8.114
REMARK INTRA:                  -0.800
REMARK UNBOUND:                -1.000
REMARK SMILES CCCCCCCCCCC(=O)[O-]
REMARK SMILES IDX 7 1 8 2 9 3 10 4 11 5 12 6 13 7 6 8 5 9 4 10 3 11 2 12 1 13
REMARK H PARENT
REMARK Flexibility Score: inf
ROOT
ATOM      1  C   UNL     1       5.373  13.336   0.525  1.00  0.00     0.000 C 
ENDROOT
BRANCH   1   2
ATOM      2  C   UNL     1       6.355  14.516   0.635  1.00  0.00     0.000 C 
BRANCH   2   3
ATOM      3  C   UNL     1       7.602  14.169   1.464  1.00  0.00     0.006 C 
BRANCH   3   4
ATOM      4  C   UNL     1       8.805  13.795   0.591  1.00  0.00     0.053 C 
BRANCH   4   5
ATOM      5  C   UNL     1      10.072  14.312   1.196  1.00  0.00     0.041 C 
ATOM      6  O   UNL     1      11.074  13.558   1.311  1.00  0.00    -0.550 OA
ATOM      7  O   UNL     1      10.162  15.641   1.587  1.00  0.00    -0.550 OA
ENDBRANCH   4   5
ENDBRANCH   3   4
ENDBRANCH   2   3
ENDBRANCH   1   2
BRANCH   1   8
ATOM      8  C   UNL     1       4.535  13.139   1.801  1.00  0.00     0.000 C 
BRANCH   8   9
ATOM      9  C   UNL     1       3.201  13.913   1.826  1.00  0.00    -0.000 C 
BRANCH   9  10
ATOM     10  C   UNL     1       3.111  15.028   2.887  1.00  0.00    -0.000 C 
BRANCH  10  11
ATOM     11  C   UNL     1       3.856  14.736   4.201  1.00  0.00    -0.000 C 
BRANCH  11  12
ATOM     12  C   UNL     1       4.630  15.952   4.729  1.00  0.00    -0.003 C 
ATOM     13  C   UNL     1       5.999  16.064   4.063  1.00  0.00     0.004 C 
ENDBRANCH  11  12
ENDBRANCH  10  11
ENDBRANCH   9  10
ENDBRANCH   8   9
ENDBRANCH   1   8
TORSDOF 9
ENDMDL
MODEL 9
REMARK VINA RESULT:    -5.095      2.623      5.240
REMARK INTER + INTRA:          -8.775
REMARK INTER:                  -8.133
REMARK INTRA:                  -0.642
REMARK UNBOUND:                -1.000
REMARK SMILES CCCCCCCCCCC(=O)[O-]
REMARK SMILES IDX 7 1 8 2 9 3 10 4 11 5 12 6 13 7 6 8 5 9 4 10 3 11 2 12 1 13
REMARK H PARENT
REMARK Flexibility Score: inf
ROOT
ATOM      1  C   UNL     1       6.278  14.314   0.678  1.00  0.00     0.000 C 
ENDROOT
BRANCH   1   2
ATOM      2  C   UNL     1       7.769  13.952   0.550  1.00  0.00     0.000 C 
BRANCH   2   3
ATOM      3  C   UNL     1       8.619  14.548   1.683  1.00  0.00     0.006 C 
BRANCH   3   4
ATOM      4  C   UNL     1       7.929  14.454   3.050  1.00  0.00     0.053 C 
BRANCH   4   5
ATOM      5  C   UNL     1       7.781  15.814   3.656  1.00  0.00     0.041 C 
ATOM      6  O   UNL     1       6.651  16.215   4.042  1.00  0.00    -0.550 OA
ATOM      7  O   UNL     1       8.898  16.617   3.841  1.00  0.00    -0.550 OA
ENDBRANCH   4   5
ENDBRANCH   3   4
ENDBRANCH   2   3
ENDBRANCH   1   2
BRANCH   1   8
ATOM      8  C   UNL     1       5.374  13.076   0.810  1.00  0.00     0.000 C 
BRANCH   8   9
ATOM      9  C   UNL     1       4.317  13.161   1.929  1.00  0.00    -0.000 C 
BRANCH   9  10
ATOM     10  C   UNL     1       3.862  14.589   2.292  1.00  0.00    -0.000 C 
BRANCH  10  11
ATOM     11  C   UNL     1       2.374  14.722   2.662  1.00  0.00    -0.000 C 
BRANCH  11  12
ATOM     12  C   UNL     1       1.451  13.963   1.698  1.00  0.00    -0.003 C 
ATOM     13  C   UNL     1       0.048  13.817   2.281  1.00  0.00     0.004 C 
ENDBRANCH  11  12
ENDBRANCH  10  11
ENDBRANCH   9  10
ENDBRANCH   8   9
ENDBRANCH   1   8
TORSDOF 9
ENDMDL
