MODEL 1
REMARK VINA RESULT:    -5.044      0.000      0.000
REMARK INTER + INTRA:         -10.303
REMARK INTER:                  -9.172
REMARK INTRA:                  -1.131
REMARK UNBOUND:                -1.131
REMARK SMILES CCCCCCCCCCCCCCCC(=O)[O-]
REMARK SMILES IDX 9 1 10 2 11 3 12 4 13 5 14 6 15 7 16 8 17 9 18 10 8 11 7 12
REMARK SMILES IDX 6 13 5 14 4 15 3 16 2 17 1 18
REMARK H PARENT
REMARK Flexibility Score: inf
ROOT
ATOM      1  C   UNL     1      -7.738  -5.703  -7.332  1.00  0.00     0.000 C 
ENDROOT
BRANCH   1   2
ATOM      2  C   UNL     1      -9.203  -5.340  -7.633  1.00  0.00     0.000 C 
BRANCH   2   3
ATOM      3  C   UNL     1     -10.077  -5.319  -6.369  1.00  0.00     0.000 C 
BRANCH   3   4
ATOM      4  C   UNL     1     -10.841  -3.994  -6.200  1.00  0.00     0.000 C 
BRANCH   4   5
ATOM      5  C   UNL     1     -10.563  -3.334  -4.832  1.00  0.00     0.000 C 
BRANCH   5   6
ATOM      6  C   UNL     1     -10.526  -4.332  -3.663  1.00  0.00     0.006 C 
BRANCH   6   7
ATOM      7  C   UNL     1     -10.592  -3.649  -2.293  1.00  0.00     0.053 C 
BRANCH   7   8
ATOM      8  C   UNL     1      -9.215  -3.340  -1.796  1.00  0.00     0.041 C 
ATOM      9  O   UNL     1      -8.436  -4.273  -1.467  1.00  0.00    -0.550 OA
ATOM     10  O   UNL     1      -8.775  -2.023  -1.744  1.00  0.00    -0.550 OA
ENDBRANCH   7   8
ENDBRANCH   6   7
ENDBRANCH   5   6
ENDBRANCH   4   5
ENDBRANCH   3   4
ENDBRANCH   2   3
ENDBRANCH   1   2
BRANCH   1  11
ATOM     11  C   UNL     1      -7.358  -5.451  -5.866  1.00  0.00     0.000 C 
BRANCH  11  12
ATOM     12  C   UNL     1      -6.676  -6.667  -5.216  1.00  0.00    -0.000 C 
BRANCH  12  13
ATOM     13  C   UNL     1      -5.349  -7.041  -5.898  1.00  0.00    -0.000 C 
BRANCH  13  14
ATOM     14  C   UNL     1      -4.466  -5.845  -6.310  1.00  0.00    -0.000 C 
BRANCH  14  15
ATOM     15  C   UNL     1      -3.139  -5.713  -5.540  1.00  0.00    -0.000 C 
BRANCH  15  16
ATOM     16  C   UNL     1      -2.618  -4.267  -5.494  1.00  0.00    -0.000 C 
BRANCH  16  17
ATOM     17  C   UNL     1      -3.704  -3.239  -5.846  1.00  0.00    -0.003 C 
ATOM     18  C   UNL     1      -3.158  -1.816  -5.973  1.00  0.00     0.004 C 
ENDBRANCH  16  17
ENDBRANCH  15  16
ENDBRANCH  14  15
ENDBRANCH  13  14
ENDBRANCH  12  13
ENDBRANCH  11  12
ENDBRANCH   1  11
TORSDOF 14
ENDMDL
MODEL 2
REMARK VINA RESULT:    -4.819      1.277      2.273
REMARK INTER + INTRA:          -9.895
REMARK INTER:                  -8.695
REMARK INTRA:                  -1.200
REMARK UNBOUND:                -1.131
REMARK SMILES CCCCCCCCCCCCCCCC(=O)[O-]
REMARK SMILES IDX 9 1 10 2 11 3 12 4 13 5 14 6 15 7 16 8 17 9 18 10 8 11 7 12
REMARK SMILES IDX 6 13 5 14 4 15 3 16 2 17 1 18
REMARK H PARENT
REMARK Flexibility Score: inf
ROOT
ATOM      1  C   UNL     1      -8.465  -4.542  -5.103  1.00  0.00     0.000 C 
ENDROOT
BRANCH   1   2
ATOM      2  C   UNL     1      -9.790  -3.977  -5.643  1.00  0.00     0.000 C 
BRANCH   2   3
ATOM      3  C   UNL     1     -10.448  -2.984  -4.673  1.00  0.00     0.000 C 
BRANCH   3   4
ATOM      4  C   UNL     1     -11.044  -3.674  -3.433  1.00  0.00     0.000 C 
BRANCH   4   5
ATOM      5  C   UNL     1     -10.429  -3.143  -2.120  1.00  0.00     0.000 C 
BRANCH   5   6
ATOM      6  C   UNL     1      -9.016  -3.684  -1.840  1.00  0.00     0.006 C 
BRANCH   6   7
ATOM      7  C   UNL     1      -8.155  -2.710  -1.030  1.00  0.00     0.053 C 
BRANCH   7   8
ATOM      8  C   UNL     1      -7.869  -1.477  -1.828  1.00  0.00     0.041 C 
ATOM      9  O   UNL     1      -8.059  -0.338  -1.324  1.00  0.00    -0.550 OA
ATOM     10  O   UNL     1      -7.345  -1.585  -3.110  1.00  0.00    -0.550 OA
ENDBRANCH   7   8
ENDBRANCH   6   7
ENDBRANCH   5   6
ENDBRANCH   4   5
ENDBRANCH   3   4
ENDBRANCH   2   3
ENDBRANCH   1   2
BRANCH   1  11
ATOM     11  C   UNL     1      -8.044  -5.837  -5.813  1.00  0.00     0.000 C 
BRANCH  11  12
ATOM     12  C   UNL     1      -7.530  -5.586  -7.241  1.00  0.00    -0.000 C 
BRANCH  12  13
ATOM     13  C   UNL     1      -6.121  -6.157  -7.476  1.00  0.00    -0.000 C 
BRANCH  13  14
ATOM     14  C   UNL     1      -5.382  -6.616  -6.203  1.00  0.00    -0.000 C 
BRANCH  14  15
ATOM     15  C   UNL     1      -4.145  -5.781  -5.825  1.00  0.00    -0.000 C 
BRANCH  15  16
ATOM     16  C   UNL     1      -4.376  -4.268  -5.979  1.00  0.00    -0.000 C 
BRANCH  16  17
ATOM     17  C   UNL     1      -3.130  -3.443  -5.620  1.00  0.00    -0.003 C 
ATOM     18  C   UNL     1      -3.238  -1.982  -6.058  1.00  0.00     0.004 C 
ENDBRANCH  16  17
ENDBRANCH  15  16
ENDBRANCH  14  15
ENDBRANCH  13  14
ENDBRANCH  12  13
ENDBRANCH  11  12
ENDBRANCH   1  11
TORSDOF 14
ENDMDL
MODEL 3
REMARK VINA RESULT:    -4.786      1.934      3.326
REMARK INTER + INTRA:          -9.834
REMARK INTER:                  -7.881
REMARK INTRA:                  -1.953
REMARK UNBOUND:                -1.131
REMARK SMILES CCCCCCCCCCCCCCCC(=O)[O-]
REMARK SMILES IDX 9 1 10 2 11 3 12 4 13 5 14 6 15 7 16 8 17 9 18 10 8 11 7 12
REMARK SMILES IDX 6 13 5 14 4 15 3 16 2 17 1 18
REMARK H PARENT
REMARK Flexibility Score: inf
ROOT
ATOM      1  C   UNL     1      -8.761  -4.548  -5.006  1.00  0.00     0.000 C 
ENDROOT
BRANCH   1   2
ATOM      2  C   UNL     1      -9.712  -3.339  -5.043  1.00  0.00     0.000 C 
BRANCH   2   3
ATOM      3  C   UNL     1     -11.102  -3.663  -4.474  1.00  0.00     0.000 C 
BRANCH   3   4
ATOM      4  C   UNL     1     -11.043  -4.184  -3.027  1.00  0.00     0.000 C 
BRANCH   4   5
ATOM      5  C   UNL     1     -10.965  -3.035  -1.998  1.00  0.00     0.000 C 
BRANCH   5   6
ATOM      6  C   UNL     1      -9.866  -3.232  -0.940  1.00  0.00     0.006 C 
BRANCH   6   7
ATOM      7  C   UNL     1      -8.459  -3.289  -1.543  1.00  0.00     0.053 C 
BRANCH   7   8
ATOM      8  C   UNL     1      -7.977  -1.912  -1.876  1.00  0.00     0.041 C 
ATOM      9  O   UNL     1      -7.334  -1.705  -2.939  1.00  0.00    -0.550 OA
ATOM     10  O   UNL     1      -8.280  -0.848  -1.036  1.00  0.00    -0.550 OA
ENDBRANCH   7   8
ENDBRANCH   6   7
ENDBRANCH   5   6
ENDBRANCH   4   5
ENDBRANCH   3   4
ENDBRANCH   2   3
ENDBRANCH   1   2
BRANCH   1  11
ATOM     11  C   UNL     1      -9.158  -5.640  -6.011  1.00  0.00     0.000 C 
BRANCH  11  12
ATOM     12  C   UNL     1      -9.446  -5.074  -7.413  1.00  0.00    -0.000 C 
BRANCH  12  13
ATOM     13  C   UNL     1      -8.163  -4.753  -8.199  1.00  0.00    -0.000 C 
BRANCH  13  14
ATOM     14  C   UNL     1      -7.379  -5.982  -8.702  1.00  0.00    -0.000 C 
BRANCH  14  15
ATOM     15  C   UNL     1      -5.913  -6.060  -8.239  1.00  0.00    -0.000 C 
BRANCH  15  16
ATOM     16  C   UNL     1      -5.608  -5.119  -7.060  1.00  0.00    -0.000 C 
BRANCH  16  17
ATOM     17  C   UNL     1      -5.220  -5.883  -5.785  1.00  0.00    -0.003 C 
ATOM     18  C   UNL     1      -5.730  -7.324  -5.776  1.00  0.00     0.004 C 
ENDBRANCH  16  17
ENDBRANCH  15  16
ENDBRANCH  14  15
ENDBRANCH  13  14
ENDBRANCH  12  13
ENDBRANCH  11  12
ENDBRANCH   1  11
TORSDOF 14
ENDMDL
MODEL 4
REMARK VINA RESULT:    -4.705      2.564      6.268
REMARK INTER + INTRA:          -9.687
REMARK INTER:                  -8.562
REMARK INTRA:                  -1.124
REMARK UNBOUND:                -1.131
REMARK SMILES CCCCCCCCCCCCCCCC(=O)[O-]
REMARK SMILES IDX 9 1 10 2 11 3 12 4 13 5 14 6 15 7 16 8 17 9 18 10 8 11 7 12
REMARK SMILES IDX 6 13 5 14 4 15 3 16 2 17 1 18
REMARK H PARENT
REMARK Flexibility Score: inf
ROOT
ATOM      1  C   UNL     1      -8.715  -4.738  -4.844  1.00  0.00     0.000 C 
ENDROOT
BRANCH   1   2
ATOM      2  C   UNL     1      -7.900  -5.694  -5.733  1.00  0.00     0.000 C 
BRANCH   2   3
ATOM      3  C   UNL     1      -6.829  -6.464  -4.945  1.00  0.00     0.000 C 
BRANCH   3   4
ATOM      4  C   UNL     1      -6.082  -7.493  -5.811  1.00  0.00     0.000 C 
BRANCH   4   5
ATOM      5  C   UNL     1      -5.068  -6.825  -6.764  1.00  0.00     0.000 C 
BRANCH   5   6
ATOM      6  C   UNL     1      -4.060  -5.911  -6.047  1.00  0.00     0.006 C 
BRANCH   6   7
ATOM      7  C   UNL     1      -4.417  -4.425  -6.159  1.00  0.00     0.053 C 
BRANCH   7   8
ATOM      8  C   UNL     1      -3.306  -3.580  -5.621  1.00  0.00     0.041 C 
ATOM      9  O   UNL     1      -2.147  -4.058  -5.498  1.00  0.00    -0.550 OA
ATOM     10  O   UNL     1      -3.539  -2.247  -5.302  1.00  0.00    -0.550 OA
ENDBRANCH   7   8
ENDBRANCH   6   7
ENDBRANCH   5   6
ENDBRANCH   4   5
ENDBRANCH   3   4
ENDBRANCH   2   3
ENDBRANCH   1   2
BRANCH   1  11
ATOM     11  C   UNL     1      -9.781  -3.965  -5.635  1.00  0.00     0.000 C 
BRANCH  11  12
ATOM     12  C   UNL     1     -11.041  -3.678  -4.801  1.00  0.00    -0.000 C 
BRANCH  12  13
ATOM     13  C   UNL     1     -10.937  -4.214  -3.363  1.00  0.00    -0.000 C 
BRANCH  13  14
ATOM     14  C   UNL     1     -10.994  -3.138  -2.259  1.00  0.00    -0.000 C 
BRANCH  14  15
ATOM     15  C   UNL     1     -10.068  -3.383  -1.054  1.00  0.00    -0.000 C 
BRANCH  15  16
ATOM     16  C   UNL     1      -8.589  -3.518  -1.456  1.00  0.00    -0.000 C 
BRANCH  16  17
ATOM     17  C   UNL     1      -8.085  -2.308  -2.258  1.00  0.00    -0.003 C 
ATOM     18  C   UNL     1      -7.672  -1.135  -1.369  1.00  0.00     0.004 C 
ENDBRANCH  16  17
ENDBRANCH  15  16
ENDBRANCH  14  15
ENDBRANCH  13  14
ENDBRANCH  12  13
ENDBRANCH  11  12
ENDBRANCH   1  11
TORSDOF 14
ENDMDL
MODEL 5
REMARK VINA RESULT:    -4.554      1.629      2.928
REMARK INTER + INTRA:          -9.412
REMARK INTER:                  -7.881
REMARK INTRA:                  -1.531
REMARK UNBOUND:                -1.131
REMARK SMILES CCCCCCCCCCCCCCCC(=O)[O-]
REMARK SMILES IDX 9 1 10 2 11 3 12 4 13 5 14 6 15 7 16 8 17 9 18 10 8 11 7 12
REMARK SMILES IDX 6 13 5 14 4 15 3 16 2 17 1 18
REMARK H PARENT
REMARK Flexibility Score: inf
ROOT
ATOM      1  C   UNL     1     -10.832  -5.397  -7.715  1.00  0.00     0.000 C 
ENDROOT
BRANCH   1   2
ATOM      2  C   UNL     1     -10.875  -5.888  -6.258  1.00  0.00     0.000 C 
BRANCH   2   3
ATOM      3  C   UNL     1      -9.528  -5.723  -5.538  1.00  0.00     0.000 C 
BRANCH   3   4
ATOM      4  C   UNL     1      -9.250  -4.266  -5.129  1.00  0.00     0.000 C 
BRANCH   4   5
ATOM      5  C   UNL     1     -10.488  -3.592  -4.498  1.00  0.00     0.000 C 
BRANCH   5   6
ATOM      6  C   UNL     1     -10.828  -4.122  -3.095  1.00  0.00     0.006 C 
BRANCH   6   7
ATOM      7  C   UNL     1     -10.468  -3.134  -1.981  1.00  0.00     0.053 C 
BRANCH   7   8
ATOM      8  C   UNL     1      -8.992  -3.138  -1.735  1.00  0.00     0.041 C 
ATOM      9  O   UNL     1      -8.394  -4.219  -1.488  1.00  0.00    -0.550 OA
ATOM     10  O   UNL     1      -8.269  -1.956  -1.829  1.00  0.00    -0.550 OA
ENDBRANCH   7   8
ENDBRANCH   6   7
ENDBRANCH   5   6
ENDBRANCH   4   5
ENDBRANCH   3   4
ENDBRANCH   2   3
ENDBRANCH   1   2
BRANCH   1  11
ATOM     11  C   UNL     1      -9.520  -5.767  -8.422  1.00  0.00     0.000 C 
BRANCH  11  12
ATOM     12  C   UNL     1      -8.946  -4.603  -9.248  1.00  0.00    -0.000 C 
BRANCH  12  13
ATOM     13  C   UNL     1      -7.415  -4.496  -9.142  1.00  0.00    -0.000 C 
BRANCH  13  14
ATOM     14  C   UNL     1      -6.819  -4.963  -7.798  1.00  0.00    -0.000 C 
BRANCH  14  15
ATOM     15  C   UNL     1      -5.777  -6.092  -7.899  1.00  0.00    -0.000 C 
BRANCH  15  16
ATOM     16  C   UNL     1      -5.920  -7.138  -6.780  1.00  0.00    -0.000 C 
BRANCH  16  17
ATOM     17  C   UNL     1      -5.057  -6.807  -5.552  1.00  0.00    -0.003 C 
ATOM     18  C   UNL     1      -3.773  -6.059  -5.912  1.00  0.00     0.004 C 
ENDBRANCH  16  17
ENDBRANCH  15  16
ENDBRANCH  14  15
ENDBRANCH  13  14
ENDBRANCH  12  13
ENDBRANCH  11  12
ENDBRANCH   1  11
TORSDOF 14
ENDMDL
MODEL 6
REMARK VINA RESULT:    -4.530      2.632      5.840
REMARK INTER + INTRA:          -9.368
REMARK INTER:                  -7.761
REMARK INTRA:                  -1.607
REMARK UNBOUND:                -1.131
REMARK SMILES CCCCCCCCCCCCCCCC(=O)[O-]
REMARK SMILES IDX 9 1 10 2 11 3 12 4 13 5 14 6 15 7 16 8 17 9 18 10 8 11 7 12
REMARK SMILES IDX 6 13 5 14 4 15 3 16 2 17 1 18
REMARK H PARENT
REMARK Flexibility Score: inf
ROOT
ATOM      1  C   UNL     1      -9.631  -5.560  -5.885  1.00  0.00     0.000 C 
ENDROOT
BRANCH   1   2
ATOM      2  C   UNL     1      -9.622  -5.676  -7.419  1.00  0.00     0.000 C 
BRANCH   2   3
ATOM      3  C   UNL     1      -9.182  -4.374  -8.107  1.00  0.00     0.000 C 
BRANCH   3   4
ATOM      4  C   UNL     1      -7.898  -4.548  -8.937  1.00  0.00     0.000 C 
BRANCH   4   5
ATOM      5  C   UNL     1      -7.287  -5.956  -8.776  1.00  0.00     0.000 C 
BRANCH   5   6
ATOM      6  C   UNL     1      -5.887  -5.950  -8.138  1.00  0.00     0.006 C 
BRANCH   6   7
ATOM      7  C   UNL     1      -5.894  -5.455  -6.688  1.00  0.00     0.053 C 
BRANCH   7   8
ATOM      8  C   UNL     1      -5.682  -6.598  -5.745  1.00  0.00     0.041 C 
ATOM      9  O   UNL     1      -4.622  -7.276  -5.799  1.00  0.00    -0.550 OA
ATOM     10  O   UNL     1      -6.634  -6.883  -4.774  1.00  0.00    -0.550 OA
ENDBRANCH   7   8
ENDBRANCH   6   7
ENDBRANCH   5   6
ENDBRANCH   4   5
ENDBRANCH   3   4
ENDBRANCH   2   3
ENDBRANCH   1   2
BRANCH   1  11
ATOM     11  C   UNL     1      -9.330  -4.134  -5.401  1.00  0.00     0.000 C 
BRANCH  11  12
ATOM     12  C   UNL     1     -10.518  -3.500  -4.657  1.00  0.00    -0.000 C 
BRANCH  12  13
ATOM     13  C   UNL     1     -10.837  -4.211  -3.330  1.00  0.00    -0.000 C 
BRANCH  13  14
ATOM     14  C   UNL     1     -11.072  -3.275  -2.127  1.00  0.00    -0.000 C 
BRANCH  14  15
ATOM     15  C   UNL     1      -9.960  -3.281  -1.063  1.00  0.00    -0.000 C 
BRANCH  15  16
ATOM     16  C   UNL     1      -8.573  -3.593  -1.650  1.00  0.00    -0.000 C 
BRANCH  16  17
ATOM     17  C   UNL     1      -7.825  -2.326  -2.096  1.00  0.00    -0.003 C 
ATOM     18  C   UNL     1      -8.132  -1.115  -1.216  1.00  0.00     0.004 C 
ENDBRANCH  16  17
ENDBRANCH  15  16
ENDBRANCH  14  15
ENDBRANCH  13  14
ENDBRANCH  12  13
ENDBRANCH  11  12
ENDBRANCH   1  11
TORSDOF 14
ENDMDL
MODEL 7
REMARK VINA RESULT:    -4.460      2.520      5.795
REMARK INTER + INTRA:          -9.241
REMARK INTER:                  -7.789
REMARK INTRA:                  -1.451
REMARK UNBOUND:                -1.131
REMARK SMILES CCCCCCCCCCCCCCCC(=O)[O-]
REMARK SMILES IDX 9 1 10 2 11 3 12 4 13 5 14 6 15 7 16 8 17 9 18 10 8 11 7 12
REMARK SMILES IDX 6 13 5 14 4 15 3 16 2 17 1 18
REMARK H PARENT
REMARK Flexibility Score: inf
ROOT
ATOM      1  C   UNL     1     -10.006  -3.959  -8.406  1.00  0.00     0.000 C 
ENDROOT
BRANCH   1   2
ATOM      2  C   UNL     1      -9.969  -5.283  -9.189  1.00  0.00     0.000 C 
BRANCH   2   3
ATOM      3  C   UNL     1      -8.636  -5.498  -9.923  1.00  0.00     0.000 C 
BRANCH   3   4
ATOM      4  C   UNL     1      -7.752  -6.560  -9.246  1.00  0.00     0.000 C 
BRANCH   4   5
ATOM      5  C   UNL     1      -6.442  -5.959  -8.692  1.00  0.00     0.000 C 
BRANCH   5   6
ATOM      6  C   UNL     1      -6.640  -5.116  -7.422  1.00  0.00     0.006 C 
BRANCH   6   7
ATOM      7  C   UNL     1      -5.667  -5.490  -6.299  1.00  0.00     0.053 C 
BRANCH   7   8
ATOM      8  C   UNL     1      -6.111  -6.747  -5.620  1.00  0.00     0.041 C 
ATOM      9  O   UNL     1      -7.029  -6.712  -4.759  1.00  0.00    -0.550 OA
ATOM     10  O   UNL     1      -5.543  -7.966  -5.973  1.00  0.00    -0.550 OA
ENDBRANCH   7   8
ENDBRANCH   6   7
ENDBRANCH   5   6
ENDBRANCH   4   5
ENDBRANCH   3   4
ENDBRANCH   2   3
ENDBRANCH   1   2
BRANCH   1  11
ATOM     11  C   UNL     1     -10.546  -4.135  -6.979  1.00  0.00     0.000 C 
BRANCH  11  12
ATOM     12  C   UNL     1     -10.411  -5.581  -6.471  1.00  0.00    -0.000 C 
BRANCH  12  13
ATOM     13  C   UNL     1     -10.270  -5.663  -4.942  1.00  0.00    -0.000 C 
BRANCH  13  14
ATOM     14  C   UNL     1     -10.073  -4.310  -4.229  1.00  0.00    -0.000 C 
BRANCH  14  15
ATOM     15  C   UNL     1     -10.948  -4.092  -2.981  1.00  0.00    -0.000 C 
BRANCH  15  16
ATOM     16  C   UNL     1     -10.280  -3.181  -1.936  1.00  0.00    -0.000 C 
BRANCH  16  17
ATOM     17  C   UNL     1      -8.756  -3.369  -1.881  1.00  0.00    -0.003 C 
ATOM     18  C   UNL     1      -8.006  -2.063  -1.619  1.00  0.00     0.004 C 
ENDBRANCH  16  17
ENDBRANCH  15  16
ENDBRANCH  14  15
ENDBRANCH  13  14
ENDBRANCH  12  13
ENDBRANCH  11  12
ENDBRANCH   1  11
TORSDOF 14
ENDMDL
MODEL 8
REMARK VINA RESULT:    -4.436      3.167      6.155
REMARK INTER + INTRA:          -9.197
REMARK INTER:                  -8.068
REMARK INTRA:                  -1.129
REMARK UNBOUND:                -1.131
REMARK SMILES CCCCCCCCCCCCCCCC(=O)[O-]
REMARK SMILES IDX 9 1 10 2 11 3 12 4 13 5 14 6 15 7 16 8 17 9 18 10 8 11 7 12
REMARK SMILES IDX 6 13 5 14 4 15 3 16 2 17 1 18
REMARK H PARENT
REMARK Flexibility Score: inf
ROOT
ATOM      1  C   UNL     1      -9.051  -4.552  -6.050  1.00  0.00     0.000 C 
ENDROOT
BRANCH   1   2
ATOM      2  C   UNL     1      -9.540  -4.530  -7.509  1.00  0.00     0.000 C 
BRANCH   2   3
ATOM      3  C   UNL     1      -8.741  -5.480  -8.415  1.00  0.00     0.000 C 
BRANCH   3   4
ATOM      4  C   UNL     1      -7.641  -4.755  -9.209  1.00  0.00     0.000 C 
BRANCH   4   5
ATOM      5  C   UNL     1      -6.496  -5.707  -9.620  1.00  0.00     0.000 C 
BRANCH   5   6
ATOM      6  C   UNL     1      -6.068  -6.672  -8.502  1.00  0.00     0.006 C 
BRANCH   6   7
ATOM      7  C   UNL     1      -5.529  -5.949  -7.263  1.00  0.00     0.053 C 
BRANCH   7   8
ATOM      8  C   UNL     1      -4.980  -6.935  -6.281  1.00  0.00     0.041 C 
ATOM      9  O   UNL     1      -5.640  -7.965  -5.981  1.00  0.00    -0.550 OA
ATOM     10  O   UNL     1      -3.718  -6.742  -5.733  1.00  0.00    -0.550 OA
ENDBRANCH   7   8
ENDBRANCH   6   7
ENDBRANCH   5   6
ENDBRANCH   4   5
ENDBRANCH   3   4
ENDBRANCH   2   3
ENDBRANCH   1   2
BRANCH   1  11
ATOM     11  C   UNL     1      -9.631  -5.730  -5.253  1.00  0.00     0.000 C 
BRANCH  11  12
ATOM     12  C   UNL     1     -10.684  -5.284  -4.224  1.00  0.00    -0.000 C 
BRANCH  12  13
ATOM     13  C   UNL     1     -11.125  -3.823  -4.418  1.00  0.00    -0.000 C 
BRANCH  13  14
ATOM     14  C   UNL     1     -11.001  -2.931  -3.167  1.00  0.00    -0.000 C 
BRANCH  14  15
ATOM     15  C   UNL     1     -10.757  -3.683  -1.845  1.00  0.00    -0.000 C 
BRANCH  15  16
ATOM     16  C   UNL     1      -9.285  -3.644  -1.400  1.00  0.00    -0.000 C 
BRANCH  16  17
ATOM     17  C   UNL     1      -8.419  -2.756  -2.307  1.00  0.00    -0.003 C 
ATOM     18  C   UNL     1      -7.733  -1.620  -1.548  1.00  0.00     0.004 C 
ENDBRANCH  16  17
ENDBRANCH  15  16
ENDBRANCH  14  15
ENDBRANCH  13  14
ENDBRANCH  12  13
ENDBRANCH  11  12
ENDBRANCH   1  11
TORSDOF 14
ENDMDL
MODEL 9
REMARK VINA RESULT:    -4.404      2.124      4.058
REMARK INTER + INTRA:          -9.140
REMARK INTER:                  -7.180
REMARK INTRA:                  -1.960
REMARK UNBOUND:                -1.131
REMARK SMILES CCCCCCCCCCCCCCCC(=O)[O-]
REMARK SMILES IDX 9 1 10 2 11 3 12 4 13 5 14 6 15 7 16 8 17 9 18 10 8 11 7 12
REMARK SMILES IDX 6 13 5 14 4 15 3 16 2 17 1 18
REMARK H PARENT
REMARK Flexibility Score: inf
ROOT
ATOM      1  C   UNL     1      -7.392  -6.265  -5.141  1.00  0.00     0.000 C 
ENDROOT
BRANCH   1   2
ATOM      2  C   UNL     1      -8.184  -4.973  -5.408  1.00  0.00     0.000 C 
BRANCH   2   3
ATOM      3  C   UNL     1      -9.702  -5.174  -5.280  1.00  0.00     0.000 C 
BRANCH   3   4
ATOM      4  C   UNL     1     -10.499  -3.907  -5.635  1.00  0.00     0.000 C 
BRANCH   4   5
ATOM      5  C   UNL     1     -11.123  -3.244  -4.389  1.00  0.00     0.000 C 
BRANCH   5   6
ATOM      6  C   UNL     1     -10.939  -4.061  -3.100  1.00  0.00     0.006 C 
BRANCH   6   7
ATOM      7  C   UNL     1     -10.491  -3.207  -1.909  1.00  0.00     0.053 C 
BRANCH   7   8
ATOM      8  C   UNL     1      -9.000  -3.214  -1.793  1.00  0.00     0.041 C 
ATOM      9  O   UNL     1      -8.336  -2.183  -2.079  1.00  0.00    -0.550 OA
ATOM     10  O   UNL     1      -8.345  -4.346  -1.321  1.00  0.00    -0.550 OA
ENDBRANCH   7   8
ENDBRANCH   6   7
ENDBRANCH   5   6
ENDBRANCH   4   5
ENDBRANCH   3   4
ENDBRANCH   2   3
ENDBRANCH   1   2
BRANCH   1  11
ATOM     11  C   UNL     1      -5.989  -6.234  -5.766  1.00  0.00     0.000 C 
BRANCH  11  12
ATOM     12  C   UNL     1      -5.961  -6.836  -7.182  1.00  0.00    -0.000 C 
BRANCH  12  13
ATOM     13  C   UNL     1      -5.865  -5.764  -8.281  1.00  0.00    -0.000 C 
BRANCH  13  14
ATOM     14  C   UNL     1      -7.054  -5.726  -9.262  1.00  0.00    -0.000 C 
BRANCH  14  15
ATOM     15  C   UNL     1      -7.946  -4.474  -9.164  1.00  0.00    -0.000 C 
BRANCH  15  16
ATOM     16  C   UNL     1      -9.435  -4.815  -8.984  1.00  0.00    -0.000 C 
BRANCH  16  17
ATOM     17  C   UNL     1      -9.676  -6.322  -8.806  1.00  0.00    -0.003 C 
ATOM     18  C   UNL     1     -11.056  -6.639  -8.228  1.00  0.00     0.004 C 
ENDBRANCH  16  17
ENDBRANCH  15  16
ENDBRANCH  14  15
ENDBRANCH  13  14
ENDBRANCH  12  13
ENDBRANCH  11  12
ENDBRANCH   1  11
TORSDOF 14
ENDMDL
