MODEL 1
REMARK VINA RESULT:    -4.898      0.000      0.000
REMARK INTER + INTRA:          -5.511
REMARK INTER:                  -5.470
REMARK INTRA:                  -0.040
REMARK UNBOUND:                -0.040
REMARK SMILES O=C([O-])c1ccc(O)c(O)c1
REMARK SMILES IDX 4 1 11 2 5 3 9 4 6 5 7 6 2 7 1 8 3 9 10 10 8 12
REMARK H PARENT 10 11 8 13
REMARK Flexibility Score: inf
ROOT
ATOM      1  C   UNL     1     127.582 129.390 117.259  1.00  0.00     0.001 A 
ATOM      2  C   UNL     1     128.878 129.043 116.835  1.00  0.00     0.060 A 
ATOM      3  C   UNL     1     127.368 129.698 118.612  1.00  0.00     0.014 A 
ATOM      4  C   UNL     1     129.942 129.004 117.749  1.00  0.00     0.158 A 
ATOM      5  C   UNL     1     128.426 129.658 119.524  1.00  0.00     0.051 A 
ATOM      6  C   UNL     1     129.713 129.314 119.099  1.00  0.00     0.157 A 
ENDROOT
BRANCH   1   7
ATOM      7  C   UNL     1     126.459 129.432 116.296  1.00  0.00     0.072 C 
ATOM      8  O   UNL     1     126.622 129.910 115.142  1.00  0.00    -0.545 OA
ATOM      9  O   UNL     1     125.207 128.944 116.653  1.00  0.00    -0.545 OA
ENDBRANCH   1   7
BRANCH   4  10
ATOM     10  O   UNL     1     131.222 128.659 117.320  1.00  0.00    -0.504 OA
ATOM     11  H   UNL     1     131.696 127.834 117.672  1.00  0.00     0.293 HD
ENDBRANCH   4  10
BRANCH   6  12
ATOM     12  O   UNL     1     130.748 129.283 120.033  1.00  0.00    -0.504 OA
ATOM     13  H   UNL     1     131.723 129.317 119.756  1.00  0.00     0.293 HD
ENDBRANCH   6  12
TORSDOF 3
ENDMDL
MODEL 2
REMARK VINA RESULT:    -4.855      1.787      4.108
REMARK INTER + INTRA:          -5.463
REMARK INTER:                  -5.421
REMARK INTRA:                  -0.042
REMARK UNBOUND:                -0.040
REMARK SMILES O=C([O-])c1ccc(O)c(O)c1
REMARK SMILES IDX 4 1 11 2 5 3 9 4 6 5 7 6 2 7 1 8 3 9 10 10 8 12
REMARK H PARENT 10 11 8 13
REMARK Flexibility Score: inf
ROOT
ATOM      1  C   UNL     1     130.790 129.189 117.430  1.00  0.00     0.001 A 
ATOM      2  C   UNL     1     129.552 129.528 116.854  1.00  0.00     0.060 A 
ATOM      3  C   UNL     1     130.860 128.971 118.816  1.00  0.00     0.014 A 
ATOM      4  C   UNL     1     128.403 129.647 117.651  1.00  0.00     0.158 A 
ATOM      5  C   UNL     1     129.717 129.090 119.610  1.00  0.00     0.051 A 
ATOM      6  C   UNL     1     128.487 129.426 119.035  1.00  0.00     0.157 A 
ENDROOT
BRANCH   1   7
ATOM      7  C   UNL     1     132.002 129.063 116.591  1.00  0.00     0.072 C 
ATOM      8  O   UNL     1     131.920 128.652 115.403  1.00  0.00    -0.545 OA
ATOM      9  O   UNL     1     133.251 129.396 117.104  1.00  0.00    -0.545 OA
ENDBRANCH   1   7
BRANCH   4  10
ATOM     10  O   UNL     1     127.181 129.984 117.072  1.00  0.00    -0.504 OA
ATOM     11  H   UNL     1     127.128 130.429 116.162  1.00  0.00     0.293 HD
ENDBRANCH   4  10
BRANCH   6  12
ATOM     12  O   UNL     1     127.365 129.537 119.855  1.00  0.00    -0.504 OA
ATOM     13  H   UNL     1     126.642 130.227 119.686  1.00  0.00     0.293 HD
ENDBRANCH   6  12
TORSDOF 3
ENDMDL
MODEL 3
REMARK VINA RESULT:    -4.670      1.970      4.485
REMARK INTER + INTRA:          -5.257
REMARK INTER:                  -5.220
REMARK INTRA:                  -0.037
REMARK UNBOUND:                -0.040
REMARK SMILES O=C([O-])c1ccc(O)c(O)c1
REMARK SMILES IDX 4 1 11 2 5 3 9 4 6 5 7 6 2 7 1 8 3 9 10 10 8 12
REMARK H PARENT 10 11 8 13
REMARK Flexibility Score: inf
ROOT
ATOM      1  C   UNL     1     130.187 128.856 118.265  1.00  0.00     0.001 A 
ATOM      2  C   UNL     1     129.016 129.062 117.514  1.00  0.00     0.060 A 
ATOM      3  C   UNL     1     131.433 128.944 117.622  1.00  0.00     0.014 A 
ATOM      4  C   UNL     1     129.088 129.350 116.143  1.00  0.00     0.158 A 
ATOM      5  C   UNL     1     131.506 129.231 116.257  1.00  0.00     0.051 A 
ATOM      6  C   UNL     1     130.340 129.436 115.513  1.00  0.00     0.157 A 
ENDROOT
BRANCH   1   7
ATOM      7  C   UNL     1     130.113 128.551 119.711  1.00  0.00     0.072 C 
ATOM      8  O   UNL     1     129.779 129.442 120.538  1.00  0.00    -0.545 OA
ATOM      9  O   UNL     1     130.412 127.276 120.179  1.00  0.00    -0.545 OA
ENDBRANCH   1   7
BRANCH   4  10
ATOM     10  O   UNL     1     127.921 129.552 115.407  1.00  0.00    -0.504 OA
ATOM     11  H   UNL     1     127.907 130.148 114.587  1.00  0.00     0.293 HD
ENDBRANCH   4  10
BRANCH   6  12
ATOM     12  O   UNL     1     130.445 129.720 114.152  1.00  0.00    -0.504 OA
ATOM     13  H   UNL     1     131.334 129.937 113.715  1.00  0.00     0.293 HD
ENDBRANCH   6  12
TORSDOF 3
ENDMDL
MODEL 4
REMARK VINA RESULT:    -4.464      1.738      4.026
REMARK INTER + INTRA:          -5.026
REMARK INTER:                  -4.982
REMARK INTRA:                  -0.044
REMARK UNBOUND:                -0.040
REMARK SMILES O=C([O-])c1ccc(O)c(O)c1
REMARK SMILES IDX 4 1 11 2 5 3 9 4 6 5 7 6 2 7 1 8 3 9 10 10 8 12
REMARK H PARENT 10 11 8 13
REMARK Flexibility Score: inf
ROOT
ATOM      1  C   UNL     1     128.872 129.431 117.819  1.00  0.00     0.001 A 
ATOM      2  C   UNL     1     129.913 129.383 116.875  1.00  0.00     0.060 A 
ATOM      3  C   UNL     1     127.542 129.406 117.368  1.00  0.00     0.014 A 
ATOM      4  C   UNL     1     129.630 129.312 115.503  1.00  0.00     0.158 A 
ATOM      5  C   UNL     1     127.258 129.335 116.002  1.00  0.00     0.051 A 
ATOM      6  C   UNL     1     128.296 129.287 115.066  1.00  0.00     0.157 A 
ENDROOT
BRANCH   1   7
ATOM      7  C   UNL     1     129.169 129.507 119.267  1.00  0.00     0.072 C 
ATOM      8  O   UNL     1     128.288 129.889 120.083  1.00  0.00    -0.545 OA
ATOM      9  O   UNL     1     130.425 129.156 119.747  1.00  0.00    -0.545 OA
ENDBRANCH   1   7
BRANCH   4  10
ATOM     10  O   UNL     1     130.669 129.265 114.574  1.00  0.00    -0.504 OA
ATOM     11  H   UNL     1     131.089 130.111 114.204  1.00  0.00     0.293 HD
ENDBRANCH   4  10
BRANCH   6  12
ATOM     12  O   UNL     1     127.981 129.217 113.709  1.00  0.00    -0.504 OA
ATOM     13  H   UNL     1     127.265 128.593 113.355  1.00  0.00     0.293 HD
ENDBRANCH   6  12
TORSDOF 3
ENDMDL
MODEL 5
REMARK VINA RESULT:    -4.305      1.614      2.492
REMARK INTER + INTRA:          -4.849
REMARK INTER:                  -4.807
REMARK INTRA:                  -0.042
REMARK UNBOUND:                -0.040
REMARK SMILES O=C([O-])c1ccc(O)c(O)c1
REMARK SMILES IDX 4 1 11 2 5 3 9 4 6 5 7 6 2 7 1 8 3 9 10 10 8 12
REMARK H PARENT 10 11 8 13
REMARK Flexibility Score: inf
ROOT
ATOM      1  C   UNL     1     129.086 129.304 116.508  1.00  0.00     0.001 A 
ATOM      2  C   UNL     1     130.165 129.037 117.370  1.00  0.00     0.060 A 
ATOM      3  C   UNL     1     127.851 129.682 117.061  1.00  0.00     0.014 A 
ATOM      4  C   UNL     1     130.013 129.145 118.760  1.00  0.00     0.158 A 
ATOM      5  C   UNL     1     127.697 129.790 118.446  1.00  0.00     0.051 A 
ATOM      6  C   UNL     1     128.773 129.524 119.299  1.00  0.00     0.157 A 
ENDROOT
BRANCH   1   7
ATOM      7  C   UNL     1     129.245 129.191 115.042  1.00  0.00     0.072 C 
ATOM      8  O   UNL     1     128.256 128.921 114.309  1.00  0.00    -0.545 OA
ATOM      9  O   UNL     1     130.489 129.381 114.452  1.00  0.00    -0.545 OA
ENDBRANCH   1   7
BRANCH   4  10
ATOM     10  O   UNL     1     131.088 128.877 119.606  1.00  0.00    -0.504 OA
ATOM     11  H   UNL     1     131.069 129.133 120.587  1.00  0.00     0.293 HD
ENDBRANCH   4  10
BRANCH   6  12
ATOM     12  O   UNL     1     128.589 129.639 120.677  1.00  0.00    -0.504 OA
ATOM     13  H   UNL     1     127.666 129.687 121.093  1.00  0.00     0.293 HD
ENDBRANCH   6  12
TORSDOF 3
ENDMDL
MODEL 6
REMARK VINA RESULT:    -4.191      1.297      4.489
REMARK INTER + INTRA:          -4.722
REMARK INTER:                  -4.679
REMARK INTRA:                  -0.043
REMARK UNBOUND:                -0.040
REMARK SMILES O=C([O-])c1ccc(O)c(O)c1
REMARK SMILES IDX 4 1 11 2 5 3 9 4 6 5 7 6 2 7 1 8 3 9 10 10 8 12
REMARK H PARENT 10 11 8 13
REMARK Flexibility Score: inf
ROOT
ATOM      1  C   UNL     1     128.969 129.388 117.936  1.00  0.00     0.001 A 
ATOM      2  C   UNL     1     127.614 129.398 117.557  1.00  0.00     0.060 A 
ATOM      3  C   UNL     1     129.955 129.328 116.937  1.00  0.00     0.014 A 
ATOM      4  C   UNL     1     127.251 129.349 116.203  1.00  0.00     0.158 A 
ATOM      5  C   UNL     1     129.595 129.278 115.588  1.00  0.00     0.051 A 
ATOM      6  C   UNL     1     128.247 129.289 115.215  1.00  0.00     0.157 A 
ENDROOT
BRANCH   1   7
ATOM      7  C   UNL     1     129.354 129.440 119.363  1.00  0.00     0.072 C 
ATOM      8  O   UNL     1     128.548 129.875 120.229  1.00  0.00    -0.545 OA
ATOM      9  O   UNL     1     130.612 129.011 119.770  1.00  0.00    -0.545 OA
ENDBRANCH   1   7
BRANCH   4  10
ATOM     10  O   UNL     1     125.906 129.358 115.837  1.00  0.00    -0.504 OA
ATOM     11  H   UNL     1     125.512 130.109 115.280  1.00  0.00     0.293 HD
ENDBRANCH   4  10
BRANCH   6  12
ATOM     12  O   UNL     1     127.920 129.238 113.860  1.00  0.00    -0.504 OA
ATOM     13  H   UNL     1     127.172 128.650 113.510  1.00  0.00     0.293 HD
ENDBRANCH   6  12
TORSDOF 3
ENDMDL
MODEL 7
REMARK VINA RESULT:    -4.130      1.209      2.539
REMARK INTER + INTRA:          -4.654
REMARK INTER:                  -4.609
REMARK INTRA:                  -0.044
REMARK UNBOUND:                -0.040
REMARK SMILES O=C([O-])c1ccc(O)c(O)c1
REMARK SMILES IDX 4 1 11 2 5 3 9 4 6 5 7 6 2 7 1 8 3 9 10 10 8 12
REMARK H PARENT 10 11 8 13
REMARK Flexibility Score: inf
ROOT
ATOM      1  C   UNL     1     128.543 129.321 116.484  1.00  0.00     0.001 A 
ATOM      2  C   UNL     1     128.995 129.138 117.804  1.00  0.00     0.060 A 
ATOM      3  C   UNL     1     129.488 129.435 115.451  1.00  0.00     0.014 A 
ATOM      4  C   UNL     1     130.367 129.072 118.087  1.00  0.00     0.158 A 
ATOM      5  C   UNL     1     130.855 129.370 115.731  1.00  0.00     0.051 A 
ATOM      6  C   UNL     1     131.301 129.188 117.044  1.00  0.00     0.157 A 
ENDROOT
BRANCH   1   7
ATOM      7  C   UNL     1     127.096 129.391 116.184  1.00  0.00     0.072 C 
ATOM      8  O   UNL     1     126.243 129.149 117.080  1.00  0.00    -0.545 OA
ATOM      9  O   UNL     1     126.657 129.724 114.908  1.00  0.00    -0.545 OA
ENDBRANCH   1   7
BRANCH   4  10
ATOM     10  O   UNL     1     130.805 128.892 119.398  1.00  0.00    -0.504 OA
ATOM     11  H   UNL     1     130.201 129.080 120.190  1.00  0.00     0.293 HD
ENDBRANCH   4  10
BRANCH   6  12
ATOM     12  O   UNL     1     132.672 129.127 117.292  1.00  0.00    -0.504 OA
ATOM     13  H   UNL     1     133.099 129.609 118.074  1.00  0.00     0.293 HD
ENDBRANCH   6  12
TORSDOF 3
ENDMDL
MODEL 8
REMARK VINA RESULT:    -3.945      1.214      2.390
REMARK INTER + INTRA:          -4.447
REMARK INTER:                  -4.402
REMARK INTRA:                  -0.044
REMARK UNBOUND:                -0.040
REMARK SMILES O=C([O-])c1ccc(O)c(O)c1
REMARK SMILES IDX 4 1 11 2 5 3 9 4 6 5 7 6 2 7 1 8 3 9 10 10 8 12
REMARK H PARENT 10 11 8 13
REMARK Flexibility Score: inf
ROOT
ATOM      1  C   UNL     1     128.192 129.396 116.632  1.00  0.00     0.001 A 
ATOM      2  C   UNL     1     127.630 129.695 117.886  1.00  0.00     0.060 A 
ATOM      3  C   UNL     1     129.546 129.025 116.564  1.00  0.00     0.014 A 
ATOM      4  C   UNL     1     128.407 129.626 119.052  1.00  0.00     0.158 A 
ATOM      5  C   UNL     1     130.321 128.957 117.724  1.00  0.00     0.051 A 
ATOM      6  C   UNL     1     129.758 129.255 118.969  1.00  0.00     0.157 A 
ENDROOT
BRANCH   1   7
ATOM      7  C   UNL     1     127.374 129.467 115.402  1.00  0.00     0.072 C 
ATOM      8  O   UNL     1     126.143 129.725 115.464  1.00  0.00    -0.545 OA
ATOM      9  O   UNL     1     127.955 129.251 114.157  1.00  0.00    -0.545 OA
ENDBRANCH   1   7
BRANCH   4  10
ATOM     10  O   UNL     1     127.841 129.926 120.290  1.00  0.00    -0.504 OA
ATOM     11  H   UNL     1     128.351 129.785 121.156  1.00  0.00     0.293 HD
ENDBRANCH   4  10
BRANCH   6  12
ATOM     12  O   UNL     1     130.558 129.178 120.109  1.00  0.00    -0.504 OA
ATOM     13  H   UNL     1     130.529 129.885 120.835  1.00  0.00     0.293 HD
ENDBRANCH   6  12
TORSDOF 3
ENDMDL
MODEL 9
REMARK VINA RESULT:    -3.930      7.591     10.478
REMARK INTER + INTRA:          -4.430
REMARK INTER:                  -4.394
REMARK INTRA:                  -0.036
REMARK UNBOUND:                -0.040
REMARK SMILES O=C([O-])c1ccc(O)c(O)c1
REMARK SMILES IDX 4 1 11 2 5 3 9 4 6 5 7 6 2 7 1 8 3 9 10 10 8 12
REMARK H PARENT 10 11 8 13
REMARK Flexibility Score: inf
ROOT
ATOM      1  C   UNL     1     122.507 132.255 111.862  1.00  0.00     0.001 A 
ATOM      2  C   UNL     1     121.300 132.120 112.572  1.00  0.00     0.060 A 
ATOM      3  C   UNL     1     122.510 132.026 110.476  1.00  0.00     0.014 A 
ATOM      4  C   UNL     1     120.118 131.760 111.909  1.00  0.00     0.158 A 
ATOM      5  C   UNL     1     121.333 131.667 109.814  1.00  0.00     0.051 A 
ATOM      6  C   UNL     1     120.135 131.533 110.523  1.00  0.00     0.157 A 
ENDROOT
BRANCH   1   7
ATOM      7  C   UNL     1     123.755 132.635 112.559  1.00  0.00     0.072 C 
ATOM      8  O   UNL     1     124.187 133.817 112.502  1.00  0.00    -0.545 OA
ATOM      9  O   UNL     1     124.470 131.691 113.288  1.00  0.00    -0.545 OA
ENDBRANCH   1   7
BRANCH   4  10
ATOM     10  O   UNL     1     118.927 131.627 112.622  1.00  0.00    -0.504 OA
ATOM     11  H   UNL     1     118.028 131.595 112.154  1.00  0.00     0.293 HD
ENDBRANCH   4  10
BRANCH   6  12
ATOM     12  O   UNL     1     118.977 131.174 109.835  1.00  0.00    -0.504 OA
ATOM     13  H   UNL     1     118.642 131.698 109.036  1.00  0.00     0.293 HD
ENDBRANCH   6  12
TORSDOF 3
ENDMDL
