MODEL 1
REMARK VINA RESULT:    -5.910      0.000      0.000
REMARK INTER + INTRA:          -9.649
REMARK INTER:                  -8.156
REMARK INTRA:                  -1.494
REMARK UNBOUND:                -1.494
REMARK SMILES CC[C@@H](CC[C@H](C)[C@@H]1CC[C@H]2[C@H]3CC=C4C[C@H](O)CC[C@@]4(C)[C@H]3CC[C@]21C)C(C)C
REMARK SMILES IDX 5 1 4 2 3 3 2 4 1 5 28 6 29 7 30 8 6 9 7 10 8 11 9 12 26 13
REMARK SMILES IDX 10 14 11 15 25 16 27 17 12 18 24 19 23 20 13 21 21 22 14 23
REMARK SMILES IDX 15 24 20 25 22 26 16 27 19 28 17 29 18 30
REMARK H PARENT 18 31
REMARK Flexibility Score: inf
ROOT
ATOM      1  C   UNL     1       5.684  -5.469  -7.600  1.00  0.00     0.004 C 
ENDROOT
BRANCH   1   2
ATOM      2  C   UNL     1       4.931  -6.776  -7.268  1.00  0.00     0.004 C 
BRANCH   2   3
ATOM      3  C   UNL     1       3.576  -6.563  -6.512  1.00  0.00    -0.009 C 
BRANCH   3   4
ATOM      4  C   UNL     1       3.819  -6.623  -4.974  1.00  0.00     0.000 C 
ATOM      5  C   UNL     1       2.849  -5.749  -4.172  1.00  0.00     0.004 C 
ENDBRANCH   3   4
BRANCH   3   6
ATOM      6  C   UNL     1       2.484  -7.609  -6.951  1.00  0.00    -0.014 C 
ATOM      7  C   UNL     1       2.288  -7.637  -8.483  1.00  0.00     0.007 C 
ATOM      8  C   UNL     1       2.811  -9.043  -6.491  1.00  0.00     0.007 C 
ENDBRANCH   3   6
ENDBRANCH   2   3
ENDBRANCH   1   2
BRANCH   1   9
ATOM      9  C   UNL     1       6.982  -5.260  -6.762  1.00  0.00    -0.011 C 
ATOM     10  C   UNL     1       7.695  -6.595  -6.439  1.00  0.00     0.008 C 
BRANCH   9  11
ATOM     11  C   UNL     1       6.763  -4.311  -5.532  1.00  0.00    -0.002 C 
ATOM     12  C   UNL     1       5.462  -3.495  -5.653  1.00  0.00     0.005 C 
ATOM     13  C   UNL     1       7.903  -3.312  -5.064  1.00  0.00    -0.026 C 
ATOM     14  C   UNL     1       5.849  -2.034  -5.638  1.00  0.00     0.005 C 
ATOM     15  C   UNL     1       7.176  -1.941  -4.892  1.00  0.00    -0.001 C 
ATOM     16  C   UNL     1       8.563  -3.830  -3.739  1.00  0.00     0.007 C 
ATOM     17  C   UNL     1       9.040  -3.112  -6.100  1.00  0.00     0.012 C 
ATOM     18  C   UNL     1       7.045  -1.425  -3.435  1.00  0.00     0.000 C 
ATOM     19  C   UNL     1       9.111  -2.766  -2.758  1.00  0.00     0.005 C 
ATOM     20  C   UNL     1       8.447  -1.356  -2.790  1.00  0.00     0.003 C 
ATOM     21  C   UNL     1       6.039  -2.174  -2.534  1.00  0.00     0.031 C 
ATOM     22  C   UNL     1       8.390  -0.639  -1.382  1.00  0.00    -0.008 C 
ATOM     23  C   UNL     1       6.181  -1.827  -1.069  1.00  0.00    -0.027 C 
ATOM     24  C   UNL     1       7.271  -1.238  -0.519  1.00  0.00    -0.065 C 
ATOM     25  C   UNL     1       9.767  -0.748  -0.639  1.00  0.00     0.014 C 
ATOM     26  C   UNL     1       8.087   0.877  -1.575  1.00  0.00     0.016 C 
ATOM     27  C   UNL     1       7.260  -0.943   0.971  1.00  0.00     0.063 C 
ATOM     28  C   UNL     1       9.713  -0.307   0.830  1.00  0.00     0.033 C 
ATOM     29  C   UNL     1       8.655  -1.121   1.592  1.00  0.00     0.118 C 
BRANCH  29  30
ATOM     30  O   UNL     1       8.643  -0.769   2.953  1.00  0.00    -0.393 OA
ATOM     31  H   UNL     1       8.375   0.184   3.015  1.00  0.00     0.210 HD
ENDBRANCH  29  30
ENDBRANCH   9  11
ENDBRANCH   1   9
TORSDOF 7
ENDMDL
MODEL 2
REMARK VINA RESULT:    -5.804      6.110      9.557
REMARK INTER + INTRA:          -9.503
REMARK INTER:                  -7.742
REMARK INTRA:                  -1.760
REMARK UNBOUND:                -1.494
REMARK SMILES CC[C@@H](CC[C@H](C)[C@@H]1CC[C@H]2[C@H]3CC=C4C[C@H](O)CC[C@@]4(C)[C@H]3CC[C@]21C)C(C)C
REMARK SMILES IDX 5 1 4 2 3 3 2 4 1 5 28 6 29 7 30 8 6 9 7 10 8 11 9 12 26 13
REMARK SMILES IDX 10 14 11 15 25 16 27 17 12 18 24 19 23 20 13 21 21 22 14 23
REMARK SMILES IDX 15 24 20 25 22 26 16 27 19 28 17 29 18 30
REMARK H PARENT 18 31
REMARK Flexibility Score: inf
ROOT
ATOM      1  C   UNL     1       2.311  -8.906  -4.793  1.00  0.00     0.004 C 
ENDROOT
BRANCH   1   2
ATOM      2  C   UNL     1       3.033  -9.091  -6.146  1.00  0.00     0.004 C 
BRANCH   2   3
ATOM      3  C   UNL     1       4.087  -7.979  -6.469  1.00  0.00    -0.009 C 
BRANCH   3   4
ATOM      4  C   UNL     1       4.283  -7.064  -5.223  1.00  0.00     0.000 C 
ATOM      5  C   UNL     1       4.288  -5.569  -5.562  1.00  0.00     0.004 C 
ENDBRANCH   3   4
BRANCH   3   6
ATOM      6  C   UNL     1       3.682  -7.131  -7.732  1.00  0.00    -0.014 C 
ATOM      7  C   UNL     1       4.718  -7.252  -8.871  1.00  0.00     0.007 C 
ATOM      8  C   UNL     1       2.306  -7.527  -8.302  1.00  0.00     0.007 C 
ENDBRANCH   3   6
ENDBRANCH   2   3
ENDBRANCH   1   2
BRANCH   1   9
ATOM      9  C   UNL     1       0.775  -9.170  -4.859  1.00  0.00    -0.011 C 
ATOM     10  C   UNL     1       0.357  -9.886  -6.164  1.00  0.00     0.008 C 
BRANCH   9  11
ATOM     11  C   UNL     1      -0.074  -7.901  -4.498  1.00  0.00    -0.002 C 
ATOM     12  C   UNL     1       0.381  -6.656  -5.282  1.00  0.00     0.005 C 
ATOM     13  C   UNL     1      -0.270  -7.459  -2.987  1.00  0.00    -0.026 C 
ATOM     14  C   UNL     1       0.806  -5.619  -4.268  1.00  0.00     0.005 C 
ATOM     15  C   UNL     1       0.048  -5.930  -2.981  1.00  0.00    -0.001 C 
ATOM     16  C   UNL     1      -1.729  -7.786  -2.514  1.00  0.00     0.007 C 
ATOM     17  C   UNL     1       0.703  -8.142  -1.991  1.00  0.00     0.012 C 
ATOM     18  C   UNL     1      -1.159  -4.990  -2.720  1.00  0.00     0.000 C 
ATOM     19  C   UNL     1      -2.354  -6.856  -1.447  1.00  0.00     0.005 C 
ATOM     20  C   UNL     1      -1.834  -5.387  -1.389  1.00  0.00     0.003 C 
ATOM     21  C   UNL     1      -2.187  -4.866  -3.865  1.00  0.00     0.031 C 
ATOM     22  C   UNL     1      -2.936  -4.331  -0.974  1.00  0.00    -0.008 C 
ATOM     23  C   UNL     1      -3.473  -4.192  -3.440  1.00  0.00    -0.027 C 
ATOM     24  C   UNL     1      -3.874  -4.041  -2.153  1.00  0.00    -0.065 C 
ATOM     25  C   UNL     1      -3.759  -4.834   0.263  1.00  0.00     0.014 C 
ATOM     26  C   UNL     1      -2.254  -2.992  -0.562  1.00  0.00     0.016 C 
ATOM     27  C   UNL     1      -5.189  -3.331  -1.884  1.00  0.00     0.063 C 
ATOM     28  C   UNL     1      -5.006  -3.989   0.560  1.00  0.00     0.033 C 
ATOM     29  C   UNL     1      -5.919  -3.937  -0.674  1.00  0.00     0.118 C 
BRANCH  29  30
ATOM     30  O   UNL     1      -7.095  -3.219  -0.392  1.00  0.00    -0.393 OA
ATOM     31  H   UNL     1      -7.416  -2.821  -1.243  1.00  0.00     0.210 HD
ENDBRANCH  29  30
ENDBRANCH   9  11
ENDBRANCH   1   9
TORSDOF 7
ENDMDL
MODEL 3
REMARK VINA RESULT:    -5.786      8.209     12.432
REMARK INTER + INTRA:          -9.478
REMARK INTER:                  -7.246
REMARK INTRA:                  -2.232
REMARK UNBOUND:                -1.494
REMARK SMILES CC[C@@H](CC[C@H](C)[C@@H]1CC[C@H]2[C@H]3CC=C4C[C@H](O)CC[C@@]4(C)[C@H]3CC[C@]21C)C(C)C
REMARK SMILES IDX 5 1 4 2 3 3 2 4 1 5 28 6 29 7 30 8 6 9 7 10 8 11 9 12 26 13
REMARK SMILES IDX 10 14 11 15 25 16 27 17 12 18 24 19 23 20 13 21 21 22 14 23
REMARK SMILES IDX 15 24 20 25 22 26 16 27 19 28 17 29 18 30
REMARK H PARENT 18 31
REMARK Flexibility Score: inf
ROOT
ATOM      1  C   UNL     1      -6.636  -4.444   0.754  1.00  0.00     0.004 C 
ENDROOT
BRANCH   1   2
ATOM      2  C   UNL     1      -6.374  -4.060   2.227  1.00  0.00     0.004 C 
BRANCH   2   3
ATOM      3  C   UNL     1      -6.164  -5.283   3.182  1.00  0.00    -0.009 C 
BRANCH   3   4
ATOM      4  C   UNL     1      -4.641  -5.563   3.350  1.00  0.00     0.000 C 
ATOM      5  C   UNL     1      -3.765  -4.334   3.084  1.00  0.00     0.004 C 
ENDBRANCH   3   4
BRANCH   3   6
ATOM      6  C   UNL     1      -6.920  -6.567   2.672  1.00  0.00    -0.014 C 
ATOM      7  C   UNL     1      -6.034  -7.830   2.743  1.00  0.00     0.007 C 
ATOM      8  C   UNL     1      -8.213  -6.852   3.462  1.00  0.00     0.007 C 
ENDBRANCH   3   6
ENDBRANCH   2   3
ENDBRANCH   1   2
BRANCH   1   9
ATOM      9  C   UNL     1      -5.654  -3.774  -0.255  1.00  0.00    -0.011 C 
ATOM     10  C   UNL     1      -6.363  -2.755  -1.178  1.00  0.00     0.008 C 
BRANCH   9  11
ATOM     11  C   UNL     1      -4.742  -4.815  -0.994  1.00  0.00    -0.002 C 
ATOM     12  C   UNL     1      -4.890  -6.234  -0.411  1.00  0.00     0.005 C 
ATOM     13  C   UNL     1      -3.190  -4.544  -1.184  1.00  0.00    -0.026 C 
ATOM     14  C   UNL     1      -3.526  -6.657   0.083  1.00  0.00     0.005 C 
ATOM     15  C   UNL     1      -2.502  -5.871  -0.730  1.00  0.00    -0.001 C 
ATOM     16  C   UNL     1      -2.887  -4.173  -2.677  1.00  0.00     0.007 C 
ATOM     17  C   UNL     1      -2.630  -3.400  -0.299  1.00  0.00     0.012 C 
ATOM     18  C   UNL     1      -1.821  -6.697  -1.852  1.00  0.00     0.000 C 
ATOM     19  C   UNL     1      -1.502  -4.574  -3.240  1.00  0.00     0.005 C 
ATOM     20  C   UNL     1      -0.798  -5.805  -2.591  1.00  0.00     0.003 C 
ATOM     21  C   UNL     1      -2.766  -7.417  -2.839  1.00  0.00     0.031 C 
ATOM     22  C   UNL     1       0.071  -6.656  -3.601  1.00  0.00    -0.008 C 
ATOM     23  C   UNL     1      -2.055  -7.940  -4.067  1.00  0.00    -0.027 C 
ATOM     24  C   UNL     1      -0.831  -7.531  -4.482  1.00  0.00    -0.065 C 
ATOM     25  C   UNL     1       0.965  -5.726  -4.495  1.00  0.00     0.014 C 
ATOM     26  C   UNL     1       1.028  -7.597  -2.811  1.00  0.00     0.016 C 
ATOM     27  C   UNL     1      -0.244  -8.160  -5.734  1.00  0.00     0.063 C 
ATOM     28  C   UNL     1       1.636  -6.456  -5.667  1.00  0.00     0.033 C 
ATOM     29  C   UNL     1       0.578  -7.142  -6.543  1.00  0.00     0.118 C 
BRANCH  29  30
ATOM     30  O   UNL     1       1.177  -7.759  -7.655  1.00  0.00    -0.393 OA
ATOM     31  H   UNL     1       1.997  -8.219  -7.339  1.00  0.00     0.210 HD
ENDBRANCH  29  30
ENDBRANCH   9  11
ENDBRANCH   1   9
TORSDOF 7
ENDMDL
MODEL 4
REMARK VINA RESULT:    -5.759      5.887      9.716
REMARK INTER + INTRA:          -9.442
REMARK INTER:                  -7.125
REMARK INTRA:                  -2.317
REMARK UNBOUND:                -1.494
REMARK SMILES CC[C@@H](CC[C@H](C)[C@@H]1CC[C@H]2[C@H]3CC=C4C[C@H](O)CC[C@@]4(C)[C@H]3CC[C@]21C)C(C)C
REMARK SMILES IDX 5 1 4 2 3 3 2 4 1 5 28 6 29 7 30 8 6 9 7 10 8 11 9 12 26 13
REMARK SMILES IDX 10 14 11 15 25 16 27 17 12 18 24 19 23 20 13 21 21 22 14 23
REMARK SMILES IDX 15 24 20 25 22 26 16 27 19 28 17 29 18 30
REMARK H PARENT 18 31
REMARK Flexibility Score: inf
ROOT
ATOM      1  C   UNL     1       3.746  -7.585  -4.139  1.00  0.00     0.004 C 
ENDROOT
BRANCH   1   2
ATOM      2  C   UNL     1       3.976  -8.558  -5.316  1.00  0.00     0.004 C 
BRANCH   2   3
ATOM      3  C   UNL     1       2.807  -8.595  -6.357  1.00  0.00    -0.009 C 
BRANCH   3   4
ATOM      4  C   UNL     1       2.196 -10.027  -6.410  1.00  0.00     0.000 C 
ATOM      5  C   UNL     1       0.676 -10.047  -6.216  1.00  0.00     0.004 C 
ENDBRANCH   3   4
BRANCH   3   6
ATOM      6  C   UNL     1       3.274  -8.129  -7.787  1.00  0.00    -0.014 C 
ATOM      7  C   UNL     1       2.101  -7.592  -8.637  1.00  0.00     0.007 C 
ATOM      8  C   UNL     1       4.358  -7.035  -7.734  1.00  0.00     0.007 C 
ENDBRANCH   3   6
ENDBRANCH   2   3
ENDBRANCH   1   2
BRANCH   1   9
ATOM      9  C   UNL     1       2.772  -6.414  -4.471  1.00  0.00    -0.011 C 
ATOM     10  C   UNL     1       3.493  -5.047  -4.525  1.00  0.00     0.008 C 
BRANCH   9  11
ATOM     11  C   UNL     1       1.470  -6.443  -3.596  1.00  0.00    -0.002 C 
ATOM     12  C   UNL     1       1.336  -7.754  -2.798  1.00  0.00     0.005 C 
ATOM     13  C   UNL     1       0.052  -6.138  -4.240  1.00  0.00    -0.026 C 
ATOM     14  C   UNL     1       0.045  -8.410  -3.231  1.00  0.00     0.005 C 
ATOM     15  C   UNL     1      -0.866  -7.295  -3.733  1.00  0.00    -0.001 C 
ATOM     16  C   UNL     1      -0.446  -4.718  -3.799  1.00  0.00     0.007 C 
ATOM     17  C   UNL     1       0.035  -6.174  -5.791  1.00  0.00     0.012 C 
ATOM     18  C   UNL     1      -1.974  -6.886  -2.727  1.00  0.00     0.000 C 
ATOM     19  C   UNL     1      -1.974  -4.511  -3.671  1.00  0.00     0.005 C 
ATOM     20  C   UNL     1      -2.839  -5.768  -3.349  1.00  0.00     0.003 C 
ATOM     21  C   UNL     1      -1.500  -6.515  -1.305  1.00  0.00     0.031 C 
ATOM     22  C   UNL     1      -4.106  -5.465  -2.453  1.00  0.00    -0.008 C 
ATOM     23  C   UNL     1      -2.573  -5.841  -0.478  1.00  0.00    -0.027 C 
ATOM     24  C   UNL     1      -3.693  -5.271  -0.987  1.00  0.00    -0.065 C 
ATOM     25  C   UNL     1      -4.874  -4.199  -2.972  1.00  0.00     0.014 C 
ATOM     26  C   UNL     1      -5.097  -6.665  -2.517  1.00  0.00     0.016 C 
ATOM     27  C   UNL     1      -4.685  -4.641  -0.025  1.00  0.00     0.063 C 
ATOM     28  C   UNL     1      -5.955  -3.693  -2.008  1.00  0.00     0.033 C 
ATOM     29  C   UNL     1      -5.342  -3.390  -0.632  1.00  0.00     0.118 C 
BRANCH  29  30
ATOM     30  O   UNL     1      -6.313  -2.865   0.239  1.00  0.00    -0.393 OA
ATOM     31  H   UNL     1      -6.014  -3.049   1.167  1.00  0.00     0.210 HD
ENDBRANCH  29  30
ENDBRANCH   9  11
ENDBRANCH   1   9
TORSDOF 7
ENDMDL
MODEL 5
REMARK VINA RESULT:    -5.634     13.248     15.772
REMARK INTER + INTRA:          -9.269
REMARK INTER:                  -8.323
REMARK INTRA:                  -0.946
REMARK UNBOUND:                -1.494
REMARK SMILES CC[C@@H](CC[C@H](C)[C@@H]1CC[C@H]2[C@H]3CC=C4C[C@H](O)CC[C@@]4(C)[C@H]3CC[C@]21C)C(C)C
REMARK SMILES IDX 5 1 4 2 3 3 2 4 1 5 28 6 29 7 30 8 6 9 7 10 8 11 9 12 26 13
REMARK SMILES IDX 10 14 11 15 25 16 27 17 12 18 24 19 23 20 13 21 21 22 14 23
REMARK SMILES IDX 15 24 20 25 22 26 16 27 19 28 17 29 18 30
REMARK H PARENT 18 31
REMARK Flexibility Score: inf
ROOT
ATOM      1  C   UNL     1      -3.817  -4.952   1.397  1.00  0.00     0.004 C 
ENDROOT
BRANCH   1   2
ATOM      2  C   UNL     1      -3.719  -3.743   0.440  1.00  0.00     0.004 C 
BRANCH   2   3
ATOM      3  C   UNL     1      -3.468  -4.126  -1.057  1.00  0.00    -0.009 C 
BRANCH   3   4
ATOM      4  C   UNL     1      -1.986  -3.827  -1.433  1.00  0.00     0.000 C 
ATOM      5  C   UNL     1      -1.331  -4.941  -2.256  1.00  0.00     0.004 C 
ENDBRANCH   3   4
BRANCH   3   6
ATOM      6  C   UNL     1      -4.457  -3.383  -2.031  1.00  0.00    -0.014 C 
ATOM      7  C   UNL     1      -4.992  -4.316  -3.140  1.00  0.00     0.007 C 
ATOM      8  C   UNL     1      -5.671  -2.776  -1.301  1.00  0.00     0.007 C 
ENDBRANCH   3   6
ENDBRANCH   2   3
ENDBRANCH   1   2
BRANCH   1   9
ATOM      9  C   UNL     1      -5.173  -5.042   2.160  1.00  0.00    -0.011 C 
ATOM     10  C   UNL     1      -6.387  -5.059   1.203  1.00  0.00     0.008 C 
BRANCH   9  11
ATOM     11  C   UNL     1      -5.273  -4.014   3.341  1.00  0.00    -0.002 C 
ATOM     12  C   UNL     1      -3.930  -3.842   4.077  1.00  0.00     0.005 C 
ATOM     13  C   UNL     1      -6.401  -4.157   4.448  1.00  0.00    -0.026 C 
ATOM     14  C   UNL     1      -4.157  -4.235   5.518  1.00  0.00     0.005 C 
ATOM     15  C   UNL     1      -5.639  -4.012   5.804  1.00  0.00    -0.001 C 
ATOM     16  C   UNL     1      -7.502  -3.059   4.241  1.00  0.00     0.007 C 
ATOM     17  C   UNL     1      -7.115  -5.533   4.457  1.00  0.00     0.012 C 
ATOM     18  C   UNL     1      -5.937  -2.722   6.612  1.00  0.00     0.000 C 
ATOM     19  C   UNL     1      -8.232  -2.541   5.503  1.00  0.00     0.005 C 
ATOM     20  C   UNL     1      -7.459  -2.614   6.855  1.00  0.00     0.003 C 
ATOM     21  C   UNL     1      -5.357  -1.411   6.041  1.00  0.00     0.031 C 
ATOM     22  C   UNL     1      -7.792  -1.432   7.851  1.00  0.00    -0.008 C 
ATOM     23  C   UNL     1      -5.931  -0.173   6.693  1.00  0.00    -0.027 C 
ATOM     24  C   UNL     1      -7.078  -0.145   7.416  1.00  0.00    -0.065 C 
ATOM     25  C   UNL     1      -9.340  -1.190   7.940  1.00  0.00     0.014 C 
ATOM     26  C   UNL     1      -7.298  -1.794   9.283  1.00  0.00     0.016 C 
ATOM     27  C   UNL     1      -7.522   1.177   8.019  1.00  0.00     0.063 C 
ATOM     28  C   UNL     1      -9.722   0.099   8.679  1.00  0.00     0.033 C 
ATOM     29  C   UNL     1      -9.054   1.312   8.015  1.00  0.00     0.118 C 
BRANCH  29  30
ATOM     30  O   UNL     1      -9.449   2.505   8.646  1.00  0.00    -0.393 OA
ATOM     31  H   UNL     1      -9.814   3.108   7.948  1.00  0.00     0.210 HD
ENDBRANCH  29  30
ENDBRANCH   9  11
ENDBRANCH   1   9
TORSDOF 7
ENDMDL
MODEL 6
REMARK VINA RESULT:    -5.582      7.544     11.672
REMARK INTER + INTRA:          -9.197
REMARK INTER:                  -7.655
REMARK INTRA:                  -1.541
REMARK UNBOUND:                -1.494
REMARK SMILES CC[C@@H](CC[C@H](C)[C@@H]1CC[C@H]2[C@H]3CC=C4C[C@H](O)CC[C@@]4(C)[C@H]3CC[C@]21C)C(C)C
REMARK SMILES IDX 5 1 4 2 3 3 2 4 1 5 28 6 29 7 30 8 6 9 7 10 8 11 9 12 26 13
REMARK SMILES IDX 10 14 11 15 25 16 27 17 12 18 24 19 23 20 13 21 21 22 14 23
REMARK SMILES IDX 15 24 20 25 22 26 16 27 19 28 17 29 18 30
REMARK H PARENT 18 31
REMARK Flexibility Score: inf
ROOT
ATOM      1  C   UNL     1      -5.531  -4.077  -0.099  1.00  0.00     0.004 C 
ENDROOT
BRANCH   1   2
ATOM      2  C   UNL     1      -6.750  -4.413   0.787  1.00  0.00     0.004 C 
BRANCH   2   3
ATOM      3  C   UNL     1      -6.685  -5.824   1.464  1.00  0.00    -0.009 C 
BRANCH   3   4
ATOM      4  C   UNL     1      -7.696  -6.785   0.770  1.00  0.00     0.000 C 
ATOM      5  C   UNL     1      -7.062  -8.101   0.306  1.00  0.00     0.004 C 
ENDBRANCH   3   4
BRANCH   3   6
ATOM      6  C   UNL     1      -6.952  -5.748   3.014  1.00  0.00    -0.014 C 
ATOM      7  C   UNL     1      -5.814  -6.398   3.832  1.00  0.00     0.007 C 
ATOM      8  C   UNL     1      -7.131  -4.304   3.519  1.00  0.00     0.007 C 
ENDBRANCH   3   6
ENDBRANCH   2   3
ENDBRANCH   1   2
BRANCH   1   9
ATOM      9  C   UNL     1      -4.192  -4.690   0.414  1.00  0.00    -0.011 C 
ATOM     10  C   UNL     1      -3.755  -4.094   1.773  1.00  0.00     0.008 C 
BRANCH   9  11
ATOM     11  C   UNL     1      -3.076  -4.717  -0.688  1.00  0.00    -0.002 C 
ATOM     12  C   UNL     1      -3.236  -3.569  -1.704  1.00  0.00     0.005 C 
ATOM     13  C   UNL     1      -2.782  -6.039  -1.514  1.00  0.00    -0.026 C 
ATOM     14  C   UNL     1      -3.413  -4.201  -3.066  1.00  0.00     0.005 C 
ATOM     15  C   UNL     1      -2.743  -5.570  -3.004  1.00  0.00    -0.001 C 
ATOM     16  C   UNL     1      -1.435  -6.685  -1.037  1.00  0.00     0.007 C 
ATOM     17  C   UNL     1      -3.884  -7.123  -1.395  1.00  0.00     0.012 C 
ATOM     18  C   UNL     1      -1.353  -5.623  -3.692  1.00  0.00     0.000 C 
ATOM     19  C   UNL     1      -0.613  -7.469  -2.087  1.00  0.00     0.005 C 
ATOM     20  C   UNL     1      -0.785  -7.054  -3.581  1.00  0.00     0.003 C 
ATOM     21  C   UNL     1      -0.326  -4.564  -3.236  1.00  0.00     0.031 C 
ATOM     22  C   UNL     1       0.529  -7.212  -4.447  1.00  0.00    -0.008 C 
ATOM     23  C   UNL     1       1.080  -4.858  -3.711  1.00  0.00    -0.027 C 
ATOM     24  C   UNL     1       1.507  -6.066  -4.154  1.00  0.00    -0.065 C 
ATOM     25  C   UNL     1       1.218  -8.596  -4.177  1.00  0.00     0.014 C 
ATOM     26  C   UNL     1       0.170  -7.162  -5.962  1.00  0.00     0.016 C 
ATOM     27  C   UNL     1       2.950  -6.201  -4.609  1.00  0.00     0.063 C 
ATOM     28  C   UNL     1       2.625  -8.713  -4.780  1.00  0.00     0.033 C 
ATOM     29  C   UNL     1       3.524  -7.583  -4.255  1.00  0.00     0.118 C 
BRANCH  29  30
ATOM     30  O   UNL     1       4.833  -7.719  -4.751  1.00  0.00    -0.393 OA
ATOM     31  H   UNL     1       5.185  -6.808  -4.925  1.00  0.00     0.210 HD
ENDBRANCH  29  30
ENDBRANCH   9  11
ENDBRANCH   1   9
TORSDOF 7
ENDMDL
MODEL 7
REMARK VINA RESULT:    -5.500      6.332     10.506
REMARK INTER + INTRA:          -9.084
REMARK INTER:                  -7.425
REMARK INTRA:                  -1.659
REMARK UNBOUND:                -1.494
REMARK SMILES CC[C@@H](CC[C@H](C)[C@@H]1CC[C@H]2[C@H]3CC=C4C[C@H](O)CC[C@@]4(C)[C@H]3CC[C@]21C)C(C)C
REMARK SMILES IDX 5 1 4 2 3 3 2 4 1 5 28 6 29 7 30 8 6 9 7 10 8 11 9 12 26 13
REMARK SMILES IDX 10 14 11 15 25 16 27 17 12 18 24 19 23 20 13 21 21 22 14 23
REMARK SMILES IDX 15 24 20 25 22 26 16 27 19 28 17 29 18 30
REMARK H PARENT 18 31
REMARK Flexibility Score: inf
ROOT
ATOM      1  C   UNL     1      -3.798  -7.039  -0.950  1.00  0.00     0.004 C 
ENDROOT
BRANCH   1   2
ATOM      2  C   UNL     1      -4.565  -5.732  -0.654  1.00  0.00     0.004 C 
BRANCH   2   3
ATOM      3  C   UNL     1      -3.774  -4.428  -1.010  1.00  0.00    -0.009 C 
BRANCH   3   4
ATOM      4  C   UNL     1      -3.313  -3.720   0.299  1.00  0.00     0.000 C 
ATOM      5  C   UNL     1      -3.872  -4.370   1.570  1.00  0.00     0.004 C 
ENDBRANCH   3   4
BRANCH   3   6
ATOM      6  C   UNL     1      -4.619  -3.451  -1.911  1.00  0.00    -0.014 C 
ATOM      7  C   UNL     1      -5.077  -4.122  -3.225  1.00  0.00     0.007 C 
ATOM      8  C   UNL     1      -5.872  -2.913  -1.194  1.00  0.00     0.007 C 
ENDBRANCH   3   6
ENDBRANCH   2   3
ENDBRANCH   1   2
BRANCH   1   9
ATOM      9  C   UNL     1      -3.586  -7.314  -2.470  1.00  0.00    -0.011 C 
ATOM     10  C   UNL     1      -4.669  -8.250  -3.056  1.00  0.00     0.008 C 
BRANCH   9  11
ATOM     11  C   UNL     1      -2.108  -7.714  -2.813  1.00  0.00    -0.002 C 
ATOM     12  C   UNL     1      -1.310  -8.116  -1.557  1.00  0.00     0.005 C 
ATOM     13  C   UNL     1      -1.184  -6.750  -3.669  1.00  0.00    -0.026 C 
ATOM     14  C   UNL     1      -0.136  -7.170  -1.453  1.00  0.00     0.005 C 
ATOM     15  C   UNL     1       0.155  -6.676  -2.867  1.00  0.00    -0.001 C 
ATOM     16  C   UNL     1      -1.002  -7.324  -5.117  1.00  0.00     0.007 C 
ATOM     17  C   UNL     1      -1.726  -5.304  -3.808  1.00  0.00     0.012 C 
ATOM     18  C   UNL     1       1.380  -7.356  -3.532  1.00  0.00     0.000 C 
ATOM     19  C   UNL     1       0.332  -7.017  -5.839  1.00  0.00     0.005 C 
ATOM     20  C   UNL     1       1.585  -6.765  -4.944  1.00  0.00     0.003 C 
ATOM     21  C   UNL     1       1.373  -8.900  -3.556  1.00  0.00     0.031 C 
ATOM     22  C   UNL     1       2.942  -7.271  -5.580  1.00  0.00    -0.008 C 
ATOM     23  C   UNL     1       2.423  -9.484  -4.475  1.00  0.00    -0.027 C 
ATOM     24  C   UNL     1       3.057  -8.797  -5.456  1.00  0.00    -0.065 C 
ATOM     25  C   UNL     1       3.054  -6.838  -7.084  1.00  0.00     0.014 C 
ATOM     26  C   UNL     1       4.147  -6.636  -4.825  1.00  0.00     0.016 C 
ATOM     27  C   UNL     1       4.098  -9.522  -6.292  1.00  0.00     0.063 C 
ATOM     28  C   UNL     1       4.212  -7.510  -7.835  1.00  0.00     0.033 C 
ATOM     29  C   UNL     1       4.086  -9.039  -7.751  1.00  0.00     0.118 C 
BRANCH  29  30
ATOM     30  O   UNL     1       5.106  -9.663  -8.490  1.00  0.00    -0.393 OA
ATOM     31  H   UNL     1       5.366 -10.489  -8.006  1.00  0.00     0.210 HD
ENDBRANCH  29  30
ENDBRANCH   9  11
ENDBRANCH   1   9
TORSDOF 7
ENDMDL
MODEL 8
REMARK VINA RESULT:    -5.440      8.196     11.754
REMARK INTER + INTRA:          -9.000
REMARK INTER:                  -7.396
REMARK INTRA:                  -1.604
REMARK UNBOUND:                -1.494
REMARK SMILES CC[C@@H](CC[C@H](C)[C@@H]1CC[C@H]2[C@H]3CC=C4C[C@H](O)CC[C@@]4(C)[C@H]3CC[C@]21C)C(C)C
REMARK SMILES IDX 5 1 4 2 3 3 2 4 1 5 28 6 29 7 30 8 6 9 7 10 8 11 9 12 26 13
REMARK SMILES IDX 10 14 11 15 25 16 27 17 12 18 24 19 23 20 13 21 21 22 14 23
REMARK SMILES IDX 15 24 20 25 22 26 16 27 19 28 17 29 18 30
REMARK H PARENT 18 31
REMARK Flexibility Score: inf
ROOT
ATOM      1  C   UNL     1      -1.104  -6.230  -4.774  1.00  0.00     0.004 C 
ENDROOT
BRANCH   1   2
ATOM      2  C   UNL     1       0.356  -5.886  -5.142  1.00  0.00     0.004 C 
BRANCH   2   3
ATOM      3  C   UNL     1       1.394  -6.993  -4.757  1.00  0.00    -0.009 C 
BRANCH   3   4
ATOM      4  C   UNL     1       0.690  -8.106  -3.924  1.00  0.00     0.000 C 
ATOM      5  C   UNL     1       1.100  -8.110  -2.448  1.00  0.00     0.004 C 
ENDBRANCH   3   4
BRANCH   3   6
ATOM      6  C   UNL     1       2.627  -6.401  -3.977  1.00  0.00    -0.014 C 
ATOM      7  C   UNL     1       3.953  -6.606  -4.742  1.00  0.00     0.007 C 
ATOM      8  C   UNL     1       2.481  -4.896  -3.682  1.00  0.00     0.007 C 
ENDBRANCH   3   6
ENDBRANCH   2   3
ENDBRANCH   1   2
BRANCH   1   9
ATOM      9  C   UNL     1      -1.848  -5.087  -4.018  1.00  0.00    -0.011 C 
ATOM     10  C   UNL     1      -1.011  -3.789  -3.944  1.00  0.00     0.008 C 
BRANCH   9  11
ATOM     11  C   UNL     1      -2.459  -5.561  -2.653  1.00  0.00    -0.002 C 
ATOM     12  C   UNL     1      -2.539  -7.097  -2.555  1.00  0.00     0.005 C 
ATOM     13  C   UNL     1      -3.846  -4.985  -2.141  1.00  0.00    -0.026 C 
ATOM     14  C   UNL     1      -3.994  -7.458  -2.364  1.00  0.00     0.005 C 
ATOM     15  C   UNL     1      -4.664  -6.248  -1.720  1.00  0.00    -0.001 C 
ATOM     16  C   UNL     1      -3.610  -3.983  -0.959  1.00  0.00     0.007 C 
ATOM     17  C   UNL     1      -4.666  -4.239  -3.225  1.00  0.00     0.012 C 
ATOM     18  C   UNL     1      -4.923  -6.408  -0.199  1.00  0.00     0.000 C 
ATOM     19  C   UNL     1      -4.718  -3.881   0.116  1.00  0.00     0.005 C 
ATOM     20  C   UNL     1      -5.617  -5.136   0.336  1.00  0.00     0.003 C 
ATOM     21  C   UNL     1      -3.703  -6.797   0.664  1.00  0.00     0.031 C 
ATOM     22  C   UNL     1      -6.092  -5.334   1.831  1.00  0.00    -0.008 C 
ATOM     23  C   UNL     1      -3.950  -6.638   2.148  1.00  0.00    -0.027 C 
ATOM     24  C   UNL     1      -4.950  -5.899   2.687  1.00  0.00    -0.065 C 
ATOM     25  C   UNL     1      -6.611  -3.984   2.440  1.00  0.00     0.014 C 
ATOM     26  C   UNL     1      -7.274  -6.348   1.879  1.00  0.00     0.016 C 
ATOM     27  C   UNL     1      -5.074  -5.844   4.200  1.00  0.00     0.063 C 
ATOM     28  C   UNL     1      -6.843  -4.040   3.956  1.00  0.00     0.033 C 
ATOM     29  C   UNL     1      -5.553  -4.462   4.677  1.00  0.00     0.118 C 
BRANCH  29  30
ATOM     30  O   UNL     1      -5.737  -4.454   6.071  1.00  0.00    -0.393 OA
ATOM     31  H   UNL     1      -6.625  -4.853   6.259  1.00  0.00     0.210 HD
ENDBRANCH  29  30
ENDBRANCH   9  11
ENDBRANCH   1   9
TORSDOF 7
ENDMDL
MODEL 9
REMARK VINA RESULT:    -5.369      5.265      9.054
REMARK INTER + INTRA:          -8.902
REMARK INTER:                  -7.180
REMARK INTRA:                  -1.723
REMARK UNBOUND:                -1.494
REMARK SMILES CC[C@@H](CC[C@H](C)[C@@H]1CC[C@H]2[C@H]3CC=C4C[C@H](O)CC[C@@]4(C)[C@H]3CC[C@]21C)C(C)C
REMARK SMILES IDX 5 1 4 2 3 3 2 4 1 5 28 6 29 7 30 8 6 9 7 10 8 11 9 12 26 13
REMARK SMILES IDX 10 14 11 15 25 16 27 17 12 18 24 19 23 20 13 21 21 22 14 23
REMARK SMILES IDX 15 24 20 25 22 26 16 27 19 28 17 29 18 30
REMARK H PARENT 18 31
REMARK Flexibility Score: inf
ROOT
ATOM      1  C   UNL     1       4.822  -8.103  -6.644  1.00  0.00     0.004 C 
ENDROOT
BRANCH   1   2
ATOM      2  C   UNL     1       5.864  -7.678  -7.701  1.00  0.00     0.004 C 
BRANCH   2   3
ATOM      3  C   UNL     1       6.944  -6.675  -7.173  1.00  0.00    -0.009 C 
BRANCH   3   4
ATOM      4  C   UNL     1       6.929  -6.661  -5.615  1.00  0.00     0.000 C 
ATOM      5  C   UNL     1       8.167  -5.999  -5.002  1.00  0.00     0.004 C 
ENDBRANCH   3   4
BRANCH   3   6
ATOM      6  C   UNL     1       6.738  -5.225  -7.751  1.00  0.00    -0.014 C 
ATOM      7  C   UNL     1       6.544  -5.232  -9.284  1.00  0.00     0.007 C 
ATOM      8  C   UNL     1       5.530  -4.499  -7.126  1.00  0.00     0.007 C 
ENDBRANCH   3   6
ENDBRANCH   2   3
ENDBRANCH   1   2
BRANCH   1   9
ATOM      9  C   UNL     1       3.345  -7.959  -7.122  1.00  0.00    -0.011 C 
ATOM     10  C   UNL     1       3.246  -7.470  -8.586  1.00  0.00     0.008 C 
BRANCH   9  11
ATOM     11  C   UNL     1       2.450  -7.176  -6.099  1.00  0.00    -0.002 C 
ATOM     12  C   UNL     1       3.291  -6.336  -5.117  1.00  0.00     0.005 C 
ATOM     13  C   UNL     1       1.343  -7.927  -5.246  1.00  0.00    -0.026 C 
ATOM     14  C   UNL     1       2.975  -6.830  -3.724  1.00  0.00     0.005 C 
ATOM     15  C   UNL     1       1.577  -7.438  -3.781  1.00  0.00    -0.001 C 
ATOM     16  C   UNL     1      -0.085  -7.578  -5.791  1.00  0.00     0.007 C 
ATOM     17  C   UNL     1       1.476  -9.472  -5.250  1.00  0.00     0.012 C 
ATOM     18  C   UNL     1       0.470  -6.527  -3.189  1.00  0.00     0.000 C 
ATOM     19  C   UNL     1      -1.249  -7.563  -4.771  1.00  0.00     0.005 C 
ATOM     20  C   UNL     1      -0.891  -7.252  -3.285  1.00  0.00     0.003 C 
ATOM     21  C   UNL     1       0.393  -5.092  -3.753  1.00  0.00     0.031 C 
ATOM     22  C   UNL     1      -2.014  -6.457  -2.506  1.00  0.00    -0.008 C 
ATOM     23  C   UNL     1      -0.878  -4.369  -3.365  1.00  0.00    -0.027 C 
ATOM     24  C   UNL     1      -2.001  -4.976  -2.907  1.00  0.00    -0.065 C 
ATOM     25  C   UNL     1      -3.430  -7.078  -2.771  1.00  0.00     0.014 C 
ATOM     26  C   UNL     1      -1.752  -6.541  -0.973  1.00  0.00     0.016 C 
ATOM     27  C   UNL     1      -3.196  -4.110  -2.548  1.00  0.00     0.063 C 
ATOM     28  C   UNL     1      -4.590  -6.211  -2.263  1.00  0.00     0.033 C 
ATOM     29  C   UNL     1      -4.522  -4.810  -2.889  1.00  0.00     0.118 C 
BRANCH  29  30
ATOM     30  O   UNL     1      -5.616  -4.029  -2.480  1.00  0.00    -0.393 OA
ATOM     31  H   UNL     1      -6.363  -4.646  -2.266  1.00  0.00     0.210 HD
ENDBRANCH  29  30
ENDBRANCH   9  11
ENDBRANCH   1   9
TORSDOF 7
ENDMDL
