MODEL 1
REMARK VINA RESULT:    -4.486      0.000      0.000
REMARK INTER + INTRA:          -5.036
REMARK INTER:                  -4.879
REMARK INTRA:                  -0.157
REMARK UNBOUND:                -0.157
REMARK SMILES C[C@H]1[C@H](C)CC[C@]2(C(=O)[O-])CC[C@]3(C)C(=CC[C@@H]4[C@]5(C)CC[C@H](O)C(C)(C)[C@H]5CC[C@@]43C)[C@H]12
REMARK SMILES IDX 7 1 6 2 11 3 33 4 5 5 12 6 15 7 2 8 3 9 13 10 16 11 1 12
REMARK SMILES IDX 4 13 14 14 31 15 17 16 18 17 30 18 32 19 19 20 29 21 28 22
REMARK SMILES IDX 21 23 20 24 25 25 22 26 23 27 26 28 27 29 8 30 9 31 10 32
REMARK SMILES IDX 24 33
REMARK H PARENT 24 34
REMARK Flexibility Score: inf
ROOT
ATOM      1  C   UNL     1    -132.281  40.274  16.114  1.00  0.00     0.017 C 
ATOM      2  C   UNL     1    -133.723  40.565  16.655  1.00  0.00     0.014 C 
ATOM      3  C   UNL     1    -132.385  39.123  15.087  1.00  0.00     0.014 C 
ATOM      4  C   UNL     1    -131.310  39.837  17.265  1.00  0.00     0.030 C 
ATOM      5  C   UNL     1    -133.741  40.890  18.150  1.00  0.00     0.004 C 
ATOM      6  C   UNL     1    -131.041  38.775  14.450  1.00  0.00     0.013 C 
ATOM      7  C   UNL     1    -129.991  39.248  16.733  1.00  0.00    -0.063 C 
ATOM      8  C   UNL     1    -132.046  38.924  18.303  1.00  0.00    -0.003 C 
ATOM      9  C   UNL     1    -133.219  39.701  18.995  1.00  0.00    -0.011 C 
ATOM     10  C   UNL     1    -129.892  38.398  15.458  1.00  0.00    -0.006 C 
ATOM     11  C   UNL     1    -128.891  39.433  17.483  1.00  0.00    -0.027 C 
ATOM     12  C   UNL     1    -131.107  38.342  19.378  1.00  0.00     0.008 C 
ATOM     13  C   UNL     1    -134.372  38.751  19.361  1.00  0.00     0.008 C 
ATOM     14  C   UNL     1    -130.120  36.920  15.884  1.00  0.00     0.017 C 
ATOM     15  C   UNL     1    -128.429  38.589  14.786  1.00  0.00    -0.020 C 
ATOM     16  C   UNL     1    -127.606  38.697  17.274  1.00  0.00     0.032 C 
ATOM     17  C   UNL     1    -127.294  38.171  15.826  1.00  0.00     0.006 C 
ATOM     18  C   UNL     1    -128.192  40.088  14.372  1.00  0.00     0.008 C 
ATOM     19  C   UNL     1    -128.349  37.699  13.500  1.00  0.00     0.012 C 
ATOM     20  C   UNL     1    -125.789  38.505  15.399  1.00  0.00    -0.025 C 
ATOM     21  C   UNL     1    -126.747  40.444  13.981  1.00  0.00     0.005 C 
ATOM     22  C   UNL     1    -125.712  40.044  15.064  1.00  0.00     0.003 C 
ATOM     23  C   UNL     1    -124.784  38.121  16.568  1.00  0.00     0.010 C 
ATOM     24  C   UNL     1    -125.343  37.632  14.180  1.00  0.00     0.012 C 
ATOM     25  C   UNL     1    -124.253  40.633  14.828  1.00  0.00    -0.006 C 
ATOM     26  C   UNL     1    -123.787  39.228  16.927  1.00  0.00     0.033 C 
ATOM     27  C   UNL     1    -123.180  39.835  15.660  1.00  0.00     0.120 C 
ATOM     28  C   UNL     1    -123.837  40.600  13.334  1.00  0.00     0.014 C 
ATOM     29  C   UNL     1    -124.247  42.125  15.272  1.00  0.00     0.014 C 
ENDROOT
BRANCH   1  30
ATOM     30  C   UNL     1    -131.775  41.536  15.418  1.00  0.00     0.048 C 
ATOM     31  O   UNL     1    -130.731  42.125  15.807  1.00  0.00    -0.550 OA
ATOM     32  O   UNL     1    -132.505  42.094  14.375  1.00  0.00    -0.550 OA
ENDBRANCH   1  30
BRANCH  27  33
ATOM     33  O   UNL     1    -122.089  40.644  16.029  1.00  0.00    -0.393 OA
ATOM     34  H   UNL     1    -122.447  41.551  16.212  1.00  0.00     0.210 HD
ENDBRANCH  27  33
TORSDOF 2
ENDMDL
MODEL 2
REMARK VINA RESULT:    -4.249      9.718     12.320
REMARK INTER + INTRA:          -4.779
REMARK INTER:                  -4.585
REMARK INTRA:                  -0.194
REMARK UNBOUND:                -0.157
REMARK SMILES C[C@H]1[C@H](C)CC[C@]2(C(=O)[O-])CC[C@]3(C)C(=CC[C@@H]4[C@]5(C)CC[C@H](O)C(C)(C)[C@H]5CC[C@@]43C)[C@H]12
REMARK SMILES IDX 7 1 6 2 11 3 33 4 5 5 12 6 15 7 2 8 3 9 13 10 16 11 1 12
REMARK SMILES IDX 4 13 14 14 31 15 17 16 18 17 30 18 32 19 19 20 29 21 28 22
REMARK SMILES IDX 21 23 20 24 25 25 22 26 23 27 26 28 27 29 8 30 9 31 10 32
REMARK SMILES IDX 24 33
REMARK H PARENT 24 34
REMARK Flexibility Score: inf
ROOT
ATOM      1  C   UNL     1    -127.668  38.056   4.988  1.00  0.00     0.017 C 
ATOM      2  C   UNL     1    -129.233  37.996   5.046  1.00  0.00     0.014 C 
ATOM      3  C   UNL     1    -127.118  37.132   6.100  1.00  0.00     0.014 C 
ATOM      4  C   UNL     1    -127.136  39.511   5.231  1.00  0.00     0.030 C 
ATOM      5  C   UNL     1    -129.889  39.352   4.780  1.00  0.00     0.004 C 
ATOM      6  C   UNL     1    -125.593  37.071   6.116  1.00  0.00     0.013 C 
ATOM      7  C   UNL     1    -125.620  39.550   5.491  1.00  0.00    -0.063 C 
ATOM      8  C   UNL     1    -127.993  40.245   6.319  1.00  0.00    -0.003 C 
ATOM      9  C   UNL     1    -129.479  40.398   5.847  1.00  0.00    -0.011 C 
ATOM     10  C   UNL     1    -124.860  38.457   6.256  1.00  0.00    -0.006 C 
ATOM     11  C   UNL     1    -124.958  40.648   5.088  1.00  0.00    -0.027 C 
ATOM     12  C   UNL     1    -127.429  41.626   6.708  1.00  0.00     0.008 C 
ATOM     13  C   UNL     1    -130.446  40.356   7.043  1.00  0.00     0.008 C 
ATOM     14  C   UNL     1    -124.902  38.850   7.761  1.00  0.00     0.017 C 
ATOM     15  C   UNL     1    -123.332  38.377   5.721  1.00  0.00    -0.020 C 
ATOM     16  C   UNL     1    -123.562  40.981   5.509  1.00  0.00     0.032 C 
ATOM     17  C   UNL     1    -122.616  39.791   5.906  1.00  0.00     0.006 C 
ATOM     18  C   UNL     1    -123.291  37.998   4.195  1.00  0.00     0.008 C 
ATOM     19  C   UNL     1    -122.576  37.269   6.529  1.00  0.00     0.012 C 
ATOM     20  C   UNL     1    -121.174  39.944   5.228  1.00  0.00    -0.025 C 
ATOM     21  C   UNL     1    -121.922  38.162   3.510  1.00  0.00     0.005 C 
ATOM     22  C   UNL     1    -121.316  39.575   3.702  1.00  0.00     0.003 C 
ATOM     23  C   UNL     1    -120.632  41.425   5.414  1.00  0.00     0.010 C 
ATOM     24  C   UNL     1    -120.119  39.035   5.940  1.00  0.00     0.012 C 
ATOM     25  C   UNL     1    -120.045  39.874   2.793  1.00  0.00    -0.006 C 
ATOM     26  C   UNL     1    -120.116  42.070   4.123  1.00  0.00     0.033 C 
ATOM     27  C   UNL     1    -119.221  41.093   3.355  1.00  0.00     0.120 C 
ATOM     28  C   UNL     1    -119.096  38.652   2.684  1.00  0.00     0.014 C 
ATOM     29  C   UNL     1    -120.536  40.201   1.352  1.00  0.00     0.014 C 
ENDROOT
BRANCH   1  30
ATOM     30  C   UNL     1    -127.226  37.531   3.622  1.00  0.00     0.048 C 
ATOM     31  O   UNL     1    -126.661  38.283   2.783  1.00  0.00    -0.550 OA
ATOM     32  O   UNL     1    -127.503  36.218   3.260  1.00  0.00    -0.550 OA
ENDBRANCH   1  30
BRANCH  27  33
ATOM     33  O   UNL     1    -118.559  41.800   2.334  1.00  0.00    -0.393 OA
ATOM     34  H   UNL     1    -118.002  41.144   1.840  1.00  0.00     0.210 HD
ENDBRANCH  27  33
TORSDOF 2
ENDMDL
MODEL 3
REMARK VINA RESULT:    -4.195      2.114      8.130
REMARK INTER + INTRA:          -4.720
REMARK INTER:                  -4.526
REMARK INTRA:                  -0.194
REMARK UNBOUND:                -0.157
REMARK SMILES C[C@H]1[C@H](C)CC[C@]2(C(=O)[O-])CC[C@]3(C)C(=CC[C@@H]4[C@]5(C)CC[C@H](O)C(C)(C)[C@H]5CC[C@@]43C)[C@H]12
REMARK SMILES IDX 7 1 6 2 11 3 33 4 5 5 12 6 15 7 2 8 3 9 13 10 16 11 1 12
REMARK SMILES IDX 4 13 14 14 31 15 17 16 18 17 30 18 32 19 19 20 29 21 28 22
REMARK SMILES IDX 21 23 20 24 25 25 22 26 23 27 26 28 27 29 8 30 9 31 10 32
REMARK SMILES IDX 24 33
REMARK H PARENT 24 34
REMARK Flexibility Score: inf
ROOT
ATOM      1  C   UNL     1    -122.621  39.032  15.333  1.00  0.00     0.017 C 
ATOM      2  C   UNL     1    -121.183  39.571  15.020  1.00  0.00     0.014 C 
ATOM      3  C   UNL     1    -122.931  37.901  14.325  1.00  0.00     0.014 C 
ATOM      4  C   UNL     1    -123.704  40.156  15.181  1.00  0.00     0.030 C 
ATOM      5  C   UNL     1    -121.071  41.088  15.175  1.00  0.00     0.004 C 
ATOM      6  C   UNL     1    -124.298  37.261  14.560  1.00  0.00     0.013 C 
ATOM      7  C   UNL     1    -125.138  39.596  15.173  1.00  0.00    -0.063 C 
ATOM      8  C   UNL     1    -123.374  41.091  13.969  1.00  0.00    -0.003 C 
ATOM      9  C   UNL     1    -122.009  41.830  14.191  1.00  0.00    -0.011 C 
ATOM     10  C   UNL     1    -125.521  38.251  14.542  1.00  0.00    -0.006 C 
ATOM     11  C   UNL     1    -126.104  40.381  15.680  1.00  0.00    -0.027 C 
ATOM     12  C   UNL     1    -124.479  42.125  13.678  1.00  0.00     0.008 C 
ATOM     13  C   UNL     1    -121.295  42.085  12.852  1.00  0.00     0.008 C 
ATOM     14  C   UNL     1    -125.863  38.534  13.051  1.00  0.00     0.017 C 
ATOM     15  C   UNL     1    -126.799  37.626  15.320  1.00  0.00    -0.020 C 
ATOM     16  C   UNL     1    -127.566  40.129  15.494  1.00  0.00     0.032 C 
ATOM     17  C   UNL     1    -128.026  38.645  15.256  1.00  0.00     0.006 C 
ATOM     18  C   UNL     1    -126.460  37.358  16.832  1.00  0.00     0.008 C 
ATOM     19  C   UNL     1    -127.181  36.265  14.646  1.00  0.00     0.012 C 
ATOM     20  C   UNL     1    -129.294  38.278  16.161  1.00  0.00    -0.025 C 
ATOM     21  C   UNL     1    -127.664  37.028  17.732  1.00  0.00     0.005 C 
ATOM     22  C   UNL     1    -128.791  38.088  17.643  1.00  0.00     0.003 C 
ATOM     23  C   UNL     1    -130.389  39.425  16.068  1.00  0.00     0.010 C 
ATOM     24  C   UNL     1    -130.010  36.992  15.631  1.00  0.00     0.012 C 
ATOM     25  C   UNL     1    -129.926  37.935  18.748  1.00  0.00    -0.006 C 
ATOM     26  C   UNL     1    -130.913  39.904  17.427  1.00  0.00     0.033 C 
ATOM     27  C   UNL     1    -131.232  38.709  18.330  1.00  0.00     0.120 C 
ATOM     28  C   UNL     1    -130.300  36.453  19.010  1.00  0.00     0.014 C 
ATOM     29  C   UNL     1    -129.388  38.515  20.089  1.00  0.00     0.014 C 
ENDROOT
BRANCH   1  30
ATOM     30  C   UNL     1    -122.613  38.465  16.752  1.00  0.00     0.048 C 
ATOM     31  O   UNL     1    -123.065  39.127  17.725  1.00  0.00    -0.550 OA
ATOM     32  O   UNL     1    -122.041  37.223  17.000  1.00  0.00    -0.550 OA
ENDBRANCH   1  30
BRANCH  27  33
ATOM     33  O   UNL     1    -131.953  39.172  19.446  1.00  0.00    -0.393 OA
ATOM     34  H   UNL     1    -131.288  39.447  20.130  1.00  0.00     0.210 HD
ENDBRANCH  27  33
TORSDOF 2
ENDMDL
MODEL 4
REMARK VINA RESULT:    -4.191     10.390     15.677
REMARK INTER + INTRA:          -4.716
REMARK INTER:                  -4.512
REMARK INTRA:                  -0.203
REMARK UNBOUND:                -0.157
REMARK SMILES C[C@H]1[C@H](C)CC[C@]2(C(=O)[O-])CC[C@]3(C)C(=CC[C@@H]4[C@]5(C)CC[C@H](O)C(C)(C)[C@H]5CC[C@@]43C)[C@H]12
REMARK SMILES IDX 7 1 6 2 11 3 33 4 5 5 12 6 15 7 2 8 3 9 13 10 16 11 1 12
REMARK SMILES IDX 4 13 14 14 31 15 17 16 18 17 30 18 32 19 19 20 29 21 28 22
REMARK SMILES IDX 21 23 20 24 25 25 22 26 23 27 26 28 27 29 8 30 9 31 10 32
REMARK SMILES IDX 24 33
REMARK H PARENT 24 34
REMARK Flexibility Score: inf
ROOT
ATOM      1  C   UNL     1    -118.415  40.229   3.829  1.00  0.00     0.017 C 
ATOM      2  C   UNL     1    -117.020  40.553   3.193  1.00  0.00     0.014 C 
ATOM      3  C   UNL     1    -118.201  39.143   4.909  1.00  0.00     0.014 C 
ATOM      4  C   UNL     1    -119.425  39.686   2.759  1.00  0.00     0.030 C 
ATOM      5  C   UNL     1    -117.097  40.796   1.685  1.00  0.00     0.004 C 
ATOM      6  C   UNL     1    -119.491  38.772   5.637  1.00  0.00     0.013 C 
ATOM      7  C   UNL     1    -120.684  39.069   3.395  1.00  0.00    -0.063 C 
ATOM      8  C   UNL     1    -118.702  38.750   1.731  1.00  0.00    -0.003 C 
ATOM      9  C   UNL     1    -117.607  39.539   0.934  1.00  0.00    -0.011 C 
ATOM     10  C   UNL     1    -120.673  38.288   4.717  1.00  0.00    -0.006 C 
ATOM     11  C   UNL     1    -121.830  39.162   2.699  1.00  0.00    -0.027 C 
ATOM     12  C   UNL     1    -119.669  38.068   0.744  1.00  0.00     0.008 C 
ATOM     13  C   UNL     1    -116.431  38.623   0.555  1.00  0.00     0.008 C 
ATOM     14  C   UNL     1    -120.398  36.800   4.358  1.00  0.00     0.017 C 
ATOM     15  C   UNL     1    -122.105  38.450   5.459  1.00  0.00    -0.020 C 
ATOM     16  C   UNL     1    -123.065  38.382   3.019  1.00  0.00     0.032 C 
ATOM     17  C   UNL     1    -123.273  37.924   4.508  1.00  0.00     0.006 C 
ATOM     18  C   UNL     1    -122.391  39.957   5.805  1.00  0.00     0.008 C 
ATOM     19  C   UNL     1    -122.074  37.630   6.793  1.00  0.00     0.012 C 
ATOM     20  C   UNL     1    -124.768  38.214   5.001  1.00  0.00    -0.025 C 
ATOM     21  C   UNL     1    -123.829  40.270   6.257  1.00  0.00     0.005 C 
ATOM     22  C   UNL     1    -124.900  39.764   5.258  1.00  0.00     0.003 C 
ATOM     23  C   UNL     1    -125.814  37.720   3.912  1.00  0.00     0.010 C 
ATOM     24  C   UNL     1    -125.105  37.391   6.287  1.00  0.00     0.012 C 
ATOM     25  C   UNL     1    -126.371  40.299   5.543  1.00  0.00    -0.006 C 
ATOM     26  C   UNL     1    -126.881  38.760   3.551  1.00  0.00     0.033 C 
ATOM     27  C   UNL     1    -127.448  39.409   4.817  1.00  0.00     0.120 C 
ATOM     28  C   UNL     1    -126.704  40.331   7.058  1.00  0.00     0.014 C 
ATOM     29  C   UNL     1    -126.472  41.762   5.022  1.00  0.00     0.014 C 
ENDROOT
BRANCH   1  30
ATOM     30  C   UNL     1    -118.943  41.504   4.484  1.00  0.00     0.048 C 
ATOM     31  O   UNL     1    -119.931  42.125   4.009  1.00  0.00    -0.550 OA
ATOM     32  O   UNL     1    -118.291  42.038   5.590  1.00  0.00    -0.550 OA
ENDBRANCH   1  30
BRANCH  27  33
ATOM     33  O   UNL     1    -128.594  40.146   4.467  1.00  0.00    -0.393 OA
ATOM     34  H   UNL     1    -129.287  39.493   4.187  1.00  0.00     0.210 HD
ENDBRANCH  27  33
TORSDOF 2
ENDMDL
MODEL 5
REMARK VINA RESULT:    -4.100      9.930     12.355
REMARK INTER + INTRA:          -4.616
REMARK INTER:                  -4.407
REMARK INTRA:                  -0.209
REMARK UNBOUND:                -0.157
REMARK SMILES C[C@H]1[C@H](C)CC[C@]2(C(=O)[O-])CC[C@]3(C)C(=CC[C@@H]4[C@]5(C)CC[C@H](O)C(C)(C)[C@H]5CC[C@@]43C)[C@H]12
REMARK SMILES IDX 7 1 6 2 11 3 33 4 5 5 12 6 15 7 2 8 3 9 13 10 16 11 1 12
REMARK SMILES IDX 4 13 14 14 31 15 17 16 18 17 30 18 32 19 19 20 29 21 28 22
REMARK SMILES IDX 21 23 20 24 25 25 22 26 23 27 26 28 27 29 8 30 9 31 10 32
REMARK SMILES IDX 24 33
REMARK H PARENT 24 34
REMARK Flexibility Score: inf
ROOT
ATOM      1  C   UNL     1    -128.473  36.967   5.326  1.00  0.00     0.017 C 
ATOM      2  C   UNL     1    -130.028  36.794   5.421  1.00  0.00     0.014 C 
ATOM      3  C   UNL     1    -127.871  36.595   6.700  1.00  0.00     0.014 C 
ATOM      4  C   UNL     1    -128.077  38.445   4.984  1.00  0.00     0.030 C 
ATOM      5  C   UNL     1    -130.793  37.879   4.663  1.00  0.00     0.004 C 
ATOM      6  C   UNL     1    -126.346  36.681   6.720  1.00  0.00     0.013 C 
ATOM      7  C   UNL     1    -126.576  38.717   5.190  1.00  0.00    -0.063 C 
ATOM      8  C   UNL     1    -129.019  39.461   5.716  1.00  0.00    -0.003 C 
ATOM      9  C   UNL     1    -130.502  39.287   5.240  1.00  0.00    -0.011 C 
ATOM     10  C   UNL     1    -125.742  38.075   6.307  1.00  0.00    -0.006 C 
ATOM     11  C   UNL     1    -126.003  39.630   4.388  1.00  0.00    -0.027 C 
ATOM     12  C   UNL     1    -128.588  40.930   5.538  1.00  0.00     0.008 C 
ATOM     13  C   UNL     1    -131.489  39.621   6.373  1.00  0.00     0.008 C 
ATOM     14  C   UNL     1    -125.852  39.010   7.546  1.00  0.00     0.017 C 
ATOM     15  C   UNL     1    -124.200  37.932   5.825  1.00  0.00    -0.020 C 
ATOM     16  C   UNL     1    -124.652  40.224   4.631  1.00  0.00     0.032 C 
ATOM     17  C   UNL     1    -123.615  39.367   5.443  1.00  0.00     0.006 C 
ATOM     18  C   UNL     1    -124.091  37.002   4.561  1.00  0.00     0.008 C 
ATOM     19  C   UNL     1    -123.368  37.292   6.988  1.00  0.00     0.012 C 
ATOM     20  C   UNL     1    -122.177  39.377   4.741  1.00  0.00    -0.025 C 
ATOM     21  C   UNL     1    -122.726  37.012   3.850  1.00  0.00     0.005 C 
ATOM     22  C   UNL     1    -122.251  38.439   3.476  1.00  0.00     0.003 C 
ATOM     23  C   UNL     1    -121.770  40.858   4.336  1.00  0.00     0.010 C 
ATOM     24  C   UNL     1    -121.063  38.909   5.734  1.00  0.00     0.012 C 
ATOM     25  C   UNL     1    -120.990  38.479   2.506  1.00  0.00    -0.006 C 
ATOM     26  C   UNL     1    -121.283  41.001   2.890  1.00  0.00     0.033 C 
ATOM     27  C   UNL     1    -120.289  39.888   2.546  1.00  0.00     0.120 C 
ATOM     28  C   UNL     1    -119.935  37.399   2.864  1.00  0.00     0.014 C 
ATOM     29  C   UNL     1    -121.474  38.182   1.057  1.00  0.00     0.014 C 
ENDROOT
BRANCH   1  30
ATOM     30  C   UNL     1    -127.955  36.000   4.261  1.00  0.00     0.048 C 
ATOM     31  O   UNL     1    -127.566  36.412   3.136  1.00  0.00    -0.550 OA
ATOM     32  O   UNL     1    -127.969  34.631   4.502  1.00  0.00    -0.550 OA
ENDBRANCH   1  30
BRANCH  27  33
ATOM     33  O   UNL     1    -119.668  40.205   1.323  1.00  0.00    -0.393 OA
ATOM     34  H   UNL     1    -120.253  40.859   0.860  1.00  0.00     0.210 HD
ENDBRANCH  27  33
TORSDOF 2
ENDMDL
MODEL 6
REMARK VINA RESULT:    -4.009      2.058      7.822
REMARK INTER + INTRA:          -4.517
REMARK INTER:                  -4.309
REMARK INTRA:                  -0.208
REMARK UNBOUND:                -0.157
REMARK SMILES C[C@H]1[C@H](C)CC[C@]2(C(=O)[O-])CC[C@]3(C)C(=CC[C@@H]4[C@]5(C)CC[C@H](O)C(C)(C)[C@H]5CC[C@@]43C)[C@H]12
REMARK SMILES IDX 7 1 6 2 11 3 33 4 5 5 12 6 15 7 2 8 3 9 13 10 16 11 1 12
REMARK SMILES IDX 4 13 14 14 31 15 17 16 18 17 30 18 32 19 19 20 29 21 28 22
REMARK SMILES IDX 21 23 20 24 25 25 22 26 23 27 26 28 27 29 8 30 9 31 10 32
REMARK SMILES IDX 24 33
REMARK H PARENT 24 34
REMARK Flexibility Score: inf
ROOT
ATOM      1  C   UNL     1    -124.564  37.494  16.028  1.00  0.00     0.017 C 
ATOM      2  C   UNL     1    -122.998  37.451  16.068  1.00  0.00     0.014 C 
ATOM      3  C   UNL     1    -125.019  36.889  14.679  1.00  0.00     0.014 C 
ATOM      4  C   UNL     1    -125.105  38.962  16.132  1.00  0.00     0.030 C 
ATOM      5  C   UNL     1    -122.387  38.692  16.720  1.00  0.00     0.004 C 
ATOM      6  C   UNL     1    -126.538  36.833  14.540  1.00  0.00     0.013 C 
ATOM      7  C   UNL     1    -126.600  39.066  15.784  1.00  0.00    -0.063 C 
ATOM      8  C   UNL     1    -124.190  39.953  15.334  1.00  0.00    -0.003 C 
ATOM      9  C   UNL     1    -122.742  39.979  15.933  1.00  0.00    -0.011 C 
ATOM     10  C   UNL     1    -127.285  38.208  14.710  1.00  0.00    -0.006 C 
ATOM     11  C   UNL     1    -127.309  40.022  16.409  1.00  0.00    -0.027 C 
ATOM     12  C   UNL     1    -124.751  41.387  15.275  1.00  0.00     0.008 C 
ATOM     13  C   UNL     1    -121.695  40.248  14.839  1.00  0.00     0.008 C 
ATOM     14  C   UNL     1    -127.148  38.977  13.365  1.00  0.00     0.017 C 
ATOM     15  C   UNL     1    -128.845  37.991  15.097  1.00  0.00    -0.020 C 
ATOM     16  C   UNL     1    -128.679  40.453  15.990  1.00  0.00     0.032 C 
ATOM     17  C   UNL     1    -129.573  39.405  15.233  1.00  0.00     0.006 C 
ATOM     18  C   UNL     1    -128.983  37.231  16.467  1.00  0.00     0.008 C 
ATOM     19  C   UNL     1    -129.523  37.130  13.978  1.00  0.00     0.012 C 
ATOM     20  C   UNL     1    -131.060  39.377  15.823  1.00  0.00    -0.025 C 
ATOM     21  C   UNL     1    -130.398  37.211  17.071  1.00  0.00     0.005 C 
ATOM     22  C   UNL     1    -131.016  38.625  17.208  1.00  0.00     0.003 C 
ATOM     23  C   UNL     1    -131.617  40.855  15.988  1.00  0.00     0.010 C 
ATOM     24  C   UNL     1    -132.047  38.682  14.828  1.00  0.00     0.012 C 
ATOM     25  C   UNL     1    -132.352  38.678  18.071  1.00  0.00    -0.006 C 
ATOM     26  C   UNL     1    -132.232  41.144  17.362  1.00  0.00     0.033 C 
ATOM     27  C   UNL     1    -133.158  40.001  17.786  1.00  0.00     0.120 C 
ATOM     28  C   UNL     1    -133.283  37.469  17.793  1.00  0.00     0.014 C 
ATOM     29  C   UNL     1    -131.967  38.622  19.579  1.00  0.00     0.014 C 
ENDROOT
BRANCH   1  30
ATOM     30  C   UNL     1    -125.089  36.633  17.177  1.00  0.00     0.048 C 
ATOM     31  O   UNL     1    -125.611  37.153  18.199  1.00  0.00    -0.550 OA
ATOM     32  O   UNL     1    -124.935  35.252  17.136  1.00  0.00    -0.550 OA
ENDBRANCH   1  30
BRANCH  27  33
ATOM     33  O   UNL     1    -133.901  40.419  18.905  1.00  0.00    -0.393 OA
ATOM     34  H   UNL     1    -134.833  40.567  18.598  1.00  0.00     0.210 HD
ENDBRANCH  27  33
TORSDOF 2
ENDMDL
MODEL 7
REMARK VINA RESULT:    -3.931      2.371      3.192
REMARK INTER + INTRA:          -4.433
REMARK INTER:                  -4.298
REMARK INTRA:                  -0.135
REMARK UNBOUND:                -0.157
REMARK SMILES C[C@H]1[C@H](C)CC[C@]2(C(=O)[O-])CC[C@]3(C)C(=CC[C@@H]4[C@]5(C)CC[C@H](O)C(C)(C)[C@H]5CC[C@@]43C)[C@H]12
REMARK SMILES IDX 7 1 6 2 11 3 33 4 5 5 12 6 15 7 2 8 3 9 13 10 16 11 1 12
REMARK SMILES IDX 4 13 14 14 31 15 17 16 18 17 30 18 32 19 19 20 29 21 28 22
REMARK SMILES IDX 21 23 20 24 25 25 22 26 23 27 26 28 27 29 8 30 9 31 10 32
REMARK SMILES IDX 24 33
REMARK H PARENT 24 34
REMARK Flexibility Score: inf
ROOT
ATOM      1  C   UNL     1    -131.350  40.185  16.293  1.00  0.00     0.017 C 
ATOM      2  C   UNL     1    -132.577  41.160  16.275  1.00  0.00     0.014 C 
ATOM      3  C   UNL     1    -131.650  39.031  15.308  1.00  0.00     0.014 C 
ATOM      4  C   UNL     1    -131.112  39.583  17.721  1.00  0.00     0.030 C 
ATOM      5  C   UNL     1    -132.911  41.719  17.659  1.00  0.00     0.004 C 
ATOM      6  C   UNL     1    -130.500  38.032  15.203  1.00  0.00     0.013 C 
ATOM      7  C   UNL     1    -130.128  38.400  17.706  1.00  0.00    -0.063 C 
ATOM      8  C   UNL     1    -132.474  39.276  18.433  1.00  0.00    -0.003 C 
ATOM      9  C   UNL     1    -133.299  40.591  18.648  1.00  0.00    -0.011 C 
ATOM     10  C   UNL     1    -130.042  37.381  16.561  1.00  0.00    -0.006 C 
ATOM     11  C   UNL     1    -129.369  38.221  18.800  1.00  0.00    -0.027 C 
ATOM     12  C   UNL     1    -132.306  38.546  19.779  1.00  0.00     0.008 C 
ATOM     13  C   UNL     1    -134.811  40.313  18.583  1.00  0.00     0.008 C 
ATOM     14  C   UNL     1    -131.053  36.246  16.892  1.00  0.00     0.017 C 
ATOM     15  C   UNL     1    -128.532  36.800  16.459  1.00  0.00    -0.020 C 
ATOM     16  C   UNL     1    -128.583  36.979  19.076  1.00  0.00     0.032 C 
ATOM     17  C   UNL     1    -128.115  36.123  17.843  1.00  0.00     0.006 C 
ATOM     18  C   UNL     1    -127.507  37.950  16.144  1.00  0.00     0.008 C 
ATOM     19  C   UNL     1    -128.475  35.750  15.298  1.00  0.00     0.012 C 
ATOM     20  C   UNL     1    -126.579  35.695  17.984  1.00  0.00    -0.025 C 
ATOM     21  C   UNL     1    -126.023  37.574  16.297  1.00  0.00     0.005 C 
ATOM     22  C   UNL     1    -125.694  36.964  17.683  1.00  0.00     0.003 C 
ATOM     23  C   UNL     1    -126.295  35.128  19.440  1.00  0.00     0.010 C 
ATOM     24  C   UNL     1    -126.234  34.515  17.016  1.00  0.00     0.012 C 
ATOM     25  C   UNL     1    -124.138  36.814  17.983  1.00  0.00    -0.006 C 
ATOM     26  C   UNL     1    -125.068  35.741  20.123  1.00  0.00     0.033 C 
ATOM     27  C   UNL     1    -123.884  35.792  19.154  1.00  0.00     0.120 C 
ATOM     28  C   UNL     1    -123.339  36.342  16.740  1.00  0.00     0.014 C 
ATOM     29  C   UNL     1    -123.578  38.210  18.384  1.00  0.00     0.014 C 
ENDROOT
BRANCH   1  30
ATOM     30  C   UNL     1    -130.125  40.962  15.813  1.00  0.00     0.048 C 
ATOM     31  O   UNL     1    -130.058  41.424  14.643  1.00  0.00    -0.550 OA
ATOM     32  O   UNL     1    -129.027  41.113  16.653  1.00  0.00    -0.550 OA
ENDBRANCH   1  30
BRANCH  27  33
ATOM     33  O   UNL     1    -122.721  36.103  19.883  1.00  0.00    -0.393 OA
ATOM     34  H   UNL     1    -122.419  35.265  20.320  1.00  0.00     0.210 HD
ENDBRANCH  27  33
TORSDOF 2
ENDMDL
MODEL 8
REMARK VINA RESULT:    -3.914      2.884      4.191
REMARK INTER + INTRA:          -4.414
REMARK INTER:                  -4.221
REMARK INTRA:                  -0.193
REMARK UNBOUND:                -0.157
REMARK SMILES C[C@H]1[C@H](C)CC[C@]2(C(=O)[O-])CC[C@]3(C)C(=CC[C@@H]4[C@]5(C)CC[C@H](O)C(C)(C)[C@H]5CC[C@@]43C)[C@H]12
REMARK SMILES IDX 7 1 6 2 11 3 33 4 5 5 12 6 15 7 2 8 3 9 13 10 16 11 1 12
REMARK SMILES IDX 4 13 14 14 31 15 17 16 18 17 30 18 32 19 19 20 29 21 28 22
REMARK SMILES IDX 21 23 20 24 25 25 22 26 23 27 26 28 27 29 8 30 9 31 10 32
REMARK SMILES IDX 24 33
REMARK H PARENT 24 34
REMARK Flexibility Score: inf
ROOT
ATOM      1  C   UNL     1    -128.447  39.645  15.522  1.00  0.00     0.017 C 
ATOM      2  C   UNL     1    -129.673  40.584  15.789  1.00  0.00     0.014 C 
ATOM      3  C   UNL     1    -128.920  38.502  14.593  1.00  0.00     0.014 C 
ATOM      4  C   UNL     1    -127.898  39.021  16.851  1.00  0.00     0.030 C 
ATOM      5  C   UNL     1    -129.720  41.105  17.226  1.00  0.00     0.004 C 
ATOM      6  C   UNL     1    -127.794  37.539  14.222  1.00  0.00     0.013 C 
ATOM      7  C   UNL     1    -126.911  37.868  16.599  1.00  0.00    -0.063 C 
ATOM      8  C   UNL     1    -129.070  38.661  17.827  1.00  0.00    -0.003 C 
ATOM      9  C   UNL     1    -129.862  39.947  18.245  1.00  0.00    -0.011 C 
ATOM     10  C   UNL     1    -127.044  36.875  15.435  1.00  0.00    -0.006 C 
ATOM     11  C   UNL     1    -125.933  37.689  17.503  1.00  0.00    -0.027 C 
ATOM     12  C   UNL     1    -128.603  37.909  19.088  1.00  0.00     0.008 C 
ATOM     13  C   UNL     1    -131.346  39.626  18.494  1.00  0.00     0.008 C 
ATOM     14  C   UNL     1    -127.935  35.704  15.943  1.00  0.00     0.017 C 
ATOM     15  C   UNL     1    -125.576  36.340  15.002  1.00  0.00    -0.020 C 
ATOM     16  C   UNL     1    -125.076  36.465  17.575  1.00  0.00     0.032 C 
ATOM     17  C   UNL     1    -124.860  35.648  16.249  1.00  0.00     0.006 C 
ATOM     18  C   UNL     1    -124.669  37.526  14.508  1.00  0.00     0.008 C 
ATOM     19  C   UNL     1    -125.742  35.316  13.828  1.00  0.00     0.012 C 
ATOM     20  C   UNL     1    -123.319  35.261  16.052  1.00  0.00    -0.025 C 
ATOM     21  C   UNL     1    -123.178  37.189  14.334  1.00  0.00     0.005 C 
ATOM     22  C   UNL     1    -122.548  36.562  15.603  1.00  0.00     0.003 C 
ATOM     23  C   UNL     1    -122.720  34.673  17.400  1.00  0.00     0.010 C 
ATOM     24  C   UNL     1    -123.159  34.112  15.003  1.00  0.00     0.012 C 
ATOM     25  C   UNL     1    -120.961  36.451  15.565  1.00  0.00    -0.006 C 
ATOM     26  C   UNL     1    -121.391  35.308  17.824  1.00  0.00     0.033 C 
ATOM     27  C   UNL     1    -120.441  35.413  16.629  1.00  0.00     0.120 C 
ATOM     28  C   UNL     1    -120.433  36.028  14.169  1.00  0.00     0.014 C 
ATOM     29  C   UNL     1    -120.363  37.854  15.874  1.00  0.00     0.014 C 
ENDROOT
BRANCH   1  30
ATOM     30  C   UNL     1    -127.369  40.466  14.814  1.00  0.00     0.048 C 
ATOM     31  O   UNL     1    -126.265  40.713  15.368  1.00  0.00    -0.550 OA
ATOM     32  O   UNL     1    -127.623  41.011  13.561  1.00  0.00    -0.550 OA
ENDBRANCH   1  30
BRANCH  27  33
ATOM     33  O   UNL     1    -119.158  35.742  17.104  1.00  0.00    -0.393 OA
ATOM     34  H   UNL     1    -119.243  36.591  17.610  1.00  0.00     0.210 HD
ENDBRANCH  27  33
TORSDOF 2
ENDMDL
MODEL 9
REMARK VINA RESULT:    -3.866     10.369     14.246
REMARK INTER + INTRA:          -4.362
REMARK INTER:                  -4.215
REMARK INTRA:                  -0.148
REMARK UNBOUND:                -0.157
REMARK SMILES C[C@H]1[C@H](C)CC[C@]2(C(=O)[O-])CC[C@]3(C)C(=CC[C@@H]4[C@]5(C)CC[C@H](O)C(C)(C)[C@H]5CC[C@@]43C)[C@H]12
REMARK SMILES IDX 7 1 6 2 11 3 33 4 5 5 12 6 15 7 2 8 3 9 13 10 16 11 1 12
REMARK SMILES IDX 4 13 14 14 31 15 17 16 18 17 30 18 32 19 19 20 29 21 28 22
REMARK SMILES IDX 21 23 20 24 25 25 22 26 23 27 26 28 27 29 8 30 9 31 10 32
REMARK SMILES IDX 24 33
REMARK H PARENT 24 34
REMARK Flexibility Score: inf
ROOT
ATOM      1  C   UNL     1    -122.071  40.132   5.196  1.00  0.00     0.017 C 
ATOM      2  C   UNL     1    -120.890  41.129   4.936  1.00  0.00     0.014 C 
ATOM      3  C   UNL     1    -121.560  39.033   6.156  1.00  0.00     0.014 C 
ATOM      4  C   UNL     1    -122.558  39.456   3.867  1.00  0.00     0.030 C 
ATOM      5  C   UNL     1    -120.839  41.626   3.491  1.00  0.00     0.004 C 
ATOM      6  C   UNL     1    -122.641  38.019   6.522  1.00  0.00     0.013 C 
ATOM      7  C   UNL     1    -123.488  38.257   4.121  1.00  0.00    -0.063 C 
ATOM      8  C   UNL     1    -121.347  39.140   2.924  1.00  0.00    -0.003 C 
ATOM      9  C   UNL     1    -120.614  40.458   2.498  1.00  0.00    -0.011 C 
ATOM     10  C   UNL     1    -123.329  37.294   5.307  1.00  0.00    -0.006 C 
ATOM     11  C   UNL     1    -124.435  38.010   3.200  1.00  0.00    -0.027 C 
ATOM     12  C   UNL     1    -121.746  38.341   1.668  1.00  0.00     0.008 C 
ATOM     13  C   UNL     1    -119.110  40.211   2.287  1.00  0.00     0.008 C 
ATOM     14  C   UNL     1    -122.367  36.163   4.841  1.00  0.00     0.017 C 
ATOM     15  C   UNL     1    -124.776  36.690   5.719  1.00  0.00    -0.020 C 
ATOM     16  C   UNL     1    -125.224  36.741   3.135  1.00  0.00     0.032 C 
ATOM     17  C   UNL     1    -125.428  35.939   4.471  1.00  0.00     0.006 C 
ATOM     18  C   UNL     1    -125.754  37.836   6.171  1.00  0.00     0.008 C 
ATOM     19  C   UNL     1    -124.583  35.699   6.916  1.00  0.00     0.012 C 
ATOM     20  C   UNL     1    -126.949  35.475   4.644  1.00  0.00    -0.025 C 
ATOM     21  C   UNL     1    -127.230  37.424   6.320  1.00  0.00     0.005 C 
ATOM     22  C   UNL     1    -127.797  36.741   5.050  1.00  0.00     0.003 C 
ATOM     23  C   UNL     1    -127.487  34.832   3.295  1.00  0.00     0.010 C 
ATOM     24  C   UNL     1    -127.073  34.339   5.711  1.00  0.00     0.012 C 
ATOM     25  C   UNL     1    -129.377  36.548   5.057  1.00  0.00    -0.006 C 
ATOM     26  C   UNL     1    -128.838  35.387   2.830  1.00  0.00     0.033 C 
ATOM     27  C   UNL     1    -129.819  35.465   4.003  1.00  0.00     0.120 C 
ATOM     28  C   UNL     1    -129.913  36.123   6.449  1.00  0.00     0.014 C 
ATOM     29  C   UNL     1    -130.041  37.911   4.708  1.00  0.00     0.014 C 
ENDROOT
BRANCH   1  30
ATOM     30  C   UNL     1    -123.206  40.908   5.864  1.00  0.00     0.048 C 
ATOM     31  O   UNL     1    -123.077  41.391   7.020  1.00  0.00    -0.550 OA
ATOM     32  O   UNL     1    -124.432  41.036   5.221  1.00  0.00    -0.550 OA
ENDBRANCH   1  30
BRANCH  27  33
ATOM     33  O   UNL     1    -131.106  35.717   3.494  1.00  0.00    -0.393 OA
ATOM     34  H   UNL     1    -131.607  34.861   3.531  1.00  0.00     0.210 HD
ENDBRANCH  27  33
TORSDOF 2
ENDMDL
