MODEL 1
REMARK VINA RESULT:    -3.674      0.000      0.000
REMARK INTER + INTRA:          -4.671
REMARK INTER:                  -4.534
REMARK INTRA:                  -0.138
REMARK UNBOUND:                -0.138
REMARK SMILES CCCCCC(=O)[O-]
REMARK SMILES IDX 4 1 5 2 6 3 7 4 8 5 3 6 2 7 1 8
REMARK H PARENT
REMARK Flexibility Score: inf
ROOT
ATOM      1  C   UNL     1     107.927 104.128 131.728  1.00  0.00     0.006 C 
ENDROOT
BRANCH   1   2
ATOM      2  C   UNL     1     107.401 102.765 131.259  1.00  0.00     0.053 C 
BRANCH   2   3
ATOM      3  C   UNL     1     108.341 101.675 131.668  1.00  0.00     0.041 C 
ATOM      4  O   UNL     1     107.912 100.509 131.867  1.00  0.00    -0.550 OA
ATOM      5  O   UNL     1     109.685 101.959 131.876  1.00  0.00    -0.550 OA
ENDBRANCH   2   3
ENDBRANCH   1   2
BRANCH   1   6
ATOM      6  C   UNL     1     108.343 105.036 130.558  1.00  0.00     0.000 C 
BRANCH   6   7
ATOM      7  C   UNL     1     108.328 104.304 129.209  1.00  0.00    -0.003 C 
ATOM      8  C   UNL     1     109.725 103.818 128.833  1.00  0.00     0.004 C 
ENDBRANCH   6   7
ENDBRANCH   1   6
TORSDOF 4
ENDMDL
MODEL 2
REMARK VINA RESULT:    -3.538      2.312      3.496
REMARK INTER + INTRA:          -4.504
REMARK INTER:                  -4.305
REMARK INTRA:                  -0.199
REMARK UNBOUND:                -0.138
REMARK SMILES CCCCCC(=O)[O-]
REMARK SMILES IDX 4 1 5 2 6 3 7 4 8 5 3 6 2 7 1 8
REMARK H PARENT
REMARK Flexibility Score: inf
ROOT
ATOM      1  C   UNL     1     108.157 103.484 129.651  1.00  0.00     0.006 C 
ENDROOT
BRANCH   1   2
ATOM      2  C   UNL     1     108.504 104.949 129.942  1.00  0.00     0.053 C 
BRANCH   2   3
ATOM      3  C   UNL     1     108.460 105.214 131.414  1.00  0.00     0.041 C 
ATOM      4  O   UNL     1     107.355 105.329 132.005  1.00  0.00    -0.550 OA
ATOM      5  O   UNL     1     109.642 105.381 132.125  1.00  0.00    -0.550 OA
ENDBRANCH   2   3
ENDBRANCH   1   2
BRANCH   1   6
ATOM      6  C   UNL     1     109.120 102.501 130.337  1.00  0.00     0.000 C 
BRANCH   6   7
ATOM      7  C   UNL     1     108.445 101.700 131.460  1.00  0.00    -0.003 C 
ATOM      8  C   UNL     1     106.925 101.753 131.335  1.00  0.00     0.004 C 
ENDBRANCH   6   7
ENDBRANCH   1   6
TORSDOF 4
ENDMDL
MODEL 3
REMARK VINA RESULT:    -3.534      1.424      2.339
REMARK INTER + INTRA:          -4.498
REMARK INTER:                  -4.244
REMARK INTRA:                  -0.255
REMARK UNBOUND:                -0.138
REMARK SMILES CCCCCC(=O)[O-]
REMARK SMILES IDX 4 1 5 2 6 3 7 4 8 5 3 6 2 7 1 8
REMARK H PARENT
REMARK Flexibility Score: inf
ROOT
ATOM      1  C   UNL     1     109.366 102.859 130.067  1.00  0.00     0.006 C 
ENDROOT
BRANCH   1   2
ATOM      2  C   UNL     1     107.925 102.359 129.906  1.00  0.00     0.053 C 
BRANCH   2   3
ATOM      3  C   UNL     1     107.450 101.721 131.173  1.00  0.00     0.041 C 
ATOM      4  O   UNL     1     108.016 100.688 131.614  1.00  0.00    -0.550 OA
ATOM      5  O   UNL     1     106.348 102.241 131.842  1.00  0.00    -0.550 OA
ENDBRANCH   2   3
ENDBRANCH   1   2
BRANCH   1   6
ATOM      6  C   UNL     1     109.479 104.032 131.055  1.00  0.00     0.000 C 
BRANCH   6   7
ATOM      7  C   UNL     1     108.497 105.168 130.737  1.00  0.00    -0.003 C 
ATOM      8  C   UNL     1     107.689 105.557 131.972  1.00  0.00     0.004 C 
ENDBRANCH   6   7
ENDBRANCH   1   6
TORSDOF 4
ENDMDL
MODEL 4
REMARK VINA RESULT:    -3.458      2.353      3.930
REMARK INTER + INTRA:          -4.405
REMARK INTER:                  -4.258
REMARK INTRA:                  -0.147
REMARK UNBOUND:                -0.138
REMARK SMILES CCCCCC(=O)[O-]
REMARK SMILES IDX 4 1 5 2 6 3 7 4 8 5 3 6 2 7 1 8
REMARK H PARENT
REMARK Flexibility Score: inf
ROOT
ATOM      1  C   UNL     1     109.446 102.362 131.031  1.00  0.00     0.006 C 
ENDROOT
BRANCH   1   2
ATOM      2  C   UNL     1     109.871 103.686 130.383  1.00  0.00     0.053 C 
BRANCH   2   3
ATOM      3  C   UNL     1     108.692 104.362 129.757  1.00  0.00     0.041 C 
ATOM      4  O   UNL     1     108.344 105.510 130.136  1.00  0.00    -0.550 OA
ATOM      5  O   UNL     1     107.946 103.702 128.788  1.00  0.00    -0.550 OA
ENDBRANCH   2   3
ENDBRANCH   1   2
BRANCH   1   6
ATOM      6  C   UNL     1     108.304 102.539 132.045  1.00  0.00     0.000 C 
BRANCH   6   7
ATOM      7  C   UNL     1     107.283 101.394 131.991  1.00  0.00    -0.003 C 
ATOM      8  C   UNL     1     105.858 101.922 132.125  1.00  0.00     0.004 C 
ENDBRANCH   6   7
ENDBRANCH   1   6
TORSDOF 4
ENDMDL
MODEL 5
REMARK VINA RESULT:    -3.410     13.149     13.649
REMARK INTER + INTRA:          -4.345
REMARK INTER:                  -4.224
REMARK INTRA:                  -0.121
REMARK UNBOUND:                -0.138
REMARK SMILES CCCCCC(=O)[O-]
REMARK SMILES IDX 4 1 5 2 6 3 7 4 8 5 3 6 2 7 1 8
REMARK H PARENT
REMARK Flexibility Score: inf
ROOT
ATOM      1  C   UNL     1     112.202 110.426 121.452  1.00  0.00     0.006 C 
ENDROOT
BRANCH   1   2
ATOM      2  C   UNL     1     111.982 111.578 122.440  1.00  0.00     0.053 C 
BRANCH   2   3
ATOM      3  C   UNL     1     111.613 112.830 121.708  1.00  0.00     0.041 C 
ATOM      4  O   UNL     1     110.742 112.800 120.801  1.00  0.00    -0.550 OA
ATOM      5  O   UNL     1     112.267 114.021 121.996  1.00  0.00    -0.550 OA
ENDBRANCH   2   3
ENDBRANCH   1   2
BRANCH   1   6
ATOM      6  C   UNL     1     113.539 109.700 121.676  1.00  0.00     0.000 C 
BRANCH   6   7
ATOM      7  C   UNL     1     114.735 110.662 121.701  1.00  0.00    -0.003 C 
ATOM      8  C   UNL     1     115.955 110.003 122.338  1.00  0.00     0.004 C 
ENDBRANCH   6   7
ENDBRANCH   1   6
TORSDOF 4
ENDMDL
MODEL 6
REMARK VINA RESULT:    -3.402     13.138     13.660
REMARK INTER + INTRA:          -4.336
REMARK INTER:                  -4.190
REMARK INTRA:                  -0.145
REMARK UNBOUND:                -0.138
REMARK SMILES CCCCCC(=O)[O-]
REMARK SMILES IDX 4 1 5 2 6 3 7 4 8 5 3 6 2 7 1 8
REMARK H PARENT
REMARK Flexibility Score: inf
ROOT
ATOM      1  C   UNL     1     112.038 110.279 121.540  1.00  0.00     0.006 C 
ENDROOT
BRANCH   1   2
ATOM      2  C   UNL     1     112.016 111.515 122.448  1.00  0.00     0.053 C 
BRANCH   2   3
ATOM      3  C   UNL     1     111.743 112.747 121.644  1.00  0.00     0.041 C 
ATOM      4  O   UNL     1     112.223 113.855 121.999  1.00  0.00    -0.550 OA
ATOM      5  O   UNL     1     110.917 112.681 120.529  1.00  0.00    -0.550 OA
ENDBRANCH   2   3
ENDBRANCH   1   2
BRANCH   1   6
ATOM      6  C   UNL     1     113.384 110.100 120.818  1.00  0.00     0.000 C 
BRANCH   6   7
ATOM      7  C   UNL     1     114.377 109.249 121.622  1.00  0.00    -0.003 C 
ATOM      8  C   UNL     1     115.613 110.059 122.001  1.00  0.00     0.004 C 
ENDBRANCH   6   7
ENDBRANCH   1   6
TORSDOF 4
ENDMDL
MODEL 7
REMARK VINA RESULT:    -3.291     12.193     13.113
REMARK INTER + INTRA:          -4.199
REMARK INTER:                  -3.985
REMARK INTRA:                  -0.214
REMARK UNBOUND:                -0.138
REMARK SMILES CCCCCC(=O)[O-]
REMARK SMILES IDX 4 1 5 2 6 3 7 4 8 5 3 6 2 7 1 8
REMARK H PARENT
REMARK Flexibility Score: inf
ROOT
ATOM      1  C   UNL     1     113.077 110.077 121.004  1.00  0.00     0.006 C 
ENDROOT
BRANCH   1   2
ATOM      2  C   UNL     1     114.341 109.294 121.382  1.00  0.00     0.053 C 
BRANCH   2   3
ATOM      3  C   UNL     1     115.348 110.202 122.015  1.00  0.00     0.041 C 
ATOM      4  O   UNL     1     115.299 111.443 121.812  1.00  0.00    -0.550 OA
ATOM      5  O   UNL     1     116.371 109.671 122.790  1.00  0.00    -0.550 OA
ENDBRANCH   2   3
ENDBRANCH   1   2
BRANCH   1   6
ATOM      6  C   UNL     1     111.922 109.848 121.993  1.00  0.00     0.000 C 
BRANCH   6   7
ATOM      7  C   UNL     1     111.510 111.132 122.727  1.00  0.00    -0.003 C 
ATOM      8  C   UNL     1     111.972 112.372 121.967  1.00  0.00     0.004 C 
ENDBRANCH   6   7
ENDBRANCH   1   6
TORSDOF 4
ENDMDL
MODEL 8
REMARK VINA RESULT:    -3.208     12.383     13.334
REMARK INTER + INTRA:          -4.096
REMARK INTER:                  -3.977
REMARK INTRA:                  -0.119
REMARK UNBOUND:                -0.138
REMARK SMILES CCCCCC(=O)[O-]
REMARK SMILES IDX 4 1 5 2 6 3 7 4 8 5 3 6 2 7 1 8
REMARK H PARENT
REMARK Flexibility Score: inf
ROOT
ATOM      1  C   UNL     1     114.293 111.401 122.108  1.00  0.00     0.006 C 
ENDROOT
BRANCH   1   2
ATOM      2  C   UNL     1     113.922 110.132 121.330  1.00  0.00     0.053 C 
BRANCH   2   3
ATOM      3  C   UNL     1     112.435 109.995 121.235  1.00  0.00     0.041 C 
ATOM      4  O   UNL     1     111.780 109.511 122.195  1.00  0.00    -0.550 OA
ATOM      5  O   UNL     1     111.778 110.356 120.066  1.00  0.00    -0.550 OA
ENDBRANCH   2   3
ENDBRANCH   1   2
BRANCH   1   6
ATOM      6  C   UNL     1     115.580 111.235 122.932  1.00  0.00     0.000 C 
BRANCH   6   7
ATOM      7  C   UNL     1     116.372 109.979 122.543  1.00  0.00    -0.003 C 
ATOM      8  C   UNL     1     117.812 110.329 122.178  1.00  0.00     0.004 C 
ENDBRANCH   6   7
ENDBRANCH   1   6
TORSDOF 4
ENDMDL
MODEL 9
REMARK VINA RESULT:    -3.098     13.384     14.504
REMARK INTER + INTRA:          -3.960
REMARK INTER:                  -3.788
REMARK INTRA:                  -0.172
REMARK UNBOUND:                -0.138
REMARK SMILES CCCCCC(=O)[O-]
REMARK SMILES IDX 4 1 5 2 6 3 7 4 8 5 3 6 2 7 1 8
REMARK H PARENT
REMARK Flexibility Score: inf
ROOT
ATOM      1  C   UNL     1     105.161 106.613 116.913  1.00  0.00     0.006 C 
ENDROOT
BRANCH   1   2
ATOM      2  C   UNL     1     105.940 105.296 117.015  1.00  0.00     0.053 C 
BRANCH   2   3
ATOM      3  C   UNL     1     107.031 105.255 115.991  1.00  0.00     0.041 C 
ATOM      4  O   UNL     1     108.162 105.743 116.249  1.00  0.00    -0.550 OA
ATOM      5  O   UNL     1     106.783 104.722 114.733  1.00  0.00    -0.550 OA
ENDBRANCH   2   3
ENDBRANCH   1   2
BRANCH   1   6
ATOM      6  C   UNL     1     105.144 107.395 118.237  1.00  0.00     0.000 C 
BRANCH   6   7
ATOM      7  C   UNL     1     106.526 107.947 118.614  1.00  0.00    -0.003 C 
ATOM      8  C   UNL     1     106.802 107.765 120.104  1.00  0.00     0.004 C 
ENDBRANCH   6   7
ENDBRANCH   1   6
TORSDOF 4
ENDMDL
