MODEL 1
REMARK VINA RESULT:    -4.247      0.000      0.000
REMARK INTER + INTRA:          -4.512
REMARK INTER:                  -4.496
REMARK INTRA:                  -0.016
REMARK UNBOUND:                -0.016
REMARK SMILES O=C([O-])c1cccnc1
REMARK SMILES IDX 4 1 5 2 9 3 6 4 8 5 7 6 2 7 1 8 3 9
REMARK H PARENT
REMARK Flexibility Score: inf
ROOT
ATOM      1  C   UNL     1      35.279  18.173  -5.632  1.00  0.00     0.016 A 
ATOM      2  C   UNL     1      34.752  19.208  -4.843  1.00  0.00     0.013 A 
ATOM      3  C   UNL     1      34.620  16.932  -5.635  1.00  0.00     0.120 A 
ATOM      4  C   UNL     1      33.599  18.994  -4.084  1.00  0.00     0.021 A 
ATOM      5  N   UNL     1      33.499  16.750  -4.887  1.00  0.00    -0.264 NA
ATOM      6  C   UNL     1      32.980  17.745  -4.120  1.00  0.00     0.111 A 
ENDROOT
BRANCH   1   7
ATOM      7  C   UNL     1      36.499  18.380  -6.443  1.00  0.00     0.073 C 
ATOM      8  O   UNL     1      37.624  18.012  -6.013  1.00  0.00    -0.545 OA
ATOM      9  O   UNL     1      36.420  18.985  -7.693  1.00  0.00    -0.545 OA
ENDBRANCH   1   7
TORSDOF 1
ENDMDL
MODEL 2
REMARK VINA RESULT:    -4.228      2.830      3.779
REMARK INTER + INTRA:          -4.491
REMARK INTER:                  -4.475
REMARK INTRA:                  -0.016
REMARK UNBOUND:                -0.016
REMARK SMILES O=C([O-])c1cccnc1
REMARK SMILES IDX 4 1 5 2 9 3 6 4 8 5 7 6 2 7 1 8 3 9
REMARK H PARENT
REMARK Flexibility Score: inf
ROOT
ATOM      1  C   UNL     1      34.732  18.901  -4.651  1.00  0.00     0.016 A 
ATOM      2  C   UNL     1      35.913  19.575  -4.299  1.00  0.00     0.013 A 
ATOM      3  C   UNL     1      34.806  17.882  -5.615  1.00  0.00     0.120 A 
ATOM      4  C   UNL     1      37.124  19.229  -4.902  1.00  0.00     0.021 A 
ATOM      5  N   UNL     1      35.998  17.564  -6.187  1.00  0.00    -0.264 NA
ATOM      6  C   UNL     1      37.147  18.209  -5.854  1.00  0.00     0.111 A 
ENDROOT
BRANCH   1   7
ATOM      7  C   UNL     1      33.440  19.253  -4.023  1.00  0.00     0.073 C 
ATOM      8  O   UNL     1      32.765  20.227  -4.449  1.00  0.00    -0.545 OA
ATOM      9  O   UNL     1      32.952  18.511  -2.953  1.00  0.00    -0.545 OA
ENDBRANCH   1   7
TORSDOF 1
ENDMDL
MODEL 3
REMARK VINA RESULT:    -4.066      1.320      1.872
REMARK INTER + INTRA:          -4.320
REMARK INTER:                  -4.303
REMARK INTRA:                  -0.017
REMARK UNBOUND:                -0.016
REMARK SMILES O=C([O-])c1cccnc1
REMARK SMILES IDX 4 1 5 2 9 3 6 4 8 5 7 6 2 7 1 8 3 9
REMARK H PARENT
REMARK Flexibility Score: inf
ROOT
ATOM      1  C   UNL     1      36.634  18.471  -5.418  1.00  0.00     0.016 A 
ATOM      2  C   UNL     1      36.070  19.448  -4.581  1.00  0.00     0.013 A 
ATOM      3  C   UNL     1      35.797  17.463  -5.926  1.00  0.00     0.120 A 
ATOM      4  C   UNL     1      34.710  19.404  -4.269  1.00  0.00     0.021 A 
ATOM      5  N   UNL     1      34.475  17.443  -5.607  1.00  0.00    -0.264 NA
ATOM      6  C   UNL     1      33.920  18.383  -4.798  1.00  0.00     0.111 A 
ENDROOT
BRANCH   1   7
ATOM      7  C   UNL     1      38.072  18.500  -5.760  1.00  0.00     0.073 C 
ATOM      8  O   UNL     1      38.446  18.733  -6.940  1.00  0.00    -0.545 OA
ATOM      9  O   UNL     1      39.034  18.272  -4.782  1.00  0.00    -0.545 OA
ENDBRANCH   1   7
TORSDOF 1
ENDMDL
MODEL 4
REMARK VINA RESULT:    -4.037      2.942      4.051
REMARK INTER + INTRA:          -4.289
REMARK INTER:                  -4.270
REMARK INTRA:                  -0.019
REMARK UNBOUND:                -0.016
REMARK SMILES O=C([O-])c1cccnc1
REMARK SMILES IDX 4 1 5 2 9 3 6 4 8 5 7 6 2 7 1 8 3 9
REMARK H PARENT
REMARK Flexibility Score: inf
ROOT
ATOM      1  C   UNL     1      35.118  18.884  -4.802  1.00  0.00     0.016 A 
ATOM      2  C   UNL     1      35.626  18.008  -5.775  1.00  0.00     0.013 A 
ATOM      3  C   UNL     1      36.017  19.724  -4.123  1.00  0.00     0.120 A 
ATOM      4  C   UNL     1      36.995  17.983  -6.049  1.00  0.00     0.021 A 
ATOM      5  N   UNL     1      37.346  19.680  -4.410  1.00  0.00    -0.264 NA
ATOM      6  C   UNL     1      37.848  18.836  -5.349  1.00  0.00     0.111 A 
ENDROOT
BRANCH   1   7
ATOM      7  C   UNL     1      33.671  18.926  -4.497  1.00  0.00     0.073 C 
ATOM      8  O   UNL     1      33.046  20.019  -4.509  1.00  0.00    -0.545 OA
ATOM      9  O   UNL     1      32.981  17.758  -4.194  1.00  0.00    -0.545 OA
ENDBRANCH   1   7
TORSDOF 1
ENDMDL
MODEL 5
REMARK VINA RESULT:    -3.991      3.115      4.192
REMARK INTER + INTRA:          -4.241
REMARK INTER:                  -4.218
REMARK INTRA:                  -0.023
REMARK UNBOUND:                -0.016
REMARK SMILES O=C([O-])c1cccnc1
REMARK SMILES IDX 4 1 5 2 9 3 6 4 8 5 7 6 2 7 1 8 3 9
REMARK H PARENT
REMARK Flexibility Score: inf
ROOT
ATOM      1  C   UNL     1      36.370  18.987  -4.835  1.00  0.00     0.016 A 
ATOM      2  C   UNL     1      37.352  18.059  -5.217  1.00  0.00     0.013 A 
ATOM      3  C   UNL     1      36.761  20.095  -4.064  1.00  0.00     0.120 A 
ATOM      4  C   UNL     1      38.682  18.245  -4.831  1.00  0.00     0.021 A 
ATOM      5  N   UNL     1      38.063  20.254  -3.702  1.00  0.00    -0.264 NA
ATOM      6  C   UNL     1      39.021  19.362  -4.066  1.00  0.00     0.111 A 
ENDROOT
BRANCH   1   7
ATOM      7  C   UNL     1      34.957  18.808  -5.233  1.00  0.00     0.073 C 
ATOM      8  O   UNL     1      34.158  19.781  -5.217  1.00  0.00    -0.545 OA
ATOM      9  O   UNL     1      34.492  17.560  -5.633  1.00  0.00    -0.545 OA
ENDBRANCH   1   7
TORSDOF 1
ENDMDL
MODEL 6
REMARK VINA RESULT:    -3.962      2.393      2.898
REMARK INTER + INTRA:          -4.210
REMARK INTER:                  -4.191
REMARK INTRA:                  -0.019
REMARK UNBOUND:                -0.016
REMARK SMILES O=C([O-])c1cccnc1
REMARK SMILES IDX 4 1 5 2 9 3 6 4 8 5 7 6 2 7 1 8 3 9
REMARK H PARENT
REMARK Flexibility Score: inf
ROOT
ATOM      1  C   UNL     1      37.333  19.035  -4.660  1.00  0.00     0.016 A 
ATOM      2  C   UNL     1      36.161  19.683  -4.236  1.00  0.00     0.013 A 
ATOM      3  C   UNL     1      37.218  17.982  -5.583  1.00  0.00     0.120 A 
ATOM      4  C   UNL     1      34.918  19.277  -4.729  1.00  0.00     0.021 A 
ATOM      5  N   UNL     1      35.996  17.606  -6.047  1.00  0.00    -0.264 NA
ATOM      6  C   UNL     1      34.856  18.226  -5.644  1.00  0.00     0.111 A 
ENDROOT
BRANCH   1   7
ATOM      7  C   UNL     1      38.658  19.450  -4.151  1.00  0.00     0.073 C 
ATOM      8  O   UNL     1      39.457  18.599  -3.677  1.00  0.00    -0.545 OA
ATOM      9  O   UNL     1      39.041  20.786  -4.189  1.00  0.00    -0.545 OA
ENDBRANCH   1   7
TORSDOF 1
ENDMDL
MODEL 7
REMARK VINA RESULT:    -3.942      2.811      4.048
REMARK INTER + INTRA:          -4.188
REMARK INTER:                  -4.172
REMARK INTRA:                  -0.016
REMARK UNBOUND:                -0.016
REMARK SMILES O=C([O-])c1cccnc1
REMARK SMILES IDX 4 1 5 2 9 3 6 4 8 5 7 6 2 7 1 8 3 9
REMARK H PARENT
REMARK Flexibility Score: inf
ROOT
ATOM      1  C   UNL     1      36.236  18.309  -5.979  1.00  0.00     0.016 A 
ATOM      2  C   UNL     1      37.309  18.267  -5.074  1.00  0.00     0.013 A 
ATOM      3  C   UNL     1      36.492  18.699  -7.304  1.00  0.00     0.120 A 
ATOM      4  C   UNL     1      38.596  18.609  -5.497  1.00  0.00     0.021 A 
ATOM      5  N   UNL     1      37.755  19.027  -7.690  1.00  0.00    -0.264 NA
ATOM      6  C   UNL     1      38.801  18.990  -6.823  1.00  0.00     0.111 A 
ENDROOT
BRANCH   1   7
ATOM      7  C   UNL     1      34.866  17.951  -5.551  1.00  0.00     0.073 C 
ATOM      8  O   UNL     1      34.432  16.779  -5.708  1.00  0.00    -0.545 OA
ATOM      9  O   UNL     1      34.038  18.904  -4.967  1.00  0.00    -0.545 OA
ENDBRANCH   1   7
TORSDOF 1
ENDMDL
MODEL 8
REMARK VINA RESULT:    -3.918      3.492      4.215
REMARK INTER + INTRA:          -4.164
REMARK INTER:                  -4.140
REMARK INTRA:                  -0.024
REMARK UNBOUND:                -0.016
REMARK SMILES O=C([O-])c1cccnc1
REMARK SMILES IDX 4 1 5 2 9 3 6 4 8 5 7 6 2 7 1 8 3 9
REMARK H PARENT
REMARK Flexibility Score: inf
ROOT
ATOM      1  C   UNL     1      33.241  17.688  -3.802  1.00  0.00     0.016 A 
ATOM      2  C   UNL     1      33.667  19.025  -3.857  1.00  0.00     0.013 A 
ATOM      3  C   UNL     1      33.682  16.804  -4.801  1.00  0.00     0.120 A 
ATOM      4  C   UNL     1      34.508  19.452  -4.887  1.00  0.00     0.021 A 
ATOM      5  N   UNL     1      34.502  17.245  -5.794  1.00  0.00    -0.264 NA
ATOM      6  C   UNL     1      34.920  18.537  -5.856  1.00  0.00     0.111 A 
ENDROOT
BRANCH   1   7
ATOM      7  C   UNL     1      32.350  17.217  -2.719  1.00  0.00     0.073 C 
ATOM      8  O   UNL     1      31.909  18.021  -1.857  1.00  0.00    -0.545 OA
ATOM      9  O   UNL     1      31.986  15.877  -2.640  1.00  0.00    -0.545 OA
ENDBRANCH   1   7
TORSDOF 1
ENDMDL
MODEL 9
REMARK VINA RESULT:    -3.785     10.456     11.024
REMARK INTER + INTRA:          -4.022
REMARK INTER:                  -4.005
REMARK INTRA:                  -0.016
REMARK UNBOUND:                -0.016
REMARK SMILES O=C([O-])c1cccnc1
REMARK SMILES IDX 4 1 5 2 9 3 6 4 8 5 7 6 2 7 1 8 3 9
REMARK H PARENT
REMARK Flexibility Score: inf
ROOT
ATOM      1  C   UNL     1      26.266  19.666 -11.267  1.00  0.00     0.016 A 
ATOM      2  C   UNL     1      25.093  18.991 -10.893  1.00  0.00     0.013 A 
ATOM      3  C   UNL     1      26.204  21.056 -11.463  1.00  0.00     0.120 A 
ATOM      4  C   UNL     1      23.901  19.697 -10.723  1.00  0.00     0.021 A 
ATOM      5  N   UNL     1      25.029  21.721 -11.292  1.00  0.00    -0.264 NA
ATOM      6  C   UNL     1      23.888  21.077 -10.929  1.00  0.00     0.111 A 
ENDROOT
BRANCH   1   7
ATOM      7  C   UNL     1      27.539  18.936 -11.452  1.00  0.00     0.073 C 
ATOM      8  O   UNL     1      28.224  18.581 -10.456  1.00  0.00    -0.545 OA
ATOM      9  O   UNL     1      27.997  18.630 -12.728  1.00  0.00    -0.545 OA
ENDBRANCH   1   7
TORSDOF 1
ENDMDL
