MODEL 1
REMARK VINA RESULT:    -5.726      0.000      0.000
REMARK INTER + INTRA:          -7.229
REMARK INTER:                  -6.898
REMARK INTRA:                  -0.331
REMARK UNBOUND:                -0.331
REMARK SMILES O=c1c(O)c(-c2ccc(O)c(O)c2)oc2cc(O)cc(O)c12
REMARK SMILES IDX 5 1 3 2 2 3 1 4 22 5 20 6 19 7 17 8 16 9 15 10 14 11 6 12
REMARK SMILES IDX 7 13 8 14 9 15 13 16 11 17 10 18 12 20 4 22 21 24 18 26
REMARK H PARENT 10 19 12 21 4 23 21 25 18 27
REMARK Flexibility Score: inf
ROOT
ATOM      1  C   UNL     1      17.802   3.177 -16.564  1.00  0.00     0.180 A 
ATOM      2  C   UNL     1      17.848   1.773 -16.506  1.00  0.00     0.208 A 
ATOM      3  C   UNL     1      17.481   1.129 -15.313  1.00  0.00     0.238 A 
ATOM      4  O   UNL     1      17.575  -0.124 -15.250  1.00  0.00    -0.285 OA
ATOM      5  C   UNL     1      17.057   1.895 -14.200  1.00  0.00     0.111 A 
ATOM      6  C   UNL     1      16.625   1.346 -12.956  1.00  0.00     0.134 A 
ATOM      7  C   UNL     1      16.353   2.201 -11.880  1.00  0.00     0.093 A 
ATOM      8  C   UNL     1      16.436   3.585 -12.022  1.00  0.00     0.123 A 
ATOM      9  C   UNL     1      16.800   4.135 -13.252  1.00  0.00     0.094 A 
ATOM     10  C   UNL     1      17.112   3.308 -14.334  1.00  0.00     0.146 A 
ATOM     11  O   UNL     1      17.464   3.870 -15.483  1.00  0.00    -0.452 OA
ENDROOT
BRANCH   1  12
ATOM     12  C   UNL     1      18.150   3.927 -17.794  1.00  0.00     0.025 A 
ATOM     13  C   UNL     1      17.196   4.171 -18.796  1.00  0.00     0.016 A 
ATOM     14  C   UNL     1      17.541   4.902 -19.936  1.00  0.00     0.051 A 
ATOM     15  C   UNL     1      18.834   5.409 -20.087  1.00  0.00     0.157 A 
ATOM     16  C   UNL     1      19.444   4.455 -17.938  1.00  0.00     0.062 A 
ATOM     17  C   UNL     1      19.791   5.188 -19.083  1.00  0.00     0.158 A 
BRANCH  15  18
ATOM     18  O   UNL     1      19.149   6.133 -21.237  1.00  0.00    -0.504 OA
ATOM     19  H   UNL     1      20.042   6.038 -21.705  1.00  0.00     0.293 HD
ENDBRANCH  15  18
BRANCH  17  20
ATOM     20  O   UNL     1      21.082   5.697 -19.223  1.00  0.00    -0.504 OA
ATOM     21  H   UNL     1      21.246   6.647 -19.536  1.00  0.00     0.293 HD
ENDBRANCH  17  20
ENDBRANCH   1  12
BRANCH   2  22
ATOM     22  O   UNL     1      18.289   1.038 -17.609  1.00  0.00    -0.502 OA
ATOM     23  H   UNL     1      17.650   0.605 -18.265  1.00  0.00     0.293 HD
ENDBRANCH   2  22
BRANCH   6  24
ATOM     24  O   UNL     1      16.421  -0.019 -12.735  1.00  0.00    -0.507 OA
ATOM     25  H   UNL     1      15.552  -0.429 -12.428  1.00  0.00     0.293 HD
ENDBRANCH   6  24
BRANCH   8  26
ATOM     26  O   UNL     1      16.143   4.407 -10.936  1.00  0.00    -0.508 OA
ATOM     27  H   UNL     1      15.203   4.480 -10.565  1.00  0.00     0.293 HD
ENDBRANCH   8  26
TORSDOF 6
ENDMDL
MODEL 2
REMARK VINA RESULT:    -5.499     13.883     15.546
REMARK INTER + INTRA:          -6.955
REMARK INTER:                  -6.700
REMARK INTRA:                  -0.255
REMARK UNBOUND:                -0.331
REMARK SMILES O=c1c(O)c(-c2ccc(O)c(O)c2)oc2cc(O)cc(O)c12
REMARK SMILES IDX 5 1 3 2 2 3 1 4 22 5 20 6 19 7 17 8 16 9 15 10 14 11 6 12
REMARK SMILES IDX 7 13 8 14 9 15 13 16 11 17 10 18 12 20 4 22 21 24 18 26
REMARK H PARENT 10 19 12 21 4 23 21 25 18 27
REMARK Flexibility Score: inf
ROOT
ATOM      1  C   UNL     1      19.554  10.238 -29.479  1.00  0.00     0.180 A 
ATOM      2  C   UNL     1      18.192   9.899 -29.407  1.00  0.00     0.208 A 
ATOM      3  C   UNL     1      17.830   8.543 -29.340  1.00  0.00     0.238 A 
ATOM      4  O   UNL     1      16.608   8.244 -29.330  1.00  0.00    -0.285 OA
ATOM      5  C   UNL     1      18.835   7.546 -29.329  1.00  0.00     0.111 A 
ATOM      6  C   UNL     1      18.585   6.145 -29.223  1.00  0.00     0.134 A 
ATOM      7  C   UNL     1      19.647   5.242 -29.354  1.00  0.00     0.093 A 
ATOM      8  C   UNL     1      20.957   5.689 -29.522  1.00  0.00     0.123 A 
ATOM      9  C   UNL     1      21.220   7.059 -29.567  1.00  0.00     0.094 A 
ATOM     10  C   UNL     1      20.177   7.984 -29.475  1.00  0.00     0.146 A 
ATOM     11  O   UNL     1      20.469   9.278 -29.533  1.00  0.00    -0.452 OA
ENDROOT
BRANCH   1  12
ATOM     12  C   UNL     1      20.014  11.646 -29.528  1.00  0.00     0.025 A 
ATOM     13  C   UNL     1      19.883  12.417 -30.695  1.00  0.00     0.016 A 
ATOM     14  C   UNL     1      20.301  13.750 -30.711  1.00  0.00     0.051 A 
ATOM     15  C   UNL     1      20.843  14.336 -29.564  1.00  0.00     0.157 A 
ATOM     16  C   UNL     1      20.539  12.242 -28.370  1.00  0.00     0.062 A 
ATOM     17  C   UNL     1      20.960  13.580 -28.385  1.00  0.00     0.158 A 
BRANCH  15  18
ATOM     18  O   UNL     1      21.253  15.668 -29.611  1.00  0.00    -0.504 OA
ATOM     19  H   UNL     1      22.093  15.955 -30.098  1.00  0.00     0.293 HD
ENDBRANCH  15  18
BRANCH  17  20
ATOM     20  O   UNL     1      21.492  14.160 -27.234  1.00  0.00    -0.504 OA
ATOM     21  H   UNL     1      21.934  15.071 -27.254  1.00  0.00     0.293 HD
ENDBRANCH  17  20
ENDBRANCH   1  12
BRANCH   2  22
ATOM     22  O   UNL     1      17.216  10.898 -29.441  1.00  0.00    -0.502 OA
ATOM     23  H   UNL     1      17.363  11.787 -29.903  1.00  0.00     0.293 HD
ENDBRANCH   2  22
BRANCH   6  24
ATOM     24  O   UNL     1      17.326   5.595 -28.964  1.00  0.00    -0.507 OA
ATOM     25  H   UNL     1      17.085   4.624 -29.095  1.00  0.00     0.293 HD
ENDBRANCH   6  24
BRANCH   8  26
ATOM     26  O   UNL     1      21.991   4.764 -29.633  1.00  0.00    -0.508 OA
ATOM     27  H   UNL     1      21.808   3.782 -29.807  1.00  0.00     0.293 HD
ENDBRANCH   8  26
TORSDOF 6
ENDMDL
MODEL 3
REMARK VINA RESULT:    -5.485      1.806      6.786
REMARK INTER + INTRA:          -6.939
REMARK INTER:                  -6.605
REMARK INTRA:                  -0.334
REMARK UNBOUND:                -0.331
REMARK SMILES O=c1c(O)c(-c2ccc(O)c(O)c2)oc2cc(O)cc(O)c12
REMARK SMILES IDX 5 1 3 2 2 3 1 4 22 5 20 6 19 7 17 8 16 9 15 10 14 11 6 12
REMARK SMILES IDX 7 13 8 14 9 15 13 16 11 17 10 18 12 20 4 22 21 24 18 26
REMARK H PARENT 10 19 12 21 4 23 21 25 18 27
REMARK Flexibility Score: inf
ROOT
ATOM      1  C   UNL     1      17.804   2.190 -16.050  1.00  0.00     0.180 A 
ATOM      2  C   UNL     1      17.974   1.307 -17.131  1.00  0.00     0.208 A 
ATOM      3  C   UNL     1      18.444   1.812 -18.354  1.00  0.00     0.238 A 
ATOM      4  O   UNL     1      18.543   1.027 -19.333  1.00  0.00    -0.285 OA
ATOM      5  C   UNL     1      18.752   3.188 -18.477  1.00  0.00     0.111 A 
ATOM      6  C   UNL     1      19.272   3.800 -19.657  1.00  0.00     0.134 A 
ATOM      7  C   UNL     1      19.416   5.192 -19.707  1.00  0.00     0.093 A 
ATOM      8  C   UNL     1      19.121   5.987 -18.601  1.00  0.00     0.123 A 
ATOM      9  C   UNL     1      18.669   5.393 -17.422  1.00  0.00     0.094 A 
ATOM     10  C   UNL     1      18.480   4.011 -17.352  1.00  0.00     0.146 A 
ATOM     11  O   UNL     1      18.038   3.487 -16.216  1.00  0.00    -0.452 OA
ENDROOT
BRANCH   1  12
ATOM     12  C   UNL     1      17.336   1.729 -14.722  1.00  0.00     0.025 A 
ATOM     13  C   UNL     1      18.240   1.276 -13.746  1.00  0.00     0.016 A 
ATOM     14  C   UNL     1      17.779   0.869 -12.491  1.00  0.00     0.051 A 
ATOM     15  C   UNL     1      16.416   0.920 -12.187  1.00  0.00     0.157 A 
ATOM     16  C   UNL     1      15.969   1.799 -14.407  1.00  0.00     0.062 A 
ATOM     17  C   UNL     1      15.505   1.390 -13.148  1.00  0.00     0.158 A 
BRANCH  15  18
ATOM     18  O   UNL     1      15.985   0.506 -10.927  1.00  0.00    -0.504 OA
ATOM     19  H   UNL     1      15.045   0.682 -10.595  1.00  0.00     0.293 HD
ENDBRANCH  15  18
BRANCH  17  20
ATOM     20  O   UNL     1      14.144   1.451 -12.850  1.00  0.00    -0.504 OA
ATOM     21  H   UNL     1      13.748   0.935 -12.074  1.00  0.00     0.293 HD
ENDBRANCH  17  20
ENDBRANCH   1  12
BRANCH   2  22
ATOM     22  O   UNL     1      17.644  -0.043 -16.994  1.00  0.00    -0.502 OA
ATOM     23  H   UNL     1      16.960  -0.499 -17.586  1.00  0.00     0.293 HD
ENDBRANCH   2  22
BRANCH   6  24
ATOM     24  O   UNL     1      19.684   3.089 -20.788  1.00  0.00    -0.507 OA
ATOM     25  H   UNL     1      19.391   3.290 -21.732  1.00  0.00     0.293 HD
ENDBRANCH   6  24
BRANCH   8  26
ATOM     26  O   UNL     1      19.291   7.367 -18.681  1.00  0.00    -0.508 OA
ATOM     27  H   UNL     1      20.136   7.817 -18.348  1.00  0.00     0.293 HD
ENDBRANCH   8  26
TORSDOF 6
ENDMDL
MODEL 4
REMARK VINA RESULT:    -5.369     14.708     16.675
REMARK INTER + INTRA:          -6.799
REMARK INTER:                  -6.549
REMARK INTRA:                  -0.249
REMARK UNBOUND:                -0.331
REMARK SMILES O=c1c(O)c(-c2ccc(O)c(O)c2)oc2cc(O)cc(O)c12
REMARK SMILES IDX 5 1 3 2 2 3 1 4 22 5 20 6 19 7 17 8 16 9 15 10 14 11 6 12
REMARK SMILES IDX 7 13 8 14 9 15 13 16 11 17 10 18 12 20 4 22 21 24 18 26
REMARK H PARENT 10 19 12 21 4 23 21 25 18 27
REMARK Flexibility Score: inf
ROOT
ATOM      1  C   UNL     1      20.712  12.239 -28.751  1.00  0.00     0.180 A 
ATOM      2  C   UNL     1      20.766  13.184 -29.789  1.00  0.00     0.208 A 
ATOM      3  C   UNL     1      20.946  14.539 -29.467  1.00  0.00     0.238 A 
ATOM      4  O   UNL     1      20.939  15.387 -30.397  1.00  0.00    -0.285 OA
ATOM      5  C   UNL     1      21.086  14.930 -28.114  1.00  0.00     0.111 A 
ATOM      6  C   UNL     1      21.313  16.269 -27.676  1.00  0.00     0.134 A 
ATOM      7  C   UNL     1      21.305  16.558 -26.305  1.00  0.00     0.093 A 
ATOM      8  C   UNL     1      21.143  15.549 -25.357  1.00  0.00     0.123 A 
ATOM      9  C   UNL     1      20.981  14.227 -25.773  1.00  0.00     0.094 A 
ATOM     10  C   UNL     1      20.948  13.911 -27.134  1.00  0.00     0.146 A 
ATOM     11  O   UNL     1      20.780  12.643 -27.488  1.00  0.00    -0.452 OA
ENDROOT
BRANCH   1  12
ATOM     12  C   UNL     1      20.549  10.789 -29.012  1.00  0.00     0.025 A 
ATOM     13  C   UNL     1      21.616   9.891 -28.840  1.00  0.00     0.016 A 
ATOM     14  C   UNL     1      21.433   8.525 -29.069  1.00  0.00     0.051 A 
ATOM     15  C   UNL     1      20.184   8.034 -29.458  1.00  0.00     0.157 A 
ATOM     16  C   UNL     1      19.289  10.291 -29.382  1.00  0.00     0.062 A 
ATOM     17  C   UNL     1      19.104   8.920 -29.613  1.00  0.00     0.158 A 
BRANCH  15  18
ATOM     18  O   UNL     1      20.031   6.666 -29.680  1.00  0.00    -0.504 OA
ATOM     19  H   UNL     1      20.486   6.192 -30.451  1.00  0.00     0.293 HD
ENDBRANCH  15  18
BRANCH  17  20
ATOM     20  O   UNL     1      17.853   8.436 -29.994  1.00  0.00    -0.504 OA
ATOM     21  H   UNL     1      17.738   7.507 -30.380  1.00  0.00     0.293 HD
ENDBRANCH  17  20
ENDBRANCH   1  12
BRANCH   2  22
ATOM     22  O   UNL     1      20.604  12.780 -31.117  1.00  0.00    -0.502 OA
ATOM     23  H   UNL     1      19.698  12.556 -31.510  1.00  0.00     0.293 HD
ENDBRANCH   2  22
BRANCH   6  24
ATOM     24  O   UNL     1      21.576  17.337 -28.538  1.00  0.00    -0.507 OA
ATOM     25  H   UNL     1      22.457  17.826 -28.595  1.00  0.00     0.293 HD
ENDBRANCH   6  24
BRANCH   8  26
ATOM     26  O   UNL     1      21.157  15.870 -24.002  1.00  0.00    -0.508 OA
ATOM     27  H   UNL     1      20.518  15.433 -23.347  1.00  0.00     0.293 HD
ENDBRANCH   8  26
TORSDOF 6
ENDMDL
MODEL 5
REMARK VINA RESULT:    -5.309      1.878      7.172
REMARK INTER + INTRA:          -6.726
REMARK INTER:                  -6.394
REMARK INTRA:                  -0.332
REMARK UNBOUND:                -0.331
REMARK SMILES O=c1c(O)c(-c2ccc(O)c(O)c2)oc2cc(O)cc(O)c12
REMARK SMILES IDX 5 1 3 2 2 3 1 4 22 5 20 6 19 7 17 8 16 9 15 10 14 11 6 12
REMARK SMILES IDX 7 13 8 14 9 15 13 16 11 17 10 18 12 20 4 22 21 24 18 26
REMARK H PARENT 10 19 12 21 4 23 21 25 18 27
REMARK Flexibility Score: inf
ROOT
ATOM      1  C   UNL     1      17.836   2.653 -17.994  1.00  0.00     0.180 A 
ATOM      2  C   UNL     1      16.954   2.529 -19.081  1.00  0.00     0.208 A 
ATOM      3  C   UNL     1      17.223   3.241 -20.261  1.00  0.00     0.238 A 
ATOM      4  O   UNL     1      16.401   3.169 -21.211  1.00  0.00    -0.285 OA
ATOM      5  C   UNL     1      18.379   4.055 -20.345  1.00  0.00     0.111 A 
ATOM      6  C   UNL     1      18.771   4.789 -21.504  1.00  0.00     0.134 A 
ATOM      7  C   UNL     1      19.863   5.664 -21.431  1.00  0.00     0.093 A 
ATOM      8  C   UNL     1      20.614   5.783 -20.263  1.00  0.00     0.123 A 
ATOM      9  C   UNL     1      20.275   5.025 -19.141  1.00  0.00     0.094 A 
ATOM     10  C   UNL     1      19.170   4.170 -19.171  1.00  0.00     0.146 A 
ATOM     11  O   UNL     1      18.876   3.475 -18.080  1.00  0.00    -0.452 OA
ENDROOT
BRANCH   1  12
ATOM     12  C   UNL     1      17.632   1.915 -16.725  1.00  0.00     0.025 A 
ATOM     13  C   UNL     1      18.120   0.608 -16.554  1.00  0.00     0.016 A 
ATOM     14  C   UNL     1      17.937  -0.060 -15.340  1.00  0.00     0.051 A 
ATOM     15  C   UNL     1      17.280   0.567 -14.279  1.00  0.00     0.157 A 
ATOM     16  C   UNL     1      16.991   2.552 -15.650  1.00  0.00     0.062 A 
ATOM     17  C   UNL     1      16.807   1.882 -14.431  1.00  0.00     0.158 A 
BRANCH  15  18
ATOM     18  O   UNL     1      17.112  -0.125 -13.080  1.00  0.00    -0.504 OA
ATOM     19  H   UNL     1      16.704  -1.051 -13.046  1.00  0.00     0.293 HD
ENDBRANCH  15  18
BRANCH  17  20
ATOM     20  O   UNL     1      16.157   2.518 -13.374  1.00  0.00    -0.504 OA
ATOM     21  H   UNL     1      16.348   3.484 -13.139  1.00  0.00     0.293 HD
ENDBRANCH  17  20
ENDBRANCH   1  12
BRANCH   2  22
ATOM     22  O   UNL     1      15.808   1.738 -18.969  1.00  0.00    -0.502 OA
ATOM     23  H   UNL     1      15.142   1.634 -19.726  1.00  0.00     0.293 HD
ENDBRANCH   2  22
BRANCH   6  24
ATOM     24  O   UNL     1      18.145   4.675 -22.748  1.00  0.00    -0.507 OA
ATOM     25  H   UNL     1      17.784   3.815 -23.134  1.00  0.00     0.293 HD
ENDBRANCH   6  24
BRANCH   8  26
ATOM     26  O   UNL     1      21.702   6.651 -20.231  1.00  0.00    -0.508 OA
ATOM     27  H   UNL     1      21.586   7.651 -20.340  1.00  0.00     0.293 HD
ENDBRANCH   8  26
TORSDOF 6
ENDMDL
MODEL 6
REMARK VINA RESULT:    -5.305      2.648      6.849
REMARK INTER + INTRA:          -6.722
REMARK INTER:                  -6.430
REMARK INTRA:                  -0.292
REMARK UNBOUND:                -0.331
REMARK SMILES O=c1c(O)c(-c2ccc(O)c(O)c2)oc2cc(O)cc(O)c12
REMARK SMILES IDX 5 1 3 2 2 3 1 4 22 5 20 6 19 7 17 8 16 9 15 10 14 11 6 12
REMARK SMILES IDX 7 13 8 14 9 15 13 16 11 17 10 18 12 20 4 22 21 24 18 26
REMARK H PARENT 10 19 12 21 4 23 21 25 18 27
REMARK Flexibility Score: inf
ROOT
ATOM      1  C   UNL     1      17.782   1.567 -16.289  1.00  0.00     0.180 A 
ATOM      2  C   UNL     1      19.063   1.078 -16.600  1.00  0.00     0.208 A 
ATOM      3  C   UNL     1      19.437   0.960 -17.948  1.00  0.00     0.238 A 
ATOM      4  O   UNL     1      20.564   0.471 -18.221  1.00  0.00    -0.285 OA
ATOM      5  C   UNL     1      18.533   1.346 -18.967  1.00  0.00     0.111 A 
ATOM      6  C   UNL     1      18.822   1.306 -20.364  1.00  0.00     0.134 A 
ATOM      7  C   UNL     1      17.807   1.587 -21.287  1.00  0.00     0.093 A 
ATOM      8  C   UNL     1      16.535   1.969 -20.865  1.00  0.00     0.123 A 
ATOM      9  C   UNL     1      16.258   2.070 -19.500  1.00  0.00     0.094 A 
ATOM     10  C   UNL     1      17.239   1.761 -18.555  1.00  0.00     0.146 A 
ATOM     11  O   UNL     1      16.933   1.859 -17.267  1.00  0.00    -0.452 OA
ENDROOT
BRANCH   1  12
ATOM     12  C   UNL     1      17.324   1.744 -14.891  1.00  0.00     0.025 A 
ATOM     13  C   UNL     1      16.860   0.656 -14.131  1.00  0.00     0.016 A 
ATOM     14  C   UNL     1      16.456   0.842 -12.806  1.00  0.00     0.051 A 
ATOM     15  C   UNL     1      16.520   2.108 -12.217  1.00  0.00     0.157 A 
ATOM     16  C   UNL     1      17.407   3.011 -14.290  1.00  0.00     0.062 A 
ATOM     17  C   UNL     1      17.001   3.199 -12.961  1.00  0.00     0.158 A 
BRANCH  15  18
ATOM     18  O   UNL     1      16.108   2.262 -10.894  1.00  0.00    -0.504 OA
ATOM     19  H   UNL     1      15.907   3.171 -10.496  1.00  0.00     0.293 HD
ENDBRANCH  15  18
BRANCH  17  20
ATOM     20  O   UNL     1      17.075   4.463 -12.378  1.00  0.00    -0.504 OA
ATOM     21  H   UNL     1      17.483   5.250 -12.868  1.00  0.00     0.293 HD
ENDBRANCH  17  20
ENDBRANCH   1  12
BRANCH   2  22
ATOM     22  O   UNL     1      19.931   0.683 -15.579  1.00  0.00    -0.502 OA
ATOM     23  H   UNL     1      19.968  -0.269 -15.234  1.00  0.00     0.293 HD
ENDBRANCH   2  22
BRANCH   6  24
ATOM     24  O   UNL     1      20.085   1.024 -20.892  1.00  0.00    -0.507 OA
ATOM     25  H   UNL     1      20.819   1.704 -21.020  1.00  0.00     0.293 HD
ENDBRANCH   6  24
BRANCH   8  26
ATOM     26  O   UNL     1      15.554   2.258 -21.811  1.00  0.00    -0.508 OA
ATOM     27  H   UNL     1      14.638   2.596 -21.538  1.00  0.00     0.293 HD
ENDBRANCH   8  26
TORSDOF 6
ENDMDL
MODEL 7
REMARK VINA RESULT:    -5.301      2.113      7.384
REMARK INTER + INTRA:          -6.717
REMARK INTER:                  -6.598
REMARK INTRA:                  -0.118
REMARK UNBOUND:                -0.331
REMARK SMILES O=c1c(O)c(-c2ccc(O)c(O)c2)oc2cc(O)cc(O)c12
REMARK SMILES IDX 5 1 3 2 2 3 1 4 22 5 20 6 19 7 17 8 16 9 15 10 14 11 6 12
REMARK SMILES IDX 7 13 8 14 9 15 13 16 11 17 10 18 12 20 4 22 21 24 18 26
REMARK H PARENT 10 19 12 21 4 23 21 25 18 27
REMARK Flexibility Score: inf
ROOT
ATOM      1  C   UNL     1      17.899   2.111 -15.975  1.00  0.00     0.180 A 
ATOM      2  C   UNL     1      17.793   3.459 -16.356  1.00  0.00     0.208 A 
ATOM      3  C   UNL     1      18.271   3.849 -17.618  1.00  0.00     0.238 A 
ATOM      4  O   UNL     1      18.223   5.067 -17.932  1.00  0.00    -0.285 OA
ATOM      5  C   UNL     1      18.833   2.884 -18.488  1.00  0.00     0.111 A 
ATOM      6  C   UNL     1      19.311   3.160 -19.804  1.00  0.00     0.134 A 
ATOM      7  C   UNL     1      19.966   2.154 -20.526  1.00  0.00     0.093 A 
ATOM      8  C   UNL     1      20.103   0.868 -20.007  1.00  0.00     0.123 A 
ATOM      9  C   UNL     1      19.586   0.571 -18.745  1.00  0.00     0.094 A 
ATOM     10  C   UNL     1      18.959   1.562 -17.986  1.00  0.00     0.146 A 
ATOM     11  O   UNL     1      18.490   1.241 -16.786  1.00  0.00    -0.452 OA
ENDROOT
BRANCH   1  12
ATOM     12  C   UNL     1      17.396   1.618 -14.671  1.00  0.00     0.025 A 
ATOM     13  C   UNL     1      18.266   1.074 -13.711  1.00  0.00     0.016 A 
ATOM     14  C   UNL     1      17.772   0.639 -12.478  1.00  0.00     0.051 A 
ATOM     15  C   UNL     1      16.411   0.751 -12.180  1.00  0.00     0.157 A 
ATOM     16  C   UNL     1      16.032   1.750 -14.361  1.00  0.00     0.062 A 
ATOM     17  C   UNL     1      15.536   1.313 -13.124  1.00  0.00     0.158 A 
BRANCH  15  18
ATOM     18  O   UNL     1      15.949   0.307 -10.942  1.00  0.00    -0.504 OA
ATOM     19  H   UNL     1      14.989   0.440 -10.647  1.00  0.00     0.293 HD
ENDBRANCH  15  18
BRANCH  17  20
ATOM     20  O   UNL     1      14.178   1.436 -12.831  1.00  0.00    -0.504 OA
ATOM     21  H   UNL     1      13.592   0.623 -12.681  1.00  0.00     0.293 HD
ENDBRANCH  17  20
ENDBRANCH   1  12
BRANCH   2  22
ATOM     22  O   UNL     1      17.255   4.399 -15.474  1.00  0.00    -0.502 OA
ATOM     23  H   UNL     1      17.105   5.367 -15.734  1.00  0.00     0.293 HD
ENDBRANCH   2  22
BRANCH   6  24
ATOM     24  O   UNL     1      19.145   4.387 -20.453  1.00  0.00    -0.507 OA
ATOM     25  H   UNL     1      19.461   5.275 -20.094  1.00  0.00     0.293 HD
ENDBRANCH   6  24
BRANCH   8  26
ATOM     26  O   UNL     1      20.747  -0.112 -20.759  1.00  0.00    -0.508 OA
ATOM     27  H   UNL     1      20.268  -0.611 -21.500  1.00  0.00     0.293 HD
ENDBRANCH   8  26
TORSDOF 6
ENDMDL
MODEL 8
REMARK VINA RESULT:    -5.299     14.756     16.754
REMARK INTER + INTRA:          -6.714
REMARK INTER:                  -6.411
REMARK INTRA:                  -0.303
REMARK UNBOUND:                -0.331
REMARK SMILES O=c1c(O)c(-c2ccc(O)c(O)c2)oc2cc(O)cc(O)c12
REMARK SMILES IDX 5 1 3 2 2 3 1 4 22 5 20 6 19 7 17 8 16 9 15 10 14 11 6 12
REMARK SMILES IDX 7 13 8 14 9 15 13 16 11 17 10 18 12 20 4 22 21 24 18 26
REMARK H PARENT 10 19 12 21 4 23 21 25 18 27
REMARK Flexibility Score: inf
ROOT
ATOM      1  C   UNL     1      20.060  12.639 -28.806  1.00  0.00     0.180 A 
ATOM      2  C   UNL     1      20.532  13.511 -29.802  1.00  0.00     0.208 A 
ATOM      3  C   UNL     1      20.854  14.833 -29.453  1.00  0.00     0.238 A 
ATOM      4  O   UNL     1      21.223  15.624 -30.359  1.00  0.00    -0.285 OA
ATOM      5  C   UNL     1      20.716  15.260 -28.110  1.00  0.00     0.111 A 
ATOM      6  C   UNL     1      21.051  16.564 -27.636  1.00  0.00     0.134 A 
ATOM      7  C   UNL     1      20.751  16.917 -26.315  1.00  0.00     0.093 A 
ATOM      8  C   UNL     1      20.189  15.995 -25.433  1.00  0.00     0.123 A 
ATOM      9  C   UNL     1      19.912  14.699 -25.869  1.00  0.00     0.094 A 
ATOM     10  C   UNL     1      20.167  14.327 -27.192  1.00  0.00     0.146 A 
ATOM     11  O   UNL     1      19.879  13.088 -27.569  1.00  0.00    -0.452 OA
ENDROOT
BRANCH   1  12
ATOM     12  C   UNL     1      19.723  11.224 -29.092  1.00  0.00     0.025 A 
ATOM     13  C   UNL     1      18.481  10.866 -29.642  1.00  0.00     0.016 A 
ATOM     14  C   UNL     1      18.194   9.528 -29.926  1.00  0.00     0.051 A 
ATOM     15  C   UNL     1      19.143   8.533 -29.679  1.00  0.00     0.157 A 
ATOM     16  C   UNL     1      20.684  10.225 -28.865  1.00  0.00     0.062 A 
ATOM     17  C   UNL     1      20.397   8.882 -29.149  1.00  0.00     0.158 A 
BRANCH  15  18
ATOM     18  O   UNL     1      18.827   7.207 -29.972  1.00  0.00    -0.504 OA
ATOM     19  H   UNL     1      18.002   6.755 -29.598  1.00  0.00     0.293 HD
ENDBRANCH  15  18
BRANCH  17  20
ATOM     20  O   UNL     1      21.352   7.895 -28.907  1.00  0.00    -0.504 OA
ATOM     21  H   UNL     1      21.500   7.130 -29.554  1.00  0.00     0.293 HD
ENDBRANCH  17  20
ENDBRANCH   1  12
BRANCH   2  22
ATOM     22  O   UNL     1      20.640  13.075 -31.125  1.00  0.00    -0.502 OA
ATOM     23  H   UNL     1      21.506  13.130 -31.647  1.00  0.00     0.293 HD
ENDBRANCH   2  22
BRANCH   6  24
ATOM     24  O   UNL     1      21.699  17.532 -28.409  1.00  0.00    -0.507 OA
ATOM     25  H   UNL     1      21.866  17.459 -29.401  1.00  0.00     0.293 HD
ENDBRANCH   6  24
BRANCH   8  26
ATOM     26  O   UNL     1      19.918  16.376 -24.121  1.00  0.00    -0.508 OA
ATOM     27  H   UNL     1      18.988  16.293 -23.726  1.00  0.00     0.293 HD
ENDBRANCH   8  26
TORSDOF 6
ENDMDL
MODEL 9
REMARK VINA RESULT:    -5.188     14.927     17.918
REMARK INTER + INTRA:          -6.581
REMARK INTER:                  -6.261
REMARK INTRA:                  -0.320
REMARK UNBOUND:                -0.331
REMARK SMILES O=c1c(O)c(-c2ccc(O)c(O)c2)oc2cc(O)cc(O)c12
REMARK SMILES IDX 5 1 3 2 2 3 1 4 22 5 20 6 19 7 17 8 16 9 15 10 14 11 6 12
REMARK SMILES IDX 7 13 8 14 9 15 13 16 11 17 10 18 12 20 4 22 21 24 18 26
REMARK H PARENT 10 19 12 21 4 23 21 25 18 27
REMARK Flexibility Score: inf
ROOT
ATOM      1  C   UNL     1      21.001  13.872 -28.128  1.00  0.00     0.180 A 
ATOM      2  C   UNL     1      20.741  14.394 -26.849  1.00  0.00     0.208 A 
ATOM      3  C   UNL     1      20.757  15.787 -26.667  1.00  0.00     0.238 A 
ATOM      4  O   UNL     1      20.578  16.247 -25.510  1.00  0.00    -0.285 OA
ATOM      5  C   UNL     1      21.016  16.639 -27.768  1.00  0.00     0.111 A 
ATOM      6  C   UNL     1      21.017  18.064 -27.707  1.00  0.00     0.134 A 
ATOM      7  C   UNL     1      21.415  18.804 -28.828  1.00  0.00     0.093 A 
ATOM      8  C   UNL     1      21.749  18.173 -30.025  1.00  0.00     0.123 A 
ATOM      9  C   UNL     1      21.694  16.781 -30.114  1.00  0.00     0.094 A 
ATOM     10  C   UNL     1      21.335  16.014 -29.003  1.00  0.00     0.146 A 
ATOM     11  O   UNL     1      21.305  14.693 -29.126  1.00  0.00    -0.452 OA
ENDROOT
BRANCH   1  12
ATOM     12  C   UNL     1      20.978  12.416 -28.404  1.00  0.00     0.025 A 
ATOM     13  C   UNL     1      22.116  11.617 -28.205  1.00  0.00     0.016 A 
ATOM     14  C   UNL     1      22.064  10.241 -28.448  1.00  0.00     0.051 A 
ATOM     15  C   UNL     1      20.878   9.643 -28.880  1.00  0.00     0.157 A 
ATOM     16  C   UNL     1      19.781  11.809 -28.817  1.00  0.00     0.062 A 
ATOM     17  C   UNL     1      19.727  10.429 -29.063  1.00  0.00     0.158 A 
BRANCH  15  18
ATOM     18  O   UNL     1      20.857   8.269 -29.116  1.00  0.00    -0.504 OA
ATOM     19  H   UNL     1      20.005   7.777 -29.356  1.00  0.00     0.293 HD
ENDBRANCH  15  18
BRANCH  17  20
ATOM     20  O   UNL     1      18.538   9.838 -29.486  1.00  0.00    -0.504 OA
ATOM     21  H   UNL     1      17.793   9.619 -28.835  1.00  0.00     0.293 HD
ENDBRANCH  17  20
ENDBRANCH   1  12
BRANCH   2  22
ATOM     22  O   UNL     1      20.509  13.535 -25.772  1.00  0.00    -0.502 OA
ATOM     23  H   UNL     1      19.721  12.899 -25.744  1.00  0.00     0.293 HD
ENDBRANCH   2  22
BRANCH   6  24
ATOM     24  O   UNL     1      20.613  18.797 -26.587  1.00  0.00    -0.507 OA
ATOM     25  H   UNL     1      21.218  19.391 -26.040  1.00  0.00     0.293 HD
ENDBRANCH   6  24
BRANCH   8  26
ATOM     26  O   UNL     1      22.125  18.940 -31.125  1.00  0.00    -0.508 OA
ATOM     27  H   UNL     1      21.468  19.168 -31.862  1.00  0.00     0.293 HD
ENDBRANCH   8  26
TORSDOF 6
ENDMDL
