MODEL 1
REMARK VINA RESULT:    -7.587      0.000      0.000
REMARK INTER + INTRA:         -11.048
REMARK INTER:                 -10.248
REMARK INTRA:                  -0.800
REMARK UNBOUND:                -0.800
REMARK SMILES O=c1c(-c2ccc(O)cc2)coc2c([C@@H]3O[C@H](CO)[C@H](O)[C@@H](O)[C@@H]3O)c(O)ccc12
REMARK SMILES IDX 3 1 11 2 12 3 13 4 30 5 2 6 1 7 29 8 28 9 26 10 14 11 4 12
REMARK SMILES IDX 5 13 6 14 7 15 10 16 9 17 8 18 15 20 24 21 16 22 22 23 17 24
REMARK SMILES IDX 20 25 25 26 23 28 18 30 19 31 21 33 27 35
REMARK H PARENT 8 19 25 27 23 29 19 32 21 34 27 36
REMARK Flexibility Score: inf
ROOT
ATOM      1  C   UNL     1       9.531 -27.932  28.128  1.00  0.00     0.065 A 
ATOM      2  C   UNL     1       8.630 -27.139  27.403  1.00  0.00     0.208 A 
ATOM      3  O   UNL     1       9.025 -26.472  26.326  1.00  0.00    -0.463 OA
ATOM      4  C   UNL     1      10.272 -26.502  25.863  1.00  0.00     0.147 A 
ATOM      5  C   UNL     1      11.247 -27.279  26.535  1.00  0.00     0.066 A 
ATOM      6  C   UNL     1      10.865 -27.993  27.685  1.00  0.00     0.200 A 
ATOM      7  O   UNL     1      11.717 -28.668  28.328  1.00  0.00    -0.288 OA
ATOM      8  C   UNL     1      12.560 -27.322  26.043  1.00  0.00     0.020 A 
ATOM      9  C   UNL     1      12.901 -26.618  24.891  1.00  0.00     0.047 A 
ATOM     10  C   UNL     1      11.946 -25.850  24.214  1.00  0.00     0.125 A 
ATOM     11  C   UNL     1      10.623 -25.763  24.704  1.00  0.00     0.069 A 
ENDROOT
BRANCH   1  12
ATOM     12  C   UNL     1       9.065 -28.674  29.326  1.00  0.00    -0.011 A 
ATOM     13  C   UNL     1       9.513 -28.307  30.607  1.00  0.00     0.013 A 
ATOM     14  C   UNL     1       9.070 -28.998  31.737  1.00  0.00     0.047 A 
ATOM     15  C   UNL     1       8.168 -30.061  31.604  1.00  0.00     0.115 A 
ATOM     16  C   UNL     1       8.154 -29.739  29.201  1.00  0.00     0.013 A 
ATOM     17  C   UNL     1       7.711 -30.428  30.334  1.00  0.00     0.047 A 
BRANCH  15  18
ATOM     18  O   UNL     1       7.718 -30.758  32.724  1.00  0.00    -0.508 OA
ATOM     19  H   UNL     1       7.760 -31.769  32.771  1.00  0.00     0.293 HD
ENDBRANCH  15  18
ENDBRANCH   1  12
BRANCH  11  20
ATOM     20  C   UNL     1       9.593 -24.941  23.935  1.00  0.00     0.188 C 
ATOM     21  C   UNL     1       9.731 -23.434  24.275  1.00  0.00     0.179 C 
ATOM     22  O   UNL     1       9.717 -25.161  22.539  1.00  0.00    -0.362 OA
ATOM     23  C   UNL     1       8.763 -22.570  23.426  1.00  0.00     0.177 C 
ATOM     24  C   UNL     1       8.639 -24.565  21.839  1.00  0.00     0.176 C 
ATOM     25  C   UNL     1       8.709 -23.021  21.945  1.00  0.00     0.177 C 
BRANCH  21  26
ATOM     26  O   UNL     1      11.057 -22.985  24.129  1.00  0.00    -0.387 OA
ATOM     27  H   UNL     1      11.571 -23.285  24.922  1.00  0.00     0.211 HD
ENDBRANCH  21  26
BRANCH  23  28
ATOM     28  O   UNL     1       7.474 -22.554  23.992  1.00  0.00    -0.387 OA
ATOM     29  H   UNL     1       7.565 -22.412  24.968  1.00  0.00     0.211 HD
ENDBRANCH  23  28
BRANCH  24  30
ATOM     30  C   UNL     1       8.687 -25.042  20.380  1.00  0.00     0.191 C 
BRANCH  30  31
ATOM     31  O   UNL     1       7.806 -24.298  19.581  1.00  0.00    -0.394 OA
ATOM     32  H   UNL     1       8.197 -23.391  19.487  1.00  0.00     0.210 HD
ENDBRANCH  30  31
ENDBRANCH  24  30
BRANCH  25  33
ATOM     33  O   UNL     1       9.842 -22.550  21.257  1.00  0.00    -0.388 OA
ATOM     34  H   UNL     1       9.822 -22.962  20.354  1.00  0.00     0.211 HD
ENDBRANCH  25  33
ENDBRANCH  11  20
BRANCH  10  35
ATOM     35  O   UNL     1      12.310 -25.174  23.049  1.00  0.00    -0.507 OA
ATOM     36  H   UNL     1      13.147 -25.419  22.532  1.00  0.00     0.293 HD
ENDBRANCH  10  35
TORSDOF 9
ENDMDL
MODEL 2
REMARK VINA RESULT:    -7.413      1.781      2.094
REMARK INTER + INTRA:         -10.813
REMARK INTER:                 -10.660
REMARK INTRA:                  -0.153
REMARK UNBOUND:                -0.800
REMARK SMILES O=c1c(-c2ccc(O)cc2)coc2c([C@@H]3O[C@H](CO)[C@H](O)[C@@H](O)[C@@H]3O)c(O)ccc12
REMARK SMILES IDX 3 1 11 2 12 3 13 4 30 5 2 6 1 7 29 8 28 9 26 10 14 11 4 12
REMARK SMILES IDX 5 13 6 14 7 15 10 16 9 17 8 18 15 20 24 21 16 22 22 23 17 24
REMARK SMILES IDX 20 25 25 26 23 28 18 30 19 31 21 33 27 35
REMARK H PARENT 8 19 25 27 23 29 19 32 21 34 27 36
REMARK Flexibility Score: inf
ROOT
ATOM      1  C   UNL     1       9.038 -28.458  27.642  1.00  0.00     0.065 A 
ATOM      2  C   UNL     1       8.788 -27.101  27.398  1.00  0.00     0.208 A 
ATOM      3  O   UNL     1       8.743 -26.629  26.159  1.00  0.00    -0.463 OA
ATOM      4  C   UNL     1       8.928 -27.387  25.081  1.00  0.00     0.147 A 
ATOM      5  C   UNL     1       9.185 -28.770  25.237  1.00  0.00     0.066 A 
ATOM      6  C   UNL     1       9.247 -29.302  26.538  1.00  0.00     0.200 A 
ATOM      7  O   UNL     1       9.509 -30.525  26.714  1.00  0.00    -0.288 OA
ATOM      8  C   UNL     1       9.369 -29.574  24.102  1.00  0.00     0.020 A 
ATOM      9  C   UNL     1       9.283 -29.020  22.828  1.00  0.00     0.047 A 
ATOM     10  C   UNL     1       9.024 -27.655  22.659  1.00  0.00     0.125 A 
ATOM     11  C   UNL     1       8.866 -26.814  23.785  1.00  0.00     0.069 A 
ENDROOT
BRANCH   1  12
ATOM     12  C   UNL     1       9.077 -28.963  29.039  1.00  0.00    -0.011 A 
ATOM     13  C   UNL     1      10.223 -28.771  29.830  1.00  0.00     0.013 A 
ATOM     14  C   UNL     1      10.260 -29.239  31.147  1.00  0.00     0.047 A 
ATOM     15  C   UNL     1       9.150 -29.898  31.691  1.00  0.00     0.115 A 
ATOM     16  C   UNL     1       7.965 -29.621  29.594  1.00  0.00     0.013 A 
ATOM     17  C   UNL     1       8.004 -30.086  30.912  1.00  0.00     0.047 A 
BRANCH  15  18
ATOM     18  O   UNL     1       9.175 -30.368  33.003  1.00  0.00    -0.508 OA
ATOM     19  H   UNL     1      10.036 -30.682  33.436  1.00  0.00     0.293 HD
ENDBRANCH  15  18
ENDBRANCH   1  12
BRANCH  11  20
ATOM     20  C   UNL     1       8.559 -25.334  23.575  1.00  0.00     0.188 C 
ATOM     21  C   UNL     1       9.368 -24.461  24.569  1.00  0.00     0.179 C 
ATOM     22  O   UNL     1       8.818 -24.953  22.234  1.00  0.00    -0.362 OA
ATOM     23  C   UNL     1       9.149 -22.949  24.304  1.00  0.00     0.177 C 
ATOM     24  C   UNL     1       8.344 -23.642  21.983  1.00  0.00     0.176 C 
ATOM     25  C   UNL     1       9.159 -22.604  22.794  1.00  0.00     0.177 C 
BRANCH  21  26
ATOM     26  O   UNL     1      10.740 -24.778  24.544  1.00  0.00    -0.387 OA
ATOM     27  H   UNL     1      11.231 -24.050  25.004  1.00  0.00     0.211 HD
ENDBRANCH  21  26
BRANCH  23  28
ATOM     28  O   UNL     1       7.963 -22.498  24.913  1.00  0.00    -0.387 OA
ATOM     29  H   UNL     1       8.098 -21.559  25.198  1.00  0.00     0.211 HD
ENDBRANCH  23  28
BRANCH  24  30
ATOM     30  C   UNL     1       8.423 -23.379  20.472  1.00  0.00     0.191 C 
BRANCH  30  31
ATOM     31  O   UNL     1       7.973 -24.493  19.747  1.00  0.00    -0.394 OA
ATOM     32  H   UNL     1       8.119 -25.289  20.320  1.00  0.00     0.210 HD
ENDBRANCH  30  31
ENDBRANCH  24  30
BRANCH  25  33
ATOM     33  O   UNL     1      10.483 -22.565  22.318  1.00  0.00    -0.388 OA
ATOM     34  H   UNL     1      10.725 -21.608  22.218  1.00  0.00     0.211 HD
ENDBRANCH  25  33
ENDBRANCH  11  20
BRANCH  10  35
ATOM     35  O   UNL     1       8.920 -27.131  21.370  1.00  0.00    -0.507 OA
ATOM     36  H   UNL     1       8.063 -27.205  20.833  1.00  0.00     0.293 HD
ENDBRANCH  10  35
TORSDOF 9
ENDMDL
MODEL 3
REMARK VINA RESULT:    -6.812      2.072      4.537
REMARK INTER + INTRA:         -10.002
REMARK INTER:                  -9.165
REMARK INTRA:                  -0.836
REMARK UNBOUND:                -0.800
REMARK SMILES O=c1c(-c2ccc(O)cc2)coc2c([C@@H]3O[C@H](CO)[C@H](O)[C@@H](O)[C@@H]3O)c(O)ccc12
REMARK SMILES IDX 3 1 11 2 12 3 13 4 30 5 2 6 1 7 29 8 28 9 26 10 14 11 4 12
REMARK SMILES IDX 5 13 6 14 7 15 10 16 9 17 8 18 15 20 24 21 16 22 22 23 17 24
REMARK SMILES IDX 20 25 25 26 23 28 18 30 19 31 21 33 27 35
REMARK H PARENT 8 19 25 27 23 29 19 32 21 34 27 36
REMARK Flexibility Score: inf
ROOT
ATOM      1  C   UNL     1       9.675 -28.104  27.961  1.00  0.00     0.065 A 
ATOM      2  C   UNL     1      10.805 -28.628  27.319  1.00  0.00     0.208 A 
ATOM      3  O   UNL     1      11.322 -28.029  26.254  1.00  0.00    -0.463 OA
ATOM      4  C   UNL     1      10.823 -26.913  25.728  1.00  0.00     0.147 A 
ATOM      5  C   UNL     1       9.682 -26.316  26.316  1.00  0.00     0.066 A 
ATOM      6  C   UNL     1       9.103 -26.930  27.441  1.00  0.00     0.200 A 
ATOM      7  O   UNL     1       8.064 -26.442  27.969  1.00  0.00    -0.288 OA
ATOM      8  C   UNL     1       9.159 -25.134  25.770  1.00  0.00     0.020 A 
ATOM      9  C   UNL     1       9.766 -24.541  24.667  1.00  0.00     0.047 A 
ATOM     10  C   UNL     1      10.898 -25.119  24.079  1.00  0.00     0.125 A 
ATOM     11  C   UNL     1      11.428 -26.327  24.588  1.00  0.00     0.069 A 
ENDROOT
BRANCH   1  12
ATOM     12  C   UNL     1       9.118 -28.790  29.155  1.00  0.00    -0.011 A 
ATOM     13  C   UNL     1       8.131 -29.779  29.008  1.00  0.00     0.013 A 
ATOM     14  C   UNL     1       7.610 -30.432  30.128  1.00  0.00     0.047 A 
ATOM     15  C   UNL     1       8.074 -30.109  31.410  1.00  0.00     0.115 A 
ATOM     16  C   UNL     1       9.583 -28.475  30.445  1.00  0.00     0.013 A 
ATOM     17  C   UNL     1       9.062 -29.131  31.564  1.00  0.00     0.047 A 
BRANCH  15  18
ATOM     18  O   UNL     1       7.563 -30.754  32.535  1.00  0.00    -0.508 OA
ATOM     19  H   UNL     1       7.914 -31.656  32.832  1.00  0.00     0.293 HD
ENDBRANCH  15  18
ENDBRANCH   1  12
BRANCH  11  20
ATOM     20  C   UNL     1      12.677 -26.924  23.946  1.00  0.00     0.188 C 
ATOM     21  C   UNL     1      12.299 -27.813  22.733  1.00  0.00     0.179 C 
ATOM     22  O   UNL     1      13.583 -25.901  23.565  1.00  0.00    -0.362 OA
ATOM     23  C   UNL     1      13.560 -28.345  22.005  1.00  0.00     0.177 C 
ATOM     24  C   UNL     1      14.823 -26.453  23.161  1.00  0.00     0.176 C 
ATOM     25  C   UNL     1      14.657 -27.263  21.851  1.00  0.00     0.177 C 
BRANCH  21  26
ATOM     26  O   UNL     1      11.453 -27.136  21.834  1.00  0.00    -0.387 OA
ATOM     27  H   UNL     1      11.251 -26.244  22.216  1.00  0.00     0.211 HD
ENDBRANCH  21  26
BRANCH  23  28
ATOM     28  O   UNL     1      14.070 -29.488  22.650  1.00  0.00    -0.387 OA
ATOM     29  H   UNL     1      14.794 -29.202  23.262  1.00  0.00     0.211 HD
ENDBRANCH  23  28
BRANCH  24  30
ATOM     30  C   UNL     1      15.834 -25.307  23.001  1.00  0.00     0.191 C 
BRANCH  30  31
ATOM     31  O   UNL     1      16.363 -24.931  24.245  1.00  0.00    -0.394 OA
ATOM     32  H   UNL     1      17.031 -24.218  24.070  1.00  0.00     0.210 HD
ENDBRANCH  30  31
ENDBRANCH  24  30
BRANCH  25  33
ATOM     33  O   UNL     1      14.330 -26.394  20.794  1.00  0.00    -0.388 OA
ATOM     34  H   UNL     1      14.760 -26.760  19.977  1.00  0.00     0.211 HD
ENDBRANCH  25  33
ENDBRANCH  11  20
BRANCH  10  35
ATOM     35  O   UNL     1      11.500 -24.491  22.988  1.00  0.00    -0.507 OA
ATOM     36  H   UNL     1      11.155 -24.618  22.044  1.00  0.00     0.293 HD
ENDBRANCH  10  35
TORSDOF 9
ENDMDL
MODEL 4
REMARK VINA RESULT:    -6.766      2.187      3.233
REMARK INTER + INTRA:          -9.939
REMARK INTER:                  -9.561
REMARK INTRA:                  -0.378
REMARK UNBOUND:                -0.800
REMARK SMILES O=c1c(-c2ccc(O)cc2)coc2c([C@@H]3O[C@H](CO)[C@H](O)[C@@H](O)[C@@H]3O)c(O)ccc12
REMARK SMILES IDX 3 1 11 2 12 3 13 4 30 5 2 6 1 7 29 8 28 9 26 10 14 11 4 12
REMARK SMILES IDX 5 13 6 14 7 15 10 16 9 17 8 18 15 20 24 21 16 22 22 23 17 24
REMARK SMILES IDX 20 25 25 26 23 28 18 30 19 31 21 33 27 35
REMARK H PARENT 8 19 25 27 23 29 19 32 21 34 27 36
REMARK Flexibility Score: inf
ROOT
ATOM      1  C   UNL     1       9.545 -27.801  27.267  1.00  0.00     0.065 A 
ATOM      2  C   UNL     1       9.972 -26.606  26.673  1.00  0.00     0.208 A 
ATOM      3  O   UNL     1       9.817 -26.400  25.371  1.00  0.00    -0.463 OA
ATOM      4  C   UNL     1       9.260 -27.288  24.551  1.00  0.00     0.147 A 
ATOM      5  C   UNL     1       8.799 -28.522  25.070  1.00  0.00     0.066 A 
ATOM      6  C   UNL     1       8.955 -28.777  26.444  1.00  0.00     0.200 A 
ATOM      7  O   UNL     1       8.587 -29.882  26.933  1.00  0.00    -0.288 OA
ATOM      8  C   UNL     1       8.202 -29.456  24.210  1.00  0.00     0.020 A 
ATOM      9  C   UNL     1       8.046 -29.166  22.857  1.00  0.00     0.047 A 
ATOM     10  C   UNL     1       8.492 -27.947  22.333  1.00  0.00     0.125 A 
ATOM     11  C   UNL     1       9.127 -27.000  23.169  1.00  0.00     0.069 A 
ENDROOT
BRANCH   1  12
ATOM     12  C   UNL     1       9.723 -28.005  28.728  1.00  0.00    -0.011 A 
ATOM     13  C   UNL     1       9.150 -27.107  29.644  1.00  0.00     0.013 A 
ATOM     14  C   UNL     1       9.309 -27.301  31.019  1.00  0.00     0.047 A 
ATOM     15  C   UNL     1      10.037 -28.399  31.495  1.00  0.00     0.115 A 
ATOM     16  C   UNL     1      10.448 -29.108  29.214  1.00  0.00     0.013 A 
ATOM     17  C   UNL     1      10.604 -29.301  30.590  1.00  0.00     0.047 A 
BRANCH  15  18
ATOM     18  O   UNL     1      10.202 -28.603  32.864  1.00  0.00    -0.508 OA
ATOM     19  H   UNL     1       9.540 -29.151  33.401  1.00  0.00     0.293 HD
ENDBRANCH  15  18
ENDBRANCH   1  12
BRANCH  11  20
ATOM     20  C   UNL     1       9.581 -25.668  22.579  1.00  0.00     0.188 C 
ATOM     21  C   UNL     1       8.555 -24.550  22.896  1.00  0.00     0.179 C 
ATOM     22  O   UNL     1      10.873 -25.324  23.055  1.00  0.00    -0.362 OA
ATOM     23  C   UNL     1       9.049 -23.168  22.395  1.00  0.00     0.177 C 
ATOM     24  C   UNL     1      11.382 -24.201  22.358  1.00  0.00     0.176 C 
ATOM     25  C   UNL     1      10.553 -22.935  22.686  1.00  0.00     0.177 C 
BRANCH  21  26
ATOM     26  O   UNL     1       8.245 -24.501  24.269  1.00  0.00    -0.387 OA
ATOM     27  H   UNL     1       8.972 -24.957  24.764  1.00  0.00     0.211 HD
ENDBRANCH  21  26
BRANCH  23  28
ATOM     28  O   UNL     1       8.771 -23.000  21.026  1.00  0.00    -0.387 OA
ATOM     29  H   UNL     1       8.864 -23.879  20.579  1.00  0.00     0.211 HD
ENDBRANCH  23  28
BRANCH  24  30
ATOM     30  C   UNL     1      12.862 -24.029  22.732  1.00  0.00     0.191 C 
BRANCH  30  31
ATOM     31  O   UNL     1      13.111 -24.517  24.024  1.00  0.00    -0.394 OA
ATOM     32  H   UNL     1      14.087 -24.429  24.182  1.00  0.00     0.210 HD
ENDBRANCH  30  31
ENDBRANCH  24  30
BRANCH  25  33
ATOM     33  O   UNL     1      10.734 -22.586  24.036  1.00  0.00    -0.388 OA
ATOM     34  H   UNL     1      10.543 -21.615  24.111  1.00  0.00     0.211 HD
ENDBRANCH  25  33
ENDBRANCH  11  20
BRANCH  10  35
ATOM     35  O   UNL     1       8.302 -27.673  20.978  1.00  0.00    -0.507 OA
ATOM     36  H   UNL     1       7.593 -28.150  20.433  1.00  0.00     0.293 HD
ENDBRANCH  10  35
TORSDOF 9
ENDMDL
MODEL 5
REMARK VINA RESULT:    -6.679      6.229      9.508
REMARK INTER + INTRA:          -9.822
REMARK INTER:                  -9.262
REMARK INTRA:                  -0.561
REMARK UNBOUND:                -0.800
REMARK SMILES O=c1c(-c2ccc(O)cc2)coc2c([C@@H]3O[C@H](CO)[C@H](O)[C@@H](O)[C@@H]3O)c(O)ccc12
REMARK SMILES IDX 3 1 11 2 12 3 13 4 30 5 2 6 1 7 29 8 28 9 26 10 14 11 4 12
REMARK SMILES IDX 5 13 6 14 7 15 10 16 9 17 8 18 15 20 24 21 16 22 22 23 17 24
REMARK SMILES IDX 20 25 25 26 23 28 18 30 19 31 21 33 27 35
REMARK H PARENT 8 19 25 27 23 29 19 32 21 34 27 36
REMARK Flexibility Score: inf
ROOT
ATOM      1  C   UNL     1       9.196 -27.063  31.337  1.00  0.00     0.065 A 
ATOM      2  C   UNL     1       9.867 -27.020  32.566  1.00  0.00     0.208 A 
ATOM      3  O   UNL     1      10.396 -25.888  33.014  1.00  0.00    -0.463 OA
ATOM      4  C   UNL     1      10.332 -24.738  32.348  1.00  0.00     0.147 A 
ATOM      5  C   UNL     1       9.670 -24.692  31.097  1.00  0.00     0.066 A 
ATOM      6  C   UNL     1       9.106 -25.876  30.589  1.00  0.00     0.200 A 
ATOM      7  O   UNL     1       8.538 -25.878  29.460  1.00  0.00    -0.288 OA
ATOM      8  C   UNL     1       9.592 -23.478  30.398  1.00  0.00     0.020 A 
ATOM      9  C   UNL     1      10.146 -22.321  30.936  1.00  0.00     0.047 A 
ATOM     10  C   UNL     1      10.798 -22.351  32.175  1.00  0.00     0.125 A 
ATOM     11  C   UNL     1      10.921 -23.565  32.887  1.00  0.00     0.069 A 
ENDROOT
BRANCH   1  12
ATOM     12  C   UNL     1       8.607 -28.341  30.860  1.00  0.00    -0.011 A 
ATOM     13  C   UNL     1       7.840 -29.135  31.730  1.00  0.00     0.013 A 
ATOM     14  C   UNL     1       7.277 -30.334  31.283  1.00  0.00     0.047 A 
ATOM     15  C   UNL     1       7.469 -30.751  29.959  1.00  0.00     0.115 A 
ATOM     16  C   UNL     1       8.790 -28.763  29.532  1.00  0.00     0.013 A 
ATOM     17  C   UNL     1       8.225 -29.962  29.086  1.00  0.00     0.047 A 
BRANCH  15  18
ATOM     18  O   UNL     1       6.913 -31.944  29.502  1.00  0.00    -0.508 OA
ATOM     19  H   UNL     1       7.389 -32.830  29.622  1.00  0.00     0.293 HD
ENDBRANCH  15  18
ENDBRANCH   1  12
BRANCH  11  20
ATOM     20  C   UNL     1      11.613 -23.568  34.247  1.00  0.00     0.188 C 
ATOM     21  C   UNL     1      13.099 -23.989  34.104  1.00  0.00     0.179 C 
ATOM     22  O   UNL     1      11.501 -22.299  34.869  1.00  0.00    -0.362 OA
ATOM     23  C   UNL     1      13.847 -23.898  35.459  1.00  0.00     0.177 C 
ATOM     24  C   UNL     1      11.959 -22.354  36.209  1.00  0.00     0.176 C 
ATOM     25  C   UNL     1      13.484 -22.618  36.252  1.00  0.00     0.177 C 
BRANCH  21  26
ATOM     26  O   UNL     1      13.762 -23.235  33.117  1.00  0.00    -0.387 OA
ATOM     27  H   UNL     1      14.599 -23.708  32.880  1.00  0.00     0.211 HD
ENDBRANCH  21  26
BRANCH  23  28
ATOM     28  O   UNL     1      13.623 -25.050  36.236  1.00  0.00    -0.387 OA
ATOM     29  H   UNL     1      12.721 -25.398  36.023  1.00  0.00     0.211 HD
ENDBRANCH  23  28
BRANCH  24  30
ATOM     30  C   UNL     1      11.586 -21.035  36.903  1.00  0.00     0.191 C 
BRANCH  30  31
ATOM     31  O   UNL     1      11.711 -19.953  36.019  1.00  0.00    -0.394 OA
ATOM     32  H   UNL     1      10.793 -19.624  35.833  1.00  0.00     0.210 HD
ENDBRANCH  30  31
ENDBRANCH  24  30
BRANCH  25  33
ATOM     33  O   UNL     1      14.172 -21.512  35.720  1.00  0.00    -0.388 OA
ATOM     34  H   UNL     1      13.492 -20.813  35.534  1.00  0.00     0.211 HD
ENDBRANCH  25  33
ENDBRANCH  11  20
BRANCH  10  35
ATOM     35  O   UNL     1      11.323 -21.170  32.702  1.00  0.00    -0.507 OA
ATOM     36  H   UNL     1      12.065 -20.663  32.234  1.00  0.00     0.293 HD
ENDBRANCH  10  35
TORSDOF 9
ENDMDL
MODEL 6
REMARK VINA RESULT:    -6.558      4.828      7.231
REMARK INTER + INTRA:          -9.659
REMARK INTER:                  -8.701
REMARK INTRA:                  -0.958
REMARK UNBOUND:                -0.800
REMARK SMILES O=c1c(-c2ccc(O)cc2)coc2c([C@@H]3O[C@H](CO)[C@H](O)[C@@H](O)[C@@H]3O)c(O)ccc12
REMARK SMILES IDX 3 1 11 2 12 3 13 4 30 5 2 6 1 7 29 8 28 9 26 10 14 11 4 12
REMARK SMILES IDX 5 13 6 14 7 15 10 16 9 17 8 18 15 20 24 21 16 22 22 23 17 24
REMARK SMILES IDX 20 25 25 26 23 28 18 30 19 31 21 33 27 35
REMARK H PARENT 8 19 25 27 23 29 19 32 21 34 27 36
REMARK Flexibility Score: inf
ROOT
ATOM      1  C   UNL     1       9.726 -23.636  32.066  1.00  0.00     0.065 A 
ATOM      2  C   UNL     1       9.656 -23.648  30.666  1.00  0.00     0.208 A 
ATOM      3  O   UNL     1       9.630 -24.792  29.995  1.00  0.00    -0.463 OA
ATOM      4  C   UNL     1       9.667 -25.985  30.583  1.00  0.00     0.147 A 
ATOM      5  C   UNL     1       9.738 -26.065  31.994  1.00  0.00     0.066 A 
ATOM      6  C   UNL     1       9.775 -24.871  32.736  1.00  0.00     0.200 A 
ATOM      7  O   UNL     1       9.872 -24.907  33.995  1.00  0.00    -0.288 OA
ATOM      8  C   UNL     1       9.767 -27.322  32.617  1.00  0.00     0.020 A 
ATOM      9  C   UNL     1       9.710 -28.485  31.854  1.00  0.00     0.047 A 
ATOM     10  C   UNL     1       9.635 -28.420  30.458  1.00  0.00     0.125 A 
ATOM     11  C   UNL     1       9.636 -27.169  29.801  1.00  0.00     0.069 A 
ENDROOT
BRANCH   1  12
ATOM     12  C   UNL     1       9.747 -22.343  32.795  1.00  0.00    -0.011 A 
ATOM     13  C   UNL     1       8.552 -21.639  33.025  1.00  0.00     0.013 A 
ATOM     14  C   UNL     1       8.568 -20.426  33.718  1.00  0.00     0.047 A 
ATOM     15  C   UNL     1       9.777 -19.902  34.195  1.00  0.00     0.115 A 
ATOM     16  C   UNL     1      10.956 -21.814  33.282  1.00  0.00     0.013 A 
ATOM     17  C   UNL     1      10.968 -20.600  33.976  1.00  0.00     0.047 A 
BRANCH  15  18
ATOM     18  O   UNL     1       9.804 -18.694  34.888  1.00  0.00    -0.508 OA
ATOM     19  H   UNL     1      10.080 -18.648  35.861  1.00  0.00     0.293 HD
ENDBRANCH  15  18
ENDBRANCH   1  12
BRANCH  11  20
ATOM     20  C   UNL     1       9.528 -27.123  28.280  1.00  0.00     0.188 C 
ATOM     21  C   UNL     1      10.936 -27.086  27.631  1.00  0.00     0.179 C 
ATOM     22  O   UNL     1       8.773 -28.223  27.797  1.00  0.00    -0.362 OA
ATOM     23  C   UNL     1      10.850 -27.144  26.084  1.00  0.00     0.177 C 
ATOM     24  C   UNL     1       8.497 -28.074  26.416  1.00  0.00     0.176 C 
ATOM     25  C   UNL     1       9.802 -28.170  25.586  1.00  0.00     0.177 C 
BRANCH  21  26
ATOM     26  O   UNL     1      11.764 -28.114  28.123  1.00  0.00    -0.387 OA
ATOM     27  H   UNL     1      11.620 -28.917  27.561  1.00  0.00     0.211 HD
ENDBRANCH  21  26
BRANCH  23  28
ATOM     28  O   UNL     1      10.597 -25.868  25.546  1.00  0.00    -0.387 OA
ATOM     29  H   UNL     1       9.680 -25.597  25.804  1.00  0.00     0.211 HD
ENDBRANCH  23  28
BRANCH  24  30
ATOM     30  C   UNL     1       7.479 -29.150  26.008  1.00  0.00     0.191 C 
BRANCH  30  31
ATOM     31  O   UNL     1       7.631 -29.496  24.657  1.00  0.00    -0.394 OA
ATOM     32  H   UNL     1       7.796 -28.653  24.160  1.00  0.00     0.210 HD
ENDBRANCH  30  31
ENDBRANCH  24  30
BRANCH  25  33
ATOM     33  O   UNL     1      10.325 -29.473  25.674  1.00  0.00    -0.388 OA
ATOM     34  H   UNL     1       9.769 -29.962  26.335  1.00  0.00     0.211 HD
ENDBRANCH  25  33
ENDBRANCH  11  20
BRANCH  10  35
ATOM     35  O   UNL     1       9.555 -29.602  29.720  1.00  0.00    -0.507 OA
ATOM     36  H   UNL     1       9.505 -30.508  30.171  1.00  0.00     0.293 HD
ENDBRANCH  10  35
TORSDOF 9
ENDMDL
MODEL 7
REMARK VINA RESULT:    -6.536      3.929      5.652
REMARK INTER + INTRA:          -9.629
REMARK INTER:                  -9.308
REMARK INTRA:                  -0.321
REMARK UNBOUND:                -0.800
REMARK SMILES O=c1c(-c2ccc(O)cc2)coc2c([C@@H]3O[C@H](CO)[C@H](O)[C@@H](O)[C@@H]3O)c(O)ccc12
REMARK SMILES IDX 3 1 11 2 12 3 13 4 30 5 2 6 1 7 29 8 28 9 26 10 14 11 4 12
REMARK SMILES IDX 5 13 6 14 7 15 10 16 9 17 8 18 15 20 24 21 16 22 22 23 17 24
REMARK SMILES IDX 20 25 25 26 23 28 18 30 19 31 21 33 27 35
REMARK H PARENT 8 19 25 27 23 29 19 32 21 34 27 36
REMARK Flexibility Score: inf
ROOT
ATOM      1  C   UNL     1       9.254 -24.504  30.368  1.00  0.00     0.065 A 
ATOM      2  C   UNL     1       9.256 -24.370  28.973  1.00  0.00     0.208 A 
ATOM      3  O   UNL     1       9.448 -25.423  28.189  1.00  0.00    -0.463 OA
ATOM      4  C   UNL     1       9.647 -26.655  28.653  1.00  0.00     0.147 A 
ATOM      5  C   UNL     1       9.659 -26.879  30.050  1.00  0.00     0.066 A 
ATOM      6  C   UNL     1       9.468 -25.783  30.911  1.00  0.00     0.200 A 
ATOM      7  O   UNL     1       9.507 -25.943  32.164  1.00  0.00    -0.288 OA
ATOM      8  C   UNL     1       9.858 -28.178  30.543  1.00  0.00     0.020 A 
ATOM      9  C   UNL     1      10.026 -29.244  29.663  1.00  0.00     0.047 A 
ATOM     10  C   UNL     1      10.011 -29.036  28.279  1.00  0.00     0.125 A 
ATOM     11  C   UNL     1       9.845 -27.734  27.754  1.00  0.00     0.069 A 
ENDROOT
BRANCH   1  12
ATOM     12  C   UNL     1       9.032 -23.312  31.225  1.00  0.00    -0.011 A 
ATOM     13  C   UNL     1       7.899 -22.502  31.033  1.00  0.00     0.013 A 
ATOM     14  C   UNL     1       7.682 -21.384  31.843  1.00  0.00     0.047 A 
ATOM     15  C   UNL     1       8.592 -21.064  32.859  1.00  0.00     0.115 A 
ATOM     16  C   UNL     1       9.937 -22.987  32.252  1.00  0.00     0.013 A 
ATOM     17  C   UNL     1       9.717 -21.869  33.061  1.00  0.00     0.047 A 
BRANCH  15  18
ATOM     18  O   UNL     1       8.386 -19.952  33.673  1.00  0.00    -0.508 OA
ATOM     19  H   UNL     1       8.719 -19.927  34.630  1.00  0.00     0.293 HD
ENDBRANCH  15  18
ENDBRANCH   1  12
BRANCH  11  20
ATOM     20  C   UNL     1       9.806 -27.537  26.242  1.00  0.00     0.188 C 
ATOM     21  C   UNL     1       8.363 -27.717  25.702  1.00  0.00     0.179 C 
ATOM     22  O   UNL     1      10.326 -26.265  25.889  1.00  0.00    -0.362 OA
ATOM     23  C   UNL     1       8.284 -27.419  24.183  1.00  0.00     0.177 C 
ATOM     24  C   UNL     1      10.483 -26.159  24.485  1.00  0.00     0.176 C 
ATOM     25  C   UNL     1       9.103 -26.166  23.781  1.00  0.00     0.177 C 
BRANCH  21  26
ATOM     26  O   UNL     1       7.438 -26.930  26.414  1.00  0.00    -0.387 OA
ATOM     27  H   UNL     1       6.705 -26.683  25.794  1.00  0.00     0.211 HD
ENDBRANCH  21  26
BRANCH  23  28
ATOM     28  O   UNL     1       8.679 -28.539  23.428  1.00  0.00    -0.387 OA
ATOM     29  H   UNL     1       9.036 -28.220  22.561  1.00  0.00     0.211 HD
ENDBRANCH  23  28
BRANCH  24  30
ATOM     30  C   UNL     1      11.273 -24.877  24.182  1.00  0.00     0.191 C 
BRANCH  30  31
ATOM     31  O   UNL     1      10.966 -24.391  22.902  1.00  0.00    -0.394 OA
ATOM     32  H   UNL     1      11.559 -23.611  22.740  1.00  0.00     0.210 HD
ENDBRANCH  30  31
ENDBRANCH  24  30
BRANCH  25  33
ATOM     33  O   UNL     1       8.394 -24.999  24.117  1.00  0.00    -0.388 OA
ATOM     34  H   UNL     1       7.443 -25.163  23.882  1.00  0.00     0.211 HD
ENDBRANCH  25  33
ENDBRANCH  11  20
BRANCH  10  35
ATOM     35  O   UNL     1      10.159 -30.126  27.421  1.00  0.00    -0.507 OA
ATOM     36  H   UNL     1       9.659 -30.183  26.541  1.00  0.00     0.293 HD
ENDBRANCH  10  35
TORSDOF 9
ENDMDL
MODEL 8
REMARK VINA RESULT:    -6.450      3.634      6.793
REMARK INTER + INTRA:          -9.512
REMARK INTER:                  -8.927
REMARK INTRA:                  -0.586
REMARK UNBOUND:                -0.800
REMARK SMILES O=c1c(-c2ccc(O)cc2)coc2c([C@@H]3O[C@H](CO)[C@H](O)[C@@H](O)[C@@H]3O)c(O)ccc12
REMARK SMILES IDX 3 1 11 2 12 3 13 4 30 5 2 6 1 7 29 8 28 9 26 10 14 11 4 12
REMARK SMILES IDX 5 13 6 14 7 15 10 16 9 17 8 18 15 20 24 21 16 22 22 23 17 24
REMARK SMILES IDX 20 25 25 26 23 28 18 30 19 31 21 33 27 35
REMARK H PARENT 8 19 25 27 23 29 19 32 21 34 27 36
REMARK Flexibility Score: inf
ROOT
ATOM      1  C   UNL     1      12.495 -28.651  21.972  1.00  0.00     0.065 A 
ATOM      2  C   UNL     1      12.018 -27.374  21.648  1.00  0.00     0.208 A 
ATOM      3  O   UNL     1      10.997 -26.841  22.307  1.00  0.00    -0.463 OA
ATOM      4  C   UNL     1      10.364 -27.462  23.300  1.00  0.00     0.147 A 
ATOM      5  C   UNL     1      10.782 -28.756  23.692  1.00  0.00     0.066 A 
ATOM      6  C   UNL     1      11.856 -29.354  23.009  1.00  0.00     0.200 A 
ATOM      7  O   UNL     1      12.232 -30.521  23.311  1.00  0.00    -0.288 OA
ATOM      8  C   UNL     1      10.123 -29.408  24.745  1.00  0.00     0.020 A 
ATOM      9  C   UNL     1       9.074 -28.781  25.413  1.00  0.00     0.047 A 
ATOM     10  C   UNL     1       8.654 -27.499  25.038  1.00  0.00     0.125 A 
ATOM     11  C   UNL     1       9.278 -26.831  23.960  1.00  0.00     0.069 A 
ENDROOT
BRANCH   1  12
ATOM     12  C   UNL     1      13.644 -29.224  21.224  1.00  0.00    -0.011 A 
ATOM     13  C   UNL     1      14.949 -29.108  21.733  1.00  0.00     0.013 A 
ATOM     14  C   UNL     1      16.031 -29.652  21.036  1.00  0.00     0.047 A 
ATOM     15  C   UNL     1      15.822 -30.325  19.825  1.00  0.00     0.115 A 
ATOM     16  C   UNL     1      13.441 -29.905  20.011  1.00  0.00     0.013 A 
ATOM     17  C   UNL     1      14.526 -30.450  19.317  1.00  0.00     0.047 A 
BRANCH  15  18
ATOM     18  O   UNL     1      16.893 -30.872  19.122  1.00  0.00    -0.508 OA
ATOM     19  H   UNL     1      17.785 -30.395  19.061  1.00  0.00     0.293 HD
ENDBRANCH  15  18
ENDBRANCH   1  12
BRANCH  11  20
ATOM     20  C   UNL     1       8.820 -25.424  23.586  1.00  0.00     0.188 C 
ATOM     21  C   UNL     1       9.528 -24.365  24.470  1.00  0.00     0.179 C 
ATOM     22  O   UNL     1       9.046 -25.173  22.209  1.00  0.00    -0.362 OA
ATOM     23  C   UNL     1       9.155 -22.924  24.036  1.00  0.00     0.177 C 
ATOM     24  C   UNL     1       8.439 -23.955  21.814  1.00  0.00     0.176 C 
ATOM     25  C   UNL     1       9.137 -22.753  22.497  1.00  0.00     0.177 C 
BRANCH  21  26
ATOM     26  O   UNL     1      10.926 -24.538  24.472  1.00  0.00    -0.387 OA
ATOM     27  H   UNL     1      11.315 -23.895  23.826  1.00  0.00     0.211 HD
ENDBRANCH  21  26
BRANCH  23  28
ATOM     28  O   UNL     1       7.925 -22.532  24.598  1.00  0.00    -0.387 OA
ATOM     29  H   UNL     1       8.081 -22.277  25.542  1.00  0.00     0.211 HD
ENDBRANCH  23  28
BRANCH  24  30
ATOM     30  C   UNL     1       8.498 -23.858  20.283  1.00  0.00     0.191 C 
BRANCH  30  31
ATOM     31  O   UNL     1       8.436 -22.521  19.863  1.00  0.00    -0.394 OA
ATOM     32  H   UNL     1       8.242 -21.975  20.669  1.00  0.00     0.210 HD
ENDBRANCH  30  31
ENDBRANCH  24  30
BRANCH  25  33
ATOM     33  O   UNL     1      10.452 -22.631  22.011  1.00  0.00    -0.388 OA
ATOM     34  H   UNL     1      10.496 -23.149  21.166  1.00  0.00     0.211 HD
ENDBRANCH  25  33
ENDBRANCH  11  20
BRANCH  10  35
ATOM     35  O   UNL     1       7.616 -26.886  25.740  1.00  0.00    -0.507 OA
ATOM     36  H   UNL     1       7.065 -26.140  25.330  1.00  0.00     0.293 HD
ENDBRANCH  10  35
TORSDOF 9
ENDMDL
MODEL 9
REMARK VINA RESULT:    -6.433      4.631      7.791
REMARK INTER + INTRA:          -9.489
REMARK INTER:                  -8.737
REMARK INTRA:                  -0.752
REMARK UNBOUND:                -0.800
REMARK SMILES O=c1c(-c2ccc(O)cc2)coc2c([C@@H]3O[C@H](CO)[C@H](O)[C@@H](O)[C@@H]3O)c(O)ccc12
REMARK SMILES IDX 3 1 11 2 12 3 13 4 30 5 2 6 1 7 29 8 28 9 26 10 14 11 4 12
REMARK SMILES IDX 5 13 6 14 7 15 10 16 9 17 8 18 15 20 24 21 16 22 22 23 17 24
REMARK SMILES IDX 20 25 25 26 23 28 18 30 19 31 21 33 27 35
REMARK H PARENT 8 19 25 27 23 29 19 32 21 34 27 36
REMARK Flexibility Score: inf
ROOT
ATOM      1  C   UNL     1      14.149 -29.096  20.835  1.00  0.00     0.065 A 
ATOM      2  C   UNL     1      12.758 -28.958  20.939  1.00  0.00     0.208 A 
ATOM      3  O   UNL     1      12.222 -27.896  21.526  1.00  0.00    -0.463 OA
ATOM      4  C   UNL     1      12.943 -26.906  22.047  1.00  0.00     0.147 A 
ATOM      5  C   UNL     1      14.356 -26.965  21.984  1.00  0.00     0.066 A 
ATOM      6  C   UNL     1      14.958 -28.082  21.376  1.00  0.00     0.200 A 
ATOM      7  O   UNL     1      16.217 -28.182  21.334  1.00  0.00    -0.288 OA
ATOM      8  C   UNL     1      15.119 -25.919  22.524  1.00  0.00     0.020 A 
ATOM      9  C   UNL     1      14.492 -24.819  23.103  1.00  0.00     0.047 A 
ATOM     10  C   UNL     1      13.095 -24.746  23.167  1.00  0.00     0.125 A 
ATOM     11  C   UNL     1      12.301 -25.800  22.661  1.00  0.00     0.069 A 
ENDROOT
BRANCH   1  12
ATOM     12  C   UNL     1      14.726 -30.291  20.167  1.00  0.00    -0.011 A 
ATOM     13  C   UNL     1      14.376 -30.601  18.842  1.00  0.00     0.013 A 
ATOM     14  C   UNL     1      14.923 -31.720  18.208  1.00  0.00     0.047 A 
ATOM     15  C   UNL     1      15.831 -32.541  18.889  1.00  0.00     0.115 A 
ATOM     16  C   UNL     1      15.643 -31.117  20.842  1.00  0.00     0.013 A 
ATOM     17  C   UNL     1      16.190 -32.235  20.205  1.00  0.00     0.047 A 
BRANCH  15  18
ATOM     18  O   UNL     1      16.384 -33.659  18.267  1.00  0.00    -0.508 OA
ATOM     19  H   UNL     1      17.377 -33.722  18.078  1.00  0.00     0.293 HD
ENDBRANCH  15  18
ENDBRANCH   1  12
BRANCH  11  20
ATOM     20  C   UNL     1      10.781 -25.686  22.719  1.00  0.00     0.188 C 
ATOM     21  C   UNL     1      10.245 -26.193  24.083  1.00  0.00     0.179 C 
ATOM     22  O   UNL     1      10.369 -24.351  22.474  1.00  0.00    -0.362 OA
ATOM     23  C   UNL     1       8.713 -25.989  24.201  1.00  0.00     0.177 C 
ATOM     24  C   UNL     1       8.962 -24.279  22.323  1.00  0.00     0.176 C 
ATOM     25  C   UNL     1       8.254 -24.612  23.660  1.00  0.00     0.177 C 
BRANCH  21  26
ATOM     26  O   UNL     1      10.914 -25.586  25.164  1.00  0.00    -0.387 OA
ATOM     27  H   UNL     1      11.064 -24.634  24.935  1.00  0.00     0.211 HD
ENDBRANCH  21  26
BRANCH  23  28
ATOM     28  O   UNL     1       8.015 -27.034  23.568  1.00  0.00    -0.387 OA
ATOM     29  H   UNL     1       8.486 -27.259  22.727  1.00  0.00     0.211 HD
ENDBRANCH  23  28
BRANCH  24  30
ATOM     30  C   UNL     1       8.600 -22.875  21.817  1.00  0.00     0.191 C 
BRANCH  30  31
ATOM     31  O   UNL     1       7.341 -22.481  22.293  1.00  0.00    -0.394 OA
ATOM     32  H   UNL     1       7.405 -21.516  22.515  1.00  0.00     0.210 HD
ENDBRANCH  30  31
ENDBRANCH  24  30
BRANCH  25  33
ATOM     33  O   UNL     1       8.529 -23.607  24.605  1.00  0.00    -0.388 OA
ATOM     34  H   UNL     1       8.686 -22.769  24.096  1.00  0.00     0.211 HD
ENDBRANCH  25  33
ENDBRANCH  11  20
BRANCH  10  35
ATOM     35  O   UNL     1      12.493 -23.621  23.732  1.00  0.00    -0.507 OA
ATOM     36  H   UNL     1      12.203 -22.832  23.167  1.00  0.00     0.293 HD
ENDBRANCH  10  35
TORSDOF 9
ENDMDL
