MODEL 1
REMARK VINA RESULT:    -6.022      0.000      0.000
REMARK INTER + INTRA:          -7.229
REMARK INTER:                  -7.078
REMARK INTRA:                  -0.151
REMARK UNBOUND:                -0.151
REMARK SMILES O=c1c(O)c(-c2ccc(O)cc2)oc2cc(O)cc(O)c12
REMARK SMILES IDX 5 1 3 2 2 3 1 4 21 5 19 6 18 7 16 8 15 9 14 10 13 11 6 12
REMARK SMILES IDX 7 13 8 14 9 15 12 16 11 17 10 18 4 20 20 22 17 24
REMARK H PARENT 10 19 4 21 20 23 17 25
REMARK Flexibility Score: inf
ROOT
ATOM      1  C   UNL     1      76.294  62.408  54.096  1.00  0.00     0.180 A 
ATOM      2  C   UNL     1      75.403  62.503  53.011  1.00  0.00     0.208 A 
ATOM      3  C   UNL     1      74.062  62.832  53.260  1.00  0.00     0.238 A 
ATOM      4  O   UNL     1      73.258  62.863  52.292  1.00  0.00    -0.285 OA
ATOM      5  C   UNL     1      73.629  63.079  54.586  1.00  0.00     0.111 A 
ATOM      6  C   UNL     1      72.302  63.459  54.948  1.00  0.00     0.134 A 
ATOM      7  C   UNL     1      71.955  63.549  56.301  1.00  0.00     0.093 A 
ATOM      8  C   UNL     1      72.904  63.336  57.305  1.00  0.00     0.123 A 
ATOM      9  C   UNL     1      74.216  63.023  56.959  1.00  0.00     0.094 A 
ATOM     10  C   UNL     1      74.584  62.891  55.619  1.00  0.00     0.146 A 
ATOM     11  O   UNL     1      75.844  62.581  55.333  1.00  0.00    -0.452 OA
ENDROOT
BRANCH   1  12
ATOM     12  C   UNL     1      77.728  62.091  53.912  1.00  0.00     0.021 A 
ATOM     13  C   UNL     1      78.585  62.952  53.203  1.00  0.00     0.016 A 
ATOM     14  C   UNL     1      79.941  62.642  53.063  1.00  0.00     0.047 A 
ATOM     15  C   UNL     1      80.461  61.478  53.641  1.00  0.00     0.115 A 
ATOM     16  C   UNL     1      78.262  60.935  54.505  1.00  0.00     0.016 A 
ATOM     17  C   UNL     1      79.619  60.627  54.364  1.00  0.00     0.047 A 
BRANCH  15  18
ATOM     18  O   UNL     1      81.810  61.158  53.507  1.00  0.00    -0.508 OA
ATOM     19  H   UNL     1      82.169  60.714  52.669  1.00  0.00     0.293 HD
ENDBRANCH  15  18
ENDBRANCH   1  12
BRANCH   2  20
ATOM     20  O   UNL     1      75.846  62.235  51.714  1.00  0.00    -0.502 OA
ATOM     21  H   UNL     1      76.822  62.289  51.450  1.00  0.00     0.293 HD
ENDBRANCH   2  20
BRANCH   6  22
ATOM     22  O   UNL     1      71.304  63.783  54.025  1.00  0.00    -0.507 OA
ATOM     23  H   UNL     1      70.314  63.774  54.221  1.00  0.00     0.293 HD
ENDBRANCH   6  22
BRANCH   8  24
ATOM     24  O   UNL     1      72.554  63.443  58.649  1.00  0.00    -0.508 OA
ATOM     25  H   UNL     1      71.600  63.625  58.935  1.00  0.00     0.293 HD
ENDBRANCH   8  24
TORSDOF 5
ENDMDL
MODEL 2
REMARK VINA RESULT:    -5.657      2.705      7.918
REMARK INTER + INTRA:          -6.800
REMARK INTER:                  -6.499
REMARK INTRA:                  -0.300
REMARK UNBOUND:                -0.151
REMARK SMILES O=c1c(O)c(-c2ccc(O)cc2)oc2cc(O)cc(O)c12
REMARK SMILES IDX 5 1 3 2 2 3 1 4 21 5 19 6 18 7 16 8 15 9 14 10 13 11 6 12
REMARK SMILES IDX 7 13 8 14 9 15 12 16 11 17 10 18 4 20 20 22 17 24
REMARK H PARENT 10 19 4 21 20 23 17 25
REMARK Flexibility Score: inf
ROOT
ATOM      1  C   UNL     1      71.644  63.887  54.665  1.00  0.00     0.180 A 
ATOM      2  C   UNL     1      72.359  63.814  55.874  1.00  0.00     0.208 A 
ATOM      3  C   UNL     1      73.762  63.818  55.836  1.00  0.00     0.238 A 
ATOM      4  O   UNL     1      74.396  63.698  56.916  1.00  0.00    -0.285 OA
ATOM      5  C   UNL     1      74.434  63.910  54.592  1.00  0.00     0.111 A 
ATOM      6  C   UNL     1      75.852  63.963  54.440  1.00  0.00     0.134 A 
ATOM      7  C   UNL     1      76.410  63.922  53.156  1.00  0.00     0.093 A 
ATOM      8  C   UNL     1      75.599  63.895  52.018  1.00  0.00     0.123 A 
ATOM      9  C   UNL     1      74.213  63.904  52.157  1.00  0.00     0.094 A 
ATOM     10  C   UNL     1      73.627  63.908  53.424  1.00  0.00     0.146 A 
ATOM     11  O   UNL     1      72.302  63.906  53.512  1.00  0.00    -0.452 OA
ENDROOT
BRANCH   1  12
ATOM     12  C   UNL     1      70.165  63.913  54.625  1.00  0.00     0.021 A 
ATOM     13  C   UNL     1      69.450  65.123  54.701  1.00  0.00     0.016 A 
ATOM     14  C   UNL     1      68.053  65.124  54.637  1.00  0.00     0.047 A 
ATOM     15  C   UNL     1      67.354  63.921  54.482  1.00  0.00     0.115 A 
ATOM     16  C   UNL     1      69.456  62.713  54.450  1.00  0.00     0.016 A 
ATOM     17  C   UNL     1      68.059  62.717  54.386  1.00  0.00     0.047 A 
BRANCH  15  18
ATOM     18  O   UNL     1      65.963  63.910  54.418  1.00  0.00    -0.508 OA
ATOM     19  H   UNL     1      65.460  63.173  53.936  1.00  0.00     0.293 HD
ENDBRANCH  15  18
ENDBRANCH   1  12
BRANCH   2  20
ATOM     20  O   UNL     1      71.677  63.702  57.087  1.00  0.00    -0.502 OA
ATOM     21  H   UNL     1      71.275  64.502  57.562  1.00  0.00     0.293 HD
ENDBRANCH   2  20
BRANCH   6  22
ATOM     22  O   UNL     1      76.747  64.083  55.505  1.00  0.00    -0.507 OA
ATOM     23  H   UNL     1      76.490  64.040  56.480  1.00  0.00     0.293 HD
ENDBRANCH   6  22
BRANCH   8  24
ATOM     24  O   UNL     1      76.162  63.870  50.744  1.00  0.00    -0.508 OA
ATOM     25  H   UNL     1      75.843  64.494  50.012  1.00  0.00     0.293 HD
ENDBRANCH   8  24
TORSDOF 5
ENDMDL
MODEL 3
REMARK VINA RESULT:    -5.640      1.452      1.755
REMARK INTER + INTRA:          -6.780
REMARK INTER:                  -6.487
REMARK INTRA:                  -0.292
REMARK UNBOUND:                -0.151
REMARK SMILES O=c1c(O)c(-c2ccc(O)cc2)oc2cc(O)cc(O)c12
REMARK SMILES IDX 5 1 3 2 2 3 1 4 21 5 19 6 18 7 16 8 15 9 14 10 13 11 6 12
REMARK SMILES IDX 7 13 8 14 9 15 12 16 11 17 10 18 4 20 20 22 17 24
REMARK H PARENT 10 19 4 21 20 23 17 25
REMARK Flexibility Score: inf
ROOT
ATOM      1  C   UNL     1      75.889  61.304  54.133  1.00  0.00     0.180 A 
ATOM      2  C   UNL     1      75.293  61.935  53.027  1.00  0.00     0.208 A 
ATOM      3  C   UNL     1      74.221  62.815  53.242  1.00  0.00     0.238 A 
ATOM      4  O   UNL     1      73.657  63.335  52.245  1.00  0.00    -0.285 OA
ATOM      5  C   UNL     1      73.767  63.066  54.560  1.00  0.00     0.111 A 
ATOM      6  C   UNL     1      72.715  63.969  54.897  1.00  0.00     0.134 A 
ATOM      7  C   UNL     1      72.264  64.040  56.221  1.00  0.00     0.093 A 
ATOM      8  C   UNL     1      72.870  63.287  57.230  1.00  0.00     0.123 A 
ATOM      9  C   UNL     1      73.937  62.448  56.920  1.00  0.00     0.094 A 
ATOM     10  C   UNL     1      74.386  62.328  55.604  1.00  0.00     0.146 A 
ATOM     11  O   UNL     1      75.400  61.509  55.350  1.00  0.00    -0.452 OA
ENDROOT
BRANCH   1  12
ATOM     12  C   UNL     1      77.040  60.383  53.989  1.00  0.00     0.021 A 
ATOM     13  C   UNL     1      78.366  60.844  54.093  1.00  0.00     0.016 A 
ATOM     14  C   UNL     1      79.435  59.951  53.977  1.00  0.00     0.047 A 
ATOM     15  C   UNL     1      79.195  58.587  53.771  1.00  0.00     0.115 A 
ATOM     16  C   UNL     1      76.808  59.011  53.802  1.00  0.00     0.016 A 
ATOM     17  C   UNL     1      77.880  58.120  53.686  1.00  0.00     0.047 A 
BRANCH  15  18
ATOM     18  O   UNL     1      80.253  57.689  53.652  1.00  0.00    -0.508 OA
ATOM     19  H   UNL     1      80.958  57.603  54.375  1.00  0.00     0.293 HD
ENDBRANCH  15  18
ENDBRANCH   1  12
BRANCH   2  20
ATOM     20  O   UNL     1      75.742  61.658  51.733  1.00  0.00    -0.502 OA
ATOM     21  H   UNL     1      76.685  61.864  51.429  1.00  0.00     0.293 HD
ENDBRANCH   2  20
BRANCH   6  22
ATOM     22  O   UNL     1      72.104  64.831  53.983  1.00  0.00    -0.507 OA
ATOM     23  H   UNL     1      71.132  65.100  54.007  1.00  0.00     0.293 HD
ENDBRANCH   6  22
BRANCH   8  24
ATOM     24  O   UNL     1      72.424  63.375  58.548  1.00  0.00    -0.508 OA
ATOM     25  H   UNL     1      71.437  63.374  58.774  1.00  0.00     0.293 HD
ENDBRANCH   8  24
TORSDOF 5
ENDMDL
MODEL 4
REMARK VINA RESULT:    -5.384      3.964      5.868
REMARK INTER + INTRA:          -6.479
REMARK INTER:                  -6.190
REMARK INTRA:                  -0.289
REMARK UNBOUND:                -0.151
REMARK SMILES O=c1c(O)c(-c2ccc(O)cc2)oc2cc(O)cc(O)c12
REMARK SMILES IDX 5 1 3 2 2 3 1 4 21 5 19 6 18 7 16 8 15 9 14 10 13 11 6 12
REMARK SMILES IDX 7 13 8 14 9 15 12 16 11 17 10 18 4 20 20 22 17 24
REMARK H PARENT 10 19 4 21 20 23 17 25
REMARK Flexibility Score: inf
ROOT
ATOM      1  C   UNL     1      72.232  61.465  54.208  1.00  0.00     0.180 A 
ATOM      2  C   UNL     1      72.327  60.080  54.435  1.00  0.00     0.208 A 
ATOM      3  C   UNL     1      71.270  59.251  54.028  1.00  0.00     0.238 A 
ATOM      4  O   UNL     1      71.336  58.020  54.282  1.00  0.00    -0.285 OA
ATOM      5  C   UNL     1      70.139  59.812  53.386  1.00  0.00     0.111 A 
ATOM      6  C   UNL     1      69.030  59.060  52.896  1.00  0.00     0.134 A 
ATOM      7  C   UNL     1      67.908  59.731  52.396  1.00  0.00     0.093 A 
ATOM      8  C   UNL     1      67.883  61.126  52.308  1.00  0.00     0.123 A 
ATOM      9  C   UNL     1      68.986  61.865  52.727  1.00  0.00     0.094 A 
ATOM     10  C   UNL     1      70.105  61.225  53.265  1.00  0.00     0.146 A 
ATOM     11  O   UNL     1      71.131  61.968  53.663  1.00  0.00    -0.452 OA
ENDROOT
BRANCH   1  12
ATOM     12  C   UNL     1      73.315  62.401  54.585  1.00  0.00     0.021 A 
ATOM     13  C   UNL     1      73.357  63.000  55.858  1.00  0.00     0.016 A 
ATOM     14  C   UNL     1      74.403  63.862  56.200  1.00  0.00     0.047 A 
ATOM     15  C   UNL     1      75.427  64.126  55.282  1.00  0.00     0.115 A 
ATOM     16  C   UNL     1      74.357  62.656  53.678  1.00  0.00     0.016 A 
ATOM     17  C   UNL     1      75.402  63.518  54.022  1.00  0.00     0.047 A 
BRANCH  15  18
ATOM     18  O   UNL     1      76.474  64.984  55.611  1.00  0.00    -0.508 OA
ATOM     19  H   UNL     1      77.442  64.716  55.473  1.00  0.00     0.293 HD
ENDBRANCH  15  18
ENDBRANCH   1  12
BRANCH   2  20
ATOM     20  O   UNL     1      73.441  59.551  55.089  1.00  0.00    -0.502 OA
ATOM     21  H   UNL     1      73.643  58.558  55.104  1.00  0.00     0.293 HD
ENDBRANCH   2  20
BRANCH   6  22
ATOM     22  O   UNL     1      68.991  57.664  52.855  1.00  0.00    -0.507 OA
ATOM     23  H   UNL     1      69.762  57.059  53.095  1.00  0.00     0.293 HD
ENDBRANCH   6  22
BRANCH   8  24
ATOM     24  O   UNL     1      66.769  61.786  51.793  1.00  0.00    -0.508 OA
ATOM     25  H   UNL     1      66.746  62.121  50.838  1.00  0.00     0.293 HD
ENDBRANCH   8  24
TORSDOF 5
ENDMDL
MODEL 5
REMARK VINA RESULT:    -5.360      1.419      3.208
REMARK INTER + INTRA:          -6.451
REMARK INTER:                  -6.408
REMARK INTRA:                  -0.042
REMARK UNBOUND:                -0.151
REMARK SMILES O=c1c(O)c(-c2ccc(O)cc2)oc2cc(O)cc(O)c12
REMARK SMILES IDX 5 1 3 2 2 3 1 4 21 5 19 6 18 7 16 8 15 9 14 10 13 11 6 12
REMARK SMILES IDX 7 13 8 14 9 15 12 16 11 17 10 18 4 20 20 22 17 24
REMARK H PARENT 10 19 4 21 20 23 17 25
REMARK Flexibility Score: inf
ROOT
ATOM      1  C   UNL     1      75.851  62.862  54.640  1.00  0.00     0.180 A 
ATOM      2  C   UNL     1      75.429  63.380  55.878  1.00  0.00     0.208 A 
ATOM      3  C   UNL     1      74.076  63.710  56.052  1.00  0.00     0.238 A 
ATOM      4  O   UNL     1      73.715  64.223  57.142  1.00  0.00    -0.285 OA
ATOM      5  C   UNL     1      73.158  63.502  54.993  1.00  0.00     0.111 A 
ATOM      6  C   UNL     1      71.757  63.763  55.074  1.00  0.00     0.134 A 
ATOM      7  C   UNL     1      70.966  63.645  53.924  1.00  0.00     0.093 A 
ATOM      8  C   UNL     1      71.514  63.213  52.713  1.00  0.00     0.123 A 
ATOM      9  C   UNL     1      72.869  62.899  52.641  1.00  0.00     0.094 A 
ATOM     10  C   UNL     1      73.691  63.041  53.761  1.00  0.00     0.146 A 
ATOM     11  O   UNL     1      74.979  62.741  53.646  1.00  0.00    -0.452 OA
ENDROOT
BRANCH   1  12
ATOM     12  C   UNL     1      77.256  62.468  54.388  1.00  0.00     0.021 A 
ATOM     13  C   UNL     1      77.927  61.564  55.233  1.00  0.00     0.016 A 
ATOM     14  C   UNL     1      79.245  61.188  54.961  1.00  0.00     0.047 A 
ATOM     15  C   UNL     1      79.906  61.698  53.837  1.00  0.00     0.115 A 
ATOM     16  C   UNL     1      77.919  62.960  53.252  1.00  0.00     0.016 A 
ATOM     17  C   UNL     1      79.239  62.582  52.982  1.00  0.00     0.047 A 
BRANCH  15  18
ATOM     18  O   UNL     1      81.220  61.333  53.557  1.00  0.00    -0.508 OA
ATOM     19  H   UNL     1      81.476  60.914  52.670  1.00  0.00     0.293 HD
ENDBRANCH  15  18
ENDBRANCH   1  12
BRANCH   2  20
ATOM     20  O   UNL     1      76.356  63.597  56.901  1.00  0.00    -0.502 OA
ATOM     21  H   UNL     1      77.301  63.236  56.863  1.00  0.00     0.293 HD
ENDBRANCH   2  20
BRANCH   6  22
ATOM     22  O   UNL     1      71.095  64.111  56.254  1.00  0.00    -0.507 OA
ATOM     23  H   UNL     1      71.513  64.619  57.019  1.00  0.00     0.293 HD
ENDBRANCH   6  22
BRANCH   8  24
ATOM     24  O   UNL     1      70.717  63.083  51.578  1.00  0.00    -0.508 OA
ATOM     25  H   UNL     1      70.842  62.316  50.928  1.00  0.00     0.293 HD
ENDBRANCH   8  24
TORSDOF 5
ENDMDL
MODEL 6
REMARK VINA RESULT:    -5.331      4.072      6.491
REMARK INTER + INTRA:          -6.417
REMARK INTER:                  -6.158
REMARK INTRA:                  -0.259
REMARK UNBOUND:                -0.151
REMARK SMILES O=c1c(O)c(-c2ccc(O)cc2)oc2cc(O)cc(O)c12
REMARK SMILES IDX 5 1 3 2 2 3 1 4 21 5 19 6 18 7 16 8 15 9 14 10 13 11 6 12
REMARK SMILES IDX 7 13 8 14 9 15 12 16 11 17 10 18 4 20 20 22 17 24
REMARK H PARENT 10 19 4 21 20 23 17 25
REMARK Flexibility Score: inf
ROOT
ATOM      1  C   UNL     1      70.942  62.888  54.890  1.00  0.00     0.180 A 
ATOM      2  C   UNL     1      69.729  63.591  54.997  1.00  0.00     0.208 A 
ATOM      3  C   UNL     1      68.536  62.950  54.628  1.00  0.00     0.238 A 
ATOM      4  O   UNL     1      67.461  63.602  54.675  1.00  0.00    -0.285 OA
ATOM      5  C   UNL     1      68.568  61.609  54.172  1.00  0.00     0.111 A 
ATOM      6  C   UNL     1      67.415  60.850  53.810  1.00  0.00     0.134 A 
ATOM      7  C   UNL     1      67.576  59.577  53.249  1.00  0.00     0.093 A 
ATOM      8  C   UNL     1      68.845  59.012  53.096  1.00  0.00     0.123 A 
ATOM      9  C   UNL     1      69.971  59.722  53.502  1.00  0.00     0.094 A 
ATOM     10  C   UNL     1      69.846  61.008  54.032  1.00  0.00     0.146 A 
ATOM     11  O   UNL     1      70.946  61.655  54.398  1.00  0.00    -0.452 OA
ENDROOT
BRANCH   1  12
ATOM     12  C   UNL     1      72.237  63.487  55.284  1.00  0.00     0.021 A 
ATOM     13  C   UNL     1      72.613  63.602  56.635  1.00  0.00     0.016 A 
ATOM     14  C   UNL     1      73.851  64.149  56.981  1.00  0.00     0.047 A 
ATOM     15  C   UNL     1      74.736  64.576  55.984  1.00  0.00     0.115 A 
ATOM     16  C   UNL     1      73.139  63.900  54.289  1.00  0.00     0.016 A 
ATOM     17  C   UNL     1      74.378  64.447  54.638  1.00  0.00     0.047 A 
BRANCH  15  18
ATOM     18  O   UNL     1      75.972  65.124  56.316  1.00  0.00    -0.508 OA
ATOM     19  H   UNL     1      76.796  64.959  55.748  1.00  0.00     0.293 HD
ENDBRANCH  15  18
ENDBRANCH   1  12
BRANCH   2  20
ATOM     20  O   UNL     1      69.723  64.920  55.429  1.00  0.00    -0.502 OA
ATOM     21  H   UNL     1      69.146  65.630  54.995  1.00  0.00     0.293 HD
ENDBRANCH   2  20
BRANCH   6  22
ATOM     22  O   UNL     1      66.102  61.284  54.005  1.00  0.00    -0.507 OA
ATOM     23  H   UNL     1      65.827  62.020  54.638  1.00  0.00     0.293 HD
ENDBRANCH   6  22
BRANCH   8  24
ATOM     24  O   UNL     1      68.995  57.738  52.551  1.00  0.00    -0.508 OA
ATOM     25  H   UNL     1      69.240  56.942  53.126  1.00  0.00     0.293 HD
ENDBRANCH   8  24
TORSDOF 5
ENDMDL
MODEL 7
REMARK VINA RESULT:    -5.296      2.747      7.307
REMARK INTER + INTRA:          -6.376
REMARK INTER:                  -6.076
REMARK INTRA:                  -0.300
REMARK UNBOUND:                -0.151
REMARK SMILES O=c1c(O)c(-c2ccc(O)cc2)oc2cc(O)cc(O)c12
REMARK SMILES IDX 5 1 3 2 2 3 1 4 21 5 19 6 18 7 16 8 15 9 14 10 13 11 6 12
REMARK SMILES IDX 7 13 8 14 9 15 12 16 11 17 10 18 4 20 20 22 17 24
REMARK H PARENT 10 19 4 21 20 23 17 25
REMARK Flexibility Score: inf
ROOT
ATOM      1  C   UNL     1      71.968  62.953  54.149  1.00  0.00     0.180 A 
ATOM      2  C   UNL     1      72.082  63.553  55.416  1.00  0.00     0.208 A 
ATOM      3  C   UNL     1      73.346  63.972  55.859  1.00  0.00     0.238 A 
ATOM      4  O   UNL     1      73.450  64.459  57.015  1.00  0.00    -0.285 OA
ATOM      5  C   UNL     1      74.478  63.802  55.026  1.00  0.00     0.111 A 
ATOM      6  C   UNL     1      75.800  64.227  55.357  1.00  0.00     0.134 A 
ATOM      7  C   UNL     1      76.865  63.890  54.513  1.00  0.00     0.093 A 
ATOM      8  C   UNL     1      76.647  63.200  53.318  1.00  0.00     0.123 A 
ATOM      9  C   UNL     1      75.353  62.834  52.957  1.00  0.00     0.094 A 
ATOM     10  C   UNL     1      74.274  63.124  53.795  1.00  0.00     0.146 A 
ATOM     11  O   UNL     1      73.057  62.748  53.419  1.00  0.00    -0.452 OA
ENDROOT
BRANCH   1  12
ATOM     12  C   UNL     1      70.667  62.508  53.602  1.00  0.00     0.021 A 
ATOM     13  C   UNL     1      69.844  63.379  52.865  1.00  0.00     0.016 A 
ATOM     14  C   UNL     1      68.630  62.929  52.338  1.00  0.00     0.047 A 
ATOM     15  C   UNL     1      68.229  61.601  52.527  1.00  0.00     0.115 A 
ATOM     16  C   UNL     1      70.266  61.172  53.771  1.00  0.00     0.016 A 
ATOM     17  C   UNL     1      69.051  60.724  53.243  1.00  0.00     0.047 A 
BRANCH  15  18
ATOM     18  O   UNL     1      67.021  61.142  52.009  1.00  0.00    -0.508 OA
ATOM     19  H   UNL     1      66.992  60.457  51.261  1.00  0.00     0.293 HD
ENDBRANCH  15  18
ENDBRANCH   1  12
BRANCH   2  20
ATOM     20  O   UNL     1      70.956  63.691  56.231  1.00  0.00    -0.502 OA
ATOM     21  H   UNL     1      70.546  64.592  56.443  1.00  0.00     0.293 HD
ENDBRANCH   2  20
BRANCH   6  22
ATOM     22  O   UNL     1      76.112  64.998  56.479  1.00  0.00    -0.507 OA
ATOM     23  H   UNL     1      76.959  65.537  56.590  1.00  0.00     0.293 HD
ENDBRANCH   6  22
BRANCH   8  24
ATOM     24  O   UNL     1      77.711  62.883  52.476  1.00  0.00    -0.508 OA
ATOM     25  H   UNL     1      78.610  63.342  52.562  1.00  0.00     0.293 HD
ENDBRANCH   8  24
TORSDOF 5
ENDMDL
MODEL 8
REMARK VINA RESULT:    -5.277      3.521      5.469
REMARK INTER + INTRA:          -6.354
REMARK INTER:                  -6.053
REMARK INTRA:                  -0.300
REMARK UNBOUND:                -0.151
REMARK SMILES O=c1c(O)c(-c2ccc(O)cc2)oc2cc(O)cc(O)c12
REMARK SMILES IDX 5 1 3 2 2 3 1 4 21 5 19 6 18 7 16 8 15 9 14 10 13 11 6 12
REMARK SMILES IDX 7 13 8 14 9 15 12 16 11 17 10 18 4 20 20 22 17 24
REMARK H PARENT 10 19 4 21 20 23 17 25
REMARK Flexibility Score: inf
ROOT
ATOM      1  C   UNL     1      72.062  62.921  53.540  1.00  0.00     0.180 A 
ATOM      2  C   UNL     1      71.071  63.766  53.009  1.00  0.00     0.208 A 
ATOM      3  C   UNL     1      69.835  63.214  52.637  1.00  0.00     0.238 A 
ATOM      4  O   UNL     1      68.972  63.965  52.113  1.00  0.00    -0.285 OA
ATOM      5  C   UNL     1      69.598  61.829  52.814  1.00  0.00     0.111 A 
ATOM      6  C   UNL     1      68.369  61.172  52.508  1.00  0.00     0.134 A 
ATOM      7  C   UNL     1      68.291  59.777  52.600  1.00  0.00     0.093 A 
ATOM      8  C   UNL     1      69.378  59.022  53.048  1.00  0.00     0.123 A 
ATOM      9  C   UNL     1      70.562  59.661  53.406  1.00  0.00     0.094 A 
ATOM     10  C   UNL     1      70.683  61.047  53.291  1.00  0.00     0.146 A 
ATOM     11  O   UNL     1      71.834  61.616  53.632  1.00  0.00    -0.452 OA
ENDROOT
BRANCH   1  12
ATOM     12  C   UNL     1      73.380  63.431  53.978  1.00  0.00     0.021 A 
ATOM     13  C   UNL     1      73.590  63.890  55.292  1.00  0.00     0.016 A 
ATOM     14  C   UNL     1      74.850  64.345  55.690  1.00  0.00     0.047 A 
ATOM     15  C   UNL     1      75.920  64.335  54.787  1.00  0.00     0.115 A 
ATOM     16  C   UNL     1      74.464  63.406  53.085  1.00  0.00     0.016 A 
ATOM     17  C   UNL     1      75.724  63.862  53.485  1.00  0.00     0.047 A 
BRANCH  15  18
ATOM     18  O   UNL     1      77.180  64.788  55.171  1.00  0.00    -0.508 OA
ATOM     19  H   UNL     1      77.810  64.205  55.711  1.00  0.00     0.293 HD
ENDBRANCH  15  18
ENDBRANCH   1  12
BRANCH   2  20
ATOM     20  O   UNL     1      71.333  65.125  52.823  1.00  0.00    -0.502 OA
ATOM     21  H   UNL     1      72.166  65.459  52.354  1.00  0.00     0.293 HD
ENDBRANCH   2  20
BRANCH   6  22
ATOM     22  O   UNL     1      67.198  61.839  52.140  1.00  0.00    -0.507 OA
ATOM     23  H   UNL     1      66.852  61.915  51.195  1.00  0.00     0.293 HD
ENDBRANCH   6  22
BRANCH   8  24
ATOM     24  O   UNL     1      69.287  57.636  53.152  1.00  0.00    -0.508 OA
ATOM     25  H   UNL     1      69.801  57.122  53.858  1.00  0.00     0.293 HD
ENDBRANCH   8  24
TORSDOF 5
ENDMDL
MODEL 9
REMARK VINA RESULT:    -5.270      2.294      6.850
REMARK INTER + INTRA:          -6.345
REMARK INTER:                  -6.054
REMARK INTRA:                  -0.291
REMARK UNBOUND:                -0.151
REMARK SMILES O=c1c(O)c(-c2ccc(O)cc2)oc2cc(O)cc(O)c12
REMARK SMILES IDX 5 1 3 2 2 3 1 4 21 5 19 6 18 7 16 8 15 9 14 10 13 11 6 12
REMARK SMILES IDX 7 13 8 14 9 15 12 16 11 17 10 18 4 20 20 22 17 24
REMARK H PARENT 10 19 4 21 20 23 17 25
REMARK Flexibility Score: inf
ROOT
ATOM      1  C   UNL     1      73.964  62.719  53.671  1.00  0.00     0.180 A 
ATOM      2  C   UNL     1      74.552  63.840  54.282  1.00  0.00     0.208 A 
ATOM      3  C   UNL     1      75.932  63.828  54.542  1.00  0.00     0.238 A 
ATOM      4  O   UNL     1      76.443  64.811  55.138  1.00  0.00    -0.285 OA
ATOM      5  C   UNL     1      76.709  62.703  54.173  1.00  0.00     0.111 A 
ATOM      6  C   UNL     1      78.121  62.600  54.352  1.00  0.00     0.134 A 
ATOM      7  C   UNL     1      78.766  61.389  54.071  1.00  0.00     0.093 A 
ATOM      8  C   UNL     1      78.059  60.299  53.556  1.00  0.00     0.123 A 
ATOM      9  C   UNL     1      76.691  60.411  53.322  1.00  0.00     0.094 A 
ATOM     10  C   UNL     1      76.014  61.593  53.626  1.00  0.00     0.146 A 
ATOM     11  O   UNL     1      74.707  61.654  53.397  1.00  0.00    -0.452 OA
ENDROOT
BRANCH   1  12
ATOM     12  C   UNL     1      72.521  62.667  53.343  1.00  0.00     0.021 A 
ATOM     13  C   UNL     1      72.018  63.231  52.155  1.00  0.00     0.016 A 
ATOM     14  C   UNL     1      70.655  63.149  51.856  1.00  0.00     0.047 A 
ATOM     15  C   UNL     1      69.780  62.491  52.729  1.00  0.00     0.115 A 
ATOM     16  C   UNL     1      71.640  61.992  54.203  1.00  0.00     0.016 A 
ATOM     17  C   UNL     1      70.277  61.911  53.901  1.00  0.00     0.047 A 
BRANCH  15  18
ATOM     18  O   UNL     1      68.421  62.404  52.441  1.00  0.00    -0.508 OA
ATOM     19  H   UNL     1      67.926  63.160  51.982  1.00  0.00     0.293 HD
ENDBRANCH  15  18
ENDBRANCH   1  12
BRANCH   2  20
ATOM     20  O   UNL     1      73.764  64.931  54.657  1.00  0.00    -0.502 OA
ATOM     21  H   UNL     1      72.848  65.101  54.261  1.00  0.00     0.293 HD
ENDBRANCH   2  20
BRANCH   6  22
ATOM     22  O   UNL     1      78.933  63.656  54.774  1.00  0.00    -0.507 OA
ATOM     23  H   UNL     1      79.815  63.907  54.353  1.00  0.00     0.293 HD
ENDBRANCH   6  22
BRANCH   8  24
ATOM     24  O   UNL     1      78.711  59.103  53.264  1.00  0.00    -0.508 OA
ATOM     25  H   UNL     1      78.197  58.262  53.030  1.00  0.00     0.293 HD
ENDBRANCH   8  24
TORSDOF 5
ENDMDL
