MODEL 1
REMARK VINA RESULT:    -4.551      0.000      0.000
REMARK INTER + INTRA:         -16.065
REMARK INTER:                 -11.467
REMARK INTRA:                  -4.598
REMARK UNBOUND:                -4.598
REMARK SMILES CCCCCCCCCCCCCCCCCCCCCCCCCCCC(=O)[O-]
REMARK SMILES IDX 15 1 16 2 17 3 18 4 19 5 20 6 21 7 22 8 23 9 24 10 25 11
REMARK SMILES IDX 26 12 27 13 28 14 29 15 30 16 14 17 13 18 12 19 11 20 10 21
REMARK SMILES IDX 9 22 8 23 7 24 6 25 5 26 4 27 3 28 2 29 1 30
REMARK H PARENT
REMARK Flexibility Score: inf
ROOT
ATOM      1  C   UNL     1      23.493  -6.668  18.606  1.00  0.00     0.000 C 
ENDROOT
BRANCH   1   2
ATOM      2  C   UNL     1      23.801  -8.152  18.341  1.00  0.00     0.000 C 
BRANCH   2   3
ATOM      3  C   UNL     1      24.723  -8.396  17.129  1.00  0.00     0.000 C 
BRANCH   3   4
ATOM      4  C   UNL     1      24.266  -9.595  16.278  1.00  0.00     0.000 C 
BRANCH   4   5
ATOM      5  C   UNL     1      23.250  -9.195  15.195  1.00  0.00     0.000 C 
BRANCH   5   6
ATOM      6  C   UNL     1      23.927  -8.607  13.948  1.00  0.00     0.000 C 
BRANCH   6   7
ATOM      7  C   UNL     1      23.283  -7.273  13.546  1.00  0.00     0.000 C 
BRANCH   7   8
ATOM      8  C   UNL     1      23.380  -6.208  14.652  1.00  0.00     0.000 C 
BRANCH   8   9
ATOM      9  C   UNL     1      22.121  -5.321  14.765  1.00  0.00     0.000 C 
BRANCH   9  10
ATOM     10  C   UNL     1      21.197  -5.464  13.544  1.00  0.00     0.000 C 
BRANCH  10  11
ATOM     11  C   UNL     1      21.058  -4.130  12.802  1.00  0.00     0.000 C 
BRANCH  11  12
ATOM     12  C   UNL     1      22.322  -3.811  11.995  1.00  0.00     0.006 C 
BRANCH  12  13
ATOM     13  C   UNL     1      22.961  -2.504  12.474  1.00  0.00     0.053 C 
BRANCH  13  14
ATOM     14  C   UNL     1      21.980  -1.376  12.395  1.00  0.00     0.041 C 
ATOM     15  O   UNL     1      21.715  -0.695  13.421  1.00  0.00    -0.550 OA
ATOM     16  O   UNL     1      21.378  -1.059  11.183  1.00  0.00    -0.550 OA
ENDBRANCH  13  14
ENDBRANCH  12  13
ENDBRANCH  11  12
ENDBRANCH  10  11
ENDBRANCH   9  10
ENDBRANCH   8   9
ENDBRANCH   7   8
ENDBRANCH   6   7
ENDBRANCH   5   6
ENDBRANCH   4   5
ENDBRANCH   3   4
ENDBRANCH   2   3
ENDBRANCH   1   2
BRANCH   1  17
ATOM     17  C   UNL     1      23.684  -6.272  20.078  1.00  0.00     0.000 C 
BRANCH  17  18
ATOM     18  C   UNL     1      23.471  -4.770  20.327  1.00  0.00     0.000 C 
BRANCH  18  19
ATOM     19  C   UNL     1      22.357  -4.488  21.350  1.00  0.00     0.000 C 
BRANCH  19  20
ATOM     20  C   UNL     1      21.353  -3.437  20.846  1.00  0.00     0.000 C 
BRANCH  20  21
ATOM     21  C   UNL     1      20.756  -3.812  19.481  1.00  0.00     0.000 C 
BRANCH  21  22
ATOM     22  C   UNL     1      21.082  -2.745  18.426  1.00  0.00    -0.000 C 
BRANCH  22  23
ATOM     23  C   UNL     1      22.222  -3.170  17.486  1.00  0.00    -0.000 C 
BRANCH  23  24
ATOM     24  C   UNL     1      22.628  -2.050  16.508  1.00  0.00    -0.000 C 
BRANCH  24  25
ATOM     25  C   UNL     1      24.020  -2.271  15.893  1.00  0.00    -0.000 C 
BRANCH  25  26
ATOM     26  C   UNL     1      24.804  -3.394  16.593  1.00  0.00    -0.000 C 
BRANCH  26  27
ATOM     27  C   UNL     1      26.024  -2.864  17.365  1.00  0.00    -0.000 C 
BRANCH  27  28
ATOM     28  C   UNL     1      26.382  -3.736  18.580  1.00  0.00    -0.000 C 
BRANCH  28  29
ATOM     29  C   UNL     1      26.832  -5.147  18.175  1.00  0.00    -0.003 C 
ATOM     30  C   UNL     1      27.340  -5.963  19.363  1.00  0.00     0.004 C 
ENDBRANCH  28  29
ENDBRANCH  27  28
ENDBRANCH  26  27
ENDBRANCH  25  26
ENDBRANCH  24  25
ENDBRANCH  23  24
ENDBRANCH  22  23
ENDBRANCH  21  22
ENDBRANCH  20  21
ENDBRANCH  19  20
ENDBRANCH  18  19
ENDBRANCH  17  18
ENDBRANCH   1  17
TORSDOF 26
ENDMDL
MODEL 2
REMARK VINA RESULT:    -4.422      2.624      5.941
REMARK INTER + INTRA:         -15.742
REMARK INTER:                 -11.713
REMARK INTRA:                  -4.029
REMARK UNBOUND:                -4.598
REMARK SMILES CCCCCCCCCCCCCCCCCCCCCCCCCCCC(=O)[O-]
REMARK SMILES IDX 15 1 16 2 17 3 18 4 19 5 20 6 21 7 22 8 23 9 24 10 25 11
REMARK SMILES IDX 26 12 27 13 28 14 29 15 30 16 14 17 13 18 12 19 11 20 10 21
REMARK SMILES IDX 9 22 8 23 7 24 6 25 5 26 4 27 3 28 2 29 1 30
REMARK H PARENT
REMARK Flexibility Score: inf
ROOT
ATOM      1  C   UNL     1      23.160  -7.231  14.219  1.00  0.00     0.000 C 
ENDROOT
BRANCH   1   2
ATOM      2  C   UNL     1      21.791  -7.020  13.549  1.00  0.00     0.000 C 
BRANCH   2   3
ATOM      3  C   UNL     1      21.170  -5.632  13.809  1.00  0.00     0.000 C 
BRANCH   3   4
ATOM      4  C   UNL     1      21.992  -4.495  13.175  1.00  0.00     0.000 C 
BRANCH   4   5
ATOM      5  C   UNL     1      21.126  -3.542  12.334  1.00  0.00     0.000 C 
BRANCH   5   6
ATOM      6  C   UNL     1      21.663  -2.102  12.345  1.00  0.00     0.000 C 
BRANCH   6   7
ATOM      7  C   UNL     1      22.977  -2.010  13.133  1.00  0.00     0.000 C 
BRANCH   7   8
ATOM      8  C   UNL     1      22.899  -1.017  14.305  1.00  0.00     0.000 C 
BRANCH   8   9
ATOM      9  C   UNL     1      22.414  -1.658  15.624  1.00  0.00     0.000 C 
BRANCH   9  10
ATOM     10  C   UNL     1      23.338  -2.793  16.093  1.00  0.00     0.000 C 
BRANCH  10  11
ATOM     11  C   UNL     1      22.541  -3.884  16.818  1.00  0.00     0.000 C 
BRANCH  11  12
ATOM     12  C   UNL     1      22.177  -3.450  18.242  1.00  0.00     0.006 C 
BRANCH  12  13
ATOM     13  C   UNL     1      22.584  -4.521  19.260  1.00  0.00     0.053 C 
BRANCH  13  14
ATOM     14  C   UNL     1      21.965  -4.243  20.594  1.00  0.00     0.041 C 
ATOM     15  O   UNL     1      22.589  -4.523  21.652  1.00  0.00    -0.550 OA
ATOM     16  O   UNL     1      20.711  -3.648  20.671  1.00  0.00    -0.550 OA
ENDBRANCH  13  14
ENDBRANCH  12  13
ENDBRANCH  11  12
ENDBRANCH  10  11
ENDBRANCH   9  10
ENDBRANCH   8   9
ENDBRANCH   7   8
ENDBRANCH   6   7
ENDBRANCH   5   6
ENDBRANCH   4   5
ENDBRANCH   3   4
ENDBRANCH   2   3
ENDBRANCH   1   2
BRANCH   1  17
ATOM     17  C   UNL     1      23.950  -8.400  13.609  1.00  0.00     0.000 C 
BRANCH  17  18
ATOM     18  C   UNL     1      24.260  -9.509  14.626  1.00  0.00     0.000 C 
BRANCH  18  19
ATOM     19  C   UNL     1      23.328  -9.474  15.849  1.00  0.00     0.000 C 
BRANCH  19  20
ATOM     20  C   UNL     1      24.106  -9.370  17.173  1.00  0.00     0.000 C 
BRANCH  20  21
ATOM     21  C   UNL     1      23.834  -8.046  17.904  1.00  0.00     0.000 C 
BRANCH  21  22
ATOM     22  C   UNL     1      25.132  -7.457  18.477  1.00  0.00    -0.000 C 
BRANCH  22  23
ATOM     23  C   UNL     1      26.147  -7.088  17.384  1.00  0.00    -0.000 C 
BRANCH  23  24
ATOM     24  C   UNL     1      25.680  -5.898  16.524  1.00  0.00    -0.000 C 
BRANCH  24  25
ATOM     25  C   UNL     1      26.464  -4.607  16.815  1.00  0.00    -0.000 C 
BRANCH  25  26
ATOM     26  C   UNL     1      26.087  -3.978  18.167  1.00  0.00    -0.000 C 
BRANCH  26  27
ATOM     27  C   UNL     1      27.217  -4.094  19.203  1.00  0.00    -0.000 C 
BRANCH  27  28
ATOM     28  C   UNL     1      27.231  -2.922  20.198  1.00  0.00    -0.000 C 
BRANCH  28  29
ATOM     29  C   UNL     1      28.652  -2.552  20.646  1.00  0.00    -0.003 C 
ATOM     30  C   UNL     1      29.692  -3.582  20.205  1.00  0.00     0.004 C 
ENDBRANCH  28  29
ENDBRANCH  27  28
ENDBRANCH  26  27
ENDBRANCH  25  26
ENDBRANCH  24  25
ENDBRANCH  23  24
ENDBRANCH  22  23
ENDBRANCH  21  22
ENDBRANCH  20  21
ENDBRANCH  19  20
ENDBRANCH  18  19
ENDBRANCH  17  18
ENDBRANCH   1  17
TORSDOF 26
ENDMDL
MODEL 3
REMARK VINA RESULT:    -4.391      2.977      6.512
REMARK INTER + INTRA:         -15.662
REMARK INTER:                 -10.472
REMARK INTRA:                  -5.190
REMARK UNBOUND:                -4.598
REMARK SMILES CCCCCCCCCCCCCCCCCCCCCCCCCCCC(=O)[O-]
REMARK SMILES IDX 15 1 16 2 17 3 18 4 19 5 20 6 21 7 22 8 23 9 24 10 25 11
REMARK SMILES IDX 26 12 27 13 28 14 29 15 30 16 14 17 13 18 12 19 11 20 10 21
REMARK SMILES IDX 9 22 8 23 7 24 6 25 5 26 4 27 3 28 2 29 1 30
REMARK H PARENT
REMARK Flexibility Score: inf
ROOT
ATOM      1  C   UNL     1      24.786  -6.865  19.156  1.00  0.00     0.000 C 
ENDROOT
BRANCH   1   2
ATOM      2  C   UNL     1      23.927  -5.886  19.975  1.00  0.00     0.000 C 
BRANCH   2   3
ATOM      3  C   UNL     1      22.428  -6.247  20.017  1.00  0.00     0.000 C 
BRANCH   3   4
ATOM      4  C   UNL     1      21.576  -5.135  20.657  1.00  0.00     0.000 C 
BRANCH   4   5
ATOM      5  C   UNL     1      21.911  -3.742  20.098  1.00  0.00     0.000 C 
BRANCH   5   6
ATOM      6  C   UNL     1      21.242  -3.481  18.740  1.00  0.00     0.000 C 
BRANCH   6   7
ATOM      7  C   UNL     1      22.289  -3.327  17.629  1.00  0.00     0.000 C 
BRANCH   7   8
ATOM      8  C   UNL     1      22.372  -4.561  16.714  1.00  0.00     0.000 C 
BRANCH   8   9
ATOM      9  C   UNL     1      23.794  -4.834  16.176  1.00  0.00     0.000 C 
BRANCH   9  10
ATOM     10  C   UNL     1      24.861  -4.001  16.904  1.00  0.00     0.000 C 
BRANCH  10  11
ATOM     11  C   UNL     1      26.272  -4.470  16.529  1.00  0.00     0.000 C 
BRANCH  11  12
ATOM     12  C   UNL     1      27.339  -3.700  17.316  1.00  0.00     0.006 C 
BRANCH  12  13
ATOM     13  C   UNL     1      26.753  -3.123  18.609  1.00  0.00     0.053 C 
BRANCH  13  14
ATOM     14  C   UNL     1      27.536  -3.589  19.797  1.00  0.00     0.041 C 
ATOM     15  O   UNL     1      27.922  -4.787  19.870  1.00  0.00    -0.550 OA
ATOM     16  O   UNL     1      27.864  -2.696  20.810  1.00  0.00    -0.550 OA
ENDBRANCH  13  14
ENDBRANCH  12  13
ENDBRANCH  11  12
ENDBRANCH  10  11
ENDBRANCH   9  10
ENDBRANCH   8   9
ENDBRANCH   7   8
ENDBRANCH   6   7
ENDBRANCH   5   6
ENDBRANCH   4   5
ENDBRANCH   3   4
ENDBRANCH   2   3
ENDBRANCH   1   2
BRANCH   1  17
ATOM     17  C   UNL     1      23.951  -7.951  18.459  1.00  0.00     0.000 C 
BRANCH  17  18
ATOM     18  C   UNL     1      24.664  -8.569  17.246  1.00  0.00     0.000 C 
BRANCH  18  19
ATOM     19  C   UNL     1      23.743  -9.474  16.410  1.00  0.00     0.000 C 
BRANCH  19  20
ATOM     20  C   UNL     1      24.002  -9.337  14.900  1.00  0.00     0.000 C 
BRANCH  20  21
ATOM     21  C   UNL     1      23.629  -7.943  14.371  1.00  0.00     0.000 C 
BRANCH  21  22
ATOM     22  C   UNL     1      22.715  -8.048  13.141  1.00  0.00    -0.000 C 
BRANCH  22  23
ATOM     23  C   UNL     1      22.315  -6.674  12.582  1.00  0.00    -0.000 C 
BRANCH  23  24
ATOM     24  C   UNL     1      21.233  -5.983  13.435  1.00  0.00    -0.000 C 
BRANCH  24  25
ATOM     25  C   UNL     1      21.268  -4.450  13.317  1.00  0.00    -0.000 C 
BRANCH  25  26
ATOM     26  C   UNL     1      22.268  -3.963  12.255  1.00  0.00    -0.000 C 
BRANCH  26  27
ATOM     27  C   UNL     1      22.792  -2.548  12.550  1.00  0.00    -0.000 C 
BRANCH  27  28
ATOM     28  C   UNL     1      22.335  -2.019  13.919  1.00  0.00    -0.000 C 
BRANCH  28  29
ATOM     29  C   UNL     1      23.479  -1.359  14.703  1.00  0.00    -0.003 C 
ATOM     30  C   UNL     1      24.855  -1.717  14.143  1.00  0.00     0.004 C 
ENDBRANCH  28  29
ENDBRANCH  27  28
ENDBRANCH  26  27
ENDBRANCH  25  26
ENDBRANCH  24  25
ENDBRANCH  23  24
ENDBRANCH  22  23
ENDBRANCH  21  22
ENDBRANCH  20  21
ENDBRANCH  19  20
ENDBRANCH  18  19
ENDBRANCH  17  18
ENDBRANCH   1  17
TORSDOF 26
ENDMDL
MODEL 4
REMARK VINA RESULT:    -4.381      3.602      7.481
REMARK INTER + INTRA:         -15.637
REMARK INTER:                 -11.638
REMARK INTRA:                  -3.999
REMARK UNBOUND:                -4.598
REMARK SMILES CCCCCCCCCCCCCCCCCCCCCCCCCCCC(=O)[O-]
REMARK SMILES IDX 15 1 16 2 17 3 18 4 19 5 20 6 21 7 22 8 23 9 24 10 25 11
REMARK SMILES IDX 26 12 27 13 28 14 29 15 30 16 14 17 13 18 12 19 11 20 10 21
REMARK SMILES IDX 9 22 8 23 7 24 6 25 5 26 4 27 3 28 2 29 1 30
REMARK H PARENT
REMARK Flexibility Score: inf
ROOT
ATOM      1  C   UNL     1      22.746  -4.398  21.059  1.00  0.00     0.000 C 
ENDROOT
BRANCH   1   2
ATOM      2  C   UNL     1      21.266  -4.284  20.654  1.00  0.00     0.000 C 
BRANCH   2   3
ATOM      3  C   UNL     1      20.929  -3.012  19.849  1.00  0.00     0.000 C 
BRANCH   3   4
ATOM      4  C   UNL     1      20.874  -3.275  18.334  1.00  0.00     0.000 C 
BRANCH   4   5
ATOM      5  C   UNL     1      22.243  -3.094  17.656  1.00  0.00     0.000 C 
BRANCH   5   6
ATOM      6  C   UNL     1      22.786  -4.410  17.077  1.00  0.00     0.000 C 
BRANCH   6   7
ATOM      7  C   UNL     1      24.320  -4.393  17.014  1.00  0.00     0.000 C 
BRANCH   7   8
ATOM      8  C   UNL     1      24.905  -2.976  17.131  1.00  0.00     0.000 C 
BRANCH   8   9
ATOM      9  C   UNL     1      26.281  -2.934  17.831  1.00  0.00     0.000 C 
BRANCH   9  10
ATOM     10  C   UNL     1      26.212  -3.442  19.280  1.00  0.00     0.000 C 
BRANCH  10  11
ATOM     11  C   UNL     1      27.578  -3.960  19.745  1.00  0.00     0.000 C 
BRANCH  11  12
ATOM     12  C   UNL     1      28.531  -2.802  20.062  1.00  0.00     0.006 C 
BRANCH  12  13
ATOM     13  C   UNL     1      29.887  -3.326  20.545  1.00  0.00     0.053 C 
BRANCH  13  14
ATOM     14  C   UNL     1      30.561  -2.317  21.422  1.00  0.00     0.041 C 
ATOM     15  O   UNL     1      31.800  -2.393  21.638  1.00  0.00    -0.550 OA
ATOM     16  O   UNL     1      29.826  -1.277  21.979  1.00  0.00    -0.550 OA
ENDBRANCH  13  14
ENDBRANCH  12  13
ENDBRANCH  11  12
ENDBRANCH  10  11
ENDBRANCH   9  10
ENDBRANCH   8   9
ENDBRANCH   7   8
ENDBRANCH   6   7
ENDBRANCH   5   6
ENDBRANCH   4   5
ENDBRANCH   3   4
ENDBRANCH   2   3
ENDBRANCH   1   2
BRANCH   1  17
ATOM     17  C   UNL     1      23.432  -5.641  20.471  1.00  0.00     0.000 C 
BRANCH  17  18
ATOM     18  C   UNL     1      22.436  -6.654  19.884  1.00  0.00     0.000 C 
BRANCH  18  19
ATOM     19  C   UNL     1      23.126  -7.898  19.299  1.00  0.00     0.000 C 
BRANCH  19  20
ATOM     20  C   UNL     1      24.472  -7.561  18.633  1.00  0.00     0.000 C 
BRANCH  20  21
ATOM     21  C   UNL     1      24.755  -8.450  17.412  1.00  0.00     0.000 C 
BRANCH  21  22
ATOM     22  C   UNL     1      24.310  -7.759  16.115  1.00  0.00    -0.000 C 
BRANCH  22  23
ATOM     23  C   UNL     1      24.286  -8.717  14.912  1.00  0.00    -0.000 C 
BRANCH  23  24
ATOM     24  C   UNL     1      22.889  -8.819  14.269  1.00  0.00    -0.000 C 
BRANCH  24  25
ATOM     25  C   UNL     1      22.652  -7.755  13.185  1.00  0.00    -0.000 C 
BRANCH  25  26
ATOM     26  C   UNL     1      21.294  -7.049  13.336  1.00  0.00    -0.000 C 
BRANCH  26  27
ATOM     27  C   UNL     1      21.411  -5.704  14.070  1.00  0.00    -0.000 C 
BRANCH  27  28
ATOM     28  C   UNL     1      21.277  -4.499  13.124  1.00  0.00    -0.000 C 
BRANCH  28  29
ATOM     29  C   UNL     1      22.179  -3.327  13.538  1.00  0.00    -0.003 C 
ATOM     30  C   UNL     1      23.665  -3.678  13.463  1.00  0.00     0.004 C 
ENDBRANCH  28  29
ENDBRANCH  27  28
ENDBRANCH  26  27
ENDBRANCH  25  26
ENDBRANCH  24  25
ENDBRANCH  23  24
ENDBRANCH  22  23
ENDBRANCH  21  22
ENDBRANCH  20  21
ENDBRANCH  19  20
ENDBRANCH  18  19
ENDBRANCH  17  18
ENDBRANCH   1  17
TORSDOF 26
ENDMDL
MODEL 5
REMARK VINA RESULT:    -4.378      2.614      5.590
REMARK INTER + INTRA:         -15.630
REMARK INTER:                 -10.971
REMARK INTRA:                  -4.659
REMARK UNBOUND:                -4.598
REMARK SMILES CCCCCCCCCCCCCCCCCCCCCCCCCCCC(=O)[O-]
REMARK SMILES IDX 15 1 16 2 17 3 18 4 19 5 20 6 21 7 22 8 23 9 24 10 25 11
REMARK SMILES IDX 26 12 27 13 28 14 29 15 30 16 14 17 13 18 12 19 11 20 10 21
REMARK SMILES IDX 9 22 8 23 7 24 6 25 5 26 4 27 3 28 2 29 1 30
REMARK H PARENT
REMARK Flexibility Score: inf
ROOT
ATOM      1  C   UNL     1      24.218  -9.089  15.496  1.00  0.00     0.000 C 
ENDROOT
BRANCH   1   2
ATOM      2  C   UNL     1      23.935  -9.939  16.746  1.00  0.00     0.000 C 
BRANCH   2   3
ATOM      3  C   UNL     1      23.557  -9.115  17.995  1.00  0.00     0.000 C 
BRANCH   3   4
ATOM      4  C   UNL     1      24.115  -7.681  17.941  1.00  0.00     0.000 C 
BRANCH   4   5
ATOM      5  C   UNL     1      25.327  -7.487  18.867  1.00  0.00     0.000 C 
BRANCH   5   6
ATOM      6  C   UNL     1      26.566  -6.984  18.109  1.00  0.00     0.000 C 
BRANCH   6   7
ATOM      7  C   UNL     1      26.171  -6.331  16.778  1.00  0.00     0.000 C 
BRANCH   7   8
ATOM      8  C   UNL     1      26.399  -4.810  16.770  1.00  0.00     0.000 C 
BRANCH   8   9
ATOM      9  C   UNL     1      27.027  -4.275  18.075  1.00  0.00     0.000 C 
BRANCH   9  10
ATOM     10  C   UNL     1      26.052  -3.395  18.873  1.00  0.00     0.000 C 
BRANCH  10  11
ATOM     11  C   UNL     1      24.598  -3.780  18.576  1.00  0.00     0.000 C 
BRANCH  11  12
ATOM     12  C   UNL     1      23.862  -4.193  19.855  1.00  0.00     0.006 C 
BRANCH  12  13
ATOM     13  C   UNL     1      22.460  -4.721  19.532  1.00  0.00     0.053 C 
BRANCH  13  14
ATOM     14  C   UNL     1      21.419  -3.942  20.274  1.00  0.00     0.041 C 
ATOM     15  O   UNL     1      21.319  -4.051  21.525  1.00  0.00    -0.550 OA
ATOM     16  O   UNL     1      20.578  -3.074  19.588  1.00  0.00    -0.550 OA
ENDBRANCH  13  14
ENDBRANCH  12  13
ENDBRANCH  11  12
ENDBRANCH  10  11
ENDBRANCH   9  10
ENDBRANCH   8   9
ENDBRANCH   7   8
ENDBRANCH   6   7
ENDBRANCH   5   6
ENDBRANCH   4   5
ENDBRANCH   3   4
ENDBRANCH   2   3
ENDBRANCH   1   2
BRANCH   1  17
ATOM     17  C   UNL     1      23.161  -9.275  14.396  1.00  0.00     0.000 C 
BRANCH  17  18
ATOM     18  C   UNL     1      22.585  -7.945  13.887  1.00  0.00     0.000 C 
BRANCH  18  19
ATOM     19  C   UNL     1      23.327  -6.720  14.448  1.00  0.00     0.000 C 
BRANCH  19  20
ATOM     20  C   UNL     1      22.364  -5.646  14.982  1.00  0.00     0.000 C 
BRANCH  20  21
ATOM     21  C   UNL     1      21.669  -4.874  13.851  1.00  0.00     0.000 C 
BRANCH  21  22
ATOM     22  C   UNL     1      22.224  -3.447  13.737  1.00  0.00    -0.000 C 
BRANCH  22  23
ATOM     23  C   UNL     1      22.676  -2.877  15.091  1.00  0.00    -0.000 C 
BRANCH  23  24
ATOM     24  C   UNL     1      23.580  -1.639  14.937  1.00  0.00    -0.000 C 
BRANCH  24  25
ATOM     25  C   UNL     1      24.905  -1.767  15.707  1.00  0.00    -0.000 C 
BRANCH  25  26
ATOM     26  C   UNL     1      25.842  -0.570  15.476  1.00  0.00    -0.000 C 
BRANCH  26  27
ATOM     27  C   UNL     1      27.208  -0.995  14.912  1.00  0.00    -0.000 C 
BRANCH  27  28
ATOM     28  C   UNL     1      28.184  -1.455  16.008  1.00  0.00    -0.000 C 
BRANCH  28  29
ATOM     29  C   UNL     1      28.232  -0.482  17.195  1.00  0.00    -0.003 C 
ATOM     30  C   UNL     1      29.007  -1.047  18.384  1.00  0.00     0.004 C 
ENDBRANCH  28  29
ENDBRANCH  27  28
ENDBRANCH  26  27
ENDBRANCH  25  26
ENDBRANCH  24  25
ENDBRANCH  23  24
ENDBRANCH  22  23
ENDBRANCH  21  22
ENDBRANCH  20  21
ENDBRANCH  19  20
ENDBRANCH  18  19
ENDBRANCH  17  18
ENDBRANCH   1  17
TORSDOF 26
ENDMDL
MODEL 6
REMARK VINA RESULT:    -4.367      3.111      6.943
REMARK INTER + INTRA:         -15.603
REMARK INTER:                 -11.042
REMARK INTRA:                  -4.560
REMARK UNBOUND:                -4.598
REMARK SMILES CCCCCCCCCCCCCCCCCCCCCCCCCCCC(=O)[O-]
REMARK SMILES IDX 15 1 16 2 17 3 18 4 19 5 20 6 21 7 22 8 23 9 24 10 25 11
REMARK SMILES IDX 26 12 27 13 28 14 29 15 30 16 14 17 13 18 12 19 11 20 10 21
REMARK SMILES IDX 9 22 8 23 7 24 6 25 5 26 4 27 3 28 2 29 1 30
REMARK H PARENT
REMARK Flexibility Score: inf
ROOT
ATOM      1  C   UNL     1      26.881  -4.288  18.274  1.00  0.00     0.000 C 
ENDROOT
BRANCH   1   2
ATOM      2  C   UNL     1      26.084  -4.071  16.976  1.00  0.00     0.000 C 
BRANCH   2   3
ATOM      3  C   UNL     1      24.700  -3.423  17.189  1.00  0.00     0.000 C 
BRANCH   3   4
ATOM      4  C   UNL     1      23.631  -4.002  16.244  1.00  0.00     0.000 C 
BRANCH   4   5
ATOM      5  C   UNL     1      22.207  -3.847  16.803  1.00  0.00     0.000 C 
BRANCH   5   6
ATOM      6  C   UNL     1      21.973  -2.464  17.430  1.00  0.00     0.000 C 
BRANCH   6   7
ATOM      7  C   UNL     1      20.932  -2.538  18.557  1.00  0.00     0.000 C 
BRANCH   7   8
ATOM      8  C   UNL     1      21.033  -3.836  19.376  1.00  0.00     0.000 C 
BRANCH   8   9
ATOM      9  C   UNL     1      21.423  -3.603  20.852  1.00  0.00     0.000 C 
BRANCH   9  10
ATOM     10  C   UNL     1      22.688  -4.380  21.250  1.00  0.00     0.000 C 
BRANCH  10  11
ATOM     11  C   UNL     1      23.336  -5.037  20.025  1.00  0.00     0.000 C 
BRANCH  11  12
ATOM     12  C   UNL     1      23.535  -6.541  20.243  1.00  0.00     0.006 C 
BRANCH  12  13
ATOM     13  C   UNL     1      24.781  -7.040  19.505  1.00  0.00     0.053 C 
BRANCH  13  14
ATOM     14  C   UNL     1      24.396  -7.846  18.304  1.00  0.00     0.041 C 
ATOM     15  O   UNL     1      24.173  -7.275  17.203  1.00  0.00    -0.550 OA
ATOM     16  O   UNL     1      24.310  -9.231  18.392  1.00  0.00    -0.550 OA
ENDBRANCH  13  14
ENDBRANCH  12  13
ENDBRANCH  11  12
ENDBRANCH  10  11
ENDBRANCH   9  10
ENDBRANCH   8   9
ENDBRANCH   7   8
ENDBRANCH   6   7
ENDBRANCH   5   6
ENDBRANCH   4   5
ENDBRANCH   3   4
ENDBRANCH   2   3
ENDBRANCH   1   2
BRANCH   1  17
ATOM     17  C   UNL     1      26.429  -3.362  19.414  1.00  0.00     0.000 C 
BRANCH  17  18
ATOM     18  C   UNL     1      27.601  -2.829  20.253  1.00  0.00     0.000 C 
BRANCH  18  19
ATOM     19  C   UNL     1      28.887  -2.641  19.430  1.00  0.00     0.000 C 
BRANCH  19  20
ATOM     20  C   UNL     1      28.896  -1.312  18.654  1.00  0.00     0.000 C 
BRANCH  20  21
ATOM     21  C   UNL     1      29.566  -1.447  17.278  1.00  0.00     0.000 C 
BRANCH  21  22
ATOM     22  C   UNL     1      28.517  -1.482  16.157  1.00  0.00    -0.000 C 
BRANCH  22  23
ATOM     23  C   UNL     1      27.253  -0.678  16.502  1.00  0.00    -0.000 C 
BRANCH  23  24
ATOM     24  C   UNL     1      27.095   0.577  15.621  1.00  0.00    -0.000 C 
BRANCH  24  25
ATOM     25  C   UNL     1      25.692   1.199  15.717  1.00  0.00    -0.000 C 
BRANCH  25  26
ATOM     26  C   UNL     1      24.811   0.861  14.503  1.00  0.00    -0.000 C 
BRANCH  26  27
ATOM     27  C   UNL     1      24.475  -0.637  14.421  1.00  0.00    -0.000 C 
BRANCH  27  28
ATOM     28  C   UNL     1      22.961  -0.903  14.370  1.00  0.00    -0.000 C 
BRANCH  28  29
ATOM     29  C   UNL     1      22.509  -1.453  13.010  1.00  0.00    -0.003 C 
ATOM     30  C   UNL     1      21.963  -2.877  13.106  1.00  0.00     0.004 C 
ENDBRANCH  28  29
ENDBRANCH  27  28
ENDBRANCH  26  27
ENDBRANCH  25  26
ENDBRANCH  24  25
ENDBRANCH  23  24
ENDBRANCH  22  23
ENDBRANCH  21  22
ENDBRANCH  20  21
ENDBRANCH  19  20
ENDBRANCH  18  19
ENDBRANCH  17  18
ENDBRANCH   1  17
TORSDOF 26
ENDMDL
MODEL 7
REMARK VINA RESULT:    -4.354      2.823      6.492
REMARK INTER + INTRA:         -15.570
REMARK INTER:                 -10.585
REMARK INTRA:                  -4.985
REMARK UNBOUND:                -4.598
REMARK SMILES CCCCCCCCCCCCCCCCCCCCCCCCCCCC(=O)[O-]
REMARK SMILES IDX 15 1 16 2 17 3 18 4 19 5 20 6 21 7 22 8 23 9 24 10 25 11
REMARK SMILES IDX 26 12 27 13 28 14 29 15 30 16 14 17 13 18 12 19 11 20 10 21
REMARK SMILES IDX 9 22 8 23 7 24 6 25 5 26 4 27 3 28 2 29 1 30
REMARK H PARENT
REMARK Flexibility Score: inf
ROOT
ATOM      1  C   UNL     1      25.200  -7.811  17.986  1.00  0.00     0.000 C 
ENDROOT
BRANCH   1   2
ATOM      2  C   UNL     1      26.468  -7.067  17.530  1.00  0.00     0.000 C 
BRANCH   2   3
ATOM      3  C   UNL     1      27.465  -6.767  18.667  1.00  0.00     0.000 C 
BRANCH   3   4
ATOM      4  C   UNL     1      27.081  -5.508  19.466  1.00  0.00     0.000 C 
BRANCH   4   5
ATOM      5  C   UNL     1      28.073  -4.352  19.254  1.00  0.00     0.000 C 
BRANCH   5   6
ATOM      6  C   UNL     1      27.376  -2.983  19.219  1.00  0.00     0.000 C 
BRANCH   6   7
ATOM      7  C   UNL     1      27.506  -2.333  17.834  1.00  0.00     0.000 C 
BRANCH   7   8
ATOM      8  C   UNL     1      26.231  -2.480  16.986  1.00  0.00     0.000 C 
BRANCH   8   9
ATOM      9  C   UNL     1      26.276  -3.674  16.008  1.00  0.00     0.000 C 
BRANCH   9  10
ATOM     10  C   UNL     1      24.893  -4.313  15.805  1.00  0.00     0.000 C 
BRANCH  10  11
ATOM     11  C   UNL     1      23.851  -3.669  16.728  1.00  0.00     0.000 C 
BRANCH  11  12
ATOM     12  C   UNL     1      23.308  -4.682  17.741  1.00  0.00     0.006 C 
BRANCH  12  13
ATOM     13  C   UNL     1      23.639  -4.252  19.174  1.00  0.00     0.053 C 
BRANCH  13  14
ATOM     14  C   UNL     1      22.952  -5.140  20.164  1.00  0.00     0.041 C 
ATOM     15  O   UNL     1      22.606  -6.306  19.834  1.00  0.00    -0.550 OA
ATOM     16  O   UNL     1      22.718  -4.692  21.459  1.00  0.00    -0.550 OA
ENDBRANCH  13  14
ENDBRANCH  12  13
ENDBRANCH  11  12
ENDBRANCH  10  11
ENDBRANCH   9  10
ENDBRANCH   8   9
ENDBRANCH   7   8
ENDBRANCH   6   7
ENDBRANCH   5   6
ENDBRANCH   4   5
ENDBRANCH   3   4
ENDBRANCH   2   3
ENDBRANCH   1   2
BRANCH   1  17
ATOM     17  C   UNL     1      24.607  -8.708  16.889  1.00  0.00     0.000 C 
BRANCH  17  18
ATOM     18  C   UNL     1      23.975  -7.910  15.738  1.00  0.00     0.000 C 
BRANCH  18  19
ATOM     19  C   UNL     1      23.383  -8.812  14.641  1.00  0.00     0.000 C 
BRANCH  19  20
ATOM     20  C   UNL     1      23.778  -8.349  13.228  1.00  0.00     0.000 C 
BRANCH  20  21
ATOM     21  C   UNL     1      23.234  -6.950  12.901  1.00  0.00     0.000 C 
BRANCH  21  22
ATOM     22  C   UNL     1      21.698  -6.941  12.911  1.00  0.00    -0.000 C 
BRANCH  22  23
ATOM     23  C   UNL     1      21.119  -5.936  13.920  1.00  0.00    -0.000 C 
BRANCH  23  24
ATOM     24  C   UNL     1      21.748  -4.536  13.785  1.00  0.00    -0.000 C 
BRANCH  24  25
ATOM     25  C   UNL     1      21.239  -3.769  12.553  1.00  0.00    -0.000 C 
BRANCH  25  26
ATOM     26  C   UNL     1      21.696  -2.301  12.540  1.00  0.00    -0.000 C 
BRANCH  26  27
ATOM     27  C   UNL     1      22.870  -2.044  13.499  1.00  0.00    -0.000 C 
BRANCH  27  28
ATOM     28  C   UNL     1      22.652  -0.807  14.385  1.00  0.00    -0.000 C 
BRANCH  28  29
ATOM     29  C   UNL     1      23.943  -0.348  15.077  1.00  0.00    -0.003 C 
ATOM     30  C   UNL     1      25.148  -0.360  14.137  1.00  0.00     0.004 C 
ENDBRANCH  28  29
ENDBRANCH  27  28
ENDBRANCH  26  27
ENDBRANCH  25  26
ENDBRANCH  24  25
ENDBRANCH  23  24
ENDBRANCH  22  23
ENDBRANCH  21  22
ENDBRANCH  20  21
ENDBRANCH  19  20
ENDBRANCH  18  19
ENDBRANCH  17  18
ENDBRANCH   1  17
TORSDOF 26
ENDMDL
MODEL 8
REMARK VINA RESULT:    -4.344      3.219      6.994
REMARK INTER + INTRA:         -15.544
REMARK INTER:                 -10.498
REMARK INTRA:                  -5.046
REMARK UNBOUND:                -4.598
REMARK SMILES CCCCCCCCCCCCCCCCCCCCCCCCCCCC(=O)[O-]
REMARK SMILES IDX 15 1 16 2 17 3 18 4 19 5 20 6 21 7 22 8 23 9 24 10 25 11
REMARK SMILES IDX 26 12 27 13 28 14 29 15 30 16 14 17 13 18 12 19 11 20 10 21
REMARK SMILES IDX 9 22 8 23 7 24 6 25 5 26 4 27 3 28 2 29 1 30
REMARK H PARENT
REMARK Flexibility Score: inf
ROOT
ATOM      1  C   UNL     1      24.073  -3.493  17.956  1.00  0.00     0.000 C 
ENDROOT
BRANCH   1   2
ATOM      2  C   UNL     1      25.438  -3.656  18.648  1.00  0.00     0.000 C 
BRANCH   2   3
ATOM      3  C   UNL     1      26.630  -3.131  17.820  1.00  0.00     0.000 C 
BRANCH   3   4
ATOM      4  C   UNL     1      27.725  -2.506  18.702  1.00  0.00     0.000 C 
BRANCH   4   5
ATOM      5  C   UNL     1      27.891  -3.242  20.043  1.00  0.00     0.000 C 
BRANCH   5   6
ATOM      6  C   UNL     1      29.312  -3.794  20.234  1.00  0.00     0.000 C 
BRANCH   6   7
ATOM      7  C   UNL     1      29.350  -5.311  20.004  1.00  0.00     0.000 C 
BRANCH   7   8
ATOM      8  C   UNL     1      29.673  -5.686  18.548  1.00  0.00     0.000 C 
BRANCH   8   9
ATOM      9  C   UNL     1      28.756  -6.790  17.979  1.00  0.00     0.000 C 
BRANCH   9  10
ATOM     10  C   UNL     1      27.329  -6.710  18.543  1.00  0.00     0.000 C 
BRANCH  10  11
ATOM     11  C   UNL     1      26.298  -7.134  17.490  1.00  0.00     0.000 C 
BRANCH  11  12
ATOM     12  C   UNL     1      24.993  -7.597  18.147  1.00  0.00     0.006 C 
BRANCH  12  13
ATOM     13  C   UNL     1      24.842  -6.991  19.547  1.00  0.00     0.053 C 
BRANCH  13  14
ATOM     14  C   UNL     1      23.396  -6.816  19.892  1.00  0.00     0.041 C 
ATOM     15  O   UNL     1      22.999  -5.747  20.427  1.00  0.00    -0.550 OA
ATOM     16  O   UNL     1      22.482  -7.821  19.597  1.00  0.00    -0.550 OA
ENDBRANCH  13  14
ENDBRANCH  12  13
ENDBRANCH  11  12
ENDBRANCH  10  11
ENDBRANCH   9  10
ENDBRANCH   8   9
ENDBRANCH   7   8
ENDBRANCH   6   7
ENDBRANCH   5   6
ENDBRANCH   4   5
ENDBRANCH   3   4
ENDBRANCH   2   3
ENDBRANCH   1   2
BRANCH   1  17
ATOM     17  C   UNL     1      23.941  -4.351  16.688  1.00  0.00     0.000 C 
BRANCH  17  18
ATOM     18  C   UNL     1      22.519  -4.345  16.105  1.00  0.00     0.000 C 
BRANCH  18  19
ATOM     19  C   UNL     1      22.350  -5.327  14.933  1.00  0.00     0.000 C 
BRANCH  19  20
ATOM     20  C   UNL     1      21.714  -4.662  13.700  1.00  0.00     0.000 C 
BRANCH  20  21
ATOM     21  C   UNL     1      22.658  -4.662  12.488  1.00  0.00     0.000 C 
BRANCH  21  22
ATOM     22  C   UNL     1      22.420  -3.429  11.605  1.00  0.00    -0.000 C 
BRANCH  22  23
ATOM     23  C   UNL     1      21.170  -2.636  12.019  1.00  0.00    -0.000 C 
BRANCH  23  24
ATOM     24  C   UNL     1      21.410  -1.114  12.015  1.00  0.00    -0.000 C 
BRANCH  24  25
ATOM     25  C   UNL     1      22.529  -0.684  12.977  1.00  0.00    -0.000 C 
BRANCH  25  26
ATOM     26  C   UNL     1      22.195  -0.990  14.447  1.00  0.00    -0.000 C 
BRANCH  26  27
ATOM     27  C   UNL     1      23.420  -0.859  15.367  1.00  0.00    -0.000 C 
BRANCH  27  28
ATOM     28  C   UNL     1      24.703  -0.505  14.597  1.00  0.00    -0.000 C 
BRANCH  28  29
ATOM     29  C   UNL     1      25.772  -1.603  14.706  1.00  0.00    -0.003 C 
ATOM     30  C   UNL     1      25.537  -2.747  13.721  1.00  0.00     0.004 C 
ENDBRANCH  28  29
ENDBRANCH  27  28
ENDBRANCH  26  27
ENDBRANCH  25  26
ENDBRANCH  24  25
ENDBRANCH  23  24
ENDBRANCH  22  23
ENDBRANCH  21  22
ENDBRANCH  20  21
ENDBRANCH  19  20
ENDBRANCH  18  19
ENDBRANCH  17  18
ENDBRANCH   1  17
TORSDOF 26
ENDMDL
MODEL 9
REMARK VINA RESULT:    -4.338      3.416      6.608
REMARK INTER + INTRA:         -15.528
REMARK INTER:                 -10.857
REMARK INTRA:                  -4.671
REMARK UNBOUND:                -4.598
REMARK SMILES CCCCCCCCCCCCCCCCCCCCCCCCCCCC(=O)[O-]
REMARK SMILES IDX 15 1 16 2 17 3 18 4 19 5 20 6 21 7 22 8 23 9 24 10 25 11
REMARK SMILES IDX 26 12 27 13 28 14 29 15 30 16 14 17 13 18 12 19 11 20 10 21
REMARK SMILES IDX 9 22 8 23 7 24 6 25 5 26 4 27 3 28 2 29 1 30
REMARK H PARENT
REMARK Flexibility Score: inf
ROOT
ATOM      1  C   UNL     1      22.768  -3.689  16.897  1.00  0.00     0.000 C 
ENDROOT
BRANCH   1   2
ATOM      2  C   UNL     1      22.055  -3.744  18.259  1.00  0.00     0.000 C 
BRANCH   2   3
ATOM      3  C   UNL     1      22.966  -4.171  19.429  1.00  0.00     0.000 C 
BRANCH   3   4
ATOM      4  C   UNL     1      22.369  -5.334  20.241  1.00  0.00     0.000 C 
BRANCH   4   5
ATOM      5  C   UNL     1      22.875  -6.706  19.763  1.00  0.00     0.000 C 
BRANCH   5   6
ATOM      6  C   UNL     1      24.289  -6.631  19.168  1.00  0.00     0.000 C 
BRANCH   6   7
ATOM      7  C   UNL     1      24.325  -7.231  17.755  1.00  0.00     0.000 C 
BRANCH   7   8
ATOM      8  C   UNL     1      25.424  -6.613  16.874  1.00  0.00     0.000 C 
BRANCH   8   9
ATOM      9  C   UNL     1      26.336  -5.623  17.630  1.00  0.00     0.000 C 
BRANCH   9  10
ATOM     10  C   UNL     1      26.465  -4.277  16.901  1.00  0.00     0.000 C 
BRANCH  10  11
ATOM     11  C   UNL     1      26.271  -3.106  17.872  1.00  0.00     0.000 C 
BRANCH  11  12
ATOM     12  C   UNL     1      26.476  -3.551  19.324  1.00  0.00     0.006 C 
BRANCH  12  13
ATOM     13  C   UNL     1      27.672  -2.829  19.953  1.00  0.00     0.053 C 
BRANCH  13  14
ATOM     14  C   UNL     1      28.778  -3.795  20.246  1.00  0.00     0.041 C 
ATOM     15  O   UNL     1      28.551  -5.034  20.248  1.00  0.00    -0.550 OA
ATOM     16  O   UNL     1      30.065  -3.329  20.490  1.00  0.00    -0.550 OA
ENDBRANCH  13  14
ENDBRANCH  12  13
ENDBRANCH  11  12
ENDBRANCH  10  11
ENDBRANCH   9  10
ENDBRANCH   8   9
ENDBRANCH   7   8
ENDBRANCH   6   7
ENDBRANCH   5   6
ENDBRANCH   4   5
ENDBRANCH   3   4
ENDBRANCH   2   3
ENDBRANCH   1   2
BRANCH   1  17
ATOM     17  C   UNL     1      22.306  -4.796  15.937  1.00  0.00     0.000 C 
BRANCH  17  18
ATOM     18  C   UNL     1      22.559  -4.453  14.460  1.00  0.00     0.000 C 
BRANCH  18  19
ATOM     19  C   UNL     1      21.361  -4.792  13.556  1.00  0.00     0.000 C 
BRANCH  19  20
ATOM     20  C   UNL     1      21.072  -3.683  12.530  1.00  0.00     0.000 C 
BRANCH  20  21
ATOM     21  C   UNL     1      22.201  -2.644  12.462  1.00  0.00     0.000 C 
BRANCH  21  22
ATOM     22  C   UNL     1      21.639  -1.216  12.521  1.00  0.00    -0.000 C 
BRANCH  22  23
ATOM     23  C   UNL     1      22.467  -0.290  13.426  1.00  0.00    -0.000 C 
BRANCH  23  24
ATOM     24  C   UNL     1      22.606  -0.837  14.859  1.00  0.00    -0.000 C 
BRANCH  24  25
ATOM     25  C   UNL     1      24.053  -0.789  15.378  1.00  0.00    -0.000 C 
BRANCH  25  26
ATOM     26  C   UNL     1      25.074  -1.254  14.325  1.00  0.00    -0.000 C 
BRANCH  26  27
ATOM     27  C   UNL     1      26.524  -1.126  14.818  1.00  0.00    -0.000 C 
BRANCH  27  28
ATOM     28  C   UNL     1      27.061   0.312  14.715  1.00  0.00    -0.000 C 
BRANCH  28  29
ATOM     29  C   UNL     1      26.879   1.099  16.021  1.00  0.00    -0.003 C 
ATOM     30  C   UNL     1      28.161   1.163  16.850  1.00  0.00     0.004 C 
ENDBRANCH  28  29
ENDBRANCH  27  28
ENDBRANCH  26  27
ENDBRANCH  25  26
ENDBRANCH  24  25
ENDBRANCH  23  24
ENDBRANCH  22  23
ENDBRANCH  21  22
ENDBRANCH  20  21
ENDBRANCH  19  20
ENDBRANCH  18  19
ENDBRANCH  17  18
ENDBRANCH   1  17
TORSDOF 26
ENDMDL
