MODEL 1
REMARK VINA RESULT:    -4.753      0.000      0.000
REMARK INTER + INTRA:         -10.688
REMARK INTER:                  -8.920
REMARK INTRA:                  -1.768
REMARK UNBOUND:                -1.768
REMARK SMILES O=C([O-])CCCCCCCCCCCCCCC(=O)[O-]
REMARK SMILES IDX 10 1 9 2 8 3 7 4 6 5 5 6 4 7 2 8 1 9 3 10 11 11 12 12 13 13
REMARK SMILES IDX 14 14 15 15 16 16 17 17 18 18 19 19 20 20
REMARK H PARENT
REMARK Flexibility Score: inf
ROOT
ATOM      1  C   UNL     1      47.135  35.455  15.843  1.00  0.00     0.000 C 
ENDROOT
BRANCH   1   2
ATOM      2  C   UNL     1      46.801  34.912  14.448  1.00  0.00     0.000 C 
BRANCH   2   3
ATOM      3  C   UNL     1      47.826  35.395  13.410  1.00  0.00     0.000 C 
BRANCH   3   4
ATOM      4  C   UNL     1      47.175  36.157  12.245  1.00  0.00     0.000 C 
BRANCH   4   5
ATOM      5  C   UNL     1      46.595  35.216  11.175  1.00  0.00     0.000 C 
BRANCH   5   6
ATOM      6  C   UNL     1      47.514  34.021  10.878  1.00  0.00     0.006 C 
BRANCH   6   7
ATOM      7  C   UNL     1      46.734  32.764  10.472  1.00  0.00     0.053 C 
BRANCH   7   8
ATOM      8  C   UNL     1      46.078  32.148  11.667  1.00  0.00     0.041 C 
ATOM      9  O   UNL     1      44.853  31.858  11.639  1.00  0.00    -0.550 OA
ATOM     10  O   UNL     1      46.831  31.848  12.795  1.00  0.00    -0.550 OA
ENDBRANCH   7   8
ENDBRANCH   6   7
ENDBRANCH   5   6
ENDBRANCH   4   5
ENDBRANCH   3   4
ENDBRANCH   2   3
ENDBRANCH   1   2
BRANCH   1  11
ATOM     11  C   UNL     1      46.286  34.767  16.918  1.00  0.00     0.000 C 
BRANCH  11  12
ATOM     12  C   UNL     1      45.490  33.598  16.326  1.00  0.00     0.000 C 
BRANCH  12  13
ATOM     13  C   UNL     1      44.232  33.312  17.155  1.00  0.00     0.000 C 
BRANCH  13  14
ATOM     14  C   UNL     1      43.126  32.702  16.282  1.00  0.00     0.000 C 
BRANCH  14  15
ATOM     15  C   UNL     1      43.639  32.209  14.918  1.00  0.00     0.000 C 
BRANCH  15  16
ATOM     16  C   UNL     1      43.307  30.742  14.583  1.00  0.00     0.006 C 
BRANCH  16  17
ATOM     17  C   UNL     1      44.541  29.827  14.476  1.00  0.00     0.053 C 
BRANCH  17  18
ATOM     18  C   UNL     1      45.396  29.874  15.707  1.00  0.00     0.041 C 
ATOM     19  O   UNL     1      44.912  29.561  16.827  1.00  0.00    -0.550 OA
ATOM     20  O   UNL     1      46.715  30.303  15.625  1.00  0.00    -0.550 OA
ENDBRANCH  17  18
ENDBRANCH  16  17
ENDBRANCH  15  16
ENDBRANCH  14  15
ENDBRANCH  13  14
ENDBRANCH  12  13
ENDBRANCH  11  12
ENDBRANCH   1  11
TORSDOF 15
ENDMDL
MODEL 2
REMARK VINA RESULT:    -4.635      1.491      5.015
REMARK INTER + INTRA:         -10.467
REMARK INTER:                  -8.430
REMARK INTRA:                  -2.037
REMARK UNBOUND:                -1.768
REMARK SMILES O=C([O-])CCCCCCCCCCCCCCC(=O)[O-]
REMARK SMILES IDX 10 1 9 2 8 3 7 4 6 5 5 6 4 7 2 8 1 9 3 10 11 11 12 12 13 13
REMARK SMILES IDX 14 14 15 15 16 16 17 17 18 18 19 19 20 20
REMARK H PARENT
REMARK Flexibility Score: inf
ROOT
ATOM      1  C   UNL     1      45.973  33.492  16.566  1.00  0.00     0.000 C 
ENDROOT
BRANCH   1   2
ATOM      2  C   UNL     1      44.897  33.554  17.658  1.00  0.00     0.000 C 
BRANCH   2   3
ATOM      3  C   UNL     1      43.559  33.003  17.142  1.00  0.00     0.000 C 
BRANCH   3   4
ATOM      4  C   UNL     1      43.415  33.129  15.617  1.00  0.00     0.000 C 
BRANCH   4   5
ATOM      5  C   UNL     1      42.731  31.905  14.985  1.00  0.00     0.000 C 
BRANCH   5   6
ATOM      6  C   UNL     1      43.621  31.200  13.950  1.00  0.00     0.006 C 
BRANCH   6   7
ATOM      7  C   UNL     1      44.062  29.803  14.405  1.00  0.00     0.053 C 
BRANCH   7   8
ATOM      8  C   UNL     1      45.167  29.906  15.408  1.00  0.00     0.041 C 
ATOM      9  O   UNL     1      46.322  30.257  15.047  1.00  0.00    -0.550 OA
ATOM     10  O   UNL     1      44.911  29.663  16.752  1.00  0.00    -0.550 OA
ENDBRANCH   7   8
ENDBRANCH   6   7
ENDBRANCH   5   6
ENDBRANCH   4   5
ENDBRANCH   3   4
ENDBRANCH   2   3
ENDBRANCH   1   2
BRANCH   1  11
ATOM     11  C   UNL     1      46.527  34.889  16.260  1.00  0.00     0.000 C 
BRANCH  11  12
ATOM     12  C   UNL     1      46.971  34.996  14.797  1.00  0.00     0.000 C 
BRANCH  12  13
ATOM     13  C   UNL     1      46.747  33.674  14.055  1.00  0.00     0.000 C 
BRANCH  13  14
ATOM     14  C   UNL     1      46.077  33.914  12.694  1.00  0.00     0.000 C 
BRANCH  14  15
ATOM     15  C   UNL     1      46.106  32.675  11.783  1.00  0.00     0.000 C 
BRANCH  15  16
ATOM     16  C   UNL     1      46.834  32.865  10.439  1.00  0.00     0.006 C 
BRANCH  16  17
ATOM     17  C   UNL     1      48.354  32.628  10.508  1.00  0.00     0.053 C 
BRANCH  17  18
ATOM     18  C   UNL     1      48.697  31.263  11.024  1.00  0.00     0.041 C 
ATOM     19  O   UNL     1      49.232  31.128  12.157  1.00  0.00    -0.550 OA
ATOM     20  O   UNL     1      48.465  30.141  10.238  1.00  0.00    -0.550 OA
ENDBRANCH  17  18
ENDBRANCH  16  17
ENDBRANCH  15  16
ENDBRANCH  14  15
ENDBRANCH  13  14
ENDBRANCH  12  13
ENDBRANCH  11  12
ENDBRANCH   1  11
TORSDOF 15
ENDMDL
MODEL 3
REMARK VINA RESULT:    -4.633      1.387      5.094
REMARK INTER + INTRA:         -10.463
REMARK INTER:                  -8.773
REMARK INTRA:                  -1.690
REMARK UNBOUND:                -1.768
REMARK SMILES O=C([O-])CCCCCCCCCCCCCCC(=O)[O-]
REMARK SMILES IDX 10 1 9 2 8 3 7 4 6 5 5 6 4 7 2 8 1 9 3 10 11 11 12 12 13 13
REMARK SMILES IDX 14 14 15 15 16 16 17 17 18 18 19 19 20 20
REMARK H PARENT
REMARK Flexibility Score: inf
ROOT
ATOM      1  C   UNL     1      46.323  34.708  16.292  1.00  0.00     0.000 C 
ENDROOT
BRANCH   1   2
ATOM      2  C   UNL     1      46.150  34.795  17.814  1.00  0.00     0.000 C 
BRANCH   2   3
ATOM      3  C   UNL     1      45.084  33.803  18.303  1.00  0.00     0.000 C 
BRANCH   3   4
ATOM      4  C   UNL     1      44.927  32.594  17.368  1.00  0.00     0.000 C 
BRANCH   4   5
ATOM      5  C   UNL     1      43.457  32.298  17.027  1.00  0.00     0.000 C 
BRANCH   5   6
ATOM      6  C   UNL     1      43.107  32.646  15.571  1.00  0.00     0.006 C 
BRANCH   6   7
ATOM      7  C   UNL     1      44.050  31.979  14.563  1.00  0.00     0.053 C 
BRANCH   7   8
ATOM      8  C   UNL     1      43.754  30.516  14.459  1.00  0.00     0.041 C 
ATOM      9  O   UNL     1      44.607  29.668  14.832  1.00  0.00    -0.550 OA
ATOM     10  O   UNL     1      42.516  30.089  13.998  1.00  0.00    -0.550 OA
ENDBRANCH   7   8
ENDBRANCH   6   7
ENDBRANCH   5   6
ENDBRANCH   4   5
ENDBRANCH   3   4
ENDBRANCH   2   3
ENDBRANCH   1   2
BRANCH   1  11
ATOM     11  C   UNL     1      47.449  35.632  15.813  1.00  0.00     0.000 C 
BRANCH  11  12
ATOM     12  C   UNL     1      47.558  35.619  14.283  1.00  0.00     0.000 C 
BRANCH  12  13
ATOM     13  C   UNL     1      46.606  34.585  13.672  1.00  0.00     0.000 C 
BRANCH  13  14
ATOM     14  C   UNL     1      45.947  35.130  12.396  1.00  0.00     0.000 C 
BRANCH  14  15
ATOM     15  C   UNL     1      46.926  35.245  11.216  1.00  0.00     0.000 C 
BRANCH  15  16
ATOM     16  C   UNL     1      47.661  33.943  10.843  1.00  0.00     0.006 C 
BRANCH  16  17
ATOM     17  C   UNL     1      46.736  32.828  10.318  1.00  0.00     0.053 C 
BRANCH  17  18
ATOM     18  C   UNL     1      46.954  31.524  11.025  1.00  0.00     0.041 C 
ATOM     19  O   UNL     1      46.052  31.043  11.761  1.00  0.00    -0.550 OA
ATOM     20  O   UNL     1      48.169  30.859  10.906  1.00  0.00    -0.550 OA
ENDBRANCH  17  18
ENDBRANCH  16  17
ENDBRANCH  15  16
ENDBRANCH  14  15
ENDBRANCH  13  14
ENDBRANCH  12  13
ENDBRANCH  11  12
ENDBRANCH   1  11
TORSDOF 15
ENDMDL
MODEL 4
REMARK VINA RESULT:    -4.626      1.834      2.591
REMARK INTER + INTRA:         -10.450
REMARK INTER:                  -8.968
REMARK INTRA:                  -1.482
REMARK UNBOUND:                -1.768
REMARK SMILES O=C([O-])CCCCCCCCCCCCCCC(=O)[O-]
REMARK SMILES IDX 10 1 9 2 8 3 7 4 6 5 5 6 4 7 2 8 1 9 3 10 11 11 12 12 13 13
REMARK SMILES IDX 14 14 15 15 16 16 17 17 18 18 19 19 20 20
REMARK H PARENT
REMARK Flexibility Score: inf
ROOT
ATOM      1  C   UNL     1      46.154  34.686  17.647  1.00  0.00     0.000 C 
ENDROOT
BRANCH   1   2
ATOM      2  C   UNL     1      46.169  34.623  16.114  1.00  0.00     0.000 C 
BRANCH   2   3
ATOM      3  C   UNL     1      47.337  35.440  15.542  1.00  0.00     0.000 C 
BRANCH   3   4
ATOM      4  C   UNL     1      47.375  35.423  14.006  1.00  0.00     0.000 C 
BRANCH   4   5
ATOM      5  C   UNL     1      46.288  34.520  13.398  1.00  0.00     0.000 C 
BRANCH   5   6
ATOM      6  C   UNL     1      45.875  34.961  11.986  1.00  0.00     0.006 C 
BRANCH   6   7
ATOM      7  C   UNL     1      47.027  34.862  10.977  1.00  0.00     0.053 C 
BRANCH   7   8
ATOM      8  C   UNL     1      47.465  33.440  10.824  1.00  0.00     0.041 C 
ATOM      9  O   UNL     1      48.646  33.106  11.107  1.00  0.00    -0.550 OA
ATOM     10  O   UNL     1      46.556  32.472  10.416  1.00  0.00    -0.550 OA
ENDBRANCH   7   8
ENDBRANCH   6   7
ENDBRANCH   5   6
ENDBRANCH   4   5
ENDBRANCH   3   4
ENDBRANCH   2   3
ENDBRANCH   1   2
BRANCH   1  11
ATOM     11  C   UNL     1      45.224  33.616  18.232  1.00  0.00     0.000 C 
BRANCH  11  12
ATOM     12  C   UNL     1      44.061  33.317  17.278  1.00  0.00     0.000 C 
BRANCH  12  13
ATOM     13  C   UNL     1      43.557  31.880  17.457  1.00  0.00     0.000 C 
BRANCH  13  14
ATOM     14  C   UNL     1      44.712  30.934  17.819  1.00  0.00     0.000 C 
BRANCH  14  15
ATOM     15  C   UNL     1      44.995  29.887  16.729  1.00  0.00     0.000 C 
BRANCH  15  16
ATOM     16  C   UNL     1      45.282  30.460  15.327  1.00  0.00     0.006 C 
BRANCH  16  17
ATOM     17  C   UNL     1      44.557  29.722  14.186  1.00  0.00     0.053 C 
BRANCH  17  18
ATOM     18  C   UNL     1      43.105  30.086  14.101  1.00  0.00     0.041 C 
ATOM     19  O   UNL     1      42.238  29.195  13.899  1.00  0.00    -0.550 OA
ATOM     20  O   UNL     1      42.712  31.415  14.203  1.00  0.00    -0.550 OA
ENDBRANCH  17  18
ENDBRANCH  16  17
ENDBRANCH  15  16
ENDBRANCH  14  15
ENDBRANCH  13  14
ENDBRANCH  12  13
ENDBRANCH  11  12
ENDBRANCH   1  11
TORSDOF 15
ENDMDL
MODEL 5
REMARK VINA RESULT:    -4.622      9.631     11.901
REMARK INTER + INTRA:         -10.443
REMARK INTER:                  -8.815
REMARK INTRA:                  -1.628
REMARK UNBOUND:                -1.768
REMARK SMILES O=C([O-])CCCCCCCCCCCCCCC(=O)[O-]
REMARK SMILES IDX 10 1 9 2 8 3 7 4 6 5 5 6 4 7 2 8 1 9 3 10 11 11 12 12 13 13
REMARK SMILES IDX 14 14 15 15 16 16 17 17 18 18 19 19 20 20
REMARK H PARENT
REMARK Flexibility Score: inf
ROOT
ATOM      1  C   UNL     1      43.583  26.637  19.737  1.00  0.00     0.000 C 
ENDROOT
BRANCH   1   2
ATOM      2  C   UNL     1      42.427  26.448  20.728  1.00  0.00     0.000 C 
BRANCH   2   3
ATOM      3  C   UNL     1      42.000  24.974  20.799  1.00  0.00     0.000 C 
BRANCH   3   4
ATOM      4  C   UNL     1      42.631  24.121  19.688  1.00  0.00     0.000 C 
BRANCH   4   5
ATOM      5  C   UNL     1      41.597  23.256  18.947  1.00  0.00     0.000 C 
BRANCH   5   6
ATOM      6  C   UNL     1      40.150  23.666  19.263  1.00  0.00     0.006 C 
BRANCH   6   7
ATOM      7  C   UNL     1      39.389  24.148  18.022  1.00  0.00     0.053 C 
BRANCH   7   8
ATOM      8  C   UNL     1      38.425  23.101  17.561  1.00  0.00     0.041 C 
ATOM      9  O   UNL     1      38.179  22.961  16.334  1.00  0.00    -0.550 OA
ATOM     10  O   UNL     1      37.834  22.246  18.483  1.00  0.00    -0.550 OA
ENDBRANCH   7   8
ENDBRANCH   6   7
ENDBRANCH   5   6
ENDBRANCH   4   5
ENDBRANCH   3   4
ENDBRANCH   2   3
ENDBRANCH   1   2
BRANCH   1  11
ATOM     11  C   UNL     1      44.859  27.084  20.460  1.00  0.00     0.000 C 
BRANCH  11  12
ATOM     12  C   UNL     1      46.107  26.742  19.637  1.00  0.00     0.000 C 
BRANCH  12  13
ATOM     13  C   UNL     1      46.823  25.512  20.207  1.00  0.00     0.000 C 
BRANCH  13  14
ATOM     14  C   UNL     1      46.806  24.351  19.202  1.00  0.00     0.000 C 
BRANCH  14  15
ATOM     15  C   UNL     1      46.473  22.998  19.853  1.00  0.00     0.000 C 
BRANCH  15  16
ATOM     16  C   UNL     1      45.608  23.077  21.125  1.00  0.00     0.006 C 
BRANCH  16  17
ATOM     17  C   UNL     1      45.582  21.776  21.950  1.00  0.00     0.053 C 
BRANCH  17  18
ATOM     18  C   UNL     1      44.577  20.791  21.432  1.00  0.00     0.041 C 
ATOM     19  O   UNL     1      44.949  19.655  21.033  1.00  0.00    -0.550 OA
ATOM     20  O   UNL     1      43.235  21.140  21.350  1.00  0.00    -0.550 OA
ENDBRANCH  17  18
ENDBRANCH  16  17
ENDBRANCH  15  16
ENDBRANCH  14  15
ENDBRANCH  13  14
ENDBRANCH  12  13
ENDBRANCH  11  12
ENDBRANCH   1  11
TORSDOF 15
ENDMDL
MODEL 6
REMARK VINA RESULT:    -4.614      9.231     12.129
REMARK INTER + INTRA:         -10.427
REMARK INTER:                  -8.784
REMARK INTRA:                  -1.644
REMARK UNBOUND:                -1.768
REMARK SMILES O=C([O-])CCCCCCCCCCCCCCC(=O)[O-]
REMARK SMILES IDX 10 1 9 2 8 3 7 4 6 5 5 6 4 7 2 8 1 9 3 10 11 11 12 12 13 13
REMARK SMILES IDX 14 14 15 15 16 16 17 17 18 18 19 19 20 20
REMARK H PARENT
REMARK Flexibility Score: inf
ROOT
ATOM      1  C   UNL     1      44.690  22.292  22.024  1.00  0.00     0.000 C 
ENDROOT
BRANCH   1   2
ATOM      2  C   UNL     1      43.587  21.404  21.433  1.00  0.00     0.000 C 
BRANCH   2   3
ATOM      3  C   UNL     1      42.800  22.155  20.349  1.00  0.00     0.000 C 
BRANCH   3   4
ATOM      4  C   UNL     1      42.244  23.499  20.844  1.00  0.00     0.000 C 
BRANCH   4   5
ATOM      5  C   UNL     1      41.425  24.232  19.768  1.00  0.00     0.000 C 
BRANCH   5   6
ATOM      6  C   UNL     1      40.068  23.563  19.500  1.00  0.00     0.006 C 
BRANCH   6   7
ATOM      7  C   UNL     1      39.486  23.937  18.131  1.00  0.00     0.053 C 
BRANCH   7   8
ATOM      8  C   UNL     1      39.260  22.709  17.307  1.00  0.00     0.041 C 
ATOM      9  O   UNL     1      38.201  22.578  16.639  1.00  0.00    -0.550 OA
ATOM     10  O   UNL     1      40.243  21.729  17.236  1.00  0.00    -0.550 OA
ENDBRANCH   7   8
ENDBRANCH   6   7
ENDBRANCH   5   6
ENDBRANCH   4   5
ENDBRANCH   3   4
ENDBRANCH   2   3
ENDBRANCH   1   2
BRANCH   1  11
ATOM     11  C   UNL     1      46.080  21.732  21.697  1.00  0.00     0.000 C 
BRANCH  11  12
ATOM     12  C   UNL     1      46.513  22.130  20.280  1.00  0.00     0.000 C 
BRANCH  12  13
ATOM     13  C   UNL     1      47.350  23.414  20.300  1.00  0.00     0.000 C 
BRANCH  13  14
ATOM     14  C   UNL     1      46.853  24.410  19.242  1.00  0.00     0.000 C 
BRANCH  14  15
ATOM     15  C   UNL     1      45.398  24.853  19.469  1.00  0.00     0.000 C 
BRANCH  15  16
ATOM     16  C   UNL     1      45.219  26.321  19.901  1.00  0.00     0.006 C 
BRANCH  16  17
ATOM     17  C   UNL     1      43.773  26.839  19.779  1.00  0.00     0.053 C 
BRANCH  17  18
ATOM     18  C   UNL     1      43.289  27.483  21.043  1.00  0.00     0.041 C 
ATOM     19  O   UNL     1      42.090  27.346  21.406  1.00  0.00    -0.550 OA
ATOM     20  O   UNL     1      44.148  28.270  21.800  1.00  0.00    -0.550 OA
ENDBRANCH  17  18
ENDBRANCH  16  17
ENDBRANCH  15  16
ENDBRANCH  14  15
ENDBRANCH  13  14
ENDBRANCH  12  13
ENDBRANCH  11  12
ENDBRANCH   1  11
TORSDOF 15
ENDMDL
MODEL 7
REMARK VINA RESULT:    -4.614      7.825     11.799
REMARK INTER + INTRA:         -10.427
REMARK INTER:                  -8.807
REMARK INTRA:                  -1.620
REMARK UNBOUND:                -1.768
REMARK SMILES O=C([O-])CCCCCCCCCCCCCCC(=O)[O-]
REMARK SMILES IDX 10 1 9 2 8 3 7 4 6 5 5 6 4 7 2 8 1 9 3 10 11 11 12 12 13 13
REMARK SMILES IDX 14 14 15 15 16 16 17 17 18 18 19 19 20 20
REMARK H PARENT
REMARK Flexibility Score: inf
ROOT
ATOM      1  C   UNL     1      45.975  21.405  21.398  1.00  0.00     0.000 C 
ENDROOT
BRANCH   1   2
ATOM      2  C   UNL     1      44.596  21.556  22.052  1.00  0.00     0.000 C 
BRANCH   2   3
ATOM      3  C   UNL     1      43.474  21.339  21.026  1.00  0.00     0.000 C 
BRANCH   3   4
ATOM      4  C   UNL     1      42.678  22.622  20.739  1.00  0.00     0.000 C 
BRANCH   4   5
ATOM      5  C   UNL     1      42.507  22.888  19.234  1.00  0.00     0.000 C 
BRANCH   5   6
ATOM      6  C   UNL     1      41.098  23.386  18.878  1.00  0.00     0.006 C 
BRANCH   6   7
ATOM      7  C   UNL     1      40.539  22.719  17.614  1.00  0.00     0.053 C 
BRANCH   7   8
ATOM      8  C   UNL     1      39.055  22.894  17.544  1.00  0.00     0.041 C 
ATOM      9  O   UNL     1      38.496  23.142  16.443  1.00  0.00    -0.550 OA
ATOM     10  O   UNL     1      38.281  22.733  18.687  1.00  0.00    -0.550 OA
ENDBRANCH   7   8
ENDBRANCH   6   7
ENDBRANCH   5   6
ENDBRANCH   4   5
ENDBRANCH   3   4
ENDBRANCH   2   3
ENDBRANCH   1   2
BRANCH   1  11
ATOM     11  C   UNL     1      46.679  22.762  21.278  1.00  0.00     0.000 C 
BRANCH  11  12
ATOM     12  C   UNL     1      46.931  23.124  19.810  1.00  0.00     0.000 C 
BRANCH  12  13
ATOM     13  C   UNL     1      45.923  24.169  19.319  1.00  0.00     0.000 C 
BRANCH  13  14
ATOM     14  C   UNL     1      45.416  25.033  20.484  1.00  0.00     0.000 C 
BRANCH  14  15
ATOM     15  C   UNL     1      44.285  25.991  20.073  1.00  0.00     0.000 C 
BRANCH  15  16
ATOM     16  C   UNL     1      44.487  27.461  20.491  1.00  0.00     0.006 C 
BRANCH  16  17
ATOM     17  C   UNL     1      44.216  28.476  19.365  1.00  0.00     0.053 C 
BRANCH  17  18
ATOM     18  C   UNL     1      45.365  28.589  18.408  1.00  0.00     0.041 C 
ATOM     19  O   UNL     1      46.509  28.180  18.740  1.00  0.00    -0.550 OA
ATOM     20  O   UNL     1      45.183  29.184  17.165  1.00  0.00    -0.550 OA
ENDBRANCH  17  18
ENDBRANCH  16  17
ENDBRANCH  15  16
ENDBRANCH  14  15
ENDBRANCH  13  14
ENDBRANCH  12  13
ENDBRANCH  11  12
ENDBRANCH   1  11
TORSDOF 15
ENDMDL
MODEL 8
REMARK VINA RESULT:    -4.567      8.787     11.870
REMARK INTER + INTRA:         -10.339
REMARK INTER:                  -8.738
REMARK INTRA:                  -1.601
REMARK UNBOUND:                -1.768
REMARK SMILES O=C([O-])CCCCCCCCCCCCCCC(=O)[O-]
REMARK SMILES IDX 10 1 9 2 8 3 7 4 6 5 5 6 4 7 2 8 1 9 3 10 11 11 12 12 13 13
REMARK SMILES IDX 14 14 15 15 16 16 17 17 18 18 19 19 20 20
REMARK H PARENT
REMARK Flexibility Score: inf
ROOT
ATOM      1  C   UNL     1      45.558  21.581  22.043  1.00  0.00     0.000 C 
ENDROOT
BRANCH   1   2
ATOM      2  C   UNL     1      46.672  22.047  21.096  1.00  0.00     0.000 C 
BRANCH   2   3
ATOM      3  C   UNL     1      47.369  23.301  21.643  1.00  0.00     0.000 C 
BRANCH   3   4
ATOM      4  C   UNL     1      47.409  24.449  20.622  1.00  0.00     0.000 C 
BRANCH   4   5
ATOM      5  C   UNL     1      46.680  24.101  19.313  1.00  0.00     0.000 C 
BRANCH   5   6
ATOM      6  C   UNL     1      45.382  24.902  19.128  1.00  0.00     0.006 C 
BRANCH   6   7
ATOM      7  C   UNL     1      45.067  25.799  20.332  1.00  0.00     0.053 C 
BRANCH   7   8
ATOM      8  C   UNL     1      44.230  26.965  19.909  1.00  0.00     0.041 C 
ATOM      9  O   UNL     1      44.575  27.670  18.924  1.00  0.00    -0.550 OA
ATOM     10  O   UNL     1      43.042  27.245  20.572  1.00  0.00    -0.550 OA
ENDBRANCH   7   8
ENDBRANCH   6   7
ENDBRANCH   5   6
ENDBRANCH   4   5
ENDBRANCH   3   4
ENDBRANCH   2   3
ENDBRANCH   1   2
BRANCH   1  11
ATOM     11  C   UNL     1      44.470  20.817  21.278  1.00  0.00     0.000 C 
BRANCH  11  12
ATOM     12  C   UNL     1      43.119  21.535  21.380  1.00  0.00     0.000 C 
BRANCH  12  13
ATOM     13  C   UNL     1      42.994  22.629  20.314  1.00  0.00     0.000 C 
BRANCH  13  14
ATOM     14  C   UNL     1      42.068  23.758  20.790  1.00  0.00     0.000 C 
BRANCH  14  15
ATOM     15  C   UNL     1      41.272  24.405  19.645  1.00  0.00     0.000 C 
BRANCH  15  16
ATOM     16  C   UNL     1      40.230  23.491  18.971  1.00  0.00     0.006 C 
BRANCH  16  17
ATOM     17  C   UNL     1      39.279  24.226  18.008  1.00  0.00     0.053 C 
BRANCH  17  18
ATOM     18  C   UNL     1      38.315  23.296  17.335  1.00  0.00     0.041 C 
ATOM     19  O   UNL     1      38.726  22.464  16.483  1.00  0.00    -0.550 OA
ATOM     20  O   UNL     1      36.957  23.373  17.617  1.00  0.00    -0.550 OA
ENDBRANCH  17  18
ENDBRANCH  16  17
ENDBRANCH  15  16
ENDBRANCH  14  15
ENDBRANCH  13  14
ENDBRANCH  12  13
ENDBRANCH  11  12
ENDBRANCH   1  11
TORSDOF 15
ENDMDL
MODEL 9
REMARK VINA RESULT:    -4.563      1.935      5.700
REMARK INTER + INTRA:         -10.332
REMARK INTER:                  -7.915
REMARK INTRA:                  -2.417
REMARK UNBOUND:                -1.768
REMARK SMILES O=C([O-])CCCCCCCCCCCCCCC(=O)[O-]
REMARK SMILES IDX 10 1 9 2 8 3 7 4 6 5 5 6 4 7 2 8 1 9 3 10 11 11 12 12 13 13
REMARK SMILES IDX 14 14 15 15 16 16 17 17 18 18 19 19 20 20
REMARK H PARENT
REMARK Flexibility Score: inf
ROOT
ATOM      1  C   UNL     1      42.199  32.237  15.171  1.00  0.00     0.000 C 
ENDROOT
BRANCH   1   2
ATOM      2  C   UNL     1      43.194  31.668  14.152  1.00  0.00     0.000 C 
BRANCH   2   3
ATOM      3  C   UNL     1      42.904  30.186  13.869  1.00  0.00     0.000 C 
BRANCH   3   4
ATOM      4  C   UNL     1      44.107  29.279  14.171  1.00  0.00     0.000 C 
BRANCH   4   5
ATOM      5  C   UNL     1      45.196  29.994  14.990  1.00  0.00     0.000 C 
BRANCH   5   6
ATOM      6  C   UNL     1      45.101  29.689  16.493  1.00  0.00     0.006 C 
BRANCH   6   7
ATOM      7  C   UNL     1      46.469  29.710  17.186  1.00  0.00     0.053 C 
BRANCH   7   8
ATOM      8  C   UNL     1      46.460  28.818  18.386  1.00  0.00     0.041 C 
ATOM      9  O   UNL     1      45.442  28.128  18.657  1.00  0.00    -0.550 OA
ATOM     10  O   UNL     1      47.596  28.707  19.179  1.00  0.00    -0.550 OA
ENDBRANCH   7   8
ENDBRANCH   6   7
ENDBRANCH   5   6
ENDBRANCH   4   5
ENDBRANCH   3   4
ENDBRANCH   2   3
ENDBRANCH   1   2
BRANCH   1  11
ATOM     11  C   UNL     1      42.835  33.370  15.986  1.00  0.00     0.000 C 
BRANCH  11  12
ATOM     12  C   UNL     1      43.511  32.827  17.250  1.00  0.00     0.000 C 
BRANCH  12  13
ATOM     13  C   UNL     1      44.976  33.269  17.325  1.00  0.00     0.000 C 
BRANCH  13  14
ATOM     14  C   UNL     1      45.397  33.998  16.040  1.00  0.00     0.000 C 
BRANCH  14  15
ATOM     15  C   UNL     1      46.480  33.246  15.249  1.00  0.00     0.000 C 
BRANCH  15  16
ATOM     16  C   UNL     1      46.396  33.391  13.718  1.00  0.00     0.006 C 
BRANCH  16  17
ATOM     17  C   UNL     1      47.203  32.335  12.941  1.00  0.00     0.053 C 
BRANCH  17  18
ATOM     18  C   UNL     1      46.555  31.961  11.642  1.00  0.00     0.041 C 
ATOM     19  O   UNL     1      45.482  31.300  11.636  1.00  0.00    -0.550 OA
ATOM     20  O   UNL     1      47.154  32.305  10.437  1.00  0.00    -0.550 OA
ENDBRANCH  17  18
ENDBRANCH  16  17
ENDBRANCH  15  16
ENDBRANCH  14  15
ENDBRANCH  13  14
ENDBRANCH  12  13
ENDBRANCH  11  12
ENDBRANCH   1  11
TORSDOF 15
ENDMDL
