MODEL 1
REMARK VINA RESULT:    -3.286      0.000      0.000
REMARK INTER + INTRA:          -4.720
REMARK INTER:                  -4.438
REMARK INTRA:                  -0.282
REMARK UNBOUND:                -0.282
REMARK SMILES CCCCCCCC(=O)[O-]
REMARK SMILES IDX 5 1 6 2 7 3 8 4 9 5 10 6 4 7 3 8 2 9 1 10
REMARK H PARENT
REMARK Flexibility Score: inf
ROOT
ATOM      1  C   UNL     1      68.008  14.397  75.923  1.00  0.00     0.000 C 
ENDROOT
BRANCH   1   2
ATOM      2  C   UNL     1      69.485  14.680  76.226  1.00  0.00     0.006 C 
BRANCH   2   3
ATOM      3  C   UNL     1      69.630  15.818  77.240  1.00  0.00     0.053 C 
BRANCH   3   4
ATOM      4  C   UNL     1      70.113  15.292  78.554  1.00  0.00     0.041 C 
ATOM      5  O   UNL     1      71.210  14.677  78.626  1.00  0.00    -0.550 OA
ATOM      6  O   UNL     1      69.377  15.524  79.709  1.00  0.00    -0.550 OA
ENDBRANCH   3   4
ENDBRANCH   2   3
ENDBRANCH   1   2
BRANCH   1   7
ATOM      7  C   UNL     1      67.102  15.455  76.568  1.00  0.00     0.000 C 
BRANCH   7   8
ATOM      8  C   UNL     1      65.651  14.974  76.731  1.00  0.00    -0.000 C 
BRANCH   8   9
ATOM      9  C   UNL     1      65.384  13.649  76.002  1.00  0.00    -0.003 C 
ATOM     10  C   UNL     1      64.160  12.943  76.579  1.00  0.00     0.004 C 
ENDBRANCH   8   9
ENDBRANCH   7   8
ENDBRANCH   1   7
TORSDOF 6
ENDMDL
MODEL 2
REMARK VINA RESULT:    -3.235      2.405      4.623
REMARK INTER + INTRA:          -4.652
REMARK INTER:                  -4.252
REMARK INTRA:                  -0.401
REMARK UNBOUND:                -0.282
REMARK SMILES CCCCCCCC(=O)[O-]
REMARK SMILES IDX 5 1 6 2 7 3 8 4 9 5 10 6 4 7 3 8 2 9 1 10
REMARK H PARENT
REMARK Flexibility Score: inf
ROOT
ATOM      1  C   UNL     1      69.850  14.777  76.224  1.00  0.00     0.000 C 
ENDROOT
BRANCH   1   2
ATOM      2  C   UNL     1      68.349  14.468  76.179  1.00  0.00     0.006 C 
BRANCH   2   3
ATOM      3  C   UNL     1      67.519  15.731  76.426  1.00  0.00     0.053 C 
BRANCH   3   4
ATOM      4  C   UNL     1      66.395  15.444  77.370  1.00  0.00     0.041 C 
ATOM      5  O   UNL     1      66.331  16.040  78.478  1.00  0.00    -0.550 OA
ATOM      6  O   UNL     1      65.391  14.556  77.008  1.00  0.00    -0.550 OA
ENDBRANCH   3   4
ENDBRANCH   2   3
ENDBRANCH   1   2
BRANCH   1   7
ATOM      7  C   UNL     1      70.195  15.653  77.436  1.00  0.00     0.000 C 
BRANCH   7   8
ATOM      8  C   UNL     1      70.993  14.894  78.509  1.00  0.00    -0.000 C 
BRANCH   8   9
ATOM      9  C   UNL     1      70.832  15.506  79.908  1.00  0.00    -0.003 C 
ATOM     10  C   UNL     1      69.359  15.701  80.255  1.00  0.00     0.004 C 
ENDBRANCH   8   9
ENDBRANCH   7   8
ENDBRANCH   1   7
TORSDOF 6
ENDMDL
MODEL 3
REMARK VINA RESULT:    -3.234      0.923      1.569
REMARK INTER + INTRA:          -4.651
REMARK INTER:                  -4.346
REMARK INTRA:                  -0.305
REMARK UNBOUND:                -0.282
REMARK SMILES CCCCCCCC(=O)[O-]
REMARK SMILES IDX 5 1 6 2 7 3 8 4 9 5 10 6 4 7 3 8 2 9 1 10
REMARK H PARENT
REMARK Flexibility Score: inf
ROOT
ATOM      1  C   UNL     1      69.560  14.633  76.169  1.00  0.00     0.000 C 
ENDROOT
BRANCH   1   2
ATOM      2  C   UNL     1      69.887  15.605  77.309  1.00  0.00     0.006 C 
BRANCH   2   3
ATOM      3  C   UNL     1      70.943  15.016  78.249  1.00  0.00     0.053 C 
BRANCH   3   4
ATOM      4  C   UNL     1      70.666  15.414  79.664  1.00  0.00     0.041 C 
ATOM      5  O   UNL     1      71.619  15.656  80.452  1.00  0.00    -0.550 OA
ATOM      6  O   UNL     1      69.357  15.566  80.101  1.00  0.00    -0.550 OA
ENDBRANCH   3   4
ENDBRANCH   2   3
ENDBRANCH   1   2
BRANCH   1   7
ATOM      7  C   UNL     1      68.047  14.573  75.914  1.00  0.00     0.000 C 
BRANCH   7   8
ATOM      8  C   UNL     1      67.240  15.382  76.943  1.00  0.00    -0.000 C 
BRANCH   8   9
ATOM      9  C   UNL     1      65.747  15.024  76.935  1.00  0.00    -0.003 C 
ATOM     10  C   UNL     1      65.493  13.750  76.134  1.00  0.00     0.004 C 
ENDBRANCH   8   9
ENDBRANCH   7   8
ENDBRANCH   1   7
TORSDOF 6
ENDMDL
MODEL 4
REMARK VINA RESULT:    -3.179      2.211      4.246
REMARK INTER + INTRA:          -4.577
REMARK INTER:                  -4.029
REMARK INTRA:                  -0.547
REMARK UNBOUND:                -0.282
REMARK SMILES CCCCCCCC(=O)[O-]
REMARK SMILES IDX 5 1 6 2 7 3 8 4 9 5 10 6 4 7 3 8 2 9 1 10
REMARK H PARENT
REMARK Flexibility Score: inf
ROOT
ATOM      1  C   UNL     1      68.130  14.378  76.098  1.00  0.00     0.000 C 
ENDROOT
BRANCH   1   2
ATOM      2  C   UNL     1      67.273  15.642  76.236  1.00  0.00     0.006 C 
BRANCH   2   3
ATOM      3  C   UNL     1      66.286  15.513  77.400  1.00  0.00     0.053 C 
BRANCH   3   4
ATOM      4  C   UNL     1      66.720  16.363  78.552  1.00  0.00     0.041 C 
ATOM      5  O   UNL     1      66.839  15.859  79.701  1.00  0.00    -0.550 OA
ATOM      6  O   UNL     1      67.041  17.699  78.350  1.00  0.00    -0.550 OA
ENDBRANCH   3   4
ENDBRANCH   2   3
ENDBRANCH   1   2
BRANCH   1   7
ATOM      7  C   UNL     1      69.623  14.707  76.242  1.00  0.00     0.000 C 
BRANCH   7   8
ATOM      8  C   UNL     1      69.872  16.171  76.638  1.00  0.00    -0.000 C 
BRANCH   8   9
ATOM      9  C   UNL     1      70.463  16.309  78.049  1.00  0.00    -0.003 C 
ATOM     10  C   UNL     1      70.890  14.951  78.599  1.00  0.00     0.004 C 
ENDBRANCH   8   9
ENDBRANCH   7   8
ENDBRANCH   1   7
TORSDOF 6
ENDMDL
MODEL 5
REMARK VINA RESULT:    -3.165      1.556      2.680
REMARK INTER + INTRA:          -4.557
REMARK INTER:                  -4.054
REMARK INTRA:                  -0.503
REMARK UNBOUND:                -0.282
REMARK SMILES CCCCCCCC(=O)[O-]
REMARK SMILES IDX 5 1 6 2 7 3 8 4 9 5 10 6 4 7 3 8 2 9 1 10
REMARK H PARENT
REMARK Flexibility Score: inf
ROOT
ATOM      1  C   UNL     1      69.751  16.492  76.610  1.00  0.00     0.000 C 
ENDROOT
BRANCH   1   2
ATOM      2  C   UNL     1      70.207  16.831  78.035  1.00  0.00     0.006 C 
BRANCH   2   3
ATOM      3  C   UNL     1      69.061  16.655  79.036  1.00  0.00     0.053 C 
BRANCH   3   4
ATOM      4  C   UNL     1      69.484  15.775  80.169  1.00  0.00     0.041 C 
ATOM      5  O   UNL     1      68.639  15.384  81.017  1.00  0.00    -0.550 OA
ATOM      6  O   UNL     1      70.801  15.343  80.260  1.00  0.00    -0.550 OA
ENDBRANCH   3   4
ENDBRANCH   2   3
ENDBRANCH   1   2
BRANCH   1   7
ATOM      7  C   UNL     1      69.856  14.983  76.344  1.00  0.00     0.000 C 
BRANCH   7   8
ATOM      8  C   UNL     1      68.481  14.310  76.199  1.00  0.00    -0.000 C 
BRANCH   8   9
ATOM      9  C   UNL     1      67.357  15.318  75.919  1.00  0.00    -0.003 C 
ATOM     10  C   UNL     1      66.244  15.200  76.957  1.00  0.00     0.004 C 
ENDBRANCH   8   9
ENDBRANCH   7   8
ENDBRANCH   1   7
TORSDOF 6
ENDMDL
MODEL 6
REMARK VINA RESULT:    -3.126      2.938      5.060
REMARK INTER + INTRA:          -4.504
REMARK INTER:                  -4.131
REMARK INTRA:                  -0.374
REMARK UNBOUND:                -0.282
REMARK SMILES CCCCCCCC(=O)[O-]
REMARK SMILES IDX 5 1 6 2 7 3 8 4 9 5 10 6 4 7 3 8 2 9 1 10
REMARK H PARENT
REMARK Flexibility Score: inf
ROOT
ATOM      1  C   UNL     1      68.480  14.302  76.213  1.00  0.00     0.000 C 
ENDROOT
BRANCH   1   2
ATOM      2  C   UNL     1      67.291  15.210  75.875  1.00  0.00     0.006 C 
BRANCH   2   3
ATOM      3  C   UNL     1      66.198  15.106  76.943  1.00  0.00     0.053 C 
BRANCH   3   4
ATOM      4  C   UNL     1      65.028  14.334  76.422  1.00  0.00     0.041 C 
ATOM      5  O   UNL     1      65.016  13.076  76.494  1.00  0.00    -0.550 OA
ATOM      6  O   UNL     1      63.928  15.003  75.901  1.00  0.00    -0.550 OA
ENDBRANCH   3   4
ENDBRANCH   2   3
ENDBRANCH   1   2
BRANCH   1   7
ATOM      7  C   UNL     1      69.796  15.094  76.207  1.00  0.00     0.000 C 
BRANCH   7   8
ATOM      8  C   UNL     1      69.815  16.221  77.253  1.00  0.00    -0.000 C 
BRANCH   8   9
ATOM      9  C   UNL     1      69.746  15.691  78.692  1.00  0.00    -0.003 C 
ATOM     10  C   UNL     1      71.104  15.164  79.148  1.00  0.00     0.004 C 
ENDBRANCH   8   9
ENDBRANCH   7   8
ENDBRANCH   1   7
TORSDOF 6
ENDMDL
MODEL 7
REMARK VINA RESULT:    -3.104      2.652      4.413
REMARK INTER + INTRA:          -4.475
REMARK INTER:                  -4.012
REMARK INTRA:                  -0.463
REMARK UNBOUND:                -0.282
REMARK SMILES CCCCCCCC(=O)[O-]
REMARK SMILES IDX 5 1 6 2 7 3 8 4 9 5 10 6 4 7 3 8 2 9 1 10
REMARK H PARENT
REMARK Flexibility Score: inf
ROOT
ATOM      1  C   UNL     1      71.071  14.732  77.459  1.00  0.00     0.000 C 
ENDROOT
BRANCH   1   2
ATOM      2  C   UNL     1      70.226  15.101  76.234  1.00  0.00     0.006 C 
BRANCH   2   3
ATOM      3  C   UNL     1      68.837  14.459  76.309  1.00  0.00     0.053 C 
BRANCH   3   4
ATOM      4  C   UNL     1      67.799  15.492  76.614  1.00  0.00     0.041 C 
ATOM      5  O   UNL     1      66.627  15.142  76.917  1.00  0.00    -0.550 OA
ATOM      6  O   UNL     1      68.136  16.840  76.613  1.00  0.00    -0.550 OA
ENDBRANCH   3   4
ENDBRANCH   2   3
ENDBRANCH   1   2
BRANCH   1   7
ATOM      7  C   UNL     1      71.111  15.889  78.467  1.00  0.00     0.000 C 
BRANCH   7   8
ATOM      8  C   UNL     1      70.452  15.531  79.809  1.00  0.00    -0.000 C 
BRANCH   8   9
ATOM      9  C   UNL     1      69.067  16.171  79.976  1.00  0.00    -0.003 C 
ATOM     10  C   UNL     1      68.293  15.514  81.115  1.00  0.00     0.004 C 
ENDBRANCH   8   9
ENDBRANCH   7   8
ENDBRANCH   1   7
TORSDOF 6
ENDMDL
MODEL 8
REMARK VINA RESULT:    -3.073      1.159      1.974
REMARK INTER + INTRA:          -4.433
REMARK INTER:                  -3.830
REMARK INTRA:                  -0.603
REMARK UNBOUND:                -0.282
REMARK SMILES CCCCCCCC(=O)[O-]
REMARK SMILES IDX 5 1 6 2 7 3 8 4 9 5 10 6 4 7 3 8 2 9 1 10
REMARK H PARENT
REMARK Flexibility Score: inf
ROOT
ATOM      1  C   UNL     1      68.395  14.367  76.347  1.00  0.00     0.000 C 
ENDROOT
BRANCH   1   2
ATOM      2  C   UNL     1      69.734  15.109  76.254  1.00  0.00     0.006 C 
BRANCH   2   3
ATOM      3  C   UNL     1      69.842  16.188  77.336  1.00  0.00     0.053 C 
BRANCH   3   4
ATOM      4  C   UNL     1      70.072  15.564  78.676  1.00  0.00     0.041 C 
ATOM      5  O   UNL     1      71.017  14.748  78.841  1.00  0.00    -0.550 OA
ATOM      6  O   UNL     1      69.276  15.922  79.756  1.00  0.00    -0.550 OA
ENDBRANCH   3   4
ENDBRANCH   2   3
ENDBRANCH   1   2
BRANCH   1   7
ATOM      7  C   UNL     1      67.238  15.259  75.875  1.00  0.00     0.000 C 
BRANCH   7   8
ATOM      8  C   UNL     1      66.003  15.158  76.784  1.00  0.00    -0.000 C 
BRANCH   8   9
ATOM      9  C   UNL     1      66.147  15.984  78.070  1.00  0.00    -0.003 C 
ATOM     10  C   UNL     1      66.433  17.449  77.751  1.00  0.00     0.004 C 
ENDBRANCH   8   9
ENDBRANCH   7   8
ENDBRANCH   1   7
TORSDOF 6
ENDMDL
MODEL 9
REMARK VINA RESULT:    -3.048      1.958      2.677
REMARK INTER + INTRA:          -4.399
REMARK INTER:                  -3.831
REMARK INTRA:                  -0.569
REMARK UNBOUND:                -0.282
REMARK SMILES CCCCCCCC(=O)[O-]
REMARK SMILES IDX 5 1 6 2 7 3 8 4 9 5 10 6 4 7 3 8 2 9 1 10
REMARK H PARENT
REMARK Flexibility Score: inf
ROOT
ATOM      1  C   UNL     1      70.136  15.465  76.875  1.00  0.00     0.000 C 
ENDROOT
BRANCH   1   2
ATOM      2  C   UNL     1      70.937  14.847  78.028  1.00  0.00     0.006 C 
BRANCH   2   3
ATOM      3  C   UNL     1      71.235  15.886  79.111  1.00  0.00     0.053 C 
BRANCH   3   4
ATOM      4  C   UNL     1      69.969  16.334  79.771  1.00  0.00     0.041 C 
ATOM      5  O   UNL     1      69.588  17.530  79.664  1.00  0.00    -0.550 OA
ATOM      6  O   UNL     1      69.183  15.421  80.461  1.00  0.00    -0.550 OA
ENDBRANCH   3   4
ENDBRANCH   2   3
ENDBRANCH   1   2
BRANCH   1   7
ATOM      7  C   UNL     1      69.254  14.411  76.191  1.00  0.00     0.000 C 
BRANCH   7   8
ATOM      8  C   UNL     1      67.759  14.768  76.238  1.00  0.00    -0.000 C 
BRANCH   8   9
ATOM      9  C   UNL     1      67.491  16.092  76.967  1.00  0.00    -0.003 C 
ATOM     10  C   UNL     1      66.519  15.893  78.127  1.00  0.00     0.004 C 
ENDBRANCH   8   9
ENDBRANCH   7   8
ENDBRANCH   1   7
TORSDOF 6
ENDMDL
