MODEL 1
REMARK VINA RESULT:    -3.524      0.000      0.000
REMARK INTER + INTRA:          -5.707
REMARK INTER:                  -4.348
REMARK INTRA:                  -1.359
REMARK UNBOUND:                -1.359
REMARK SMILES CC(C)=CCC[C@H](C)c1ccc(C)cc1
REMARK SMILES IDX 6 1 7 2 8 3 9 4 13 5 12 6 11 7 14 8 10 9 15 10 5 11 4 12
REMARK SMILES IDX 2 13 1 14 3 15
REMARK H PARENT
REMARK Flexibility Score: inf
ROOT
ATOM      1  C   UNL     1       6.790   7.613   0.780  1.00  0.00     0.012 C 
ENDROOT
BRANCH   1   2
ATOM      2  C   UNL     1       6.724   8.121   2.239  1.00  0.00     0.016 C 
ATOM      3  C   UNL     1       7.653   7.330   3.174  1.00  0.00     0.013 C 
BRANCH   2   4
ATOM      4  C   UNL     1       5.296   8.079   2.750  1.00  0.00    -0.045 A 
ATOM      5  C   UNL     1       1.220   7.973   4.176  1.00  0.00     0.044 C 
ATOM      6  C   UNL     1       2.635   7.979   3.679  1.00  0.00    -0.051 A 
ATOM      7  C   UNL     1       2.902   8.083   2.307  1.00  0.00     0.004 A 
ATOM      8  C   UNL     1       3.702   7.949   4.588  1.00  0.00     0.004 A 
ATOM      9  C   UNL     1       4.222   8.125   1.845  1.00  0.00     0.004 A 
ATOM     10  C   UNL     1       5.022   7.992   4.129  1.00  0.00     0.004 A 
ENDBRANCH   2   4
ENDBRANCH   1   2
BRANCH   1  11
ATOM     11  C   UNL     1       7.090   6.110   0.690  1.00  0.00     0.028 C 
BRANCH  11  12
ATOM     12  C   UNL     1       6.032   5.402  -0.120  1.00  0.00    -0.028 C 
ATOM     13  C   UNL     1       5.008   4.698   0.413  1.00  0.00    -0.080 C 
ATOM     14  C   UNL     1       4.783   4.614   1.903  1.00  0.00     0.039 C 
ATOM     15  C   UNL     1       4.023   4.005  -0.493  1.00  0.00     0.039 C 
ENDBRANCH  11  12
ENDBRANCH   1  11
TORSDOF 4
ENDMDL
MODEL 2
REMARK VINA RESULT:    -3.430      1.347      3.567
REMARK INTER + INTRA:          -5.591
REMARK INTER:                  -4.222
REMARK INTRA:                  -1.369
REMARK UNBOUND:                -1.359
REMARK SMILES CC(C)=CCC[C@H](C)c1ccc(C)cc1
REMARK SMILES IDX 6 1 7 2 8 3 9 4 13 5 12 6 11 7 14 8 10 9 15 10 5 11 4 12
REMARK SMILES IDX 2 13 1 14 3 15
REMARK H PARENT
REMARK Flexibility Score: inf
ROOT
ATOM      1  C   UNL     1       6.131   4.073   1.003  1.00  0.00     0.012 C 
ENDROOT
BRANCH   1   2
ATOM      2  C   UNL     1       4.848   4.672   0.382  1.00  0.00     0.016 C 
ATOM      3  C   UNL     1       5.132   5.432  -0.924  1.00  0.00     0.013 C 
BRANCH   2   4
ATOM      4  C   UNL     1       4.150   5.577   1.380  1.00  0.00    -0.045 A 
ATOM      5  C   UNL     1       2.154   8.125   4.241  1.00  0.00     0.044 C 
ATOM      6  C   UNL     1       2.874   7.253   3.255  1.00  0.00    -0.051 A 
ATOM      7  C   UNL     1       3.332   5.985   3.637  1.00  0.00     0.004 A 
ATOM      8  C   UNL     1       3.034   7.672   1.927  1.00  0.00     0.004 A 
ATOM      9  C   UNL     1       3.971   5.156   2.709  1.00  0.00     0.004 A 
ATOM     10  C   UNL     1       3.671   6.845   0.998  1.00  0.00     0.004 A 
ENDBRANCH   2   4
ENDBRANCH   1   2
BRANCH   1  11
ATOM     11  C   UNL     1       7.381   4.914   0.705  1.00  0.00     0.028 C 
BRANCH  11  12
ATOM     12  C   UNL     1       7.646   5.892   1.824  1.00  0.00    -0.028 C 
ATOM     13  C   UNL     1       7.574   7.236   1.694  1.00  0.00    -0.080 C 
ATOM     14  C   UNL     1       7.141   7.895   0.407  1.00  0.00     0.039 C 
ATOM     15  C   UNL     1       7.888   8.120   2.872  1.00  0.00     0.039 C 
ENDBRANCH  11  12
ENDBRANCH   1  11
TORSDOF 4
ENDMDL
MODEL 3
REMARK VINA RESULT:    -2.870      1.194      2.164
REMARK INTER + INTRA:          -4.900
REMARK INTER:                  -5.341
REMARK INTRA:                   0.441
REMARK UNBOUND:                -1.359
REMARK SMILES CC(C)=CCC[C@H](C)c1ccc(C)cc1
REMARK SMILES IDX 6 1 7 2 8 3 9 4 13 5 12 6 11 7 14 8 10 9 15 10 5 11 4 12
REMARK SMILES IDX 2 13 1 14 3 15
REMARK H PARENT
REMARK Flexibility Score: inf
ROOT
ATOM      1  C   UNL     1       5.209   6.990   0.613  1.00  0.00     0.012 C 
ENDROOT
BRANCH   1   2
ATOM      2  C   UNL     1       5.361   8.047   1.729  1.00  0.00     0.016 C 
ATOM      3  C   UNL     1       6.633   7.833   2.566  1.00  0.00     0.013 C 
BRANCH   2   4
ATOM      4  C   UNL     1       4.135   8.054   2.623  1.00  0.00    -0.045 A 
ATOM      5  C   UNL     1       0.664   8.059   5.195  1.00  0.00     0.044 C 
ATOM      6  C   UNL     1       1.869   8.088   4.303  1.00  0.00    -0.051 A 
ATOM      7  C   UNL     1       3.157   8.033   4.853  1.00  0.00     0.004 A 
ATOM      8  C   UNL     1       1.716   8.102   2.909  1.00  0.00     0.004 A 
ATOM      9  C   UNL     1       4.281   8.024   4.021  1.00  0.00     0.004 A 
ATOM     10  C   UNL     1       2.838   8.092   2.076  1.00  0.00     0.004 A 
ENDBRANCH   2   4
ENDBRANCH   1   2
BRANCH   1  11
ATOM     11  C   UNL     1       6.491   6.811  -0.213  1.00  0.00     0.028 C 
BRANCH  11  12
ATOM     12  C   UNL     1       7.447   5.872   0.483  1.00  0.00    -0.028 C 
ATOM     13  C   UNL     1       7.092   4.680   1.014  1.00  0.00    -0.080 C 
ATOM     14  C   UNL     1       5.691   4.134   0.894  1.00  0.00     0.039 C 
ATOM     15  C   UNL     1       8.125   3.835   1.713  1.00  0.00     0.039 C 
ENDBRANCH  11  12
ENDBRANCH   1  11
TORSDOF 4
ENDMDL
MODEL 4
REMARK VINA RESULT:    -2.449     20.939     23.282
REMARK INTER + INTRA:          -4.381
REMARK INTER:                  -3.952
REMARK INTRA:                  -0.429
REMARK UNBOUND:                -1.359
REMARK SMILES CC(C)=CCC[C@H](C)c1ccc(C)cc1
REMARK SMILES IDX 6 1 7 2 8 3 9 4 13 5 12 6 11 7 14 8 10 9 15 10 5 11 4 12
REMARK SMILES IDX 2 13 1 14 3 15
REMARK H PARENT
REMARK Flexibility Score: inf
ROOT
ATOM      1  C   UNL     1      -8.822 -11.267  -4.555  1.00  0.00     0.012 C 
ENDROOT
BRANCH   1   2
ATOM      2  C   UNL     1     -10.358 -11.285  -4.387  1.00  0.00     0.016 C 
ATOM      3  C   UNL     1     -11.083 -10.636  -5.578  1.00  0.00     0.013 C 
BRANCH   2   4
ATOM      4  C   UNL     1     -10.757 -10.603  -3.091  1.00  0.00    -0.045 A 
ATOM      5  C   UNL     1     -11.878  -8.692   0.617  1.00  0.00     0.044 C 
ATOM      6  C   UNL     1     -11.467  -9.334  -0.675  1.00  0.00    -0.051 A 
ATOM      7  C   UNL     1     -10.487 -10.335  -0.687  1.00  0.00     0.004 A 
ATOM      8  C   UNL     1     -12.110  -8.986  -1.872  1.00  0.00     0.004 A 
ATOM      9  C   UNL     1     -10.128 -10.960  -1.885  1.00  0.00     0.004 A 
ATOM     10  C   UNL     1     -11.754  -9.609  -3.071  1.00  0.00     0.004 A 
ENDBRANCH   2   4
ENDBRANCH   1   2
BRANCH   1  11
ATOM     11  C   UNL     1      -8.388 -11.146  -6.024  1.00  0.00     0.028 C 
BRANCH  11  12
ATOM     12  C   UNL     1      -6.899 -10.925  -6.124  1.00  0.00    -0.028 C 
ATOM     13  C   UNL     1      -6.277  -9.767  -5.807  1.00  0.00    -0.080 C 
ATOM     14  C   UNL     1      -7.025  -8.584  -5.243  1.00  0.00     0.039 C 
ATOM     15  C   UNL     1      -4.785  -9.647  -5.974  1.00  0.00     0.039 C 
ENDBRANCH  11  12
ENDBRANCH   1  11
TORSDOF 4
ENDMDL
MODEL 5
REMARK VINA RESULT:    -2.051     20.973     23.776
REMARK INTER + INTRA:          -3.890
REMARK INTER:                  -3.088
REMARK INTRA:                  -0.802
REMARK UNBOUND:                -1.359
REMARK SMILES CC(C)=CCC[C@H](C)c1ccc(C)cc1
REMARK SMILES IDX 6 1 7 2 8 3 9 4 13 5 12 6 11 7 14 8 10 9 15 10 5 11 4 12
REMARK SMILES IDX 2 13 1 14 3 15
REMARK H PARENT
REMARK Flexibility Score: inf
ROOT
ATOM      1  C   UNL     1      -9.796 -11.492  -5.028  1.00  0.00     0.012 C 
ENDROOT
BRANCH   1   2
ATOM      2  C   UNL     1     -11.018 -11.049  -4.191  1.00  0.00     0.016 C 
ATOM      3  C   UNL     1     -11.370  -9.568  -4.412  1.00  0.00     0.013 C 
BRANCH   2   4
ATOM      4  C   UNL     1     -10.779 -11.322  -2.718  1.00  0.00    -0.045 A 
ATOM      5  C   UNL     1     -10.133 -12.099   1.482  1.00  0.00     0.044 C 
ATOM      6  C   UNL     1     -10.347 -11.858   0.017  1.00  0.00    -0.051 A 
ATOM      7  C   UNL     1     -11.592 -12.125  -0.568  1.00  0.00     0.004 A 
ATOM      8  C   UNL     1      -9.325 -11.300  -0.763  1.00  0.00     0.004 A 
ATOM      9  C   UNL     1     -11.805 -11.866  -1.926  1.00  0.00     0.004 A 
ATOM     10  C   UNL     1      -9.535 -11.039  -2.121  1.00  0.00     0.004 A 
ENDBRANCH   2   4
ENDBRANCH   1   2
BRANCH   1  11
ATOM     11  C   UNL     1      -9.240 -10.362  -5.907  1.00  0.00     0.028 C 
BRANCH  11  12
ATOM     12  C   UNL     1      -7.757 -10.537  -6.125  1.00  0.00    -0.028 C 
ATOM     13  C   UNL     1      -6.809  -9.730  -5.596  1.00  0.00    -0.080 C 
ATOM     14  C   UNL     1      -7.152  -8.598  -4.659  1.00  0.00     0.039 C 
ATOM     15  C   UNL     1      -5.356  -9.979  -5.904  1.00  0.00     0.039 C 
ENDBRANCH  11  12
ENDBRANCH   1  11
TORSDOF 4
ENDMDL
MODEL 6
REMARK VINA RESULT:    -1.919      1.497      3.191
REMARK INTER + INTRA:          -3.727
REMARK INTER:                  -2.587
REMARK INTRA:                  -1.141
REMARK UNBOUND:                -1.359
REMARK SMILES CC(C)=CCC[C@H](C)c1ccc(C)cc1
REMARK SMILES IDX 6 1 7 2 8 3 9 4 13 5 12 6 11 7 14 8 10 9 15 10 5 11 4 12
REMARK SMILES IDX 2 13 1 14 3 15
REMARK H PARENT
REMARK Flexibility Score: inf
ROOT
ATOM      1  C   UNL     1       4.036   4.761   0.154  1.00  0.00     0.012 C 
ENDROOT
BRANCH   1   2
ATOM      2  C   UNL     1       3.979   6.304   0.225  1.00  0.00     0.016 C 
ATOM      3  C   UNL     1       5.019   6.969  -0.693  1.00  0.00     0.013 C 
BRANCH   2   4
ATOM      4  C   UNL     1       4.159   6.776   1.656  1.00  0.00    -0.045 A 
ATOM      5  C   UNL     1       4.703   8.125   5.723  1.00  0.00     0.044 C 
ATOM      6  C   UNL     1       4.496   7.681   4.305  1.00  0.00    -0.051 A 
ATOM      7  C   UNL     1       5.402   8.063   3.306  1.00  0.00     0.004 A 
ATOM      8  C   UNL     1       3.434   6.826   3.981  1.00  0.00     0.004 A 
ATOM      9  C   UNL     1       5.231   7.621   1.991  1.00  0.00     0.004 A 
ATOM     10  C   UNL     1       3.262   6.381   2.667  1.00  0.00     0.004 A 
ENDBRANCH   2   4
ENDBRANCH   1   2
BRANCH   1  11
ATOM     11  C   UNL     1       5.461   4.231  -0.067  1.00  0.00     0.028 C 
BRANCH  11  12
ATOM     12  C   UNL     1       6.238   4.235   1.227  1.00  0.00    -0.028 C 
ATOM     13  C   UNL     1       7.420   4.868   1.404  1.00  0.00    -0.080 C 
ATOM     14  C   UNL     1       8.049   5.708   0.320  1.00  0.00     0.039 C 
ATOM     15  C   UNL     1       8.125   4.781   2.732  1.00  0.00     0.039 C 
ENDBRANCH  11  12
ENDBRANCH   1  11
TORSDOF 4
ENDMDL
MODEL 7
REMARK VINA RESULT:    -1.782      1.042      4.602
REMARK INTER + INTRA:          -3.558
REMARK INTER:                  -2.643
REMARK INTRA:                  -0.916
REMARK UNBOUND:                -1.359
REMARK SMILES CC(C)=CCC[C@H](C)c1ccc(C)cc1
REMARK SMILES IDX 6 1 7 2 8 3 9 4 13 5 12 6 11 7 14 8 10 9 15 10 5 11 4 12
REMARK SMILES IDX 2 13 1 14 3 15
REMARK H PARENT
REMARK Flexibility Score: inf
ROOT
ATOM      1  C   UNL     1       6.863   7.368   3.482  1.00  0.00     0.012 C 
ENDROOT
BRANCH   1   2
ATOM      2  C   UNL     1       7.577   6.870   2.206  1.00  0.00     0.016 C 
ATOM      3  C   UNL     1       8.124   8.027   1.354  1.00  0.00     0.013 C 
BRANCH   2   4
ATOM      4  C   UNL     1       6.645   6.001   1.382  1.00  0.00    -0.045 A 
ATOM      5  C   UNL     1       4.006   3.499  -0.950  1.00  0.00     0.044 C 
ATOM      6  C   UNL     1       4.898   4.377  -0.123  1.00  0.00    -0.051 A 
ATOM      7  C   UNL     1       5.566   3.854   0.993  1.00  0.00     0.004 A 
ATOM      8  C   UNL     1       5.125   5.708  -0.499  1.00  0.00     0.004 A 
ATOM      9  C   UNL     1       6.426   4.661   1.744  1.00  0.00     0.004 A 
ATOM     10  C   UNL     1       5.985   6.516   0.249  1.00  0.00     0.004 A 
ENDBRANCH   2   4
ENDBRANCH   1   2
BRANCH   1  11
ATOM     11  C   UNL     1       5.562   8.124   3.175  1.00  0.00     0.028 C 
BRANCH  11  12
ATOM     12  C   UNL     1       4.450   7.666   4.087  1.00  0.00    -0.028 C 
ATOM     13  C   UNL     1       3.159   7.531   3.707  1.00  0.00    -0.080 C 
ATOM     14  C   UNL     1       2.714   7.763   2.284  1.00  0.00     0.039 C 
ATOM     15  C   UNL     1       2.124   7.094   4.711  1.00  0.00     0.039 C 
ENDBRANCH  11  12
ENDBRANCH   1  11
TORSDOF 4
ENDMDL
