MODEL 1
REMARK VINA RESULT:    -3.513      0.000      0.000
REMARK INTER + INTRA:          -3.891
REMARK INTER:                  -3.719
REMARK INTRA:                  -0.173
REMARK UNBOUND:                -0.173
REMARK SMILES CC(C)[C@@H]1CC[C@@H](C)CC1=O
REMARK SMILES IDX 8 1 7 2 6 3 5 4 4 5 10 6 11 7 9 8 2 9 1 10 3 11
REMARK H PARENT
REMARK Flexibility Score: inf
ROOT
ATOM      1  C   UNL     1     110.831  94.847  21.402  1.00  0.00     0.008 C 
ATOM      2  C   UNL     1     109.629  94.462  22.272  1.00  0.00    -0.007 C 
ATOM      3  C   UNL     1     108.702  95.676  22.482  1.00  0.00     0.004 C 
ATOM      4  C   UNL     1     107.477  95.287  23.322  1.00  0.00     0.012 C 
ATOM      5  C   UNL     1     107.893  94.745  24.709  1.00  0.00     0.058 C 
ATOM      6  C   UNL     1     108.927  93.644  24.533  1.00  0.00     0.136 C 
ATOM      7  O   UNL     1     108.887  92.613  25.186  1.00  0.00    -0.299 OA
ATOM      8  C   UNL     1     110.100  93.894  23.623  1.00  0.00     0.079 C 
ENDROOT
BRANCH   5   9
ATOM      9  C   UNL     1     106.647  94.382  25.579  1.00  0.00    -0.007 C 
ATOM     10  C   UNL     1     105.392  94.154  24.720  1.00  0.00     0.008 C 
ATOM     11  C   UNL     1     106.351  95.379  26.714  1.00  0.00     0.008 C 
ENDBRANCH   5   9
TORSDOF 1
ENDMDL
MODEL 2
REMARK VINA RESULT:    -3.398      1.880      4.209
REMARK INTER + INTRA:          -3.770
REMARK INTER:                  -3.608
REMARK INTRA:                  -0.162
REMARK UNBOUND:                -0.173
REMARK SMILES CC(C)[C@@H]1CC[C@@H](C)CC1=O
REMARK SMILES IDX 8 1 7 2 6 3 5 4 4 5 10 6 11 7 9 8 2 9 1 10 3 11
REMARK H PARENT
REMARK Flexibility Score: inf
ROOT
ATOM      1  C   UNL     1     103.114  95.513  23.277  1.00  0.00     0.008 C 
ATOM      2  C   UNL     1     104.456  95.576  24.015  1.00  0.00    -0.007 C 
ATOM      3  C   UNL     1     105.529  96.243  23.132  1.00  0.00     0.004 C 
ATOM      4  C   UNL     1     106.866  96.342  23.881  1.00  0.00     0.012 C 
ATOM      5  C   UNL     1     107.380  94.948  24.305  1.00  0.00     0.058 C 
ATOM      6  C   UNL     1     106.281  94.206  25.049  1.00  0.00     0.136 C 
ATOM      7  O   UNL     1     106.509  93.560  26.059  1.00  0.00    -0.299 OA
ATOM      8  C   UNL     1     104.901  94.167  24.447  1.00  0.00     0.079 C 
ENDROOT
BRANCH   5   9
ATOM      9  C   UNL     1     108.758  95.043  25.036  1.00  0.00    -0.007 C 
ATOM     10  C   UNL     1     109.357  96.457  24.953  1.00  0.00     0.008 C 
ATOM     11  C   UNL     1     109.790  93.991  24.588  1.00  0.00     0.008 C 
ENDBRANCH   5   9
TORSDOF 1
ENDMDL
MODEL 3
REMARK VINA RESULT:    -3.250     11.403     12.544
REMARK INTER + INTRA:          -3.612
REMARK INTER:                  -3.436
REMARK INTRA:                  -0.176
REMARK UNBOUND:                -0.173
REMARK SMILES CC(C)[C@@H]1CC[C@@H](C)CC1=O
REMARK SMILES IDX 8 1 7 2 6 3 5 4 4 5 10 6 11 7 9 8 2 9 1 10 3 11
REMARK H PARENT
REMARK Flexibility Score: inf
ROOT
ATOM      1  C   UNL     1     103.260  85.408  20.718  1.00  0.00     0.008 C 
ATOM      2  C   UNL     1     103.426  84.796  22.114  1.00  0.00    -0.007 C 
ATOM      3  C   UNL     1     104.715  83.955  22.188  1.00  0.00     0.004 C 
ATOM      4  C   UNL     1     104.904  83.371  23.595  1.00  0.00     0.012 C 
ATOM      5  C   UNL     1     103.712  82.473  23.998  1.00  0.00     0.058 C 
ATOM      6  C   UNL     1     102.412  83.233  23.788  1.00  0.00     0.136 C 
ATOM      7  O   UNL     1     101.503  83.193  24.603  1.00  0.00    -0.299 OA
ATOM      8  C   UNL     1     102.196  83.946  22.479  1.00  0.00     0.079 C 
ENDROOT
BRANCH   5   9
ATOM      9  C   UNL     1     103.919  81.849  25.416  1.00  0.00    -0.007 C 
ATOM     10  C   UNL     1     104.655  82.809  26.366  1.00  0.00     0.008 C 
ATOM     11  C   UNL     1     104.599  80.467  25.410  1.00  0.00     0.008 C 
ENDBRANCH   5   9
TORSDOF 1
ENDMDL
MODEL 4
REMARK VINA RESULT:    -3.203      2.735      3.460
REMARK INTER + INTRA:          -3.562
REMARK INTER:                  -3.389
REMARK INTRA:                  -0.173
REMARK UNBOUND:                -0.173
REMARK SMILES CC(C)[C@@H]1CC[C@@H](C)CC1=O
REMARK SMILES IDX 8 1 7 2 6 3 5 4 4 5 10 6 11 7 9 8 2 9 1 10 3 11
REMARK H PARENT
REMARK Flexibility Score: inf
ROOT
ATOM      1  C   UNL     1     110.960  97.947  23.643  1.00  0.00     0.008 C 
ATOM      2  C   UNL     1     109.701  97.525  24.410  1.00  0.00    -0.007 C 
ATOM      3  C   UNL     1     109.703  96.004  24.661  1.00  0.00     0.004 C 
ATOM      4  C   UNL     1     108.463  95.583  25.461  1.00  0.00     0.012 C 
ATOM      5  C   UNL     1     107.159  95.952  24.717  1.00  0.00     0.058 C 
ATOM      6  C   UNL     1     107.200  97.420  24.322  1.00  0.00     0.136 C 
ATOM      7  O   UNL     1     106.227  98.147  24.443  1.00  0.00    -0.299 OA
ATOM      8  C   UNL     1     108.435  97.951  23.644  1.00  0.00     0.079 C 
ENDROOT
BRANCH   5   9
ATOM      9  C   UNL     1     105.895  95.492  25.512  1.00  0.00    -0.007 C 
ATOM     10  C   UNL     1     106.052  95.722  27.024  1.00  0.00     0.008 C 
ATOM     11  C   UNL     1     105.457  94.043  25.228  1.00  0.00     0.008 C 
ENDBRANCH   5   9
TORSDOF 1
ENDMDL
MODEL 5
REMARK VINA RESULT:    -3.189      8.740     10.545
REMARK INTER + INTRA:          -3.548
REMARK INTER:                  -3.373
REMARK INTRA:                  -0.175
REMARK UNBOUND:                -0.173
REMARK SMILES CC(C)[C@@H]1CC[C@@H](C)CC1=O
REMARK SMILES IDX 8 1 7 2 6 3 5 4 4 5 10 6 11 7 9 8 2 9 1 10 3 11
REMARK H PARENT
REMARK Flexibility Score: inf
ROOT
ATOM      1  C   UNL     1     114.289  91.920  19.293  1.00  0.00     0.008 C 
ATOM      2  C   UNL     1     113.947  91.127  18.026  1.00  0.00    -0.007 C 
ATOM      3  C   UNL     1     112.428  91.158  17.761  1.00  0.00     0.004 C 
ATOM      4  C   UNL     1     112.085  90.396  16.473  1.00  0.00     0.012 C 
ATOM      5  C   UNL     1     112.535  88.920  16.554  1.00  0.00     0.058 C 
ATOM      6  C   UNL     1     113.998  88.858  16.966  1.00  0.00     0.136 C 
ATOM      7  O   UNL     1     114.784  88.089  16.437  1.00  0.00    -0.299 OA
ATOM      8  C   UNL     1     114.451  89.677  18.146  1.00  0.00     0.079 C 
ENDROOT
BRANCH   5   9
ATOM      9  C   UNL     1     112.155  88.132  15.259  1.00  0.00    -0.007 C 
ATOM     10  C   UNL     1     112.084  89.051  14.028  1.00  0.00     0.008 C 
ATOM     11  C   UNL     1     110.871  87.291  15.380  1.00  0.00     0.008 C 
ENDBRANCH   5   9
TORSDOF 1
ENDMDL
MODEL 6
REMARK VINA RESULT:    -3.188      1.222      4.314
REMARK INTER + INTRA:          -3.547
REMARK INTER:                  -3.383
REMARK INTRA:                  -0.164
REMARK UNBOUND:                -0.173
REMARK SMILES CC(C)[C@@H]1CC[C@@H](C)CC1=O
REMARK SMILES IDX 8 1 7 2 6 3 5 4 4 5 10 6 11 7 9 8 2 9 1 10 3 11
REMARK H PARENT
REMARK Flexibility Score: inf
ROOT
ATOM      1  C   UNL     1     105.976  95.836  26.651  1.00  0.00     0.008 C 
ATOM      2  C   UNL     1     107.300  95.632  25.904  1.00  0.00    -0.007 C 
ATOM      3  C   UNL     1     107.428  96.638  24.743  1.00  0.00     0.004 C 
ATOM      4  C   UNL     1     108.768  96.461  24.015  1.00  0.00     0.012 C 
ATOM      5  C   UNL     1     108.914  95.034  23.441  1.00  0.00     0.058 C 
ATOM      6  C   UNL     1     108.640  94.016  24.537  1.00  0.00     0.136 C 
ATOM      7  O   UNL     1     109.328  93.017  24.676  1.00  0.00    -0.299 OA
ATOM      8  C   UNL     1     107.409  94.185  25.388  1.00  0.00     0.079 C 
ENDROOT
BRANCH   5   9
ATOM      9  C   UNL     1     110.262  94.862  22.668  1.00  0.00    -0.007 C 
ATOM     10  C   UNL     1     111.029  96.189  22.548  1.00  0.00     0.008 C 
ATOM     11  C   UNL     1     110.123  94.190  21.289  1.00  0.00     0.008 C 
ENDBRANCH   5   9
TORSDOF 1
ENDMDL
MODEL 7
REMARK VINA RESULT:    -3.128     12.443     13.806
REMARK INTER + INTRA:          -3.483
REMARK INTER:                  -3.317
REMARK INTRA:                  -0.167
REMARK UNBOUND:                -0.173
REMARK SMILES CC(C)[C@@H]1CC[C@@H](C)CC1=O
REMARK SMILES IDX 8 1 7 2 6 3 5 4 4 5 10 6 11 7 9 8 2 9 1 10 3 11
REMARK H PARENT
REMARK Flexibility Score: inf
ROOT
ATOM      1  C   UNL     1     105.332  83.622  28.125  1.00  0.00     0.008 C 
ATOM      2  C   UNL     1     104.289  82.815  27.343  1.00  0.00    -0.007 C 
ATOM      3  C   UNL     1     104.629  82.803  25.839  1.00  0.00     0.004 C 
ATOM      4  C   UNL     1     103.608  81.965  25.057  1.00  0.00     0.012 C 
ATOM      5  C   UNL     1     102.175  82.518  25.228  1.00  0.00     0.058 C 
ATOM      6  C   UNL     1     101.869  82.684  26.708  1.00  0.00     0.136 C 
ATOM      7  O   UNL     1     100.792  82.362  27.184  1.00  0.00    -0.299 OA
ATOM      8  C   UNL     1     102.878  83.384  27.580  1.00  0.00     0.079 C 
ENDROOT
BRANCH   5   9
ATOM      9  C   UNL     1     101.138  81.688  24.403  1.00  0.00    -0.007 C 
ATOM     10  C   UNL     1     101.794  80.493  23.691  1.00  0.00     0.008 C 
ATOM     11  C   UNL     1     100.304  82.519  23.410  1.00  0.00     0.008 C 
ENDBRANCH   5   9
TORSDOF 1
ENDMDL
