MODEL 1
REMARK VINA RESULT:    -3.971      0.000      0.000
REMARK INTER + INTRA:          -6.120
REMARK INTER:                  -6.060
REMARK INTRA:                  -0.061
REMARK UNBOUND:                -0.061
REMARK SMILES CC1=CCC[C@@H](C)C(=O)C[C@H](C(C)C)C(=O)C1
REMARK SMILES IDX 8 1 9 2 6 3 7 4 5 5 4 6 3 7 2 8 1 9 10 11 11 12 15 13 16 14
REMARK SMILES IDX 17 15 12 17 13 18 14 19
REMARK H PARENT
REMARK Flexibility Score: 70.00
ROOT
ATOM      1  C   UNL     1       7.457   1.747  -6.421  1.00  0.00     0.136 C 
ATOM      2  O   UNL     1       6.894   0.829  -5.841  1.00  0.00    -0.299 OA
ENDROOT
BRANCH   1   3
ATOM      3  C   UNL     1       8.154   2.841  -5.627  1.00  0.00     0.053 C 
ATOM      4  C   UNL     1       9.349   2.314  -4.815  1.00  0.00     0.016 C 
BRANCH   3   5
ATOM      5  C   UNL     1       7.173   3.661  -4.752  1.00  0.00     0.015 C 
BRANCH   5   6
ATOM      6  C   UNL     1       6.204   4.612  -5.488  1.00  0.00     0.028 C 
BRANCH   6   7
ATOM      7  C   UNL     1       6.821   5.870  -6.054  1.00  0.00    -0.028 C 
ATOM      8  C   UNL     1       6.887   6.209  -7.363  1.00  0.00    -0.070 CG0
ATOM      9  C   UNL     1       7.624   7.475  -7.725  1.00  0.00     0.039 C 
ATOM     10  G   UNL     1       6.280   5.375  -8.474  1.00  0.00     0.000 G0
ENDBRANCH   6   7
ENDBRANCH   5   6
ENDBRANCH   3   5
ENDBRANCH   1   3
BRANCH   1  11
ATOM     11  C   UNL     1       7.469   1.755  -7.931  1.00  0.00     0.087 C 
BRANCH  11  12
ATOM     12  C   UNL     1       6.416   2.729  -8.521  1.00  0.00     0.066 C 
BRANCH  12  13
ATOM     13  C   UNL     1       7.037   4.096  -8.777  1.00  0.00     0.140 C 
ATOM     14  O   UNL     1       8.150   4.164  -9.276  1.00  0.00    -0.299 OA
BRANCH  13  15
ATOM     15  C   UNL     1       6.306   5.389  -8.494  1.00  0.00     0.106 CG0
ATOM     16  G   UNL     1       6.901   6.184  -7.349  1.00  0.00     0.000 G0
ENDBRANCH  13  15
ENDBRANCH  12  13
BRANCH  12  17
ATOM     17  C   UNL     1       5.707   2.182  -9.802  1.00  0.00    -0.006 C 
ATOM     18  C   UNL     1       5.757   0.648  -9.943  1.00  0.00     0.008 C 
ATOM     19  C   UNL     1       4.249   2.662  -9.886  1.00  0.00     0.008 C 
ENDBRANCH  12  17
ENDBRANCH  11  12
ENDBRANCH   1  11
TORSDOF 1
ENDMDL
MODEL 2
REMARK VINA RESULT:    -3.850      2.003      3.990
REMARK INTER + INTRA:          -5.936
REMARK INTER:                  -5.754
REMARK INTRA:                  -0.183
REMARK UNBOUND:                -0.061
REMARK SMILES CC1=CCC[C@@H](C)C(=O)C[C@H](C(C)C)C(=O)C1
REMARK SMILES IDX 8 1 9 2 6 3 7 4 5 5 4 6 3 7 2 8 1 9 10 11 11 12 15 13 16 14
REMARK SMILES IDX 17 15 12 17 13 18 14 19
REMARK H PARENT
REMARK Flexibility Score: 70.00
ROOT
ATOM      1  C   UNL     1       7.158   1.842  -5.692  1.00  0.00     0.136 C 
ATOM      2  O   UNL     1       6.628   0.743  -5.766  1.00  0.00    -0.299 OA
ENDROOT
BRANCH   1   3
ATOM      3  C   UNL     1       8.605   1.965  -5.242  1.00  0.00     0.053 C 
ATOM      4  C   UNL     1       8.841   3.179  -4.330  1.00  0.00     0.016 C 
BRANCH   3   5
ATOM      5  C   UNL     1       9.604   1.923  -6.425  1.00  0.00     0.015 C 
BRANCH   5   6
ATOM      6  C   UNL     1       9.317   0.904  -7.549  1.00  0.00     0.028 C 
BRANCH   6   7
ATOM      7  C   UNL     1       9.335   1.456  -8.956  1.00  0.00    -0.028 C 
ATOM      8  C   UNL     1       8.254   1.808  -9.691  1.00  0.00    -0.070 CG0
ATOM      9  C   UNL     1       8.485   2.259 -11.112  1.00  0.00     0.039 C 
ATOM     10  G   UNL     1       6.833   1.753  -9.165  1.00  0.00     0.000 G0
ENDBRANCH   6   7
ENDBRANCH   5   6
ENDBRANCH   3   5
ENDBRANCH   1   3
BRANCH   1  11
ATOM     11  C   UNL     1       6.360   3.063  -6.085  1.00  0.00     0.087 C 
BRANCH  11  12
ATOM     12  C   UNL     1       6.911   3.735  -7.370  1.00  0.00     0.066 C 
BRANCH  12  13
ATOM     13  C   UNL     1       6.317   3.081  -8.611  1.00  0.00     0.140 C 
ATOM     14  O   UNL     1       5.428   3.654  -9.223  1.00  0.00    -0.299 OA
BRANCH  13  15
ATOM     15  C   UNL     1       6.824   1.768  -9.161  1.00  0.00     0.106 CG0
ATOM     16  G   UNL     1       8.246   1.837  -9.683  1.00  0.00     0.000 G0
ENDBRANCH  13  15
ENDBRANCH  12  13
BRANCH  12  17
ATOM     17  C   UNL     1       6.711   5.286  -7.399  1.00  0.00    -0.006 C 
ATOM     18  C   UNL     1       6.495   5.919  -6.010  1.00  0.00     0.008 C 
ATOM     19  C   UNL     1       7.877   5.988  -8.113  1.00  0.00     0.008 C 
ENDBRANCH  12  17
ENDBRANCH  11  12
ENDBRANCH   1  11
TORSDOF 1
ENDMDL
MODEL 3
REMARK VINA RESULT:    -3.692      1.718      2.113
REMARK INTER + INTRA:          -5.695
REMARK INTER:                  -5.626
REMARK INTRA:                  -0.069
REMARK UNBOUND:                -0.061
REMARK SMILES CC1=CCC[C@@H](C)C(=O)C[C@H](C(C)C)C(=O)C1
REMARK SMILES IDX 8 1 9 2 6 3 7 4 5 5 4 6 3 7 2 8 1 9 10 11 11 12 15 13 16 14
REMARK SMILES IDX 17 15 12 17 13 18 14 19
REMARK H PARENT
REMARK Flexibility Score: 70.00
ROOT
ATOM      1  C   UNL     1       7.702   3.662  -7.226  1.00  0.00     0.136 C 
ATOM      2  O   UNL     1       8.859   4.018  -7.401  1.00  0.00    -0.299 OA
ENDROOT
BRANCH   1   3
ATOM      3  C   UNL     1       6.977   4.024  -5.939  1.00  0.00     0.053 C 
ATOM      4  C   UNL     1       5.656   3.257  -5.767  1.00  0.00     0.016 C 
BRANCH   3   5
ATOM      5  C   UNL     1       6.789   5.552  -5.770  1.00  0.00     0.015 C 
BRANCH   5   6
ATOM      6  C   UNL     1       6.273   6.335  -6.997  1.00  0.00     0.028 C 
BRANCH   6   7
ATOM      7  C   UNL     1       7.324   7.074  -7.795  1.00  0.00    -0.028 C 
ATOM      8  C   UNL     1       7.500   7.012  -9.135  1.00  0.00    -0.070 CG0
ATOM      9  C   UNL     1       8.666   7.765  -9.727  1.00  0.00     0.039 C 
ATOM     10  G   UNL     1       6.601   6.215 -10.060  1.00  0.00     0.000 G0
ENDBRANCH   6   7
ENDBRANCH   5   6
ENDBRANCH   3   5
ENDBRANCH   1   3
BRANCH   1  11
ATOM     11  C   UNL     1       7.005   2.886  -8.319  1.00  0.00     0.087 C 
BRANCH  11  12
ATOM     12  C   UNL     1       6.054   3.780  -9.157  1.00  0.00     0.066 C 
BRANCH  12  13
ATOM     13  C   UNL     1       6.853   4.734 -10.036  1.00  0.00     0.140 C 
ATOM     14  O   UNL     1       7.705   4.283 -10.787  1.00  0.00    -0.299 OA
BRANCH  13  15
ATOM     15  C   UNL     1       6.596   6.223 -10.065  1.00  0.00     0.106 CG0
ATOM     16  G   UNL     1       7.498   7.012  -9.136  1.00  0.00     0.000 G0
ENDBRANCH  13  15
ENDBRANCH  12  13
BRANCH  12  17
ATOM     17  C   UNL     1       5.016   2.970 -10.000  1.00  0.00    -0.006 C 
ATOM     18  C   UNL     1       5.221   1.443  -9.952  1.00  0.00     0.008 C 
ATOM     19  C   UNL     1       3.573   3.312  -9.596  1.00  0.00     0.008 C 
ENDBRANCH  12  17
ENDBRANCH  11  12
ENDBRANCH   1  11
TORSDOF 1
ENDMDL
MODEL 4
REMARK VINA RESULT:    -3.560      1.976      4.475
REMARK INTER + INTRA:          -5.494
REMARK INTER:                  -5.132
REMARK INTRA:                  -0.362
REMARK UNBOUND:                -0.061
REMARK SMILES CC1=CCC[C@@H](C)C(=O)C[C@H](C(C)C)C(=O)C1
REMARK SMILES IDX 8 1 9 2 6 3 7 4 5 5 4 6 3 7 2 8 1 9 10 11 11 12 15 13 16 14
REMARK SMILES IDX 17 15 12 17 13 18 14 19
REMARK H PARENT
REMARK Flexibility Score: 70.00
ROOT
ATOM      1  C   UNL     1       7.405   4.223  -7.208  1.00  0.00     0.136 C 
ATOM      2  O   UNL     1       8.624   4.318  -7.180  1.00  0.00    -0.299 OA
ENDROOT
BRANCH   1   3
ATOM      3  C   UNL     1       6.729   2.929  -6.783  1.00  0.00     0.053 C 
ATOM      4  C   UNL     1       7.067   2.530  -5.337  1.00  0.00     0.016 C 
BRANCH   3   5
ATOM      5  C   UNL     1       6.980   1.770  -7.779  1.00  0.00     0.015 C 
BRANCH   5   6
ATOM      6  C   UNL     1       6.702   2.055  -9.272  1.00  0.00     0.028 C 
BRANCH   6   7
ATOM      7  C   UNL     1       5.255   2.291  -9.638  1.00  0.00    -0.028 C 
ATOM      8  C   UNL     1       4.767   3.348 -10.327  1.00  0.00    -0.070 CG0
ATOM      9  C   UNL     1       3.272   3.436 -10.514  1.00  0.00     0.039 C 
ATOM     10  G   UNL     1       5.640   4.448 -10.898  1.00  0.00     0.000 G0
ENDBRANCH   6   7
ENDBRANCH   5   6
ENDBRANCH   3   5
ENDBRANCH   1   3
BRANCH   1  11
ATOM     11  C   UNL     1       6.591   5.420  -7.641  1.00  0.00     0.087 C 
BRANCH  11  12
ATOM     12  C   UNL     1       6.955   5.888  -9.074  1.00  0.00     0.066 C 
BRANCH  12  13
ATOM     13  C   UNL     1       5.777   5.680 -10.019  1.00  0.00     0.140 C 
ATOM     14  O   UNL     1       4.920   6.546 -10.106  1.00  0.00    -0.299 OA
BRANCH  13  15
ATOM     15  C   UNL     1       5.650   4.463 -10.907  1.00  0.00     0.106 CG0
ATOM     16  G   UNL     1       4.768   3.376 -10.325  1.00  0.00     0.000 G0
ENDBRANCH  13  15
ENDBRANCH  12  13
BRANCH  12  17
ATOM     17  C   UNL     1       7.475   7.360  -9.138  1.00  0.00    -0.006 C 
ATOM     18  C   UNL     1       7.204   8.180  -7.861  1.00  0.00     0.008 C 
ATOM     19  C   UNL     1       8.974   7.412  -9.477  1.00  0.00     0.008 C 
ENDBRANCH  12  17
ENDBRANCH  11  12
ENDBRANCH   1  11
TORSDOF 1
ENDMDL
MODEL 5
REMARK VINA RESULT:    -3.545      2.324      5.266
REMARK INTER + INTRA:          -5.471
REMARK INTER:                  -5.330
REMARK INTRA:                  -0.141
REMARK UNBOUND:                -0.061
REMARK SMILES CC1=CCC[C@@H](C)C(=O)C[C@H](C(C)C)C(=O)C1
REMARK SMILES IDX 8 1 9 2 6 3 7 4 5 5 4 6 3 7 2 8 1 9 10 11 11 12 15 13 16 14
REMARK SMILES IDX 17 15 12 17 13 18 14 19
REMARK H PARENT
REMARK Flexibility Score: 70.00
ROOT
ATOM      1  C   UNL     1       6.184   4.186 -10.227  1.00  0.00     0.136 C 
ATOM      2  O   UNL     1       7.102   4.271 -11.031  1.00  0.00    -0.299 OA
ENDROOT
BRANCH   1   3
ATOM      3  C   UNL     1       4.912   3.439 -10.596  1.00  0.00     0.053 C 
ATOM      4  C   UNL     1       3.873   3.442  -9.463  1.00  0.00     0.016 C 
BRANCH   3   5
ATOM      5  C   UNL     1       5.191   2.010 -11.125  1.00  0.00     0.015 C 
BRANCH   5   6
ATOM      6  C   UNL     1       5.964   1.054 -10.189  1.00  0.00     0.028 C 
BRANCH   6   7
ATOM      7  C   UNL     1       7.442   0.914 -10.468  1.00  0.00    -0.028 C 
ATOM      8  C   UNL     1       8.448   1.179  -9.602  1.00  0.00    -0.070 CG0
ATOM      9  C   UNL     1       9.864   1.055 -10.109  1.00  0.00     0.039 C 
ATOM     10  G   UNL     1       8.222   1.610  -8.166  1.00  0.00     0.000 G0
ENDBRANCH   6   7
ENDBRANCH   5   6
ENDBRANCH   3   5
ENDBRANCH   1   3
BRANCH   1  11
ATOM     11  C   UNL     1       6.352   4.808  -8.861  1.00  0.00     0.087 C 
BRANCH  11  12
ATOM     12  C   UNL     1       6.678   3.753  -7.772  1.00  0.00     0.066 C 
BRANCH  12  13
ATOM     13  C   UNL     1       8.041   3.122  -8.031  1.00  0.00     0.140 C 
ATOM     14  O   UNL     1       9.032   3.835  -8.075  1.00  0.00    -0.299 OA
BRANCH  13  15
ATOM     15  C   UNL     1       8.233   1.630  -8.179  1.00  0.00     0.106 CG0
ATOM     16  G   UNL     1       8.444   1.185  -9.613  1.00  0.00     0.000 G0
ENDBRANCH  13  15
ENDBRANCH  12  13
BRANCH  12  17
ATOM     17  C   UNL     1       6.581   4.308  -6.314  1.00  0.00    -0.006 C 
ATOM     18  C   UNL     1       6.417   5.838  -6.233  1.00  0.00     0.008 C 
ATOM     19  C   UNL     1       5.452   3.624  -5.527  1.00  0.00     0.008 C 
ENDBRANCH  12  17
ENDBRANCH  11  12
ENDBRANCH   1  11
TORSDOF 1
ENDMDL
MODEL 6
REMARK VINA RESULT:    -3.524      2.063      3.898
REMARK INTER + INTRA:          -5.439
REMARK INTER:                  -5.150
REMARK INTRA:                  -0.289
REMARK UNBOUND:                -0.061
REMARK SMILES CC1=CCC[C@@H](C)C(=O)C[C@H](C(C)C)C(=O)C1
REMARK SMILES IDX 8 1 9 2 6 3 7 4 5 5 4 6 3 7 2 8 1 9 10 11 11 12 15 13 16 14
REMARK SMILES IDX 17 15 12 17 13 18 14 19
REMARK H PARENT
REMARK Flexibility Score: 70.00
ROOT
ATOM      1  C   UNL     1       5.361   2.497  -9.582  1.00  0.00     0.136 C 
ATOM      2  O   UNL     1       5.003   1.509 -10.208  1.00  0.00    -0.299 OA
ENDROOT
BRANCH   1   3
ATOM      3  C   UNL     1       4.621   3.815  -9.744  1.00  0.00     0.053 C 
ATOM      4  C   UNL     1       3.103   3.628  -9.898  1.00  0.00     0.016 C 
BRANCH   3   5
ATOM      5  C   UNL     1       5.215   4.699 -10.869  1.00  0.00     0.015 C 
BRANCH   5   6
ATOM      6  C   UNL     1       5.918   6.004 -10.438  1.00  0.00     0.028 C 
BRANCH   6   7
ATOM      7  C   UNL     1       5.827   6.346  -8.968  1.00  0.00    -0.028 C 
ATOM      8  C   UNL     1       6.798   6.163  -8.043  1.00  0.00    -0.070 CG0
ATOM      9  C   UNL     1       6.473   6.492  -6.607  1.00  0.00     0.039 C 
ATOM     10  G   UNL     1       8.178   5.628  -8.375  1.00  0.00     0.000 G0
ENDBRANCH   6   7
ENDBRANCH   5   6
ENDBRANCH   3   5
ENDBRANCH   1   3
BRANCH   1  11
ATOM     11  C   UNL     1       6.527   2.372  -8.630  1.00  0.00     0.087 C 
BRANCH  11  12
ATOM     12  C   UNL     1       7.794   3.094  -9.156  1.00  0.00     0.066 C 
BRANCH  12  13
ATOM     13  C   UNL     1       8.288   4.117  -8.141  1.00  0.00     0.140 C 
ATOM     14  O   UNL     1       8.837   3.730  -7.120  1.00  0.00    -0.299 OA
BRANCH  13  15
ATOM     15  C   UNL     1       8.180   5.607  -8.367  1.00  0.00     0.106 CG0
ATOM     16  G   UNL     1       6.808   6.171  -8.055  1.00  0.00     0.000 G0
ENDBRANCH  13  15
ENDBRANCH  12  13
BRANCH  12  17
ATOM     17  C   UNL     1       8.941   2.118  -9.576  1.00  0.00    -0.006 C 
ATOM     18  C   UNL     1       8.462   0.892 -10.379  1.00  0.00     0.008 C 
ATOM     19  C   UNL     1      10.043   2.850 -10.359  1.00  0.00     0.008 C 
ENDBRANCH  12  17
ENDBRANCH  11  12
ENDBRANCH   1  11
TORSDOF 1
ENDMDL
MODEL 7
REMARK VINA RESULT:    -3.423      1.935      4.066
REMARK INTER + INTRA:          -5.285
REMARK INTER:                  -4.951
REMARK INTRA:                  -0.334
REMARK UNBOUND:                -0.061
REMARK SMILES CC1=CCC[C@@H](C)C(=O)C[C@H](C(C)C)C(=O)C1
REMARK SMILES IDX 8 1 9 2 6 3 7 4 5 5 4 6 3 7 2 8 1 9 10 11 11 12 15 13 16 14
REMARK SMILES IDX 17 15 12 17 13 18 14 19
REMARK H PARENT
REMARK Flexibility Score: 70.00
ROOT
ATOM      1  C   UNL     1       6.965   1.805  -8.205  1.00  0.00     0.136 C 
ATOM      2  O   UNL     1       7.321   1.053  -7.308  1.00  0.00    -0.299 OA
ENDROOT
BRANCH   1   3
ATOM      3  C   UNL     1       7.289   1.476  -9.653  1.00  0.00     0.053 C 
ATOM      4  C   UNL     1       6.728   0.114 -10.092  1.00  0.00     0.016 C 
BRANCH   3   5
ATOM      5  C   UNL     1       8.799   1.613  -9.973  1.00  0.00     0.015 C 
BRANCH   5   6
ATOM      6  C   UNL     1       9.401   3.034  -9.920  1.00  0.00     0.028 C 
BRANCH   6   7
ATOM      7  C   UNL     1       8.615   4.108 -10.634  1.00  0.00    -0.028 C 
ATOM      8  C   UNL     1       8.137   5.249 -10.084  1.00  0.00    -0.070 CG0
ATOM      9  C   UNL     1       7.300   6.153 -10.955  1.00  0.00     0.039 C 
ATOM     10  G   UNL     1       8.384   5.648  -8.642  1.00  0.00     0.000 G0
ENDBRANCH   6   7
ENDBRANCH   5   6
ENDBRANCH   3   5
ENDBRANCH   1   3
BRANCH   1  11
ATOM     11  C   UNL     1       6.177   3.043  -7.846  1.00  0.00     0.087 C 
BRANCH  11  12
ATOM     12  C   UNL     1       7.008   4.043  -7.000  1.00  0.00     0.066 C 
BRANCH  12  13
ATOM     13  C   UNL     1       7.182   5.359  -7.748  1.00  0.00     0.140 C 
ATOM     14  O   UNL     1       6.357   6.248  -7.595  1.00  0.00    -0.299 OA
BRANCH  13  15
ATOM     15  C   UNL     1       8.374   5.642  -8.633  1.00  0.00     0.106 CG0
ATOM     16  G   UNL     1       8.156   5.259 -10.084  1.00  0.00     0.000 G0
ENDBRANCH  13  15
ENDBRANCH  12  13
BRANCH  12  17
ATOM     17  C   UNL     1       6.430   4.280  -5.567  1.00  0.00    -0.006 C 
ATOM     18  C   UNL     1       5.113   3.530  -5.287  1.00  0.00     0.008 C 
ATOM     19  C   UNL     1       7.463   3.936  -4.481  1.00  0.00     0.008 C 
ENDBRANCH  12  17
ENDBRANCH  11  12
ENDBRANCH   1  11
TORSDOF 1
ENDMDL
MODEL 8
REMARK VINA RESULT:    -3.413      2.303      4.096
REMARK INTER + INTRA:          -5.269
REMARK INTER:                  -5.163
REMARK INTRA:                  -0.106
REMARK UNBOUND:                -0.061
REMARK SMILES CC1=CCC[C@@H](C)C(=O)C[C@H](C(C)C)C(=O)C1
REMARK SMILES IDX 8 1 9 2 6 3 7 4 5 5 4 6 3 7 2 8 1 9 10 11 11 12 15 13 16 14
REMARK SMILES IDX 17 15 12 17 13 18 14 19
REMARK H PARENT
REMARK Flexibility Score: 70.00
ROOT
ATOM      1  C   UNL     1       6.698   5.122  -6.112  1.00  0.00     0.136 C 
ATOM      2  O   UNL     1       7.088   6.223  -5.750  1.00  0.00    -0.299 OA
ENDROOT
BRANCH   1   3
ATOM      3  C   UNL     1       6.535   3.997  -5.101  1.00  0.00     0.053 C 
ATOM      4  C   UNL     1       7.644   3.991  -4.037  1.00  0.00     0.016 C 
BRANCH   3   5
ATOM      5  C   UNL     1       6.367   2.612  -5.773  1.00  0.00     0.015 C 
BRANCH   5   6
ATOM      6  C   UNL     1       7.655   1.890  -6.225  1.00  0.00     0.028 C 
BRANCH   6   7
ATOM      7  C   UNL     1       7.634   1.325  -7.627  1.00  0.00    -0.028 C 
ATOM      8  C   UNL     1       8.127   1.921  -8.737  1.00  0.00    -0.070 CG0
ATOM      9  C   UNL     1       7.928   1.221 -10.059  1.00  0.00     0.039 C 
ATOM     10  G   UNL     1       8.844   3.257  -8.719  1.00  0.00     0.000 G0
ENDBRANCH   6   7
ENDBRANCH   5   6
ENDBRANCH   3   5
ENDBRANCH   1   3
BRANCH   1  11
ATOM     11  C   UNL     1       6.356   4.913  -7.569  1.00  0.00     0.087 C 
BRANCH  11  12
ATOM     12  C   UNL     1       7.438   5.499  -8.514  1.00  0.00     0.066 C 
BRANCH  12  13
ATOM     13  C   UNL     1       8.073   4.393  -9.348  1.00  0.00     0.140 C 
ATOM     14  O   UNL     1       7.994   4.441 -10.566  1.00  0.00    -0.299 OA
BRANCH  13  15
ATOM     15  C   UNL     1       8.858   3.257  -8.733  1.00  0.00     0.106 CG0
ATOM     16  G   UNL     1       8.122   1.931  -8.752  1.00  0.00     0.000 G0
ENDBRANCH  13  15
ENDBRANCH  12  13
BRANCH  12  17
ATOM     17  C   UNL     1       6.914   6.659  -9.421  1.00  0.00    -0.006 C 
ATOM     18  C   UNL     1       5.396   6.618  -9.682  1.00  0.00     0.008 C 
ATOM     19  C   UNL     1       7.305   8.034  -8.855  1.00  0.00     0.008 C 
ENDBRANCH  12  17
ENDBRANCH  11  12
ENDBRANCH   1  11
TORSDOF 1
ENDMDL
MODEL 9
REMARK VINA RESULT:    -3.316      2.183      4.459
REMARK INTER + INTRA:          -5.122
REMARK INTER:                  -4.860
REMARK INTRA:                  -0.261
REMARK UNBOUND:                -0.061
REMARK SMILES CC1=CCC[C@@H](C)C(=O)C[C@H](C(C)C)C(=O)C1
REMARK SMILES IDX 8 1 9 2 6 3 7 4 5 5 4 6 3 7 2 8 1 9 10 11 11 12 15 13 16 14
REMARK SMILES IDX 17 15 12 17 13 18 14 19
REMARK H PARENT
REMARK Flexibility Score: 70.00
ROOT
ATOM      1  C   UNL     1       7.974   2.952  -6.697  1.00  0.00     0.136 C 
ATOM      2  O   UNL     1       8.499   3.628  -5.823  1.00  0.00    -0.299 OA
ENDROOT
BRANCH   1   3
ATOM      3  C   UNL     1       8.656   1.691  -7.203  1.00  0.00     0.053 C 
ATOM      4  C   UNL     1       9.354   0.904  -6.083  1.00  0.00     0.016 C 
BRANCH   3   5
ATOM      5  C   UNL     1       9.603   1.964  -8.399  1.00  0.00     0.015 C 
BRANCH   5   6
ATOM      6  C   UNL     1       9.068   1.627  -9.808  1.00  0.00     0.028 C 
BRANCH   6   7
ATOM      7  C   UNL     1       7.835   0.754  -9.852  1.00  0.00    -0.028 C 
ATOM      8  C   UNL     1       6.593   1.142 -10.223  1.00  0.00    -0.070 CG0
ATOM      9  C   UNL     1       5.478   0.131 -10.114  1.00  0.00     0.039 C 
ATOM     10  G   UNL     1       6.267   2.537 -10.719  1.00  0.00     0.000 G0
ENDBRANCH   6   7
ENDBRANCH   5   6
ENDBRANCH   3   5
ENDBRANCH   1   3
BRANCH   1  11
ATOM     11  C   UNL     1       6.628   3.378  -7.236  1.00  0.00     0.087 C 
BRANCH  11  12
ATOM     12  C   UNL     1       6.746   4.100  -8.603  1.00  0.00     0.066 C 
BRANCH  12  13
ATOM     13  C   UNL     1       5.793   3.482  -9.619  1.00  0.00     0.140 C 
ATOM     14  O   UNL     1       4.610   3.786  -9.591  1.00  0.00    -0.299 OA
BRANCH  13  15
ATOM     15  C   UNL     1       6.260   2.544 -10.708  1.00  0.00     0.106 CG0
ATOM     16  G   UNL     1       6.582   1.148 -10.210  1.00  0.00     0.000 G0
ENDBRANCH  13  15
ENDBRANCH  12  13
BRANCH  12  17
ATOM     17  C   UNL     1       6.547   5.648  -8.512  1.00  0.00    -0.006 C 
ATOM     18  C   UNL     1       6.604   6.207  -7.077  1.00  0.00     0.008 C 
ATOM     19  C   UNL     1       7.554   6.397  -9.399  1.00  0.00     0.008 C 
ENDBRANCH  12  17
ENDBRANCH  11  12
ENDBRANCH   1  11
TORSDOF 1
ENDMDL
