MODEL 1
REMARK VINA RESULT:    -5.396      0.000      0.000
REMARK INTER + INTRA:          -9.535
REMARK INTER:                  -7.919
REMARK INTRA:                  -1.616
REMARK UNBOUND:                -1.616
REMARK SMILES Cc1cc2c(C(C)C)c(O)c(O)c(C=O)c2c(O)c1-c1c(C)cc2c(C(C)C)c(O)c(O)c(C=O)c2c1O
REMARK SMILES IDX 1 1 2 2 3 3 4 4 16 5 13 6 11 7 9 8 5 9 17 10 19 11 20 12
REMARK SMILES IDX 37 13 21 14 36 15 23 16 22 17 24 18 33 19 25 20 31 21 29 22
REMARK SMILES IDX 38 23 34 25 35 26 26 27 27 28 28 29 32 30 30 32 18 34 6 36
REMARK SMILES IDX 7 37 8 38 14 39 15 40 10 41 12 43
REMARK H PARENT 38 24 32 31 30 33 18 35 10 42 12 44
REMARK Flexibility Score: inf
ROOT
ATOM      1  C   UNL     1      68.429  28.470  61.660  1.00  0.00     0.045 C 
ATOM      2  C   UNL     1      68.686  28.877  60.229  1.00  0.00    -0.039 A 
ATOM      3  C   UNL     1      69.955  29.331  59.864  1.00  0.00     0.013 A 
ATOM      4  C   UNL     1      70.267  29.708  58.542  1.00  0.00    -0.006 A 
ATOM      5  C   UNL     1      69.274  29.519  57.531  1.00  0.00     0.039 A 
ATOM      6  C   UNL     1      69.624  29.745  56.167  1.00  0.00     0.072 A 
ATOM      7  C   UNL     1      70.897  30.247  55.842  1.00  0.00     0.169 A 
ATOM      8  C   UNL     1      71.838  30.506  56.843  1.00  0.00     0.162 A 
ATOM      9  C   UNL     1      71.544  30.264  58.204  1.00  0.00     0.008 A 
ATOM     10  C   UNL     1      67.955  29.132  57.919  1.00  0.00     0.132 A 
ATOM     11  C   UNL     1      67.675  28.794  59.259  1.00  0.00     0.031 A 
ENDROOT
BRANCH  11  12
ATOM     12  C   UNL     1      66.309  28.359  59.651  1.00  0.00     0.031 A 
ATOM     13  C   UNL     1      65.333  29.314  60.010  1.00  0.00     0.132 A 
ATOM     14  C   UNL     1      65.983  26.993  59.635  1.00  0.00    -0.039 A 
ATOM     15  C   UNL     1      64.032  28.899  60.429  1.00  0.00     0.039 A 
ATOM     16  C   UNL     1      64.701  26.586  60.008  1.00  0.00     0.013 A 
ATOM     17  C   UNL     1      67.003  25.954  59.234  1.00  0.00     0.045 C 
ATOM     18  C   UNL     1      63.718  27.506  60.435  1.00  0.00    -0.006 A 
ATOM     19  C   UNL     1      63.018  29.832  60.796  1.00  0.00     0.072 A 
ATOM     20  C   UNL     1      62.415  27.065  60.823  1.00  0.00     0.008 A 
ATOM     21  C   UNL     1      61.700  29.392  61.012  1.00  0.00     0.169 A 
ATOM     22  C   UNL     1      61.387  28.023  60.947  1.00  0.00     0.162 A 
BRANCH  13  23
ATOM     23  O   UNL     1      65.647  30.676  59.920  1.00  0.00    -0.507 OA
ATOM     24  H   UNL     1      65.006  31.382  59.588  1.00  0.00     0.293 HD
ENDBRANCH  13  23
BRANCH  19  25
ATOM     25  C   UNL     1      63.307  31.266  61.032  1.00  0.00     0.264 C 
ATOM     26  O   UNL     1      62.947  32.143  60.202  1.00  0.00    -0.298 OA
ENDBRANCH  19  25
BRANCH  20  27
ATOM     27  C   UNL     1      62.101  25.576  61.053  1.00  0.00     0.017 C 
ATOM     28  C   UNL     1      61.219  25.021  59.928  1.00  0.00     0.012 C 
ATOM     29  C   UNL     1      61.499  25.270  62.437  1.00  0.00     0.012 C 
ENDBRANCH  20  27
BRANCH  21  30
ATOM     30  O   UNL     1      60.721  30.338  61.341  1.00  0.00    -0.504 OA
ATOM     31  H   UNL     1      59.816  30.106  61.726  1.00  0.00     0.293 HD
ENDBRANCH  21  30
BRANCH  22  32
ATOM     32  O   UNL     1      60.058  27.595  60.989  1.00  0.00    -0.504 OA
ATOM     33  H   UNL     1      59.410  27.829  61.728  1.00  0.00     0.293 HD
ENDBRANCH  22  32
ENDBRANCH  11  12
BRANCH  10  34
ATOM     34  O   UNL     1      66.917  29.120  56.981  1.00  0.00    -0.507 OA
ATOM     35  H   UNL     1      66.456  29.954  56.638  1.00  0.00     0.293 HD
ENDBRANCH  10  34
BRANCH   9  36
ATOM     36  C   UNL     1      72.628  30.623  59.241  1.00  0.00     0.017 C 
ATOM     37  C   UNL     1      73.123  29.391  60.012  1.00  0.00     0.012 C 
ATOM     38  C   UNL     1      72.258  31.806  60.161  1.00  0.00     0.012 C 
ENDBRANCH   9  36
BRANCH   6  39
ATOM     39  C   UNL     1      68.724  29.390  55.051  1.00  0.00     0.264 C 
ATOM     40  O   UNL     1      68.141  30.291  54.390  1.00  0.00    -0.298 OA
ENDBRANCH   6  39
BRANCH   8  41
ATOM     41  O   UNL     1      73.098  30.996  56.480  1.00  0.00    -0.504 OA
ATOM     42  H   UNL     1      73.343  31.980  56.515  1.00  0.00     0.293 HD
ENDBRANCH   8  41
BRANCH   7  43
ATOM     43  O   UNL     1      71.271  30.484  54.512  1.00  0.00    -0.504 OA
ATOM     44  H   UNL     1      71.639  29.776  53.891  1.00  0.00     0.293 HD
ENDBRANCH   7  43
TORSDOF 11
ENDMDL
MODEL 2
REMARK VINA RESULT:    -5.229      9.513     14.035
REMARK INTER + INTRA:          -9.290
REMARK INTER:                  -7.883
REMARK INTRA:                  -1.407
REMARK UNBOUND:                -1.616
REMARK SMILES Cc1cc2c(C(C)C)c(O)c(O)c(C=O)c2c(O)c1-c1c(C)cc2c(C(C)C)c(O)c(O)c(C=O)c2c1O
REMARK SMILES IDX 1 1 2 2 3 3 4 4 16 5 13 6 11 7 9 8 5 9 17 10 19 11 20 12
REMARK SMILES IDX 37 13 21 14 36 15 23 16 22 17 24 18 33 19 25 20 31 21 29 22
REMARK SMILES IDX 38 23 34 25 35 26 26 27 27 28 28 29 32 30 30 32 18 34 6 36
REMARK SMILES IDX 7 37 8 38 14 39 15 40 10 41 12 43
REMARK H PARENT 38 24 32 31 30 33 18 35 10 42 12 44
REMARK Flexibility Score: inf
ROOT
ATOM      1  C   UNL     1      61.400  21.856  48.617  1.00  0.00     0.045 C 
ATOM      2  C   UNL     1      60.921  21.674  50.038  1.00  0.00    -0.039 A 
ATOM      3  C   UNL     1      60.338  20.463  50.414  1.00  0.00     0.013 A 
ATOM      4  C   UNL     1      59.888  20.220  51.727  1.00  0.00    -0.006 A 
ATOM      5  C   UNL     1      60.134  21.217  52.722  1.00  0.00     0.039 A 
ATOM      6  C   UNL     1      59.829  20.925  54.085  1.00  0.00     0.072 A 
ATOM      7  C   UNL     1      59.199  19.712  54.419  1.00  0.00     0.169 A 
ATOM      8  C   UNL     1      58.888  18.774  53.430  1.00  0.00     0.162 A 
ATOM      9  C   UNL     1      59.204  19.010  52.073  1.00  0.00     0.008 A 
ATOM     10  C   UNL     1      60.656  22.484  52.320  1.00  0.00     0.132 A 
ATOM     11  C   UNL     1      61.065  22.697  50.988  1.00  0.00     0.031 A 
ENDROOT
BRANCH  11  12
ATOM     12  C   UNL     1      61.640  24.007  50.582  1.00  0.00     0.031 A 
ATOM     13  C   UNL     1      60.792  25.105  50.318  1.00  0.00     0.132 A 
ATOM     14  C   UNL     1      63.033  24.156  50.489  1.00  0.00    -0.039 A 
ATOM     15  C   UNL     1      61.336  26.354  49.887  1.00  0.00     0.039 A 
ATOM     16  C   UNL     1      63.570  25.385  50.103  1.00  0.00     0.013 A 
ATOM     17  C   UNL     1      63.960  23.002  50.787  1.00  0.00     0.045 C 
ATOM     18  C   UNL     1      62.754  26.488  49.770  1.00  0.00    -0.006 A 
ATOM     19  C   UNL     1      60.515  27.486  49.613  1.00  0.00     0.072 A 
ATOM     20  C   UNL     1      63.326  27.734  49.366  1.00  0.00     0.008 A 
ATOM     21  C   UNL     1      61.103  28.743  49.382  1.00  0.00     0.169 A 
ATOM     22  C   UNL     1      62.502  28.877  49.337  1.00  0.00     0.162 A 
BRANCH  13  23
ATOM     23  O   UNL     1      59.413  24.964  50.516  1.00  0.00    -0.507 OA
ATOM     24  H   UNL     1      58.972  24.108  50.823  1.00  0.00     0.293 HD
ENDBRANCH  13  23
BRANCH  19  25
ATOM     25  C   UNL     1      59.041  27.389  49.493  1.00  0.00     0.264 C 
ATOM     26  O   UNL     1      58.288  27.847  50.392  1.00  0.00    -0.298 OA
ENDBRANCH  19  25
BRANCH  20  27
ATOM     27  C   UNL     1      64.820  27.862  49.018  1.00  0.00     0.017 C 
ATOM     28  C   UNL     1      65.576  28.615  50.118  1.00  0.00     0.012 C 
ATOM     29  C   UNL     1      65.089  28.478  47.632  1.00  0.00     0.012 C 
ENDBRANCH  20  27
BRANCH  21  30
ATOM     30  O   UNL     1      60.268  29.842  49.148  1.00  0.00    -0.504 OA
ATOM     31  H   UNL     1      60.601  30.774  48.941  1.00  0.00     0.293 HD
ENDBRANCH  21  30
BRANCH  22  32
ATOM     32  O   UNL     1      63.092  30.143  49.281  1.00  0.00    -0.504 OA
ATOM     33  H   UNL     1      63.936  30.396  49.776  1.00  0.00     0.293 HD
ENDBRANCH  22  32
ENDBRANCH  11  12
BRANCH  10  34
ATOM     34  O   UNL     1      60.732  23.540  53.235  1.00  0.00    -0.507 OA
ATOM     35  H   UNL     1      60.142  24.362  53.200  1.00  0.00     0.293 HD
ENDBRANCH  10  34
BRANCH   9  36
ATOM     36  C   UNL     1      58.781  17.938  51.047  1.00  0.00     0.017 C 
ATOM     37  C   UNL     1      59.981  17.365  50.279  1.00  0.00     0.012 C 
ATOM     38  C   UNL     1      57.618  18.365  50.126  1.00  0.00     0.012 C 
ENDBRANCH   9  36
BRANCH   6  39
ATOM     39  C   UNL     1      60.228  21.815  55.193  1.00  0.00     0.264 C 
ATOM     40  O   UNL     1      59.368  22.526  55.781  1.00  0.00    -0.298 OA
ENDBRANCH   6  39
BRANCH   8  41
ATOM     41  O   UNL     1      58.270  17.575  53.803  1.00  0.00    -0.504 OA
ATOM     42  H   UNL     1      58.259  17.228  54.756  1.00  0.00     0.293 HD
ENDBRANCH   8  41
BRANCH   7  43
ATOM     43  O   UNL     1      58.882  19.396  55.748  1.00  0.00    -0.504 OA
ATOM     44  H   UNL     1      58.374  18.569  56.028  1.00  0.00     0.293 HD
ENDBRANCH   7  43
TORSDOF 11
ENDMDL
MODEL 3
REMARK VINA RESULT:    -5.146      0.555      8.949
REMARK INTER + INTRA:          -9.168
REMARK INTER:                  -7.607
REMARK INTRA:                  -1.562
REMARK UNBOUND:                -1.616
REMARK SMILES Cc1cc2c(C(C)C)c(O)c(O)c(C=O)c2c(O)c1-c1c(C)cc2c(C(C)C)c(O)c(O)c(C=O)c2c1O
REMARK SMILES IDX 1 1 2 2 3 3 4 4 16 5 13 6 11 7 9 8 5 9 17 10 19 11 20 12
REMARK SMILES IDX 37 13 21 14 36 15 23 16 22 17 24 18 33 19 25 20 31 21 29 22
REMARK SMILES IDX 38 23 34 25 35 26 26 27 27 28 28 29 32 30 30 32 18 34 6 36
REMARK SMILES IDX 7 37 8 38 14 39 15 40 10 41 12 43
REMARK H PARENT 38 24 32 31 30 33 18 35 10 42 12 44
REMARK Flexibility Score: inf
ROOT
ATOM      1  C   UNL     1      67.326  25.777  59.242  1.00  0.00     0.045 C 
ATOM      2  C   UNL     1      66.259  26.794  59.570  1.00  0.00    -0.039 A 
ATOM      3  C   UNL     1      64.981  26.356  59.922  1.00  0.00     0.013 A 
ATOM      4  C   UNL     1      63.946  27.251  60.259  1.00  0.00    -0.006 A 
ATOM      5  C   UNL     1      64.254  28.645  60.338  1.00  0.00     0.039 A 
ATOM      6  C   UNL     1      63.263  29.546  60.829  1.00  0.00     0.072 A 
ATOM      7  C   UNL     1      61.972  29.075  61.130  1.00  0.00     0.169 A 
ATOM      8  C   UNL     1      61.653  27.723  60.975  1.00  0.00     0.162 A 
ATOM      9  C   UNL     1      62.615  26.790  60.523  1.00  0.00     0.008 A 
ATOM     10  C   UNL     1      65.536  29.097  59.900  1.00  0.00     0.132 A 
ATOM     11  C   UNL     1      66.535  28.170  59.540  1.00  0.00     0.031 A 
ENDROOT
BRANCH  11  12
ATOM     12  C   UNL     1      67.879  28.645  59.118  1.00  0.00     0.031 A 
ATOM     13  C   UNL     1      68.130  28.959  57.764  1.00  0.00     0.132 A 
ATOM     14  C   UNL     1      68.892  28.807  60.076  1.00  0.00    -0.039 A 
ATOM     15  C   UNL     1      69.431  29.375  57.345  1.00  0.00     0.039 A 
ATOM     16  C   UNL     1      70.154  29.248  59.677  1.00  0.00     0.013 A 
ATOM     17  C   UNL     1      68.641  28.497  61.533  1.00  0.00     0.045 C 
ATOM     18  C   UNL     1      70.462  29.512  58.324  1.00  0.00    -0.006 A 
ATOM     19  C   UNL     1      69.724  29.704  55.990  1.00  0.00     0.072 A 
ATOM     20  C   UNL     1      71.766  29.952  57.937  1.00  0.00     0.008 A 
ATOM     21  C   UNL     1      70.958  30.293  55.659  1.00  0.00     0.169 A 
ATOM     22  C   UNL     1      71.941  30.487  56.644  1.00  0.00     0.162 A 
BRANCH  13  23
ATOM     23  O   UNL     1      67.078  28.889  56.842  1.00  0.00    -0.507 OA
ATOM     24  H   UNL     1      67.052  29.408  55.976  1.00  0.00     0.293 HD
ENDBRANCH  13  23
BRANCH  19  25
ATOM     25  C   UNL     1      68.797  29.389  54.878  1.00  0.00     0.264 C 
ATOM     26  O   UNL     1      68.121  30.295  54.323  1.00  0.00    -0.298 OA
ENDBRANCH  19  25
BRANCH  20  27
ATOM     27  C   UNL     1      72.957  29.905  58.911  1.00  0.00     0.017 C 
ATOM     28  C   UNL     1      73.123  28.503  59.508  1.00  0.00     0.012 C 
ATOM     29  C   UNL     1      72.906  30.979  60.014  1.00  0.00     0.012 C 
ENDBRANCH  20  27
BRANCH  21  30
ATOM     30  O   UNL     1      71.202  30.634  54.322  1.00  0.00    -0.504 OA
ATOM     31  H   UNL     1      72.093  30.510  53.860  1.00  0.00     0.293 HD
ENDBRANCH  21  30
BRANCH  22  32
ATOM     32  O   UNL     1      73.095  31.223  56.362  1.00  0.00    -0.504 OA
ATOM     33  H   UNL     1      73.994  31.054  56.790  1.00  0.00     0.293 HD
ENDBRANCH  22  32
ENDBRANCH  11  12
BRANCH  10  34
ATOM     34  O   UNL     1      65.802  30.466  59.787  1.00  0.00    -0.507 OA
ATOM     35  H   UNL     1      66.617  30.918  60.184  1.00  0.00     0.293 HD
ENDBRANCH  10  34
BRANCH   9  36
ATOM     36  C   UNL     1      62.157  25.328  60.340  1.00  0.00     0.017 C 
ATOM     37  C   UNL     1      62.748  24.399  61.409  1.00  0.00     0.012 C 
ATOM     38  C   UNL     1      62.326  24.787  58.904  1.00  0.00     0.012 C 
ENDBRANCH   9  36
BRANCH   6  39
ATOM     39  C   UNL     1      63.559  30.962  61.124  1.00  0.00     0.264 C 
ATOM     40  O   UNL     1      63.107  31.877  60.382  1.00  0.00    -0.298 OA
ENDBRANCH   6  39
BRANCH   8  41
ATOM     41  O   UNL     1      60.360  27.290  61.294  1.00  0.00    -0.504 OA
ATOM     42  H   UNL     1      60.025  26.352  61.102  1.00  0.00     0.293 HD
ENDBRANCH   8  41
BRANCH   7  43
ATOM     43  O   UNL     1      60.975  29.934  61.611  1.00  0.00    -0.504 OA
ATOM     44  H   UNL     1      61.140  30.888  61.902  1.00  0.00     0.293 HD
ENDBRANCH   7  43
TORSDOF 11
ENDMDL
MODEL 4
REMARK VINA RESULT:    -5.117      9.325     10.797
REMARK INTER + INTRA:          -9.126
REMARK INTER:                  -7.887
REMARK INTRA:                  -1.239
REMARK UNBOUND:                -1.616
REMARK SMILES Cc1cc2c(C(C)C)c(O)c(O)c(C=O)c2c(O)c1-c1c(C)cc2c(C(C)C)c(O)c(O)c(C=O)c2c1O
REMARK SMILES IDX 1 1 2 2 3 3 4 4 16 5 13 6 11 7 9 8 5 9 17 10 19 11 20 12
REMARK SMILES IDX 37 13 21 14 36 15 23 16 22 17 24 18 33 19 25 20 31 21 29 22
REMARK SMILES IDX 38 23 34 25 35 26 26 27 27 28 28 29 32 30 30 32 18 34 6 36
REMARK SMILES IDX 7 37 8 38 14 39 15 40 10 41 12 43
REMARK H PARENT 38 24 32 31 30 33 18 35 10 42 12 44
REMARK Flexibility Score: inf
ROOT
ATOM      1  C   UNL     1      65.149  29.940  51.371  1.00  0.00     0.045 C 
ATOM      2  C   UNL     1      65.828  29.965  50.022  1.00  0.00    -0.039 A 
ATOM      3  C   UNL     1      66.580  31.082  49.655  1.00  0.00     0.013 A 
ATOM      4  C   UNL     1      67.254  31.162  48.420  1.00  0.00    -0.006 A 
ATOM      5  C   UNL     1      67.244  30.014  47.568  1.00  0.00     0.039 A 
ATOM      6  C   UNL     1      68.049  30.020  46.390  1.00  0.00     0.072 A 
ATOM      7  C   UNL     1      68.757  31.181  46.028  1.00  0.00     0.169 A 
ATOM      8  C   UNL     1      68.699  32.328  46.825  1.00  0.00     0.162 A 
ATOM      9  C   UNL     1      67.940  32.354  48.018  1.00  0.00     0.008 A 
ATOM     10  C   UNL     1      66.410  28.906  47.907  1.00  0.00     0.132 A 
ATOM     11  C   UNL     1      65.725  28.879  49.139  1.00  0.00     0.031 A 
ENDROOT
BRANCH  11  12
ATOM     12  C   UNL     1      64.886  27.707  49.503  1.00  0.00     0.031 A 
ATOM     13  C   UNL     1      63.487  27.746  49.309  1.00  0.00     0.132 A 
ATOM     14  C   UNL     1      65.492  26.549  50.015  1.00  0.00    -0.039 A 
ATOM     15  C   UNL     1      62.671  26.639  49.696  1.00  0.00     0.039 A 
ATOM     16  C   UNL     1      64.702  25.452  50.361  1.00  0.00     0.013 A 
ATOM     17  C   UNL     1      66.988  26.476  50.211  1.00  0.00     0.045 C 
ATOM     18  C   UNL     1      63.295  25.475  50.241  1.00  0.00    -0.006 A 
ATOM     19  C   UNL     1      61.257  26.638  49.514  1.00  0.00     0.072 A 
ATOM     20  C   UNL     1      62.505  24.344  50.612  1.00  0.00     0.008 A 
ATOM     21  C   UNL     1      60.521  25.458  49.727  1.00  0.00     0.169 A 
ATOM     22  C   UNL     1      61.157  24.297  50.198  1.00  0.00     0.162 A 
BRANCH  13  23
ATOM     23  O   UNL     1      62.915  28.870  48.702  1.00  0.00    -0.507 OA
ATOM     24  H   UNL     1      62.574  28.886  47.751  1.00  0.00     0.293 HD
ENDBRANCH  13  23
BRANCH  19  25
ATOM     25  C   UNL     1      60.500  27.863  49.168  1.00  0.00     0.264 C 
ATOM     26  O   UNL     1      59.987  28.582  50.066  1.00  0.00    -0.298 OA
ENDBRANCH  19  25
BRANCH  20  27
ATOM     27  C   UNL     1      63.103  23.163  51.398  1.00  0.00     0.017 C 
ATOM     28  C   UNL     1      63.342  21.959  50.480  1.00  0.00     0.012 C 
ATOM     29  C   UNL     1      62.288  22.764  52.642  1.00  0.00     0.012 C 
ENDBRANCH  20  27
BRANCH  21  30
ATOM     30  O   UNL     1      59.138  25.482  49.509  1.00  0.00    -0.504 OA
ATOM     31  H   UNL     1      58.663  26.180  48.953  1.00  0.00     0.293 HD
ENDBRANCH  21  30
BRANCH  22  32
ATOM     32  O   UNL     1      60.471  23.081  50.248  1.00  0.00    -0.504 OA
ATOM     33  H   UNL     1      60.138  22.652  51.100  1.00  0.00     0.293 HD
ENDBRANCH  22  32
ENDBRANCH  11  12
BRANCH  10  34
ATOM     34  O   UNL     1      66.233  27.851  47.004  1.00  0.00    -0.507 OA
ATOM     35  H   UNL     1      65.798  27.952  46.096  1.00  0.00     0.293 HD
ENDBRANCH  10  34
BRANCH   9  36
ATOM     36  C   UNL     1      67.900  33.678  48.807  1.00  0.00     0.017 C 
ATOM     37  C   UNL     1      68.583  33.557  50.177  1.00  0.00     0.012 C 
ATOM     38  C   UNL     1      66.503  34.330  48.881  1.00  0.00     0.012 C 
ENDBRANCH   9  36
BRANCH   6  39
ATOM     39  C   UNL     1      68.247  28.814  45.561  1.00  0.00     0.264 C 
ATOM     40  O   UNL     1      69.407  28.371  45.346  1.00  0.00    -0.298 OA
ENDBRANCH   6  39
BRANCH   8  41
ATOM     41  O   UNL     1      69.424  33.461  46.437  1.00  0.00    -0.504 OA
ATOM     42  H   UNL     1      69.863  34.092  47.098  1.00  0.00     0.293 HD
ENDBRANCH   8  41
BRANCH   7  43
ATOM     43  O   UNL     1      69.554  31.221  44.875  1.00  0.00    -0.504 OA
ATOM     44  H   UNL     1      70.355  30.626  44.719  1.00  0.00     0.293 HD
ENDBRANCH   7  43
TORSDOF 11
ENDMDL
MODEL 5
REMARK VINA RESULT:    -5.086      8.930     10.639
REMARK INTER + INTRA:          -9.081
REMARK INTER:                  -7.879
REMARK INTRA:                  -1.202
REMARK UNBOUND:                -1.616
REMARK SMILES Cc1cc2c(C(C)C)c(O)c(O)c(C=O)c2c(O)c1-c1c(C)cc2c(C(C)C)c(O)c(O)c(C=O)c2c1O
REMARK SMILES IDX 1 1 2 2 3 3 4 4 16 5 13 6 11 7 9 8 5 9 17 10 19 11 20 12
REMARK SMILES IDX 37 13 21 14 36 15 23 16 22 17 24 18 33 19 25 20 31 21 29 22
REMARK SMILES IDX 38 23 34 25 35 26 26 27 27 28 28 29 32 30 30 32 18 34 6 36
REMARK SMILES IDX 7 37 8 38 14 39 15 40 10 41 12 43
REMARK H PARENT 38 24 32 31 30 33 18 35 10 42 12 44
REMARK Flexibility Score: inf
ROOT
ATOM      1  C   UNL     1      63.358  31.482  52.626  1.00  0.00     0.045 C 
ATOM      2  C   UNL     1      64.081  31.971  51.394  1.00  0.00    -0.039 A 
ATOM      3  C   UNL     1      64.549  33.286  51.351  1.00  0.00     0.013 A 
ATOM      4  C   UNL     1      65.247  33.800  50.240  1.00  0.00    -0.006 A 
ATOM      5  C   UNL     1      65.571  32.907  49.171  1.00  0.00     0.039 A 
ATOM      6  C   UNL     1      66.411  33.368  48.115  1.00  0.00     0.072 A 
ATOM      7  C   UNL     1      66.825  34.712  48.082  1.00  0.00     0.169 A 
ATOM      8  C   UNL     1      66.439  35.602  49.089  1.00  0.00     0.162 A 
ATOM      9  C   UNL     1      65.635  35.177  50.172  1.00  0.00     0.008 A 
ATOM     10  C   UNL     1      65.022  31.588  49.180  1.00  0.00     0.132 A 
ATOM     11  C   UNL     1      64.301  31.122  50.298  1.00  0.00     0.031 A 
ENDROOT
BRANCH  11  12
ATOM     12  C   UNL     1      63.762  29.737  50.316  1.00  0.00     0.031 A 
ATOM     13  C   UNL     1      62.440  29.481  49.889  1.00  0.00     0.132 A 
ATOM     14  C   UNL     1      64.582  28.677  50.734  1.00  0.00    -0.039 A 
ATOM     15  C   UNL     1      61.903  28.159  49.945  1.00  0.00     0.039 A 
ATOM     16  C   UNL     1      64.073  27.378  50.755  1.00  0.00     0.013 A 
ATOM     17  C   UNL     1      66.006  28.923  51.175  1.00  0.00     0.045 C 
ATOM     18  C   UNL     1      62.738  27.091  50.397  1.00  0.00    -0.006 A 
ATOM     19  C   UNL     1      60.576  27.859  49.520  1.00  0.00     0.072 A 
ATOM     20  C   UNL     1      62.235  25.754  50.437  1.00  0.00     0.008 A 
ATOM     21  C   UNL     1      60.157  26.521  49.409  1.00  0.00     0.169 A 
ATOM     22  C   UNL     1      61.012  25.473  49.792  1.00  0.00     0.162 A 
BRANCH  13  23
ATOM     23  O   UNL     1      61.673  30.536  49.380  1.00  0.00    -0.507 OA
ATOM     24  H   UNL     1      61.162  31.192  49.955  1.00  0.00     0.293 HD
ENDBRANCH  13  23
BRANCH  19  25
ATOM     25  C   UNL     1      59.572  28.914  49.248  1.00  0.00     0.264 C 
ATOM     26  O   UNL     1      58.758  29.278  50.137  1.00  0.00    -0.298 OA
ENDBRANCH  19  25
BRANCH  20  27
ATOM     27  C   UNL     1      63.018  24.616  51.115  1.00  0.00     0.017 C 
ATOM     28  C   UNL     1      62.989  24.764  52.641  1.00  0.00     0.012 C 
ATOM     29  C   UNL     1      64.459  24.453  50.597  1.00  0.00     0.012 C 
ENDBRANCH  20  27
BRANCH  21  30
ATOM     30  O   UNL     1      58.857  26.259  48.959  1.00  0.00    -0.504 OA
ATOM     31  H   UNL     1      58.106  25.936  49.553  1.00  0.00     0.293 HD
ENDBRANCH  21  30
BRANCH  22  32
ATOM     32  O   UNL     1      60.672  24.144  49.524  1.00  0.00    -0.504 OA
ATOM     33  H   UNL     1      60.147  23.846  48.714  1.00  0.00     0.293 HD
ENDBRANCH  22  32
ENDBRANCH  11  12
BRANCH  10  34
ATOM     34  O   UNL     1      65.164  30.756  48.063  1.00  0.00    -0.507 OA
ATOM     35  H   UNL     1      65.706  29.901  48.061  1.00  0.00     0.293 HD
ENDBRANCH  10  34
BRANCH   9  36
ATOM     36  C   UNL     1      65.223  36.240  51.211  1.00  0.00     0.017 C 
ATOM     37  C   UNL     1      66.082  36.172  52.482  1.00  0.00     0.012 C 
ATOM     38  C   UNL     1      63.708  36.286  51.504  1.00  0.00     0.012 C 
ENDBRANCH   9  36
BRANCH   6  39
ATOM     39  C   UNL     1      66.948  32.463  47.079  1.00  0.00     0.264 C 
ATOM     40  O   UNL     1      68.192  32.373  46.893  1.00  0.00    -0.298 OA
ENDBRANCH   6  39
BRANCH   8  41
ATOM     41  O   UNL     1      66.879  36.929  49.027  1.00  0.00    -0.504 OA
ATOM     42  H   UNL     1      66.520  37.602  48.359  1.00  0.00     0.293 HD
ENDBRANCH   8  41
BRANCH   7  43
ATOM     43  O   UNL     1      67.648  35.198  47.056  1.00  0.00    -0.504 OA
ATOM     44  H   UNL     1      68.076  34.616  46.349  1.00  0.00     0.293 HD
ENDBRANCH   7  43
TORSDOF 11
ENDMDL
MODEL 6
REMARK VINA RESULT:    -4.925      9.232     13.496
REMARK INTER + INTRA:          -8.845
REMARK INTER:                  -7.486
REMARK INTRA:                  -1.358
REMARK UNBOUND:                -1.616
REMARK SMILES Cc1cc2c(C(C)C)c(O)c(O)c(C=O)c2c(O)c1-c1c(C)cc2c(C(C)C)c(O)c(O)c(C=O)c2c1O
REMARK SMILES IDX 1 1 2 2 3 3 4 4 16 5 13 6 11 7 9 8 5 9 17 10 19 11 20 12
REMARK SMILES IDX 37 13 21 14 36 15 23 16 22 17 24 18 33 19 25 20 31 21 29 22
REMARK SMILES IDX 38 23 34 25 35 26 26 27 27 28 28 29 32 30 30 32 18 34 6 36
REMARK SMILES IDX 7 37 8 38 14 39 15 40 10 41 12 43
REMARK H PARENT 38 24 32 31 30 33 18 35 10 42 12 44
REMARK Flexibility Score: inf
ROOT
ATOM      1  C   UNL     1      66.856  27.051  51.030  1.00  0.00     0.045 C 
ATOM      2  C   UNL     1      65.424  26.882  50.583  1.00  0.00    -0.039 A 
ATOM      3  C   UNL     1      64.698  25.771  51.016  1.00  0.00     0.013 A 
ATOM      4  C   UNL     1      63.352  25.563  50.652  1.00  0.00    -0.006 A 
ATOM      5  C   UNL     1      62.690  26.581  49.898  1.00  0.00     0.039 A 
ATOM      6  C   UNL     1      61.289  26.462  49.657  1.00  0.00     0.072 A 
ATOM      7  C   UNL     1      60.600  25.306  50.068  1.00  0.00     0.169 A 
ATOM      8  C   UNL     1      61.271  24.277  50.736  1.00  0.00     0.162 A 
ATOM      9  C   UNL     1      62.652  24.371  51.025  1.00  0.00     0.008 A 
ATOM     10  C   UNL     1      63.454  27.675  49.388  1.00  0.00     0.132 A 
ATOM     11  C   UNL     1      64.808  27.830  49.750  1.00  0.00     0.031 A 
ENDROOT
BRANCH  11  12
ATOM     12  C   UNL     1      65.590  28.989  49.245  1.00  0.00     0.031 A 
ATOM     13  C   UNL     1      66.441  28.840  48.128  1.00  0.00     0.132 A 
ATOM     14  C   UNL     1      65.457  30.241  49.866  1.00  0.00    -0.039 A 
ATOM     15  C   UNL     1      67.227  29.939  47.664  1.00  0.00     0.039 A 
ATOM     16  C   UNL     1      66.195  31.326  49.393  1.00  0.00     0.013 A 
ATOM     17  C   UNL     1      64.537  30.429  51.048  1.00  0.00     0.045 C 
ATOM     18  C   UNL     1      67.104  31.203  48.319  1.00  0.00    -0.006 A 
ATOM     19  C   UNL     1      68.095  29.831  46.539  1.00  0.00     0.072 A 
ATOM     20  C   UNL     1      67.859  32.326  47.859  1.00  0.00     0.008 A 
ATOM     21  C   UNL     1      68.697  30.983  46.000  1.00  0.00     0.169 A 
ATOM     22  C   UNL     1      68.514  32.234  46.613  1.00  0.00     0.162 A 
BRANCH  13  23
ATOM     23  O   UNL     1      66.481  27.610  47.461  1.00  0.00    -0.507 OA
ATOM     24  H   UNL     1      65.869  26.833  47.672  1.00  0.00     0.293 HD
ENDBRANCH  13  23
BRANCH  19  25
ATOM     25  C   UNL     1      68.455  28.526  45.936  1.00  0.00     0.264 C 
ATOM     26  O   UNL     1      67.892  28.124  44.883  1.00  0.00    -0.298 OA
ENDBRANCH  19  25
BRANCH  20  27
ATOM     27  C   UNL     1      67.925  33.639  48.660  1.00  0.00     0.017 C 
ATOM     28  C   UNL     1      67.053  34.721  48.013  1.00  0.00     0.012 C 
ATOM     29  C   UNL     1      69.357  34.149  48.907  1.00  0.00     0.012 C 
ENDBRANCH  20  27
BRANCH  21  30
ATOM     30  O   UNL     1      69.520  30.847  44.875  1.00  0.00    -0.504 OA
ATOM     31  H   UNL     1      69.831  29.959  44.504  1.00  0.00     0.293 HD
ENDBRANCH  21  30
BRANCH  22  32
ATOM     32  O   UNL     1      68.963  33.403  45.991  1.00  0.00    -0.504 OA
ATOM     33  H   UNL     1      69.278  34.224  46.489  1.00  0.00     0.293 HD
ENDBRANCH  22  32
ENDBRANCH  11  12
BRANCH  10  34
ATOM     34  O   UNL     1      62.878  28.584  48.494  1.00  0.00    -0.507 OA
ATOM     35  H   UNL     1      62.609  28.351  47.546  1.00  0.00     0.293 HD
ENDBRANCH  10  34
BRANCH   9  36
ATOM     36  C   UNL     1      63.315  23.166  51.725  1.00  0.00     0.017 C 
ATOM     37  C   UNL     1      63.768  23.503  53.153  1.00  0.00     0.012 C 
ATOM     38  C   UNL     1      64.411  22.472  50.888  1.00  0.00     0.012 C 
ENDBRANCH   9  36
BRANCH   6  39
ATOM     39  C   UNL     1      60.494  27.554  49.058  1.00  0.00     0.264 C 
ATOM     40  O   UNL     1      60.092  28.515  49.769  1.00  0.00    -0.298 OA
ENDBRANCH   6  39
BRANCH   8  41
ATOM     41  O   UNL     1      60.550  23.147  51.139  1.00  0.00    -0.504 OA
ATOM     42  H   UNL     1      60.788  22.600  51.959  1.00  0.00     0.293 HD
ENDBRANCH   8  41
BRANCH   7  43
ATOM     43  O   UNL     1      59.225  25.157  49.843  1.00  0.00    -0.504 OA
ATOM     44  H   UNL     1      58.790  24.296  49.540  1.00  0.00     0.293 HD
ENDBRANCH   7  43
TORSDOF 11
ENDMDL
MODEL 7
REMARK VINA RESULT:    -4.876      4.414     11.769
REMARK INTER + INTRA:          -8.773
REMARK INTER:                  -7.801
REMARK INTRA:                  -0.972
REMARK UNBOUND:                -1.616
REMARK SMILES Cc1cc2c(C(C)C)c(O)c(O)c(C=O)c2c(O)c1-c1c(C)cc2c(C(C)C)c(O)c(O)c(C=O)c2c1O
REMARK SMILES IDX 1 1 2 2 3 3 4 4 16 5 13 6 11 7 9 8 5 9 17 10 19 11 20 12
REMARK SMILES IDX 37 13 21 14 36 15 23 16 22 17 24 18 33 19 25 20 31 21 29 22
REMARK SMILES IDX 38 23 34 25 35 26 26 27 27 28 28 29 32 30 30 32 18 34 6 36
REMARK SMILES IDX 7 37 8 38 14 39 15 40 10 41 12 43
REMARK H PARENT 38 24 32 31 30 33 18 35 10 42 12 44
REMARK Flexibility Score: inf
ROOT
ATOM      1  C   UNL     1      58.620  27.024  57.749  1.00  0.00     0.045 C 
ATOM      2  C   UNL     1      58.063  26.335  58.972  1.00  0.00    -0.039 A 
ATOM      3  C   UNL     1      56.715  25.974  59.001  1.00  0.00     0.013 A 
ATOM      4  C   UNL     1      56.137  25.313  60.102  1.00  0.00    -0.006 A 
ATOM      5  C   UNL     1      56.991  24.913  61.176  1.00  0.00     0.039 A 
ATOM      6  C   UNL     1      56.454  24.106  62.223  1.00  0.00     0.072 A 
ATOM      7  C   UNL     1      55.080  23.802  62.242  1.00  0.00     0.169 A 
ATOM      8  C   UNL     1      54.234  24.263  61.229  1.00  0.00     0.162 A 
ATOM      9  C   UNL     1      54.732  25.037  60.156  1.00  0.00     0.008 A 
ATOM     10  C   UNL     1      58.350  25.353  61.183  1.00  0.00     0.132 A 
ATOM     11  C   UNL     1      58.882  26.041  60.074  1.00  0.00     0.031 A 
ENDROOT
BRANCH  11  12
ATOM     12  C   UNL     1      60.306  26.467  60.071  1.00  0.00     0.031 A 
ATOM     13  C   UNL     1      60.667  27.751  60.536  1.00  0.00     0.132 A 
ATOM     14  C   UNL     1      61.297  25.576  59.630  1.00  0.00    -0.039 A 
ATOM     15  C   UNL     1      62.028  28.181  60.495  1.00  0.00     0.039 A 
ATOM     16  C   UNL     1      62.633  25.979  59.623  1.00  0.00     0.013 A 
ATOM     17  C   UNL     1      60.939  24.190  59.148  1.00  0.00     0.045 C 
ATOM     18  C   UNL     1      63.026  27.276  60.020  1.00  0.00    -0.006 A 
ATOM     19  C   UNL     1      62.433  29.467  60.958  1.00  0.00     0.072 A 
ATOM     20  C   UNL     1      64.400  27.671  59.994  1.00  0.00     0.008 A 
ATOM     21  C   UNL     1      63.800  29.773  61.081  1.00  0.00     0.169 A 
ATOM     22  C   UNL     1      64.777  28.848  60.674  1.00  0.00     0.162 A 
BRANCH  13  23
ATOM     23  O   UNL     1      59.676  28.586  61.066  1.00  0.00    -0.507 OA
ATOM     24  H   UNL     1      59.653  29.588  60.938  1.00  0.00     0.293 HD
ENDBRANCH  13  23
BRANCH  19  25
ATOM     25  C   UNL     1      61.461  30.545  61.259  1.00  0.00     0.264 C 
ATOM     26  O   UNL     1      60.967  31.245  60.337  1.00  0.00    -0.298 OA
ENDBRANCH  19  25
BRANCH  20  27
ATOM     27  C   UNL     1      65.473  26.818  59.294  1.00  0.00     0.017 C 
ATOM     28  C   UNL     1      65.636  27.237  57.828  1.00  0.00     0.012 C 
ATOM     29  C   UNL     1      65.244  25.300  59.418  1.00  0.00     0.012 C 
ENDBRANCH  20  27
BRANCH  21  30
ATOM     30  O   UNL     1      64.165  31.035  61.568  1.00  0.00    -0.504 OA
ATOM     31  H   UNL     1      64.935  31.581  61.207  1.00  0.00     0.293 HD
ENDBRANCH  21  30
BRANCH  22  32
ATOM     32  O   UNL     1      66.128  29.072  60.951  1.00  0.00    -0.504 OA
ATOM     33  H   UNL     1      66.718  28.424  61.454  1.00  0.00     0.293 HD
ENDBRANCH  22  32
ENDBRANCH  11  12
BRANCH  10  34
ATOM     34  O   UNL     1      59.157  25.139  62.306  1.00  0.00    -0.507 OA
ATOM     35  H   UNL     1      60.165  25.238  62.304  1.00  0.00     0.293 HD
ENDBRANCH  10  34
BRANCH   9  36
ATOM     36  C   UNL     1      53.715  25.539  59.110  1.00  0.00     0.017 C 
ATOM     37  C   UNL     1      53.829  24.781  57.780  1.00  0.00     0.012 C 
ATOM     38  C   UNL     1      53.692  27.073  58.935  1.00  0.00     0.012 C 
ENDBRANCH   9  36
BRANCH   6  39
ATOM     39  C   UNL     1      57.303  23.491  63.263  1.00  0.00     0.264 C 
ATOM     40  O   UNL     1      57.328  22.240  63.410  1.00  0.00    -0.298 OA
ENDBRANCH   6  39
BRANCH   8  41
ATOM     41  O   UNL     1      52.875  23.931  61.277  1.00  0.00    -0.504 OA
ATOM     42  H   UNL     1      52.136  24.584  61.039  1.00  0.00     0.293 HD
ENDBRANCH   8  41
BRANCH   7  43
ATOM     43  O   UNL     1      54.521  23.014  63.258  1.00  0.00    -0.504 OA
ATOM     44  H   UNL     1      55.013  22.734  64.095  1.00  0.00     0.293 HD
ENDBRANCH   7  43
TORSDOF 11
ENDMDL
MODEL 8
REMARK VINA RESULT:    -4.843      5.477      9.874
REMARK INTER + INTRA:          -8.724
REMARK INTER:                  -7.375
REMARK INTRA:                  -1.349
REMARK UNBOUND:                -1.616
REMARK SMILES Cc1cc2c(C(C)C)c(O)c(O)c(C=O)c2c(O)c1-c1c(C)cc2c(C(C)C)c(O)c(O)c(C=O)c2c1O
REMARK SMILES IDX 1 1 2 2 3 3 4 4 16 5 13 6 11 7 9 8 5 9 17 10 19 11 20 12
REMARK SMILES IDX 37 13 21 14 36 15 23 16 22 17 24 18 33 19 25 20 31 21 29 22
REMARK SMILES IDX 38 23 34 25 35 26 26 27 27 28 28 29 32 30 30 32 18 34 6 36
REMARK SMILES IDX 7 37 8 38 14 39 15 40 10 41 12 43
REMARK H PARENT 38 24 32 31 30 33 18 35 10 42 12 44
REMARK Flexibility Score: inf
ROOT
ATOM      1  C   UNL     1      63.685  28.720  60.870  1.00  0.00     0.045 C 
ATOM      2  C   UNL     1      62.300  28.124  60.785  1.00  0.00    -0.039 A 
ATOM      3  C   UNL     1      62.087  26.820  61.237  1.00  0.00     0.013 A 
ATOM      4  C   UNL     1      60.817  26.211  61.204  1.00  0.00    -0.006 A 
ATOM      5  C   UNL     1      59.699  26.998  60.786  1.00  0.00     0.039 A 
ATOM      6  C   UNL     1      58.387  26.449  60.896  1.00  0.00     0.072 A 
ATOM      7  C   UNL     1      58.215  25.116  61.312  1.00  0.00     0.169 A 
ATOM      8  C   UNL     1      59.319  24.325  61.644  1.00  0.00     0.162 A 
ATOM      9  C   UNL     1      60.634  24.841  61.581  1.00  0.00     0.008 A 
ATOM     10  C   UNL     1      59.930  28.301  60.248  1.00  0.00     0.132 A 
ATOM     11  C   UNL     1      61.223  28.863  60.271  1.00  0.00     0.031 A 
ENDROOT
BRANCH  11  12
ATOM     12  C   UNL     1      61.453  30.233  59.741  1.00  0.00     0.031 A 
ATOM     13  C   UNL     1      61.887  30.418  58.410  1.00  0.00     0.132 A 
ATOM     14  C   UNL     1      61.209  31.345  60.562  1.00  0.00    -0.039 A 
ATOM     15  C   UNL     1      62.150  31.730  57.909  1.00  0.00     0.039 A 
ATOM     16  C   UNL     1      61.429  32.630  60.065  1.00  0.00     0.013 A 
ATOM     17  C   UNL     1      60.724  31.173  61.982  1.00  0.00     0.045 C 
ATOM     18  C   UNL     1      61.924  32.854  58.761  1.00  0.00    -0.006 A 
ATOM     19  C   UNL     1      62.586  31.960  56.572  1.00  0.00     0.072 A 
ATOM     20  C   UNL     1      62.153  34.180  58.277  1.00  0.00     0.008 A 
ATOM     21  C   UNL     1      62.644  33.270  56.065  1.00  0.00     0.169 A 
ATOM     22  C   UNL     1      62.352  34.367  56.894  1.00  0.00     0.162 A 
BRANCH  13  23
ATOM     23  O   UNL     1      62.026  29.301  57.578  1.00  0.00    -0.507 OA
ATOM     24  H   UNL     1      62.915  28.942  57.258  1.00  0.00     0.293 HD
ENDBRANCH  13  23
BRANCH  19  25
ATOM     25  C   UNL     1      63.055  30.864  55.691  1.00  0.00     0.264 C 
ATOM     26  O   UNL     1      62.337  30.442  54.747  1.00  0.00    -0.298 OA
ENDBRANCH  19  25
BRANCH  20  27
ATOM     27  C   UNL     1      62.133  35.398  59.217  1.00  0.00     0.017 C 
ATOM     28  C   UNL     1      63.151  35.233  60.351  1.00  0.00     0.012 C 
ATOM     29  C   UNL     1      60.735  35.741  59.766  1.00  0.00     0.012 C 
ENDBRANCH  20  27
BRANCH  21  30
ATOM     30  O   UNL     1      63.046  33.459  54.737  1.00  0.00    -0.504 OA
ATOM     31  H   UNL     1      62.737  34.226  54.155  1.00  0.00     0.293 HD
ENDBRANCH  21  30
BRANCH  22  32
ATOM     32  O   UNL     1      62.239  35.653  56.357  1.00  0.00    -0.504 OA
ATOM     33  H   UNL     1      62.368  36.502  56.889  1.00  0.00     0.293 HD
ENDBRANCH  22  32
ENDBRANCH  11  12
BRANCH  10  34
ATOM     34  O   UNL     1      58.884  29.019  59.660  1.00  0.00    -0.507 OA
ATOM     35  H   UNL     1      58.136  28.593  59.126  1.00  0.00     0.293 HD
ENDBRANCH  10  34
BRANCH   9  36
ATOM     36  C   UNL     1      61.792  23.880  61.922  1.00  0.00     0.017 C 
ATOM     37  C   UNL     1      62.266  24.037  63.374  1.00  0.00     0.012 C 
ATOM     38  C   UNL     1      62.948  23.894  60.900  1.00  0.00     0.012 C 
ENDBRANCH   9  36
BRANCH   6  39
ATOM     39  C   UNL     1      57.171  27.256  60.671  1.00  0.00     0.264 C 
ATOM     40  O   UNL     1      56.594  27.825  61.637  1.00  0.00    -0.298 OA
ENDBRANCH   6  39
BRANCH   8  41
ATOM     41  O   UNL     1      59.108  23.007  62.063  1.00  0.00    -0.504 OA
ATOM     42  H   UNL     1      58.647  22.768  62.935  1.00  0.00     0.293 HD
ENDBRANCH   8  41
BRANCH   7  43
ATOM     43  O   UNL     1      56.940  24.546  61.427  1.00  0.00    -0.504 OA
ATOM     44  H   UNL     1      56.580  23.831  60.810  1.00  0.00     0.293 HD
ENDBRANCH   7  43
TORSDOF 11
ENDMDL
MODEL 9
REMARK VINA RESULT:    -4.786      3.643     11.347
REMARK INTER + INTRA:          -8.640
REMARK INTER:                  -7.487
REMARK INTRA:                  -1.153
REMARK UNBOUND:                -1.616
REMARK SMILES Cc1cc2c(C(C)C)c(O)c(O)c(C=O)c2c(O)c1-c1c(C)cc2c(C(C)C)c(O)c(O)c(C=O)c2c1O
REMARK SMILES IDX 1 1 2 2 3 3 4 4 16 5 13 6 11 7 9 8 5 9 17 10 19 11 20 12
REMARK SMILES IDX 37 13 21 14 36 15 23 16 22 17 24 18 33 19 25 20 31 21 29 22
REMARK SMILES IDX 38 23 34 25 35 26 26 27 27 28 28 29 32 30 30 32 18 34 6 36
REMARK SMILES IDX 7 37 8 38 14 39 15 40 10 41 12 43
REMARK H PARENT 38 24 32 31 30 33 18 35 10 42 12 44
REMARK Flexibility Score: inf
ROOT
ATOM      1  C   UNL     1      59.503  25.999  58.498  1.00  0.00     0.045 C 
ATOM      2  C   UNL     1      59.226  25.312  59.814  1.00  0.00    -0.039 A 
ATOM      3  C   UNL     1      57.951  24.799  60.064  1.00  0.00     0.013 A 
ATOM      4  C   UNL     1      57.631  24.131  61.262  1.00  0.00    -0.006 A 
ATOM      5  C   UNL     1      58.680  23.886  62.202  1.00  0.00     0.039 A 
ATOM      6  C   UNL     1      58.411  23.075  63.345  1.00  0.00     0.072 A 
ATOM      7  C   UNL     1      57.103  22.615  63.587  1.00  0.00     0.169 A 
ATOM      8  C   UNL     1      56.064  22.925  62.705  1.00  0.00     0.162 A 
ATOM      9  C   UNL     1      56.295  23.697  61.543  1.00  0.00     0.008 A 
ATOM     10  C   UNL     1      59.961  24.480  61.983  1.00  0.00     0.132 A 
ATOM     11  C   UNL     1      60.231  25.169  60.783  1.00  0.00     0.031 A 
ENDROOT
BRANCH  11  12
ATOM     12  C   UNL     1      61.576  25.756  60.545  1.00  0.00     0.031 A 
ATOM     13  C   UNL     1      61.815  27.122  60.815  1.00  0.00     0.132 A 
ATOM     14  C   UNL     1      62.617  24.940  60.075  1.00  0.00    -0.039 A 
ATOM     15  C   UNL     1      63.094  27.701  60.548  1.00  0.00     0.039 A 
ATOM     16  C   UNL     1      63.878  25.494  59.847  1.00  0.00     0.013 A 
ATOM     17  C   UNL     1      62.392  23.473  59.799  1.00  0.00     0.045 C 
ATOM     18  C   UNL     1      64.139  26.867  60.045  1.00  0.00    -0.006 A 
ATOM     19  C   UNL     1      63.376  29.073  60.809  1.00  0.00     0.072 A 
ATOM     20  C   UNL     1      65.436  27.415  59.794  1.00  0.00     0.008 A 
ATOM     21  C   UNL     1      64.695  29.551  60.716  1.00  0.00     0.169 A 
ATOM     22  C   UNL     1      65.731  28.703  60.286  1.00  0.00     0.162 A 
BRANCH  13  23
ATOM     23  O   UNL     1      60.792  27.893  61.379  1.00  0.00    -0.507 OA
ATOM     24  H   UNL     1      60.951  28.727  61.928  1.00  0.00     0.293 HD
ENDBRANCH  13  23
BRANCH  19  25
ATOM     25  C   UNL     1      62.312  30.058  61.119  1.00  0.00     0.264 C 
ATOM     26  O   UNL     1      61.769  30.730  60.203  1.00  0.00    -0.298 OA
ENDBRANCH  19  25
BRANCH  20  27
ATOM     27  C   UNL     1      66.522  26.614  59.054  1.00  0.00     0.017 C 
ATOM     28  C   UNL     1      67.775  26.458  59.922  1.00  0.00     0.012 C 
ATOM     29  C   UNL     1      66.872  27.174  57.662  1.00  0.00     0.012 C 
ENDBRANCH  20  27
BRANCH  21  30
ATOM     30  O   UNL     1      64.944  30.897  61.011  1.00  0.00    -0.504 OA
ATOM     31  H   UNL     1      65.018  31.626  60.313  1.00  0.00     0.293 HD
ENDBRANCH  21  30
BRANCH  22  32
ATOM     32  O   UNL     1      67.064  29.118  60.355  1.00  0.00    -0.504 OA
ATOM     33  H   UNL     1      67.441  29.900  59.838  1.00  0.00     0.293 HD
ENDBRANCH  22  32
ENDBRANCH  11  12
BRANCH  10  34
ATOM     34  O   UNL     1      60.949  24.416  62.972  1.00  0.00    -0.507 OA
ATOM     35  H   UNL     1      61.919  24.662  62.818  1.00  0.00     0.293 HD
ENDBRANCH  10  34
BRANCH   9  36
ATOM     36  C   UNL     1      55.078  24.027  60.654  1.00  0.00     0.017 C 
ATOM     37  C   UNL     1      55.180  23.373  59.268  1.00  0.00     0.012 C 
ATOM     38  C   UNL     1      54.725  25.528  60.594  1.00  0.00     0.012 C 
ENDBRANCH   9  36
BRANCH   6  39
ATOM     39  C   UNL     1      59.476  22.615  64.258  1.00  0.00     0.264 C 
ATOM     40  O   UNL     1      59.564  21.398  64.575  1.00  0.00    -0.298 OA
ENDBRANCH   6  39
BRANCH   8  41
ATOM     41  O   UNL     1      54.778  22.441  62.975  1.00  0.00    -0.504 OA
ATOM     42  H   UNL     1      54.414  22.325  63.914  1.00  0.00     0.293 HD
ENDBRANCH   8  41
BRANCH   7  43
ATOM     43  O   UNL     1      56.804  21.820  64.702  1.00  0.00    -0.504 OA
ATOM     44  H   UNL     1      56.453  22.180  65.578  1.00  0.00     0.293 HD
ENDBRANCH   7  43
TORSDOF 11
ENDMDL
