MODEL 1
REMARK VINA RESULT:    -3.897      0.000      0.000
REMARK INTER + INTRA:          -4.996
REMARK INTER:                  -4.808
REMARK INTRA:                  -0.188
REMARK UNBOUND:                -0.188
REMARK SMILES CCCCC=CC(C)=O
REMARK SMILES IDX 4 1 3 2 2 3 1 4 5 5 6 6 7 7 9 8 8 9
REMARK H PARENT
REMARK Flexibility Score: inf
ROOT
ATOM      1  C   UNL     1      15.700 -11.865  11.997  1.00  0.00     0.027 C 
ENDROOT
BRANCH   1   2
ATOM      2  C   UNL     1      15.396 -13.262  12.565  1.00  0.00     0.004 C 
BRANCH   2   3
ATOM      3  C   UNL     1      13.893 -13.567  12.709  1.00  0.00    -0.003 C 
ATOM      4  C   UNL     1      13.054 -12.315  12.956  1.00  0.00     0.004 C 
ENDBRANCH   2   3
ENDBRANCH   1   2
BRANCH   1   5
ATOM      5  C   UNL     1      16.750 -11.136  12.787  1.00  0.00    -0.023 C 
ATOM      6  C   UNL     1      16.967  -9.825  12.617  1.00  0.00     0.042 C 
BRANCH   6   7
ATOM      7  C   UNL     1      17.987  -9.069  13.372  1.00  0.00     0.152 C 
ATOM      8  O   UNL     1      18.426  -7.995  12.882  1.00  0.00    -0.295 OA
ATOM      9  C   UNL     1      18.518  -9.534  14.695  1.00  0.00     0.093 C 
ENDBRANCH   6   7
ENDBRANCH   1   5
TORSDOF 4
ENDMDL
MODEL 2
REMARK VINA RESULT:    -3.884      1.065      1.319
REMARK INTER + INTRA:          -4.980
REMARK INTER:                  -4.777
REMARK INTRA:                  -0.204
REMARK UNBOUND:                -0.188
REMARK SMILES CCCCC=CC(C)=O
REMARK SMILES IDX 4 1 3 2 2 3 1 4 5 5 6 6 7 7 9 8 8 9
REMARK H PARENT
REMARK Flexibility Score: inf
ROOT
ATOM      1  C   UNL     1      14.989 -11.229  11.922  1.00  0.00     0.027 C 
ENDROOT
BRANCH   1   2
ATOM      2  C   UNL     1      15.496 -12.636  12.283  1.00  0.00     0.004 C 
BRANCH   2   3
ATOM      3  C   UNL     1      14.383 -13.619  12.691  1.00  0.00    -0.003 C 
ATOM      4  C   UNL     1      13.070 -12.918  13.040  1.00  0.00     0.004 C 
ENDBRANCH   2   3
ENDBRANCH   1   2
BRANCH   1   5
ATOM      5  C   UNL     1      15.801 -10.140  12.566  1.00  0.00    -0.023 C 
ATOM      6  C   UNL     1      17.130 -10.245  12.698  1.00  0.00     0.042 C 
BRANCH   6   7
ATOM      7  C   UNL     1      17.966  -9.201  13.323  1.00  0.00     0.152 C 
ATOM      8  O   UNL     1      18.491  -9.439  14.443  1.00  0.00    -0.295 OA
ATOM      9  C   UNL     1      18.211  -7.871  12.675  1.00  0.00     0.093 C 
ENDBRANCH   6   7
ENDBRANCH   1   5
TORSDOF 4
ENDMDL
MODEL 3
REMARK VINA RESULT:    -3.800      4.100      6.665
REMARK INTER + INTRA:          -4.877
REMARK INTER:                  -4.774
REMARK INTRA:                  -0.103
REMARK UNBOUND:                -0.188
REMARK SMILES CCCCC=CC(C)=O
REMARK SMILES IDX 4 1 3 2 2 3 1 4 5 5 6 6 7 7 9 8 8 9
REMARK H PARENT
REMARK Flexibility Score: inf
ROOT
ATOM      1  C   UNL     1      16.976  -5.814  16.248  1.00  0.00     0.027 C 
ENDROOT
BRANCH   1   2
ATOM      2  C   UNL     1      16.486  -6.185  17.659  1.00  0.00     0.004 C 
BRANCH   2   3
ATOM      3  C   UNL     1      16.975  -5.231  18.764  1.00  0.00    -0.003 C 
ATOM      4  C   UNL     1      15.902  -4.239  19.209  1.00  0.00     0.004 C 
ENDBRANCH   2   3
ENDBRANCH   1   2
BRANCH   1   5
ATOM      5  C   UNL     1      17.336  -7.019  15.426  1.00  0.00    -0.023 C 
ATOM      6  C   UNL     1      17.714  -6.904  14.146  1.00  0.00     0.042 C 
BRANCH   6   7
ATOM      7  C   UNL     1      18.076  -8.060  13.301  1.00  0.00     0.152 C 
ATOM      8  O   UNL     1      18.217  -7.881  12.062  1.00  0.00    -0.295 OA
ATOM      9  C   UNL     1      18.279  -9.435  13.863  1.00  0.00     0.093 C 
ENDBRANCH   6   7
ENDBRANCH   1   5
TORSDOF 4
ENDMDL
MODEL 4
REMARK VINA RESULT:    -3.743      2.615      5.230
REMARK INTER + INTRA:          -4.807
REMARK INTER:                  -4.636
REMARK INTRA:                  -0.170
REMARK UNBOUND:                -0.188
REMARK SMILES CCCCC=CC(C)=O
REMARK SMILES IDX 4 1 3 2 2 3 1 4 5 5 6 6 7 7 9 8 8 9
REMARK H PARENT
REMARK Flexibility Score: inf
ROOT
ATOM      1  C   UNL     1      16.074  -9.739  12.022  1.00  0.00     0.027 C 
ENDROOT
BRANCH   1   2
ATOM      2  C   UNL     1      17.355 -10.259  12.697  1.00  0.00     0.004 C 
BRANCH   2   3
ATOM      3  C   UNL     1      18.146  -9.179  13.457  1.00  0.00    -0.003 C 
ATOM      4  C   UNL     1      18.563  -9.623  14.858  1.00  0.00     0.004 C 
ENDBRANCH   2   3
ENDBRANCH   1   2
BRANCH   1   5
ATOM      5  C   UNL     1      14.877 -10.600  12.313  1.00  0.00    -0.023 C 
ATOM      6  C   UNL     1      14.969 -11.936  12.344  1.00  0.00     0.042 C 
BRANCH   6   7
ATOM      7  C   UNL     1      13.820 -12.820  12.626  1.00  0.00     0.152 C 
ATOM      8  O   UNL     1      14.037 -14.043  12.833  1.00  0.00    -0.295 OA
ATOM      9  C   UNL     1      12.409 -12.316  12.671  1.00  0.00     0.093 C 
ENDBRANCH   6   7
ENDBRANCH   1   5
TORSDOF 4
ENDMDL
MODEL 5
REMARK VINA RESULT:    -3.657      4.436      6.149
REMARK INTER + INTRA:          -4.700
REMARK INTER:                  -4.474
REMARK INTRA:                  -0.226
REMARK UNBOUND:                -0.188
REMARK SMILES CCCCC=CC(C)=O
REMARK SMILES IDX 4 1 3 2 2 3 1 4 5 5 6 6 7 7 9 8 8 9
REMARK H PARENT
REMARK Flexibility Score: inf
ROOT
ATOM      1  C   UNL     1      17.533  -6.277  14.284  1.00  0.00     0.027 C 
ENDROOT
BRANCH   1   2
ATOM      2  C   UNL     1      17.118  -7.506  13.456  1.00  0.00     0.004 C 
BRANCH   2   3
ATOM      3  C   UNL     1      18.231  -8.556  13.289  1.00  0.00    -0.003 C 
ATOM      4  C   UNL     1      18.394  -9.449  14.518  1.00  0.00     0.004 C 
ENDBRANCH   2   3
ENDBRANCH   1   2
BRANCH   1   5
ATOM      5  C   UNL     1      16.707  -6.114  15.529  1.00  0.00    -0.023 C 
ATOM      6  C   UNL     1      17.271  -6.096  16.744  1.00  0.00     0.042 C 
BRANCH   6   7
ATOM      7  C   UNL     1      16.500  -5.938  17.993  1.00  0.00     0.152 C 
ATOM      8  O   UNL     1      15.819  -6.913  18.408  1.00  0.00    -0.295 OA
ATOM      9  C   UNL     1      16.497  -4.662  18.782  1.00  0.00     0.093 C 
ENDBRANCH   6   7
ENDBRANCH   1   5
TORSDOF 4
ENDMDL
MODEL 6
REMARK VINA RESULT:    -3.644      2.447      5.071
REMARK INTER + INTRA:          -4.683
REMARK INTER:                  -4.447
REMARK INTRA:                  -0.237
REMARK UNBOUND:                -0.188
REMARK SMILES CCCCC=CC(C)=O
REMARK SMILES IDX 4 1 3 2 2 3 1 4 5 5 6 6 7 7 9 8 8 9
REMARK H PARENT
REMARK Flexibility Score: inf
ROOT
ATOM      1  C   UNL     1      16.968 -10.727  12.253  1.00  0.00     0.027 C 
ENDROOT
BRANCH   1   2
ATOM      2  C   UNL     1      16.802  -9.225  12.544  1.00  0.00     0.004 C 
BRANCH   2   3
ATOM      3  C   UNL     1      17.923  -8.627  13.414  1.00  0.00    -0.003 C 
ATOM      4  C   UNL     1      18.446  -9.606  14.464  1.00  0.00     0.004 C 
ENDBRANCH   2   3
ENDBRANCH   1   2
BRANCH   1   5
ATOM      5  C   UNL     1      15.721 -11.514  12.546  1.00  0.00    -0.023 C 
ATOM      6  C   UNL     1      14.511 -10.940  12.519  1.00  0.00     0.042 C 
BRANCH   6   7
ATOM      7  C   UNL     1      13.261 -11.674  12.800  1.00  0.00     0.152 C 
ATOM      8  O   UNL     1      12.193 -11.019  12.929  1.00  0.00    -0.295 OA
ATOM      9  C   UNL     1      13.217 -13.167  12.937  1.00  0.00     0.093 C 
ENDBRANCH   6   7
ENDBRANCH   1   5
TORSDOF 4
ENDMDL
MODEL 7
REMARK VINA RESULT:    -3.539      2.338      5.125
REMARK INTER + INTRA:          -4.555
REMARK INTER:                  -4.289
REMARK INTRA:                  -0.266
REMARK UNBOUND:                -0.188
REMARK SMILES CCCCC=CC(C)=O
REMARK SMILES IDX 4 1 3 2 2 3 1 4 5 5 6 6 7 7 9 8 8 9
REMARK H PARENT
REMARK Flexibility Score: inf
ROOT
ATOM      1  C   UNL     1      18.220  -9.070  13.311  1.00  0.00     0.027 C 
ENDROOT
BRANCH   1   2
ATOM      2  C   UNL     1      17.677  -7.830  12.579  1.00  0.00     0.004 C 
BRANCH   2   3
ATOM      3  C   UNL     1      17.658  -6.552  13.438  1.00  0.00    -0.003 C 
ATOM      4  C   UNL     1      17.370  -6.832  14.912  1.00  0.00     0.004 C 
ENDBRANCH   2   3
ENDBRANCH   1   2
BRANCH   1   5
ATOM      5  C   UNL     1      17.396 -10.300  13.055  1.00  0.00    -0.023 C 
ATOM      6  C   UNL     1      16.115 -10.215  12.671  1.00  0.00     0.042 C 
BRANCH   6   7
ATOM      7  C   UNL     1      15.268 -11.396  12.410  1.00  0.00     0.152 C 
ATOM      8  O   UNL     1      14.031 -11.226  12.247  1.00  0.00    -0.295 OA
ATOM      9  C   UNL     1      15.827 -12.785  12.331  1.00  0.00     0.093 C 
ENDBRANCH   6   7
ENDBRANCH   1   5
TORSDOF 4
ENDMDL
MODEL 8
REMARK VINA RESULT:    -3.496      5.721      7.450
REMARK INTER + INTRA:          -4.502
REMARK INTER:                  -4.349
REMARK INTRA:                  -0.153
REMARK UNBOUND:                -0.188
REMARK SMILES CCCCC=CC(C)=O
REMARK SMILES IDX 4 1 3 2 2 3 1 4 5 5 6 6 7 7 9 8 8 9
REMARK H PARENT
REMARK Flexibility Score: inf
ROOT
ATOM      1  C   UNL     1      17.176  -6.197  16.164  1.00  0.00     0.027 C 
ENDROOT
BRANCH   1   2
ATOM      2  C   UNL     1      16.248  -5.926  17.361  1.00  0.00     0.004 C 
BRANCH   2   3
ATOM      3  C   UNL     1      16.967  -5.348  18.594  1.00  0.00    -0.003 C 
ATOM      4  C   UNL     1      16.170  -4.240  19.281  1.00  0.00     0.004 C 
ENDBRANCH   2   3
ENDBRANCH   1   2
BRANCH   1   5
ATOM      5  C   UNL     1      16.429  -6.278  14.862  1.00  0.00    -0.023 C 
ATOM      6  C   UNL     1      15.202  -5.759  14.726  1.00  0.00     0.042 C 
BRANCH   6   7
ATOM      7  C   UNL     1      14.433  -5.816  13.467  1.00  0.00     0.152 C 
ATOM      8  O   UNL     1      13.999  -6.931  13.076  1.00  0.00    -0.295 OA
ATOM      9  C   UNL     1      14.152  -4.597  12.640  1.00  0.00     0.093 C 
ENDBRANCH   6   7
ENDBRANCH   1   5
TORSDOF 4
ENDMDL
MODEL 9
REMARK VINA RESULT:    -3.395      4.165      6.018
REMARK INTER + INTRA:          -4.376
REMARK INTER:                  -4.234
REMARK INTRA:                  -0.143
REMARK UNBOUND:                -0.188
REMARK SMILES CCCCC=CC(C)=O
REMARK SMILES IDX 4 1 3 2 2 3 1 4 5 5 6 6 7 7 9 8 8 9
REMARK H PARENT
REMARK Flexibility Score: inf
ROOT
ATOM      1  C   UNL     1      17.386  -6.902  14.509  1.00  0.00     0.027 C 
ENDROOT
BRANCH   1   2
ATOM      2  C   UNL     1      18.051  -7.628  13.327  1.00  0.00     0.004 C 
BRANCH   2   3
ATOM      3  C   UNL     1      18.135  -9.156  13.495  1.00  0.00    -0.003 C 
ATOM      4  C   UNL     1      18.546  -9.577  14.905  1.00  0.00     0.004 C 
ENDBRANCH   2   3
ENDBRANCH   1   2
BRANCH   1   5
ATOM      5  C   UNL     1      16.319  -5.940  14.069  1.00  0.00    -0.023 C 
ATOM      6  C   UNL     1      15.122  -5.902  14.669  1.00  0.00     0.042 C 
BRANCH   6   7
ATOM      7  C   UNL     1      14.045  -4.973  14.270  1.00  0.00     0.152 C 
ATOM      8  O   UNL     1      13.760  -4.870  13.048  1.00  0.00    -0.295 OA
ATOM      9  C   UNL     1      13.282  -4.152  15.266  1.00  0.00     0.093 C 
ENDBRANCH   6   7
ENDBRANCH   1   5
TORSDOF 4
ENDMDL
