MODEL 1
REMARK VINA RESULT:    -5.033      0.000      0.000
REMARK INTER + INTRA:          -5.033
REMARK INTER:                  -5.033
REMARK INTRA:                   0.000
REMARK UNBOUND:                 0.000
REMARK SMILES CC(C)=C1CC[C@@H](C)CC1=O
REMARK SMILES IDX 8 1 7 2 6 3 5 4 4 5 2 6 1 7 3 8 10 9 11 10 9 11
REMARK H PARENT
REMARK Flexibility Score: inf
ROOT
ATOM      1  C   UNL     1      -8.161 -19.649 -20.047  1.00  0.00     0.008 C 
ATOM      2  C   UNL     1      -7.352 -20.075 -18.817  1.00  0.00    -0.006 C 
ATOM      3  C   UNL     1      -5.874 -20.279 -19.185  1.00  0.00     0.008 C 
ATOM      4  C   UNL     1      -5.030 -20.605 -17.946  1.00  0.00     0.039 C 
ATOM      5  C   UNL     1      -5.599 -21.766 -17.142  1.00  0.00    -0.006 C 
ATOM      6  C   UNL     1      -4.784 -22.616 -16.449  1.00  0.00    -0.070 C 
ATOM      7  C   UNL     1      -3.284 -22.427 -16.437  1.00  0.00     0.039 C 
ATOM      8  C   UNL     1      -5.332 -23.805 -15.694  1.00  0.00     0.039 C 
ATOM      9  C   UNL     1      -7.088 -21.845 -17.066  1.00  0.00     0.159 C 
ATOM     10  O   UNL     1      -7.668 -22.304 -16.046  1.00  0.00    -0.295 OA
ATOM     11  C   UNL     1      -7.926 -21.366 -18.215  1.00  0.00     0.084 C 
ENDROOT
TORSDOF 0
ENDMDL
MODEL 2
REMARK VINA RESULT:    -4.988      6.086      7.383
REMARK INTER + INTRA:          -4.988
REMARK INTER:                  -4.988
REMARK INTRA:                   0.000
REMARK UNBOUND:                 0.000
REMARK SMILES CC(C)=C1CC[C@@H](C)CC1=O
REMARK SMILES IDX 8 1 7 2 6 3 5 4 4 5 2 6 1 7 3 8 10 9 11 10 9 11
REMARK H PARENT
REMARK Flexibility Score: inf
ROOT
ATOM      1  C   UNL     1      -9.553 -30.515 -20.287  1.00  0.00     0.008 C 
ATOM      2  C   UNL     1      -9.177 -29.454 -19.248  1.00  0.00    -0.006 C 
ATOM      3  C   UNL     1     -10.200 -28.307 -19.250  1.00  0.00     0.008 C 
ATOM      4  C   UNL     1      -9.897 -27.286 -18.146  1.00  0.00     0.039 C 
ATOM      5  C   UNL     1      -8.459 -26.787 -18.192  1.00  0.00    -0.006 C 
ATOM      6  C   UNL     1      -8.136 -25.518 -17.803  1.00  0.00    -0.070 C 
ATOM      7  C   UNL     1      -9.190 -24.562 -17.293  1.00  0.00     0.039 C 
ATOM      8  C   UNL     1      -6.722 -24.992 -17.899  1.00  0.00     0.039 C 
ATOM      9  C   UNL     1      -7.426 -27.795 -18.573  1.00  0.00     0.159 C 
ATOM     10  O   UNL     1      -6.258 -27.745 -18.103  1.00  0.00    -0.295 OA
ATOM     11  C   UNL     1      -7.771 -28.902 -19.527  1.00  0.00     0.084 C 
ENDROOT
TORSDOF 0
ENDMDL
MODEL 3
REMARK VINA RESULT:    -4.684      4.513      5.797
REMARK INTER + INTRA:          -4.684
REMARK INTER:                  -4.684
REMARK INTRA:                   0.000
REMARK UNBOUND:                 0.000
REMARK SMILES CC(C)=C1CC[C@@H](C)CC1=O
REMARK SMILES IDX 8 1 7 2 6 3 5 4 4 5 2 6 1 7 3 8 10 9 11 10 9 11
REMARK H PARENT
REMARK Flexibility Score: inf
ROOT
ATOM      1  C   UNL     1      -8.502 -22.497 -15.753  1.00  0.00     0.008 C 
ATOM      2  C   UNL     1      -8.664 -23.584 -16.821  1.00  0.00    -0.006 C 
ATOM      3  C   UNL     1      -9.657 -24.660 -16.353  1.00  0.00     0.008 C 
ATOM      4  C   UNL     1      -9.910 -25.701 -17.451  1.00  0.00     0.039 C 
ATOM      5  C   UNL     1      -8.619 -26.295 -18.000  1.00  0.00    -0.006 C 
ATOM      6  C   UNL     1      -8.567 -27.583 -18.451  1.00  0.00    -0.070 C 
ATOM      7  C   UNL     1      -9.793 -28.468 -18.440  1.00  0.00     0.039 C 
ATOM      8  C   UNL     1      -7.280 -28.202 -18.945  1.00  0.00     0.039 C 
ATOM      9  C   UNL     1      -7.464 -25.357 -18.121  1.00  0.00     0.159 C 
ATOM     10  O   UNL     1      -6.609 -25.485 -19.038  1.00  0.00    -0.295 OA
ATOM     11  C   UNL     1      -7.307 -24.227 -17.144  1.00  0.00     0.084 C 
ENDROOT
TORSDOF 0
ENDMDL
MODEL 4
REMARK VINA RESULT:    -4.678      2.009      3.552
REMARK INTER + INTRA:          -4.678
REMARK INTER:                  -4.678
REMARK INTRA:                   0.000
REMARK UNBOUND:                 0.000
REMARK SMILES CC(C)=C1CC[C@@H](C)CC1=O
REMARK SMILES IDX 8 1 7 2 6 3 5 4 4 5 2 6 1 7 3 8 10 9 11 10 9 11
REMARK H PARENT
REMARK Flexibility Score: inf
ROOT
ATOM      1  C   UNL     1      -9.951 -24.848 -16.641  1.00  0.00     0.008 C 
ATOM      2  C   UNL     1      -8.927 -23.715 -16.514  1.00  0.00    -0.006 C 
ATOM      3  C   UNL     1      -8.919 -22.847 -17.782  1.00  0.00     0.008 C 
ATOM      4  C   UNL     1      -7.974 -21.647 -17.632  1.00  0.00     0.039 C 
ATOM      5  C   UNL     1      -6.575 -22.058 -17.195  1.00  0.00    -0.006 C 
ATOM      6  C   UNL     1      -5.472 -21.356 -17.592  1.00  0.00    -0.070 C 
ATOM      7  C   UNL     1      -5.598 -20.131 -18.469  1.00  0.00     0.039 C 
ATOM      8  C   UNL     1      -4.075 -21.786 -17.213  1.00  0.00     0.039 C 
ATOM      9  C   UNL     1      -6.495 -23.189 -16.223  1.00  0.00     0.159 C 
ATOM     10  O   UNL     1      -5.580 -23.248 -15.359  1.00  0.00    -0.295 OA
ATOM     11  C   UNL     1      -7.523 -24.283 -16.258  1.00  0.00     0.084 C 
ENDROOT
TORSDOF 0
ENDMDL
MODEL 5
REMARK VINA RESULT:    -4.601      6.244      7.130
REMARK INTER + INTRA:          -4.601
REMARK INTER:                  -4.601
REMARK INTRA:                   0.000
REMARK UNBOUND:                 0.000
REMARK SMILES CC(C)=C1CC[C@@H](C)CC1=O
REMARK SMILES IDX 8 1 7 2 6 3 5 4 4 5 2 6 1 7 3 8 10 9 11 10 9 11
REMARK H PARENT
REMARK Flexibility Score: inf
ROOT
ATOM      1  C   UNL     1      -9.977 -24.486 -16.750  1.00  0.00     0.008 C 
ATOM      2  C   UNL     1      -9.378 -25.840 -17.147  1.00  0.00    -0.006 C 
ATOM      3  C   UNL     1      -8.177 -25.646 -18.087  1.00  0.00     0.008 C 
ATOM      4  C   UNL     1      -7.501 -26.984 -18.413  1.00  0.00     0.039 C 
ATOM      5  C   UNL     1      -8.487 -28.024 -18.930  1.00  0.00    -0.006 C 
ATOM      6  C   UNL     1      -8.106 -28.974 -19.835  1.00  0.00    -0.070 C 
ATOM      7  C   UNL     1      -6.685 -29.043 -20.348  1.00  0.00     0.039 C 
ATOM      8  C   UNL     1      -9.088 -29.975 -20.398  1.00  0.00     0.039 C 
ATOM      9  C   UNL     1      -9.842 -28.012 -18.305  1.00  0.00     0.159 C 
ATOM     10  O   UNL     1     -10.507 -29.073 -18.160  1.00  0.00    -0.295 OA
ATOM     11  C   UNL     1     -10.438 -26.719 -17.827  1.00  0.00     0.084 C 
ENDROOT
TORSDOF 0
ENDMDL
MODEL 6
REMARK VINA RESULT:    -4.600      4.497      5.397
REMARK INTER + INTRA:          -4.600
REMARK INTER:                  -4.600
REMARK INTRA:                   0.000
REMARK UNBOUND:                 0.000
REMARK SMILES CC(C)=C1CC[C@@H](C)CC1=O
REMARK SMILES IDX 8 1 7 2 6 3 5 4 4 5 2 6 1 7 3 8 10 9 11 10 9 11
REMARK H PARENT
REMARK Flexibility Score: inf
ROOT
ATOM      1  C   UNL     1      -7.642 -22.066 -17.487  1.00  0.00     0.008 C 
ATOM      2  C   UNL     1      -7.839 -23.573 -17.296  1.00  0.00    -0.006 C 
ATOM      3  C   UNL     1      -7.026 -24.362 -18.336  1.00  0.00     0.008 C 
ATOM      4  C   UNL     1      -7.130 -25.874 -18.095  1.00  0.00     0.039 C 
ATOM      5  C   UNL     1      -8.572 -26.351 -17.996  1.00  0.00    -0.006 C 
ATOM      6  C   UNL     1      -8.937 -27.599 -18.415  1.00  0.00    -0.070 C 
ATOM      7  C   UNL     1      -7.920 -28.565 -18.979  1.00  0.00     0.039 C 
ATOM      8  C   UNL     1     -10.375 -28.064 -18.375  1.00  0.00     0.039 C 
ATOM      9  C   UNL     1      -9.525 -25.426 -17.313  1.00  0.00     0.159 C 
ATOM     10  O   UNL     1     -10.500 -25.864 -16.647  1.00  0.00    -0.295 OA
ATOM     11  C   UNL     1      -9.326 -23.940 -17.406  1.00  0.00     0.084 C 
ENDROOT
TORSDOF 0
ENDMDL
MODEL 7
REMARK VINA RESULT:    -4.521      1.605      4.488
REMARK INTER + INTRA:          -4.521
REMARK INTER:                  -4.521
REMARK INTRA:                   0.000
REMARK UNBOUND:                 0.000
REMARK SMILES CC(C)=C1CC[C@@H](C)CC1=O
REMARK SMILES IDX 8 1 7 2 6 3 5 4 4 5 2 6 1 7 3 8 10 9 11 10 9 11
REMARK H PARENT
REMARK Flexibility Score: inf
ROOT
ATOM      1  C   UNL     1      -1.774 -23.156 -16.870  1.00  0.00     0.008 C 
ATOM      2  C   UNL     1      -3.134 -22.473 -16.690  1.00  0.00    -0.006 C 
ATOM      3  C   UNL     1      -4.211 -23.502 -16.312  1.00  0.00     0.008 C 
ATOM      4  C   UNL     1      -5.558 -22.823 -16.028  1.00  0.00     0.039 C 
ATOM      5  C   UNL     1      -5.998 -21.904 -17.160  1.00  0.00    -0.006 C 
ATOM      6  C   UNL     1      -7.320 -21.718 -17.450  1.00  0.00    -0.070 C 
ATOM      7  C   UNL     1      -8.402 -22.403 -16.646  1.00  0.00     0.039 C 
ATOM      8  C   UNL     1      -7.767 -20.855 -18.607  1.00  0.00     0.039 C 
ATOM      9  C   UNL     1      -4.913 -21.141 -17.847  1.00  0.00     0.159 C 
ATOM     10  O   UNL     1      -5.120 -19.992 -18.321  1.00  0.00    -0.295 OA
ATOM     11  C   UNL     1      -3.541 -21.737 -17.976  1.00  0.00     0.084 C 
ENDROOT
TORSDOF 0
ENDMDL
MODEL 8
REMARK VINA RESULT:    -4.507      1.529      2.512
REMARK INTER + INTRA:          -4.507
REMARK INTER:                  -4.507
REMARK INTRA:                   0.000
REMARK UNBOUND:                 0.000
REMARK SMILES CC(C)=C1CC[C@@H](C)CC1=O
REMARK SMILES IDX 8 1 7 2 6 3 5 4 4 5 2 6 1 7 3 8 10 9 11 10 9 11
REMARK H PARENT
REMARK Flexibility Score: inf
ROOT
ATOM      1  C   UNL     1      -9.634 -23.251 -17.945  1.00  0.00     0.008 C 
ATOM      2  C   UNL     1      -8.380 -22.540 -17.425  1.00  0.00    -0.006 C 
ATOM      3  C   UNL     1      -7.736 -21.696 -18.537  1.00  0.00     0.008 C 
ATOM      4  C   UNL     1      -6.539 -20.896 -18.008  1.00  0.00     0.039 C 
ATOM      5  C   UNL     1      -5.529 -21.772 -17.278  1.00  0.00    -0.006 C 
ATOM      6  C   UNL     1      -4.194 -21.479 -17.293  1.00  0.00    -0.070 C 
ATOM      7  C   UNL     1      -3.667 -20.264 -18.021  1.00  0.00     0.039 C 
ATOM      8  C   UNL     1      -3.177 -22.372 -16.621  1.00  0.00     0.039 C 
ATOM      9  C   UNL     1      -6.095 -22.885 -16.460  1.00  0.00     0.159 C 
ATOM     10  O   UNL     1      -5.530 -23.275 -15.404  1.00  0.00    -0.295 OA
ATOM     11  C   UNL     1      -7.366 -23.560 -16.887  1.00  0.00     0.084 C 
ENDROOT
TORSDOF 0
ENDMDL
MODEL 9
REMARK VINA RESULT:    -4.454      5.453      6.686
REMARK INTER + INTRA:          -4.454
REMARK INTER:                  -4.454
REMARK INTRA:                   0.000
REMARK UNBOUND:                 0.000
REMARK SMILES CC(C)=C1CC[C@@H](C)CC1=O
REMARK SMILES IDX 8 1 7 2 6 3 5 4 4 5 2 6 1 7 3 8 10 9 11 10 9 11
REMARK H PARENT
REMARK Flexibility Score: inf
ROOT
ATOM      1  C   UNL     1      -9.252 -30.376 -19.478  1.00  0.00     0.008 C 
ATOM      2  C   UNL     1      -8.753 -28.930 -19.383  1.00  0.00    -0.006 C 
ATOM      3  C   UNL     1      -7.350 -28.881 -18.757  1.00  0.00     0.008 C 
ATOM      4  C   UNL     1      -6.792 -27.452 -18.748  1.00  0.00     0.039 C 
ATOM      5  C   UNL     1      -7.753 -26.455 -18.112  1.00  0.00    -0.006 C 
ATOM      6  C   UNL     1      -7.294 -25.362 -17.433  1.00  0.00    -0.070 C 
ATOM      7  C   UNL     1      -5.813 -25.087 -17.299  1.00  0.00     0.039 C 
ATOM      8  C   UNL     1      -8.235 -24.397 -16.749  1.00  0.00     0.039 C 
ATOM      9  C   UNL     1      -9.204 -26.682 -18.376  1.00  0.00     0.159 C 
ATOM     10  O   UNL     1     -10.013 -25.719 -18.459  1.00  0.00    -0.295 OA
ATOM     11  C   UNL     1      -9.727 -28.078 -18.556  1.00  0.00     0.084 C 
ENDROOT
TORSDOF 0
ENDMDL
