MODEL 1
REMARK VINA RESULT:    -5.616      0.000      0.000
REMARK INTER + INTRA:          -7.493
REMARK INTER:                  -7.257
REMARK INTRA:                  -0.236
REMARK UNBOUND:                -0.236
REMARK SMILES CO[C@@]1(CO)O[C@H](CO)[C@H](O)[C@H]1O
REMARK SMILES IDX 3 1 12 2 10 3 7 4 6 5 2 6 1 7 4 8 5 9 13 11 11 13 8 15 9 16
REMARK H PARENT 5 10 13 12 11 14 9 17
REMARK Flexibility Score: inf
ROOT
ATOM      1  C   UNL     1      21.770  -4.225  16.162  1.00  0.00     0.221 C 
ATOM      2  C   UNL     1      20.478  -3.532  15.658  1.00  0.00     0.207 C 
ATOM      3  C   UNL     1      19.495  -3.786  16.770  1.00  0.00     0.180 C 
ATOM      4  C   UNL     1      20.001  -5.091  17.368  1.00  0.00     0.179 C 
ATOM      5  O   UNL     1      21.398  -5.148  17.174  1.00  0.00    -0.337 OA
ENDROOT
BRANCH   1   6
ATOM      6  O   UNL     1      22.649  -3.284  16.783  1.00  0.00    -0.349 OA
ATOM      7  C   UNL     1      24.014  -3.667  16.796  1.00  0.00     0.198 C 
ENDBRANCH   1   6
BRANCH   1   8
ATOM      8  C   UNL     1      22.434  -5.062  15.029  1.00  0.00     0.224 C 
BRANCH   8   9
ATOM      9  O   UNL     1      21.632  -5.071  13.877  1.00  0.00    -0.391 OA
ATOM     10  H   UNL     1      21.819  -4.226  13.390  1.00  0.00     0.210 HD
ENDBRANCH   8   9
ENDBRANCH   1   8
BRANCH   2  11
ATOM     11  O   UNL     1      20.643  -2.152  15.459  1.00  0.00    -0.385 OA
ATOM     12  H   UNL     1      20.417  -1.710  16.318  1.00  0.00     0.211 HD
ENDBRANCH   2  11
BRANCH   3  13
ATOM     13  O   UNL     1      18.177  -3.885  16.293  1.00  0.00    -0.387 OA
ATOM     14  H   UNL     1      18.203  -3.614  15.339  1.00  0.00     0.211 HD
ENDBRANCH   3  13
BRANCH   4  15
ATOM     15  C   UNL     1      19.348  -6.347  16.759  1.00  0.00     0.191 C 
BRANCH  15  16
ATOM     16  O   UNL     1      19.208  -7.346  17.732  1.00  0.00    -0.394 OA
ATOM     17  H   UNL     1      19.713  -7.042  18.531  1.00  0.00     0.210 HD
ENDBRANCH  15  16
ENDBRANCH   4  15
TORSDOF 7
ENDMDL
MODEL 2
REMARK VINA RESULT:    -5.494      1.501      1.944
REMARK INTER + INTRA:          -7.335
REMARK INTER:                  -7.154
REMARK INTRA:                  -0.181
REMARK UNBOUND:                -0.236
REMARK SMILES CO[C@@]1(CO)O[C@H](CO)[C@H](O)[C@H]1O
REMARK SMILES IDX 3 1 12 2 10 3 7 4 6 5 2 6 1 7 4 8 5 9 13 11 11 13 8 15 9 16
REMARK H PARENT 5 10 13 12 11 14 9 17
REMARK Flexibility Score: inf
ROOT
ATOM      1  C   UNL     1      21.444  -5.050  16.097  1.00  0.00     0.221 C 
ATOM      2  C   UNL     1      20.688  -5.279  14.763  1.00  0.00     0.207 C 
ATOM      3  C   UNL     1      19.242  -5.275  15.182  1.00  0.00     0.180 C 
ATOM      4  C   UNL     1      19.313  -5.768  16.621  1.00  0.00     0.179 C 
ATOM      5  O   UNL     1      20.558  -5.374  17.157  1.00  0.00    -0.337 OA
ENDROOT
BRANCH   1   6
ATOM      6  O   UNL     1      21.782  -3.671  16.267  1.00  0.00    -0.349 OA
ATOM      7  C   UNL     1      23.100  -3.436  16.731  1.00  0.00     0.198 C 
ENDBRANCH   1   6
BRANCH   1   8
ATOM      8  C   UNL     1      22.655  -6.021  16.227  1.00  0.00     0.224 C 
BRANCH   8   9
ATOM      9  O   UNL     1      22.474  -6.907  17.301  1.00  0.00    -0.391 OA
ATOM     10  H   UNL     1      21.553  -7.269  17.222  1.00  0.00     0.210 HD
ENDBRANCH   8   9
ENDBRANCH   1   8
BRANCH   2  11
ATOM     11  O   UNL     1      20.926  -4.264  13.822  1.00  0.00    -0.385 OA
ATOM     12  H   UNL     1      21.846  -3.930  13.988  1.00  0.00     0.211 HD
ENDBRANCH   2  11
BRANCH   3  13
ATOM     13  O   UNL     1      18.457  -6.105  14.365  1.00  0.00    -0.387 OA
ATOM     14  H   UNL     1      18.975  -6.250  13.531  1.00  0.00     0.211 HD
ENDBRANCH   3  13
BRANCH   4  15
ATOM     15  C   UNL     1      19.153  -7.294  16.762  1.00  0.00     0.191 C 
BRANCH  15  16
ATOM     16  O   UNL     1      19.091  -7.656  18.115  1.00  0.00    -0.394 OA
ATOM     17  H   UNL     1      19.843  -8.283  18.280  1.00  0.00     0.210 HD
ENDBRANCH  15  16
ENDBRANCH   4  15
TORSDOF 7
ENDMDL
MODEL 3
REMARK VINA RESULT:    -5.395      1.252      3.891
REMARK INTER + INTRA:          -7.208
REMARK INTER:                  -7.216
REMARK INTRA:                   0.009
REMARK UNBOUND:                -0.236
REMARK SMILES CO[C@@]1(CO)O[C@H](CO)[C@H](O)[C@H]1O
REMARK SMILES IDX 3 1 12 2 10 3 7 4 6 5 2 6 1 7 4 8 5 9 13 11 11 13 8 15 9 16
REMARK H PARENT 5 10 13 12 11 14 9 17
REMARK Flexibility Score: inf
ROOT
ATOM      1  C   UNL     1      20.246  -4.710  16.118  1.00  0.00     0.221 C 
ATOM      2  C   UNL     1      20.800  -4.925  14.686  1.00  0.00     0.207 C 
ATOM      3  C   UNL     1      22.013  -5.788  14.912  1.00  0.00     0.180 C 
ATOM      4  C   UNL     1      22.443  -5.393  16.318  1.00  0.00     0.179 C 
ATOM      5  O   UNL     1      21.292  -5.001  17.033  1.00  0.00    -0.337 OA
ENDROOT
BRANCH   1   6
ATOM      6  O   UNL     1      19.194  -5.635  16.407  1.00  0.00    -0.349 OA
ATOM      7  C   UNL     1      19.573  -6.729  17.223  1.00  0.00     0.198 C 
ENDBRANCH   1   6
BRANCH   1   8
ATOM      8  C   UNL     1      19.863  -3.219  16.352  1.00  0.00     0.224 C 
BRANCH   8   9
ATOM      9  O   UNL     1      20.657  -2.368  15.568  1.00  0.00    -0.391 OA
ATOM     10  H   UNL     1      20.262  -2.364  14.657  1.00  0.00     0.210 HD
ENDBRANCH   8   9
ENDBRANCH   1   8
BRANCH   2  11
ATOM     11  O   UNL     1      19.887  -5.577  13.842  1.00  0.00    -0.385 OA
ATOM     12  H   UNL     1      19.447  -4.873  13.299  1.00  0.00     0.211 HD
ENDBRANCH   2  11
BRANCH   3  13
ATOM     13  O   UNL     1      23.012  -5.549  13.954  1.00  0.00    -0.387 OA
ATOM     14  H   UNL     1      23.811  -6.059  14.247  1.00  0.00     0.211 HD
ENDBRANCH   3  13
BRANCH   4  15
ATOM     15  C   UNL     1      23.481  -4.255  16.353  1.00  0.00     0.191 C 
BRANCH  15  16
ATOM     16  O   UNL     1      23.606  -3.746  17.653  1.00  0.00    -0.394 OA
ATOM     17  H   UNL     1      23.204  -4.417  18.264  1.00  0.00     0.210 HD
ENDBRANCH  15  16
ENDBRANCH   4  15
TORSDOF 7
ENDMDL
MODEL 4
REMARK VINA RESULT:    -5.385      1.842      3.458
REMARK INTER + INTRA:          -7.195
REMARK INTER:                  -6.879
REMARK INTRA:                  -0.315
REMARK UNBOUND:                -0.236
REMARK SMILES CO[C@@]1(CO)O[C@H](CO)[C@H](O)[C@H]1O
REMARK SMILES IDX 3 1 12 2 10 3 7 4 6 5 2 6 1 7 4 8 5 9 13 11 11 13 8 15 9 16
REMARK H PARENT 5 10 13 12 11 14 9 17
REMARK Flexibility Score: inf
ROOT
ATOM      1  C   UNL     1      19.775  -4.682  15.538  1.00  0.00     0.221 C 
ATOM      2  C   UNL     1      19.621  -6.154  15.074  1.00  0.00     0.207 C 
ATOM      3  C   UNL     1      20.050  -6.942  16.283  1.00  0.00     0.180 C 
ATOM      4  C   UNL     1      21.028  -5.995  16.965  1.00  0.00     0.179 C 
ATOM      5  O   UNL     1      20.638  -4.673  16.664  1.00  0.00    -0.337 OA
ENDROOT
BRANCH   1   6
ATOM      6  O   UNL     1      18.526  -4.150  15.986  1.00  0.00    -0.349 OA
ATOM      7  C   UNL     1      18.520  -3.705  17.332  1.00  0.00     0.198 C 
ENDBRANCH   1   6
BRANCH   1   8
ATOM      8  C   UNL     1      20.475  -3.822  14.444  1.00  0.00     0.224 C 
BRANCH   8   9
ATOM      9  O   UNL     1      21.414  -4.585  13.731  1.00  0.00    -0.391 OA
ATOM     10  H   UNL     1      22.278  -4.097  13.782  1.00  0.00     0.210 HD
ENDBRANCH   8   9
ENDBRANCH   1   8
BRANCH   2  11
ATOM     11  O   UNL     1      18.300  -6.477  14.724  1.00  0.00    -0.385 OA
ATOM     12  H   UNL     1      17.764  -6.435  15.559  1.00  0.00     0.211 HD
ENDBRANCH   2  11
BRANCH   3  13
ATOM     13  O   UNL     1      20.641  -8.166  15.928  1.00  0.00    -0.387 OA
ATOM     14  H   UNL     1      21.602  -7.979  15.771  1.00  0.00     0.211 HD
ENDBRANCH   3  13
BRANCH   4  15
ATOM     15  C   UNL     1      22.494  -6.207  16.542  1.00  0.00     0.191 C 
BRANCH  15  16
ATOM     16  O   UNL     1      23.083  -7.222  17.310  1.00  0.00    -0.394 OA
ATOM     17  H   UNL     1      24.050  -7.228  17.085  1.00  0.00     0.210 HD
ENDBRANCH  15  16
ENDBRANCH   4  15
TORSDOF 7
ENDMDL
MODEL 5
REMARK VINA RESULT:    -5.340      1.575      2.554
REMARK INTER + INTRA:          -7.136
REMARK INTER:                  -7.102
REMARK INTRA:                  -0.034
REMARK UNBOUND:                -0.236
REMARK SMILES CO[C@@]1(CO)O[C@H](CO)[C@H](O)[C@H]1O
REMARK SMILES IDX 3 1 12 2 10 3 7 4 6 5 2 6 1 7 4 8 5 9 13 11 11 13 8 15 9 16
REMARK H PARENT 5 10 13 12 11 14 9 17
REMARK Flexibility Score: inf
ROOT
ATOM      1  C   UNL     1      22.152  -5.191  16.263  1.00  0.00     0.221 C 
ATOM      2  C   UNL     1      21.611  -5.211  14.811  1.00  0.00     0.207 C 
ATOM      3  C   UNL     1      20.956  -3.863  14.668  1.00  0.00     0.180 C 
ATOM      4  C   UNL     1      20.543  -3.544  16.098  1.00  0.00     0.179 C 
ATOM      5  O   UNL     1      21.456  -4.175  16.969  1.00  0.00    -0.337 OA
ENDROOT
BRANCH   1   6
ATOM      6  O   UNL     1      23.534  -4.823  16.293  1.00  0.00    -0.349 OA
ATOM      7  C   UNL     1      23.813  -3.623  16.993  1.00  0.00     0.198 C 
ENDBRANCH   1   6
BRANCH   1   8
ATOM      8  C   UNL     1      21.836  -6.528  16.997  1.00  0.00     0.224 C 
BRANCH   8   9
ATOM      9  O   UNL     1      23.018  -7.209  17.329  1.00  0.00    -0.391 OA
ATOM     10  H   UNL     1      23.450  -6.694  18.060  1.00  0.00     0.210 HD
ENDBRANCH   8   9
ENDBRANCH   1   8
BRANCH   2  11
ATOM     11  O   UNL     1      22.628  -5.363  13.854  1.00  0.00    -0.385 OA
ATOM     12  H   UNL     1      23.330  -5.928  14.270  1.00  0.00     0.211 HD
ENDBRANCH   2  11
BRANCH   3  13
ATOM     13  O   UNL     1      19.864  -3.901  13.785  1.00  0.00    -0.387 OA
ATOM     14  H   UNL     1      19.180  -3.288  14.158  1.00  0.00     0.211 HD
ENDBRANCH   3  13
BRANCH   4  15
ATOM     15  C   UNL     1      19.110  -3.992  16.445  1.00  0.00     0.191 C 
BRANCH  15  16
ATOM     16  O   UNL     1      19.094  -4.680  17.666  1.00  0.00    -0.394 OA
ATOM     17  H   UNL     1      18.809  -4.029  18.359  1.00  0.00     0.210 HD
ENDBRANCH  15  16
ENDBRANCH   4  15
TORSDOF 7
ENDMDL
MODEL 6
REMARK VINA RESULT:    -5.200      1.431      4.145
REMARK INTER + INTRA:          -6.955
REMARK INTER:                  -6.683
REMARK INTRA:                  -0.272
REMARK UNBOUND:                -0.236
REMARK SMILES CO[C@@]1(CO)O[C@H](CO)[C@H](O)[C@H]1O
REMARK SMILES IDX 3 1 12 2 10 3 7 4 6 5 2 6 1 7 4 8 5 9 13 11 11 13 8 15 9 16
REMARK H PARENT 5 10 13 12 11 14 9 17
REMARK Flexibility Score: inf
ROOT
ATOM      1  C   UNL     1      19.371  -5.694  15.594  1.00  0.00     0.221 C 
ATOM      2  C   UNL     1      19.676  -4.423  16.428  1.00  0.00     0.207 C 
ATOM      3  C   UNL     1      20.426  -3.548  15.459  1.00  0.00     0.180 C 
ATOM      4  C   UNL     1      21.084  -4.564  14.536  1.00  0.00     0.179 C 
ATOM      5  O   UNL     1      20.261  -5.709  14.489  1.00  0.00    -0.337 OA
ENDROOT
BRANCH   1   6
ATOM      6  O   UNL     1      18.052  -5.644  15.045  1.00  0.00    -0.349 OA
ATOM      7  C   UNL     1      17.461  -6.910  14.804  1.00  0.00     0.198 C 
ENDBRANCH   1   6
BRANCH   1   8
ATOM      8  C   UNL     1      19.669  -6.985  16.414  1.00  0.00     0.224 C 
BRANCH   8   9
ATOM      9  O   UNL     1      19.317  -6.815  17.762  1.00  0.00    -0.391 OA
ATOM     10  H   UNL     1      18.695  -7.555  17.992  1.00  0.00     0.210 HD
ENDBRANCH   8   9
ENDBRANCH   1   8
BRANCH   2  11
ATOM     11  O   UNL     1      18.514  -3.773  16.874  1.00  0.00    -0.385 OA
ATOM     12  H   UNL     1      18.112  -3.330  16.082  1.00  0.00     0.211 HD
ENDBRANCH   2  11
BRANCH   3  13
ATOM     13  O   UNL     1      21.359  -2.724  16.110  1.00  0.00    -0.387 OA
ATOM     14  H   UNL     1      21.169  -1.797  15.816  1.00  0.00     0.211 HD
ENDBRANCH   3  13
BRANCH   4  15
ATOM     15  C   UNL     1      22.505  -4.971  14.974  1.00  0.00     0.191 C 
BRANCH  15  16
ATOM     16  O   UNL     1      23.146  -5.683  13.951  1.00  0.00    -0.394 OA
ATOM     17  H   UNL     1      24.060  -5.892  14.277  1.00  0.00     0.210 HD
ENDBRANCH  15  16
ENDBRANCH   4  15
TORSDOF 7
ENDMDL
MODEL 7
REMARK VINA RESULT:    -5.192      1.415      3.277
REMARK INTER + INTRA:          -6.945
REMARK INTER:                  -6.642
REMARK INTRA:                  -0.303
REMARK UNBOUND:                -0.236
REMARK SMILES CO[C@@]1(CO)O[C@H](CO)[C@H](O)[C@H]1O
REMARK SMILES IDX 3 1 12 2 10 3 7 4 6 5 2 6 1 7 4 8 5 9 13 11 11 13 8 15 9 16
REMARK H PARENT 5 10 13 12 11 14 9 17
REMARK Flexibility Score: inf
ROOT
ATOM      1  C   UNL     1      22.436  -4.711  15.874  1.00  0.00     0.221 C 
ATOM      2  C   UNL     1      21.750  -5.512  17.010  1.00  0.00     0.207 C 
ATOM      3  C   UNL     1      20.323  -5.622  16.540  1.00  0.00     0.180 C 
ATOM      4  C   UNL     1      20.160  -4.373  15.684  1.00  0.00     0.179 C 
ATOM      5  O   UNL     1      21.419  -4.052  15.135  1.00  0.00    -0.337 OA
ENDROOT
BRANCH   1   6
ATOM      6  O   UNL     1      23.096  -5.584  14.954  1.00  0.00    -0.349 OA
ATOM      7  C   UNL     1      24.496  -5.393  14.855  1.00  0.00     0.198 C 
ENDBRANCH   1   6
BRANCH   1   8
ATOM      8  C   UNL     1      23.351  -3.591  16.453  1.00  0.00     0.224 C 
BRANCH   8   9
ATOM      9  O   UNL     1      23.668  -3.848  17.796  1.00  0.00    -0.391 OA
ATOM     10  H   UNL     1      23.342  -3.071  18.322  1.00  0.00     0.210 HD
ENDBRANCH   8   9
ENDBRANCH   1   8
BRANCH   2  11
ATOM     11  O   UNL     1      22.305  -6.790  17.186  1.00  0.00    -0.385 OA
ATOM     12  H   UNL     1      21.789  -7.228  17.912  1.00  0.00     0.211 HD
ENDBRANCH   2  11
BRANCH   3  13
ATOM     13  O   UNL     1      19.419  -5.664  17.614  1.00  0.00    -0.387 OA
ATOM     14  H   UNL     1      18.670  -6.247  17.329  1.00  0.00     0.211 HD
ENDBRANCH   3  13
BRANCH   4  15
ATOM     15  C   UNL     1      19.611  -3.159  16.458  1.00  0.00     0.191 C 
BRANCH  15  16
ATOM     16  O   UNL     1      20.235  -1.981  16.024  1.00  0.00    -0.394 OA
ATOM     17  H   UNL     1      19.514  -1.370  15.718  1.00  0.00     0.210 HD
ENDBRANCH  15  16
ENDBRANCH   4  15
TORSDOF 7
ENDMDL
MODEL 8
REMARK VINA RESULT:    -5.172      1.889      4.183
REMARK INTER + INTRA:          -6.920
REMARK INTER:                  -6.634
REMARK INTRA:                  -0.286
REMARK UNBOUND:                -0.236
REMARK SMILES CO[C@@]1(CO)O[C@H](CO)[C@H](O)[C@H]1O
REMARK SMILES IDX 3 1 12 2 10 3 7 4 6 5 2 6 1 7 4 8 5 9 13 11 11 13 8 15 9 16
REMARK H PARENT 5 10 13 12 11 14 9 17
REMARK Flexibility Score: inf
ROOT
ATOM      1  C   UNL     1      19.893  -5.616  15.561  1.00  0.00     0.221 C 
ATOM      2  C   UNL     1      21.057  -6.639  15.593  1.00  0.00     0.207 C 
ATOM      3  C   UNL     1      21.693  -6.396  16.936  1.00  0.00     0.180 C 
ATOM      4  C   UNL     1      21.378  -4.928  17.190  1.00  0.00     0.179 C 
ATOM      5  O   UNL     1      20.165  -4.622  16.537  1.00  0.00    -0.337 OA
ENDROOT
BRANCH   1   6
ATOM      6  O   UNL     1      18.660  -6.228  15.948  1.00  0.00    -0.349 OA
ATOM      7  C   UNL     1      17.713  -6.365  14.903  1.00  0.00     0.198 C 
ENDBRANCH   1   6
BRANCH   1   8
ATOM      8  C   UNL     1      19.833  -4.878  14.191  1.00  0.00     0.224 C 
BRANCH   8   9
ATOM      9  O   UNL     1      21.118  -4.507  13.765  1.00  0.00    -0.391 OA
ATOM     10  H   UNL     1      21.723  -5.263  13.985  1.00  0.00     0.210 HD
ENDBRANCH   8   9
ENDBRANCH   1   8
BRANCH   2  11
ATOM     11  O   UNL     1      20.616  -7.968  15.495  1.00  0.00    -0.385 OA
ATOM     12  H   UNL     1      19.671  -7.978  15.798  1.00  0.00     0.211 HD
ENDBRANCH   2  11
BRANCH   3  13
ATOM     13  O   UNL     1      23.073  -6.657  16.918  1.00  0.00    -0.387 OA
ATOM     14  H   UNL     1      23.503  -5.934  17.444  1.00  0.00     0.211 HD
ENDBRANCH   3  13
BRANCH   4  15
ATOM     15  C   UNL     1      22.479  -3.964  16.707  1.00  0.00     0.191 C 
BRANCH  15  16
ATOM     16  O   UNL     1      23.510  -3.886  17.653  1.00  0.00    -0.394 OA
ATOM     17  H   UNL     1      23.560  -2.939  17.945  1.00  0.00     0.210 HD
ENDBRANCH  15  16
ENDBRANCH   4  15
TORSDOF 7
ENDMDL
MODEL 9
REMARK VINA RESULT:    -5.167      1.833      4.086
REMARK INTER + INTRA:          -6.913
REMARK INTER:                  -6.448
REMARK INTRA:                  -0.465
REMARK UNBOUND:                -0.236
REMARK SMILES CO[C@@]1(CO)O[C@H](CO)[C@H](O)[C@H]1O
REMARK SMILES IDX 3 1 12 2 10 3 7 4 6 5 2 6 1 7 4 8 5 9 13 11 11 13 8 15 9 16
REMARK H PARENT 5 10 13 12 11 14 9 17
REMARK Flexibility Score: inf
ROOT
ATOM      1  C   UNL     1      19.817  -5.318  16.099  1.00  0.00     0.221 C 
ATOM      2  C   UNL     1      20.409  -6.635  16.664  1.00  0.00     0.207 C 
ATOM      3  C   UNL     1      21.778  -6.222  17.136  1.00  0.00     0.180 C 
ATOM      4  C   UNL     1      22.108  -5.056  16.214  1.00  0.00     0.179 C 
ATOM      5  O   UNL     1      20.896  -4.433  15.847  1.00  0.00    -0.337 OA
ENDROOT
BRANCH   1   6
ATOM      6  O   UNL     1      18.986  -4.671  17.067  1.00  0.00    -0.349 OA
ATOM      7  C   UNL     1      18.926  -3.260  16.948  1.00  0.00     0.198 C 
ENDBRANCH   1   6
BRANCH   1   8
ATOM      8  C   UNL     1      19.121  -5.562  14.727  1.00  0.00     0.224 C 
BRANCH   8   9
ATOM      9  O   UNL     1      18.219  -6.634  14.806  1.00  0.00    -0.391 OA
ATOM     10  H   UNL     1      17.834  -6.620  15.721  1.00  0.00     0.210 HD
ENDBRANCH   8   9
ENDBRANCH   1   8
BRANCH   2  11
ATOM     11  O   UNL     1      19.660  -7.153  17.733  1.00  0.00    -0.385 OA
ATOM     12  H   UNL     1      20.138  -7.962  18.051  1.00  0.00     0.211 HD
ENDBRANCH   2  11
BRANCH   3  13
ATOM     13  O   UNL     1      22.706  -7.271  17.034  1.00  0.00    -0.387 OA
ATOM     14  H   UNL     1      22.996  -7.299  16.086  1.00  0.00     0.211 HD
ENDBRANCH   3  13
BRANCH   4  15
ATOM     15  C   UNL     1      22.878  -5.469  14.944  1.00  0.00     0.191 C 
BRANCH  15  16
ATOM     16  O   UNL     1      24.220  -5.731  15.250  1.00  0.00    -0.394 OA
ATOM     17  H   UNL     1      24.749  -4.967  14.903  1.00  0.00     0.210 HD
ENDBRANCH  15  16
ENDBRANCH   4  15
TORSDOF 7
ENDMDL
