MODEL 1
REMARK VINA RESULT:    -3.385      0.000      0.000
REMARK INTER + INTRA:          -5.644
REMARK INTER:                  -5.166
REMARK INTRA:                  -0.478
REMARK UNBOUND:                -0.478
REMARK SMILES CC1=CCC[C@H](C)C(=O)C[C@H](C(C)C)C(=O)C1
REMARK SMILES IDX 8 1 9 2 6 3 7 4 5 5 4 6 3 7 2 8 1 9 10 11 11 12 15 13 16 14
REMARK SMILES IDX 17 15 12 17 13 18 14 19
REMARK H PARENT
REMARK Flexibility Score: 70.00
ROOT
ATOM      1  C   UNL     1     101.654 134.850 125.522  1.00  0.00     0.136 C 
ATOM      2  O   UNL     1     101.906 135.664 126.397  1.00  0.00    -0.299 OA
ENDROOT
BRANCH   1   3
ATOM      3  C   UNL     1     100.728 135.228 124.376  1.00  0.00     0.053 C 
ATOM      4  C   UNL     1      99.427 135.843 124.911  1.00  0.00     0.016 C 
BRANCH   3   5
ATOM      5  C   UNL     1     101.435 136.197 123.397  1.00  0.00     0.015 C 
BRANCH   5   6
ATOM      6  C   UNL     1     102.087 135.461 122.208  1.00  0.00     0.028 C 
BRANCH   6   7
ATOM      7  C   UNL     1     103.572 135.297 122.411  1.00  0.00    -0.028 C 
ATOM      8  C   UNL     1     104.212 134.105 122.484  1.00  0.00    -0.070 CG0
ATOM      9  C   UNL     1     105.697 134.115 122.742  1.00  0.00     0.039 C 
ATOM     10  G   UNL     1     103.500 132.770 122.315  1.00  0.00     0.000 G0
ENDBRANCH   6   7
ENDBRANCH   5   6
ENDBRANCH   3   5
ENDBRANCH   1   3
BRANCH   1  11
ATOM     11  C   UNL     1     102.289 133.480 125.585  1.00  0.00     0.087 C 
BRANCH  11  12
ATOM     12  C   UNL     1     101.906 132.544 124.401  1.00  0.00     0.066 C 
BRANCH  12  13
ATOM     13  C   UNL     1     103.151 132.117 123.636  1.00  0.00     0.140 C 
ATOM     14  O   UNL     1     103.851 131.213 124.073  1.00  0.00    -0.299 OA
BRANCH  13  15
ATOM     15  C   UNL     1     103.498 132.749 122.312  1.00  0.00     0.106 CG0
ATOM     16  G   UNL     1     104.189 134.094 122.479  1.00  0.00     0.000 G0
ENDBRANCH  13  15
ENDBRANCH  12  13
BRANCH  12  17
ATOM     17  C   UNL     1     101.029 131.311 124.802  1.00  0.00    -0.006 C 
ATOM     18  C   UNL     1     100.702 131.277 126.306  1.00  0.00     0.008 C 
ATOM     19  C   UNL     1      99.707 131.298 124.010  1.00  0.00     0.008 C 
ENDBRANCH  12  17
ENDBRANCH  11  12
ENDBRANCH   1  11
TORSDOF 1
ENDMDL
MODEL 2
REMARK VINA RESULT:    -3.003      1.780      2.183
REMARK INTER + INTRA:          -5.061
REMARK INTER:                  -4.981
REMARK INTRA:                  -0.080
REMARK UNBOUND:                -0.478
REMARK SMILES CC1=CCC[C@H](C)C(=O)C[C@H](C(C)C)C(=O)C1
REMARK SMILES IDX 8 1 9 2 6 3 7 4 5 5 4 6 3 7 2 8 1 9 10 11 11 12 15 13 16 14
REMARK SMILES IDX 17 15 12 17 13 18 14 19
REMARK H PARENT
REMARK Flexibility Score: 70.00
ROOT
ATOM      1  C   UNL     1     101.068 133.798 125.617  1.00  0.00     0.136 C 
ATOM      2  O   UNL     1     100.373 134.333 126.468  1.00  0.00    -0.299 OA
ENDROOT
BRANCH   1   3
ATOM      3  C   UNL     1     101.700 134.635 124.515  1.00  0.00     0.053 C 
ATOM      4  C   UNL     1     100.960 135.971 124.356  1.00  0.00     0.016 C 
BRANCH   3   5
ATOM      5  C   UNL     1     103.204 134.867 124.797  1.00  0.00     0.015 C 
BRANCH   5   6
ATOM      6  C   UNL     1     104.104 134.356 123.654  1.00  0.00     0.028 C 
BRANCH   6   7
ATOM      7  C   UNL     1     105.303 133.615 124.188  1.00  0.00    -0.028 C 
ATOM      8  C   UNL     1     105.428 132.265 124.212  1.00  0.00    -0.070 CG0
ATOM      9  C   UNL     1     106.673 131.681 124.829  1.00  0.00     0.039 C 
ATOM     10  G   UNL     1     104.373 131.326 123.644  1.00  0.00     0.000 G0
ENDBRANCH   6   7
ENDBRANCH   5   6
ENDBRANCH   3   5
ENDBRANCH   1   3
BRANCH   1  11
ATOM     11  C   UNL     1     101.303 132.307 125.688  1.00  0.00     0.087 C 
BRANCH  11  12
ATOM     12  C   UNL     1     101.860 131.685 124.374  1.00  0.00     0.066 C 
BRANCH  12  13
ATOM     13  C   UNL     1     103.232 131.070 124.617  1.00  0.00     0.140 C 
ATOM     14  O   UNL     1     103.400 130.320 125.570  1.00  0.00    -0.299 OA
BRANCH  13  15
ATOM     15  C   UNL     1     104.371 131.320 123.661  1.00  0.00     0.106 CG0
ATOM     16  G   UNL     1     105.411 132.268 124.241  1.00  0.00     0.000 G0
ENDBRANCH  13  15
ENDBRANCH  12  13
BRANCH  12  17
ATOM     17  C   UNL     1     100.895 130.673 123.671  1.00  0.00    -0.006 C 
ATOM     18  C   UNL     1      99.447 130.778 124.181  1.00  0.00     0.008 C 
ATOM     19  C   UNL     1     100.897 130.886 122.145  1.00  0.00     0.008 C 
ENDBRANCH  12  17
ENDBRANCH  11  12
ENDBRANCH   1  11
TORSDOF 1
ENDMDL
MODEL 3
REMARK VINA RESULT:    -2.915     13.829     15.832
REMARK INTER + INTRA:          -4.927
REMARK INTER:                  -4.543
REMARK INTRA:                  -0.384
REMARK UNBOUND:                -0.478
REMARK SMILES CC1=CCC[C@H](C)C(=O)C[C@H](C(C)C)C(=O)C1
REMARK SMILES IDX 8 1 9 2 6 3 7 4 5 5 4 6 3 7 2 8 1 9 10 11 11 12 15 13 16 14
REMARK SMILES IDX 17 15 12 17 13 18 14 19
REMARK H PARENT
REMARK Flexibility Score: 70.00
ROOT
ATOM      1  C   UNL     1      97.178 142.906 136.114  1.00  0.00     0.136 C 
ATOM      2  O   UNL     1      98.037 143.716 136.427  1.00  0.00    -0.299 OA
ENDROOT
BRANCH   1   3
ATOM      3  C   UNL     1      97.011 142.500 134.658  1.00  0.00     0.053 C 
ATOM      4  C   UNL     1      96.829 143.738 133.767  1.00  0.00     0.016 C 
BRANCH   3   5
ATOM      5  C   UNL     1      98.215 141.651 134.183  1.00  0.00     0.015 C 
BRANCH   5   6
ATOM      6  C   UNL     1      97.926 140.137 134.240  1.00  0.00     0.028 C 
BRANCH   6   7
ATOM      7  C   UNL     1      98.480 139.518 135.498  1.00  0.00    -0.028 C 
ATOM      8  C   UNL     1      97.728 138.971 136.484  1.00  0.00    -0.070 CG0
ATOM      9  C   UNL     1      98.438 138.439 137.703  1.00  0.00     0.039 C 
ATOM     10  G   UNL     1      96.211 138.870 136.409  1.00  0.00     0.000 G0
ENDBRANCH   6   7
ENDBRANCH   5   6
ENDBRANCH   3   5
ENDBRANCH   1   3
BRANCH   1  11
ATOM     11  C   UNL     1      96.306 142.303 137.192  1.00  0.00     0.087 C 
BRANCH  11  12
ATOM     12  C   UNL     1      95.235 141.306 136.661  1.00  0.00     0.066 C 
BRANCH  12  13
ATOM     13  C   UNL     1      95.481 139.912 137.224  1.00  0.00     0.140 C 
ATOM     14  O   UNL     1      95.050 139.621 138.332  1.00  0.00    -0.299 OA
BRANCH  13  15
ATOM     15  C   UNL     1      96.191 138.863 136.406  1.00  0.00     0.106 CG0
ATOM     16  G   UNL     1      97.705 138.994 136.494  1.00  0.00     0.000 G0
ENDBRANCH  13  15
ENDBRANCH  12  13
BRANCH  12  17
ATOM     17  C   UNL     1      93.754 141.760 136.884  1.00  0.00    -0.006 C 
ATOM     18  C   UNL     1      93.544 142.467 138.235  1.00  0.00     0.008 C 
ATOM     19  C   UNL     1      93.297 142.706 135.756  1.00  0.00     0.008 C 
ENDBRANCH  12  17
ENDBRANCH  11  12
ENDBRANCH   1  11
TORSDOF 1
ENDMDL
MODEL 4
REMARK VINA RESULT:    -2.859     14.092     16.628
REMARK INTER + INTRA:          -4.841
REMARK INTER:                  -4.433
REMARK INTRA:                  -0.408
REMARK UNBOUND:                -0.478
REMARK SMILES CC1=CCC[C@H](C)C(=O)C[C@H](C(C)C)C(=O)C1
REMARK SMILES IDX 8 1 9 2 6 3 7 4 5 5 4 6 3 7 2 8 1 9 10 11 11 12 15 13 16 14
REMARK SMILES IDX 17 15 12 17 13 18 14 19
REMARK H PARENT
REMARK Flexibility Score: 70.00
ROOT
ATOM      1  C   UNL     1      98.205 141.947 135.893  1.00  0.00     0.136 C 
ATOM      2  O   UNL     1      99.382 141.748 136.154  1.00  0.00    -0.299 OA
ENDROOT
BRANCH   1   3
ATOM      3  C   UNL     1      97.564 141.253 134.700  1.00  0.00     0.053 C 
ATOM      4  C   UNL     1      98.060 141.868 133.384  1.00  0.00     0.016 C 
BRANCH   3   5
ATOM      5  C   UNL     1      97.842 139.730 134.738  1.00  0.00     0.015 C 
BRANCH   5   6
ATOM      6  C   UNL     1      96.744 138.949 135.488  1.00  0.00     0.028 C 
BRANCH   6   7
ATOM      7  C   UNL     1      97.120 138.722 136.930  1.00  0.00    -0.028 C 
ATOM      8  C   UNL     1      96.486 139.281 137.989  1.00  0.00    -0.070 CG0
ATOM      9  C   UNL     1      97.021 138.990 139.368  1.00  0.00     0.039 C 
ATOM     10  G   UNL     1      95.267 140.182 137.844  1.00  0.00     0.000 G0
ENDBRANCH   6   7
ENDBRANCH   5   6
ENDBRANCH   3   5
ENDBRANCH   1   3
BRANCH   1  11
ATOM     11  C   UNL     1      97.399 142.869 136.778  1.00  0.00     0.087 C 
BRANCH  11  12
ATOM     12  C   UNL     1      95.880 142.534 136.832  1.00  0.00     0.066 C 
BRANCH  12  13
ATOM     13  C   UNL     1      95.573 141.647 138.032  1.00  0.00     0.140 C 
ATOM     14  O   UNL     1      95.537 142.136 139.153  1.00  0.00    -0.299 OA
BRANCH  13  15
ATOM     15  C   UNL     1      95.249 140.186 137.849  1.00  0.00     0.106 CG0
ATOM     16  G   UNL     1      96.482 139.303 137.977  1.00  0.00     0.000 G0
ENDBRANCH  13  15
ENDBRANCH  12  13
BRANCH  12  17
ATOM     17  C   UNL     1      94.935 143.781 136.785  1.00  0.00    -0.006 C 
ATOM     18  C   UNL     1      95.643 145.081 137.209  1.00  0.00     0.008 C 
ATOM     19  C   UNL     1      94.354 143.974 135.371  1.00  0.00     0.008 C 
ENDBRANCH  12  17
ENDBRANCH  11  12
ENDBRANCH   1  11
TORSDOF 1
ENDMDL
MODEL 5
REMARK VINA RESULT:    -2.806     15.020     17.611
REMARK INTER + INTRA:          -4.761
REMARK INTER:                  -4.369
REMARK INTRA:                  -0.391
REMARK UNBOUND:                -0.478
REMARK SMILES CC1=CCC[C@H](C)C(=O)C[C@H](C(C)C)C(=O)C1
REMARK SMILES IDX 8 1 9 2 6 3 7 4 5 5 4 6 3 7 2 8 1 9 10 11 11 12 15 13 16 14
REMARK SMILES IDX 17 15 12 17 13 18 14 19
REMARK H PARENT
REMARK Flexibility Score: 70.00
ROOT
ATOM      1  C   UNL     1      96.903 145.278 134.926  1.00  0.00     0.136 C 
ATOM      2  O   UNL     1      97.048 146.174 134.108  1.00  0.00    -0.299 OA
ENDROOT
BRANCH   1   3
ATOM      3  C   UNL     1      97.001 145.583 136.413  1.00  0.00     0.053 C 
ATOM      4  C   UNL     1      98.411 146.073 136.775  1.00  0.00     0.016 C 
BRANCH   3   5
ATOM      5  C   UNL     1      95.932 146.621 136.831  1.00  0.00     0.015 C 
BRANCH   5   6
ATOM      6  C   UNL     1      94.512 146.217 136.385  1.00  0.00     0.028 C 
BRANCH   6   7
ATOM      7  C   UNL     1      93.892 145.235 137.347  1.00  0.00    -0.028 C 
ATOM      8  C   UNL     1      93.622 143.939 137.058  1.00  0.00    -0.070 CG0
ATOM      9  C   UNL     1      92.952 143.103 138.119  1.00  0.00     0.039 C 
ATOM     10  G   UNL     1      93.966 143.300 135.720  1.00  0.00     0.000 G0
ENDBRANCH   6   7
ENDBRANCH   5   6
ENDBRANCH   3   5
ENDBRANCH   1   3
BRANCH   1  11
ATOM     11  C   UNL     1      96.609 143.878 134.440  1.00  0.00     0.087 C 
BRANCH  11  12
ATOM     12  C   UNL     1      96.530 142.813 135.573  1.00  0.00     0.066 C 
BRANCH  12  13
ATOM     13  C   UNL     1      95.094 142.338 135.758  1.00  0.00     0.140 C 
ATOM     14  O   UNL     1      94.874 141.162 136.015  1.00  0.00    -0.299 OA
BRANCH  13  15
ATOM     15  C   UNL     1      93.945 143.311 135.692  1.00  0.00     0.106 CG0
ATOM     16  G   UNL     1      93.623 143.913 137.052  1.00  0.00     0.000 G0
ENDBRANCH  13  15
ENDBRANCH  12  13
BRANCH  12  17
ATOM     17  C   UNL     1      97.515 141.608 135.405  1.00  0.00    -0.006 C 
ATOM     18  C   UNL     1      97.797 141.271 133.930  1.00  0.00     0.008 C 
ATOM     19  C   UNL     1      98.854 141.894 136.110  1.00  0.00     0.008 C 
ENDBRANCH  12  17
ENDBRANCH  11  12
ENDBRANCH   1  11
TORSDOF 1
ENDMDL
MODEL 6
REMARK VINA RESULT:    -2.598     13.681     15.481
REMARK INTER + INTRA:          -4.444
REMARK INTER:                  -4.305
REMARK INTRA:                  -0.138
REMARK UNBOUND:                -0.478
REMARK SMILES CC1=CCC[C@H](C)C(=O)C[C@H](C(C)C)C(=O)C1
REMARK SMILES IDX 8 1 9 2 6 3 7 4 5 5 4 6 3 7 2 8 1 9 10 11 11 12 15 13 16 14
REMARK SMILES IDX 17 15 12 17 13 18 14 19
REMARK H PARENT
REMARK Flexibility Score: 70.00
ROOT
ATOM      1  C   UNL     1     100.094 141.210 137.250  1.00  0.00     0.136 C 
ATOM      2  O   UNL     1     100.561 141.949 136.397  1.00  0.00    -0.299 OA
ENDROOT
BRANCH   1   3
ATOM      3  C   UNL     1     101.003 140.593 138.303  1.00  0.00     0.053 C 
ATOM      4  C   UNL     1     100.377 140.718 139.700  1.00  0.00     0.016 C 
BRANCH   3   5
ATOM      5  C   UNL     1     101.309 139.114 137.965  1.00  0.00     0.015 C 
BRANCH   5   6
ATOM      6  C   UNL     1     100.787 138.144 139.044  1.00  0.00     0.028 C 
BRANCH   6   7
ATOM      7  C   UNL     1     100.069 136.970 138.426  1.00  0.00    -0.028 C 
ATOM      8  C   UNL     1      98.770 136.978 138.038  1.00  0.00    -0.070 CG0
ATOM      9  C   UNL     1      98.190 135.702 137.484  1.00  0.00     0.039 C 
ATOM     10  G   UNL     1      97.885 138.212 138.136  1.00  0.00     0.000 G0
ENDBRANCH   6   7
ENDBRANCH   5   6
ENDBRANCH   3   5
ENDBRANCH   1   3
BRANCH   1  11
ATOM     11  C   UNL     1      98.607 140.937 137.255  1.00  0.00     0.087 C 
BRANCH  11  12
ATOM     12  C   UNL     1      98.140 139.934 136.160  1.00  0.00     0.066 C 
BRANCH  12  13
ATOM     13  C   UNL     1      97.440 138.740 136.797  1.00  0.00     0.140 C 
ATOM     14  O   UNL     1      96.549 138.164 136.187  1.00  0.00    -0.299 OA
BRANCH  13  15
ATOM     15  C   UNL     1      97.875 138.217 138.142  1.00  0.00     0.106 CG0
ATOM     16  G   UNL     1      98.743 136.973 138.023  1.00  0.00     0.000 G0
ENDBRANCH  13  15
ENDBRANCH  12  13
BRANCH  12  17
ATOM     17  C   UNL     1      97.271 140.567 135.023  1.00  0.00    -0.006 C 
ATOM     18  C   UNL     1      96.419 141.752 135.514  1.00  0.00     0.008 C 
ATOM     19  C   UNL     1      98.159 141.048 133.859  1.00  0.00     0.008 C 
ENDBRANCH  12  17
ENDBRANCH  11  12
ENDBRANCH   1  11
TORSDOF 1
ENDMDL
MODEL 7
REMARK VINA RESULT:    -2.560     14.219     16.528
REMARK INTER + INTRA:          -4.385
REMARK INTER:                  -3.983
REMARK INTRA:                  -0.402
REMARK UNBOUND:                -0.478
REMARK SMILES CC1=CCC[C@H](C)C(=O)C[C@H](C(C)C)C(=O)C1
REMARK SMILES IDX 8 1 9 2 6 3 7 4 5 5 4 6 3 7 2 8 1 9 10 11 11 12 15 13 16 14
REMARK SMILES IDX 17 15 12 17 13 18 14 19
REMARK H PARENT
REMARK Flexibility Score: 70.00
ROOT
ATOM      1  C   UNL     1      95.824 142.732 136.597  1.00  0.00     0.136 C 
ATOM      2  O   UNL     1      95.074 143.671 136.376  1.00  0.00    -0.299 OA
ENDROOT
BRANCH   1   3
ATOM      3  C   UNL     1      96.662 142.711 137.866  1.00  0.00     0.053 C 
ATOM      4  C   UNL     1      97.588 143.935 137.925  1.00  0.00     0.016 C 
BRANCH   3   5
ATOM      5  C   UNL     1      95.757 142.644 139.120  1.00  0.00     0.015 C 
BRANCH   5   6
ATOM      6  C   UNL     1      95.109 141.256 139.304  1.00  0.00     0.028 C 
BRANCH   6   7
ATOM      7  C   UNL     1      96.150 140.187 139.518  1.00  0.00    -0.028 C 
ATOM      8  C   UNL     1      96.342 139.123 138.700  1.00  0.00    -0.070 CG0
ATOM      9  C   UNL     1      97.394 138.116 139.085  1.00  0.00     0.039 C 
ATOM     10  G   UNL     1      95.545 138.909 137.421  1.00  0.00     0.000 G0
ENDBRANCH   6   7
ENDBRANCH   5   6
ENDBRANCH   3   5
ENDBRANCH   1   3
BRANCH   1  11
ATOM     11  C   UNL     1      95.889 141.592 135.607  1.00  0.00     0.087 C 
BRANCH  11  12
ATOM     12  C   UNL     1      96.991 140.538 135.919  1.00  0.00     0.066 C 
BRANCH  12  13
ATOM     13  C   UNL     1      96.365 139.172 136.167  1.00  0.00     0.140 C 
ATOM     14  O   UNL     1      96.568 138.261 135.376  1.00  0.00    -0.299 OA
BRANCH  13  15
ATOM     15  C   UNL     1      95.553 138.909 137.409  1.00  0.00     0.106 CG0
ATOM     16  G   UNL     1      96.362 139.117 138.681  1.00  0.00     0.000 G0
ENDBRANCH  13  15
ENDBRANCH  12  13
BRANCH  12  17
ATOM     17  C   UNL     1      98.138 140.459 134.857  1.00  0.00    -0.006 C 
ATOM     18  C   UNL     1      97.983 141.501 133.734  1.00  0.00     0.008 C 
ATOM     19  C   UNL     1      99.514 140.652 135.522  1.00  0.00     0.008 C 
ENDBRANCH  12  17
ENDBRANCH  11  12
ENDBRANCH   1  11
TORSDOF 1
ENDMDL
MODEL 8
REMARK VINA RESULT:    -2.536     14.187     16.200
REMARK INTER + INTRA:          -4.349
REMARK INTER:                  -4.115
REMARK INTRA:                  -0.234
REMARK UNBOUND:                -0.478
REMARK SMILES CC1=CCC[C@H](C)C(=O)C[C@H](C(C)C)C(=O)C1
REMARK SMILES IDX 8 1 9 2 6 3 7 4 5 5 4 6 3 7 2 8 1 9 10 11 11 12 15 13 16 14
REMARK SMILES IDX 17 15 12 17 13 18 14 19
REMARK H PARENT
REMARK Flexibility Score: 70.00
ROOT
ATOM      1  C   UNL     1      97.494 139.736 135.065  1.00  0.00     0.136 C 
ATOM      2  O   UNL     1      97.726 139.641 133.869  1.00  0.00    -0.299 OA
ENDROOT
BRANCH   1   3
ATOM      3  C   UNL     1      98.013 140.933 135.848  1.00  0.00     0.053 C 
ATOM      4  C   UNL     1      99.530 140.824 136.062  1.00  0.00     0.016 C 
BRANCH   3   5
ATOM      5  C   UNL     1      97.651 142.256 135.130  1.00  0.00     0.015 C 
BRANCH   5   6
ATOM      6  C   UNL     1      96.265 142.790 135.545  1.00  0.00     0.028 C 
BRANCH   6   7
ATOM      7  C   UNL     1      96.083 142.744 137.041  1.00  0.00    -0.028 C 
ATOM      8  C   UNL     1      95.282 141.866 137.693  1.00  0.00    -0.070 CG0
ATOM      9  C   UNL     1      95.173 141.988 139.191  1.00  0.00     0.039 C 
ATOM     10  G   UNL     1      94.500 140.772 136.981  1.00  0.00     0.000 G0
ENDBRANCH   6   7
ENDBRANCH   5   6
ENDBRANCH   3   5
ENDBRANCH   1   3
BRANCH   1  11
ATOM     11  C   UNL     1      96.673 138.664 135.743  1.00  0.00     0.087 C 
BRANCH  11  12
ATOM     12  C   UNL     1      96.368 138.948 137.243  1.00  0.00     0.066 C 
BRANCH  12  13
ATOM     13  C   UNL     1      94.920 139.387 137.418  1.00  0.00     0.140 C 
ATOM     14  O   UNL     1      94.118 138.632 137.949  1.00  0.00    -0.299 OA
BRANCH  13  15
ATOM     15  C   UNL     1      94.477 140.767 137.003  1.00  0.00     0.106 CG0
ATOM     16  G   UNL     1      95.274 141.861 137.700  1.00  0.00     0.000 G0
ENDBRANCH  13  15
ENDBRANCH  12  13
BRANCH  12  17
ATOM     17  C   UNL     1      96.732 137.776 138.216  1.00  0.00    -0.006 C 
ATOM     18  C   UNL     1      97.814 136.843 137.645  1.00  0.00     0.008 C 
ATOM     19  C   UNL     1      97.218 138.323 139.572  1.00  0.00     0.008 C 
ENDBRANCH  12  17
ENDBRANCH  11  12
ENDBRANCH   1  11
TORSDOF 1
ENDMDL
MODEL 9
REMARK VINA RESULT:    -2.531     13.980     16.557
REMARK INTER + INTRA:          -4.341
REMARK INTER:                  -4.366
REMARK INTRA:                   0.025
REMARK UNBOUND:                -0.478
REMARK SMILES CC1=CCC[C@H](C)C(=O)C[C@H](C(C)C)C(=O)C1
REMARK SMILES IDX 8 1 9 2 6 3 7 4 5 5 4 6 3 7 2 8 1 9 10 11 11 12 15 13 16 14
REMARK SMILES IDX 17 15 12 17 13 18 14 19
REMARK H PARENT
REMARK Flexibility Score: 70.00
ROOT
ATOM      1  C   UNL     1      96.672 138.665 136.114  1.00  0.00     0.136 C 
ATOM      2  O   UNL     1      96.213 138.442 135.004  1.00  0.00    -0.299 OA
ENDROOT
BRANCH   1   3
ATOM      3  C   UNL     1      96.302 137.767 137.284  1.00  0.00     0.053 C 
ATOM      4  C   UNL     1      97.529 136.985 137.777  1.00  0.00     0.016 C 
BRANCH   3   5
ATOM      5  C   UNL     1      95.676 138.593 138.433  1.00  0.00     0.015 C 
BRANCH   5   6
ATOM      6  C   UNL     1      94.484 139.451 137.960  1.00  0.00     0.028 C 
BRANCH   6   7
ATOM      7  C   UNL     1      94.440 140.775 138.680  1.00  0.00    -0.028 C 
ATOM      8  C   UNL     1      94.729 141.971 138.112  1.00  0.00    -0.070 CG0
ATOM      9  C   UNL     1      94.686 143.198 138.987  1.00  0.00     0.039 C 
ATOM     10  G   UNL     1      95.089 142.124 136.641  1.00  0.00     0.000 G0
ENDBRANCH   6   7
ENDBRANCH   5   6
ENDBRANCH   3   5
ENDBRANCH   1   3
BRANCH   1  11
ATOM     11  C   UNL     1      97.622 139.826 136.298  1.00  0.00     0.087 C 
BRANCH  11  12
ATOM     12  C   UNL     1      97.231 141.103 135.499  1.00  0.00     0.066 C 
BRANCH  12  13
ATOM     13  C   UNL     1      96.581 142.128 136.420  1.00  0.00     0.140 C 
ATOM     14  O   UNL     1      97.268 142.995 136.942  1.00  0.00    -0.299 OA
BRANCH  13  15
ATOM     15  C   UNL     1      95.090 142.128 136.645  1.00  0.00     0.106 CG0
ATOM     16  G   UNL     1      94.730 141.988 138.117  1.00  0.00     0.000 G0
ENDBRANCH  13  15
ENDBRANCH  12  13
BRANCH  12  17
ATOM     17  C   UNL     1      98.397 141.737 134.670  1.00  0.00    -0.006 C 
ATOM     18  C   UNL     1      99.720 140.962 134.814  1.00  0.00     0.008 C 
ATOM     19  C   UNL     1      98.029 141.811 133.175  1.00  0.00     0.008 C 
ENDBRANCH  12  17
ENDBRANCH  11  12
ENDBRANCH   1  11
TORSDOF 1
ENDMDL
