MODEL 1
REMARK VINA RESULT:    -5.794      0.000      0.000
REMARK INTER + INTRA:          -5.963
REMARK INTER:                  -5.963
REMARK INTRA:                   0.000
REMARK UNBOUND:                 0.000
REMARK SMILES O=c1ccc2ccc(O)cc2o1
REMARK SMILES IDX 6 1 7 2 8 3 10 4 11 5 5 6 4 7 3 8 2 9 1 10 12 11 9 12
REMARK H PARENT 9 13
REMARK Flexibility Score: inf
ROOT
ATOM      1  C   UNL     1       3.758  10.117   7.120  1.00  0.00     0.016 A 
ATOM      2  C   UNL     1       3.615   9.988   8.505  1.00  0.00     0.047 A 
ATOM      3  C   UNL     1       4.512  10.623   9.372  1.00  0.00     0.119 A 
ATOM      4  C   UNL     1       5.563  11.393   8.851  1.00  0.00     0.094 A 
ATOM      5  C   UNL     1       5.715  11.527   7.467  1.00  0.00     0.142 A 
ATOM      6  C   UNL     1       4.807  10.886   6.595  1.00  0.00     0.018 A 
ATOM      7  C   UNL     1       4.985  11.039   5.217  1.00  0.00     0.019 A 
ATOM      8  C   UNL     1       6.043  11.815   4.745  1.00  0.00     0.094 A 
ATOM      9  C   UNL     1       6.903  12.421   5.667  1.00  0.00     0.336 A 
ATOM     10  O   UNL     1       7.865  13.124   5.261  1.00  0.00    -0.246 OA
ATOM     11  O   UNL     1       6.711  12.259   6.974  1.00  0.00    -0.423 OA
ENDROOT
BRANCH   3  12
ATOM     12  O   UNL     1       4.353  10.482  10.748  1.00  0.00    -0.508 OA
ATOM     13  H   UNL     1       3.437  10.504  11.181  1.00  0.00     0.293 HD
ENDBRANCH   3  12
TORSDOF 1
ENDMDL
MODEL 2
REMARK VINA RESULT:    -5.447      1.550      4.254
REMARK INTER + INTRA:          -5.606
REMARK INTER:                  -5.606
REMARK INTRA:                   0.000
REMARK UNBOUND:                 0.000
REMARK SMILES O=c1ccc2ccc(O)cc2o1
REMARK SMILES IDX 6 1 7 2 8 3 10 4 11 5 5 6 4 7 3 8 2 9 1 10 12 11 9 12
REMARK H PARENT 9 13
REMARK Flexibility Score: inf
ROOT
ATOM      1  C   UNL     1       6.052  10.853   5.153  1.00  0.00     0.016 A 
ATOM      2  C   UNL     1       7.434  11.016   5.011  1.00  0.00     0.047 A 
ATOM      3  C   UNL     1       8.265  11.030   6.137  1.00  0.00     0.119 A 
ATOM      4  C   UNL     1       7.712  10.880   7.417  1.00  0.00     0.094 A 
ATOM      5  C   UNL     1       6.331  10.717   7.570  1.00  0.00     0.142 A 
ATOM      6  C   UNL     1       5.495  10.703   6.431  1.00  0.00     0.018 A 
ATOM      7  C   UNL     1       4.119  10.538   6.616  1.00  0.00     0.019 A 
ATOM      8  C   UNL     1       3.615  10.392   7.907  1.00  0.00     0.094 A 
ATOM      9  C   UNL     1       4.502  10.416   8.989  1.00  0.00     0.336 A 
ATOM     10  O   UNL     1       4.066  10.287  10.163  1.00  0.00    -0.246 OA
ATOM     11  O   UNL     1       5.808  10.575   8.785  1.00  0.00    -0.423 OA
ENDROOT
BRANCH   3  12
ATOM     12  O   UNL     1       9.639  11.194   5.974  1.00  0.00    -0.508 OA
ATOM     13  H   UNL     1      10.304  10.728   6.580  1.00  0.00     0.293 HD
ENDBRANCH   3  12
TORSDOF 1
ENDMDL
MODEL 3
REMARK VINA RESULT:    -5.396      1.844      2.527
REMARK INTER + INTRA:          -5.554
REMARK INTER:                  -5.554
REMARK INTRA:                   0.000
REMARK UNBOUND:                 0.000
REMARK SMILES O=c1ccc2ccc(O)cc2o1
REMARK SMILES IDX 6 1 7 2 8 3 10 4 11 5 5 6 4 7 3 8 2 9 1 10 12 11 9 12
REMARK H PARENT 9 13
REMARK Flexibility Score: inf
ROOT
ATOM      1  C   UNL     1       6.338  10.461   8.500  1.00  0.00     0.016 A 
ATOM      2  C   UNL     1       4.971  10.183   8.606  1.00  0.00     0.047 A 
ATOM      3  C   UNL     1       4.140  10.277   7.484  1.00  0.00     0.119 A 
ATOM      4  C   UNL     1       4.679  10.652   6.243  1.00  0.00     0.094 A 
ATOM      5  C   UNL     1       6.044  10.933   6.128  1.00  0.00     0.142 A 
ATOM      6  C   UNL     1       6.880  10.836   7.263  1.00  0.00     0.018 A 
ATOM      7  C   UNL     1       8.241  11.122   7.115  1.00  0.00     0.019 A 
ATOM      8  C   UNL     1       8.731  11.491   5.863  1.00  0.00     0.094 A 
ATOM      9  C   UNL     1       7.844  11.566   4.783  1.00  0.00     0.336 A 
ATOM     10  O   UNL     1       8.267  11.897   3.645  1.00  0.00    -0.246 OA
ATOM     11  O   UNL     1       6.553  11.288   4.951  1.00  0.00    -0.423 OA
ENDROOT
BRANCH   3  12
ATOM     12  O   UNL     1       2.782   9.996   7.610  1.00  0.00    -0.508 OA
ATOM     13  H   UNL     1       2.422   9.459   8.390  1.00  0.00     0.293 HD
ENDBRANCH   3  12
TORSDOF 1
ENDMDL
MODEL 4
REMARK VINA RESULT:    -5.384      1.926      4.747
REMARK INTER + INTRA:          -5.542
REMARK INTER:                  -5.542
REMARK INTRA:                   0.000
REMARK UNBOUND:                 0.000
REMARK SMILES O=c1ccc2ccc(O)cc2o1
REMARK SMILES IDX 6 1 7 2 8 3 10 4 11 5 5 6 4 7 3 8 2 9 1 10 12 11 9 12
REMARK H PARENT 9 13
REMARK Flexibility Score: inf
ROOT
ATOM      1  C   UNL     1       7.977  10.885   7.126  1.00  0.00     0.016 A 
ATOM      2  C   UNL     1       8.517  11.299   5.904  1.00  0.00     0.047 A 
ATOM      3  C   UNL     1       7.687  11.506   4.796  1.00  0.00     0.119 A 
ATOM      4  C   UNL     1       6.304  11.296   4.909  1.00  0.00     0.094 A 
ATOM      5  C   UNL     1       5.754  10.882   6.127  1.00  0.00     0.142 A 
ATOM      6  C   UNL     1       6.596  10.675   7.243  1.00  0.00     0.018 A 
ATOM      7  C   UNL     1       6.016  10.261   8.446  1.00  0.00     0.019 A 
ATOM      8  C   UNL     1       4.637  10.066   8.511  1.00  0.00     0.094 A 
ATOM      9  C   UNL     1       3.866  10.290   7.365  1.00  0.00     0.336 A 
ATOM     10  O   UNL     1       2.620  10.119   7.403  1.00  0.00    -0.246 OA
ATOM     11  O   UNL     1       4.443  10.684   6.232  1.00  0.00    -0.423 OA
ENDROOT
BRANCH   3  12
ATOM     12  O   UNL     1       8.244  11.918   3.588  1.00  0.00    -0.508 OA
ATOM     13  H   UNL     1       9.091  12.474   3.557  1.00  0.00     0.293 HD
ENDBRANCH   3  12
TORSDOF 1
ENDMDL
MODEL 5
REMARK VINA RESULT:    -5.348      1.480      1.599
REMARK INTER + INTRA:          -5.504
REMARK INTER:                  -5.504
REMARK INTRA:                   0.000
REMARK UNBOUND:                 0.000
REMARK SMILES O=c1ccc2ccc(O)cc2o1
REMARK SMILES IDX 6 1 7 2 8 3 10 4 11 5 5 6 4 7 3 8 2 9 1 10 12 11 9 12
REMARK H PARENT 9 13
REMARK Flexibility Score: inf
ROOT
ATOM      1  C   UNL     1       4.196  10.169   6.948  1.00  0.00     0.016 A 
ATOM      2  C   UNL     1       3.337  10.265   8.046  1.00  0.00     0.047 A 
ATOM      3  C   UNL     1       3.791  10.803   9.256  1.00  0.00     0.119 A 
ATOM      4  C   UNL     1       5.117  11.247   9.370  1.00  0.00     0.094 A 
ATOM      5  C   UNL     1       5.985  11.154   8.278  1.00  0.00     0.142 A 
ATOM      6  C   UNL     1       5.522  10.611   7.058  1.00  0.00     0.018 A 
ATOM      7  C   UNL     1       6.413  10.532   5.983  1.00  0.00     0.019 A 
ATOM      8  C   UNL     1       7.721  10.987   6.143  1.00  0.00     0.094 A 
ATOM      9  C   UNL     1       8.110  11.512   7.380  1.00  0.00     0.336 A 
ATOM     10  O   UNL     1       9.287  11.927   7.545  1.00  0.00    -0.246 OA
ATOM     11  O   UNL     1       7.242  11.576   8.388  1.00  0.00    -0.423 OA
ENDROOT
BRANCH   3  12
ATOM     12  O   UNL     1       2.919  10.890  10.339  1.00  0.00    -0.508 OA
ATOM     13  H   UNL     1       3.112  11.498  11.127  1.00  0.00     0.293 HD
ENDBRANCH   3  12
TORSDOF 1
ENDMDL
MODEL 6
REMARK VINA RESULT:    -4.985     17.050     18.572
REMARK INTER + INTRA:          -5.131
REMARK INTER:                  -5.131
REMARK INTRA:                   0.000
REMARK UNBOUND:                 0.000
REMARK SMILES O=c1ccc2ccc(O)cc2o1
REMARK SMILES IDX 6 1 7 2 8 3 10 4 11 5 5 6 4 7 3 8 2 9 1 10 12 11 9 12
REMARK H PARENT 9 13
REMARK Flexibility Score: inf
ROOT
ATOM      1  C   UNL     1      -4.643  10.109  -8.799  1.00  0.00     0.016 A 
ATOM      2  C   UNL     1      -3.636  11.020  -8.467  1.00  0.00     0.047 A 
ATOM      3  C   UNL     1      -3.674  11.705  -7.247  1.00  0.00     0.119 A 
ATOM      4  C   UNL     1      -4.730  11.479  -6.350  1.00  0.00     0.094 A 
ATOM      5  C   UNL     1      -5.743  10.571  -6.673  1.00  0.00     0.142 A 
ATOM      6  C   UNL     1      -5.700   9.880  -7.906  1.00  0.00     0.018 A 
ATOM      7  C   UNL     1      -6.727   8.978  -8.200  1.00  0.00     0.019 A 
ATOM      8  C   UNL     1      -7.755   8.786  -7.278  1.00  0.00     0.094 A 
ATOM      9  C   UNL     1      -7.732   9.505  -6.077  1.00  0.00     0.336 A 
ATOM     10  O   UNL     1      -8.651   9.346  -5.233  1.00  0.00    -0.246 OA
ATOM     11  O   UNL     1      -6.742  10.358  -5.822  1.00  0.00    -0.423 OA
ENDROOT
BRANCH   3  12
ATOM     12  O   UNL     1      -2.661  12.608  -6.935  1.00  0.00    -0.508 OA
ATOM     13  H   UNL     1      -2.417  12.820  -5.974  1.00  0.00     0.293 HD
ENDBRANCH   3  12
TORSDOF 1
ENDMDL
MODEL 7
REMARK VINA RESULT:    -4.742      2.451      4.441
REMARK INTER + INTRA:          -4.881
REMARK INTER:                  -4.881
REMARK INTRA:                   0.000
REMARK UNBOUND:                 0.000
REMARK SMILES O=c1ccc2ccc(O)cc2o1
REMARK SMILES IDX 6 1 7 2 8 3 10 4 11 5 5 6 4 7 3 8 2 9 1 10 12 11 9 12
REMARK H PARENT 9 13
REMARK Flexibility Score: inf
ROOT
ATOM      1  C   UNL     1       5.577  10.195   8.441  1.00  0.00     0.016 A 
ATOM      2  C   UNL     1       6.811  10.846   8.346  1.00  0.00     0.047 A 
ATOM      3  C   UNL     1       6.916  12.212   8.635  1.00  0.00     0.119 A 
ATOM      4  C   UNL     1       5.777  12.935   9.021  1.00  0.00     0.094 A 
ATOM      5  C   UNL     1       4.538  12.294   9.117  1.00  0.00     0.142 A 
ATOM      6  C   UNL     1       4.437  10.915   8.826  1.00  0.00     0.018 A 
ATOM      7  C   UNL     1       3.184  10.302   8.933  1.00  0.00     0.019 A 
ATOM      8  C   UNL     1       2.081  11.061   9.320  1.00  0.00     0.094 A 
ATOM      9  C   UNL     1       2.256  12.422   9.593  1.00  0.00     0.336 A 
ATOM     10  O   UNL     1       1.273  13.124   9.943  1.00  0.00    -0.246 OA
ATOM     11  O   UNL     1       3.460  12.981   9.484  1.00  0.00    -0.423 OA
ENDROOT
BRANCH   3  12
ATOM     12  O   UNL     1       8.154  12.841   8.534  1.00  0.00    -0.508 OA
ATOM     13  H   UNL     1       8.262  13.725   8.050  1.00  0.00     0.293 HD
ENDBRANCH   3  12
TORSDOF 1
ENDMDL
MODEL 8
REMARK VINA RESULT:    -4.548      1.550      4.476
REMARK INTER + INTRA:          -4.681
REMARK INTER:                  -4.681
REMARK INTRA:                   0.000
REMARK UNBOUND:                 0.000
REMARK SMILES O=c1ccc2ccc(O)cc2o1
REMARK SMILES IDX 6 1 7 2 8 3 10 4 11 5 5 6 4 7 3 8 2 9 1 10 12 11 9 12
REMARK H PARENT 9 13
REMARK Flexibility Score: inf
ROOT
ATOM      1  C   UNL     1       6.747  10.491   5.027  1.00  0.00     0.016 A 
ATOM      2  C   UNL     1       7.717  11.170   4.284  1.00  0.00     0.047 A 
ATOM      3  C   UNL     1       8.127  12.455   4.660  1.00  0.00     0.119 A 
ATOM      4  C   UNL     1       7.561  13.067   5.789  1.00  0.00     0.094 A 
ATOM      5  C   UNL     1       6.589  12.396   6.538  1.00  0.00     0.142 A 
ATOM      6  C   UNL     1       6.179  11.099   6.155  1.00  0.00     0.018 A 
ATOM      7  C   UNL     1       5.206  10.454   6.924  1.00  0.00     0.019 A 
ATOM      8  C   UNL     1       4.672  11.101   8.038  1.00  0.00     0.094 A 
ATOM      9  C   UNL     1       5.127  12.386   8.358  1.00  0.00     0.336 A 
ATOM     10  O   UNL     1       4.657  12.987   9.358  1.00  0.00    -0.246 OA
ATOM     11  O   UNL     1       6.054  12.978   7.608  1.00  0.00    -0.423 OA
ENDROOT
BRANCH   3  12
ATOM     12  O   UNL     1       9.094  13.115   3.907  1.00  0.00    -0.508 OA
ATOM     13  H   UNL     1       9.487  12.702   3.069  1.00  0.00     0.293 HD
ENDBRANCH   3  12
TORSDOF 1
ENDMDL
MODEL 9
REMARK VINA RESULT:    -4.190     18.685     19.794
REMARK INTER + INTRA:          -4.312
REMARK INTER:                  -4.312
REMARK INTRA:                   0.000
REMARK UNBOUND:                 0.000
REMARK SMILES O=c1ccc2ccc(O)cc2o1
REMARK SMILES IDX 6 1 7 2 8 3 10 4 11 5 5 6 4 7 3 8 2 9 1 10 12 11 9 12
REMARK H PARENT 9 13
REMARK Flexibility Score: inf
ROOT
ATOM      1  C   UNL     1      -7.038  11.265  -6.474  1.00  0.00     0.016 A 
ATOM      2  C   UNL     1      -5.921  11.220  -7.314  1.00  0.00     0.047 A 
ATOM      3  C   UNL     1      -5.622  10.056  -8.033  1.00  0.00     0.119 A 
ATOM      4  C   UNL     1      -6.446   8.927  -7.910  1.00  0.00     0.094 A 
ATOM      5  C   UNL     1      -7.565   8.962  -7.072  1.00  0.00     0.142 A 
ATOM      6  C   UNL     1      -7.864  10.139  -6.349  1.00  0.00     0.018 A 
ATOM      7  C   UNL     1      -8.990  10.144  -5.520  1.00  0.00     0.019 A 
ATOM      8  C   UNL     1      -9.779   8.998  -5.430  1.00  0.00     0.094 A 
ATOM      9  C   UNL     1      -9.422   7.869  -6.175  1.00  0.00     0.336 A 
ATOM     10  O   UNL     1     -10.121   6.824  -6.107  1.00  0.00    -0.246 OA
ATOM     11  O   UNL     1      -8.345   7.891  -6.957  1.00  0.00    -0.423 OA
ENDROOT
BRANCH   3  12
ATOM     12  O   UNL     1      -4.505  10.030  -8.864  1.00  0.00    -0.508 OA
ATOM     13  H   UNL     1      -3.749   9.372  -8.716  1.00  0.00     0.293 HD
ENDBRANCH   3  12
TORSDOF 1
ENDMDL
