MODEL 1
REMARK VINA RESULT:    11.122      0.000      0.000
REMARK INTER + INTRA:          12.070
REMARK INTER:                  12.097
REMARK INTRA:                  -0.027
REMARK UNBOUND:                -0.027
REMARK SMILES O=C([O-])c1ccc(O)cc1
REMARK SMILES IDX 4 1 5 2 10 3 6 4 9 5 7 6 2 7 1 8 3 9 8 10
REMARK H PARENT 8 11
REMARK Flexibility Score: inf
ROOT
ATOM      1  C   UNL     1      -1.149   8.158 -23.980  1.00  0.00    -0.003 A 
ATOM      2  C   UNL     1      -0.141   7.325 -24.498  1.00  0.00     0.014 A 
ATOM      3  C   UNL     1      -1.322   9.441 -24.528  1.00  0.00     0.014 A 
ATOM      4  C   UNL     1       0.675   7.767 -25.544  1.00  0.00     0.047 A 
ATOM      5  C   UNL     1      -0.504   9.880 -25.573  1.00  0.00     0.047 A 
ATOM      6  C   UNL     1       0.496   9.047 -26.084  1.00  0.00     0.115 A 
ENDROOT
BRANCH   1   7
ATOM      7  C   UNL     1      -2.016   7.696 -22.874  1.00  0.00     0.071 C 
ATOM      8  O   UNL     1      -3.125   7.147 -23.115  1.00  0.00    -0.545 OA
ATOM      9  O   UNL     1      -1.620   7.861 -21.552  1.00  0.00    -0.545 OA
ENDBRANCH   1   7
BRANCH   6  10
ATOM     10  O   UNL     1       1.303   9.499 -27.125  1.00  0.00    -0.508 OA
ATOM     11  H   UNL     1       0.965   9.534 -28.080  1.00  0.00     0.293 HD
ENDBRANCH   6  10
TORSDOF 2
ENDMDL
MODEL 2
REMARK VINA RESULT:    13.627      2.047      4.773
REMARK INTER + INTRA:          14.796
REMARK INTER:                  14.823
REMARK INTRA:                  -0.027
REMARK UNBOUND:                -0.027
REMARK SMILES O=C([O-])c1ccc(O)cc1
REMARK SMILES IDX 4 1 5 2 10 3 6 4 9 5 7 6 2 7 1 8 3 9 8 10
REMARK H PARENT 8 11
REMARK Flexibility Score: inf
ROOT
ATOM      1  C   UNL     1      -1.485   8.226 -23.310  1.00  0.00    -0.003 A 
ATOM      2  C   UNL     1      -2.737   7.585 -23.294  1.00  0.00     0.014 A 
ATOM      3  C   UNL     1      -0.823   8.458 -22.091  1.00  0.00     0.014 A 
ATOM      4  C   UNL     1      -3.314   7.186 -22.084  1.00  0.00     0.047 A 
ATOM      5  C   UNL     1      -1.402   8.057 -20.883  1.00  0.00     0.047 A 
ATOM      6  C   UNL     1      -2.647   7.421 -20.875  1.00  0.00     0.115 A 
ENDROOT
BRANCH   1   7
ATOM      7  C   UNL     1      -0.870   8.651 -24.586  1.00  0.00     0.071 C 
ATOM      8  O   UNL     1      -1.237   9.717 -25.150  1.00  0.00    -0.545 OA
ATOM      9  O   UNL     1       0.121   7.880 -25.182  1.00  0.00    -0.545 OA
ENDBRANCH   1   7
BRANCH   6  10
ATOM     10  O   UNL     1      -3.211   7.028 -19.664  1.00  0.00    -0.508 OA
ATOM     11  H   UNL     1      -2.644   6.650 -18.914  1.00  0.00     0.293 HD
ENDBRANCH   6  10
TORSDOF 2
ENDMDL
