MODEL 1
REMARK VINA RESULT:    -5.635      0.000      0.000
REMARK INTER + INTRA:         -13.415
REMARK INTER:                 -10.905
REMARK INTRA:                  -2.510
REMARK UNBOUND:                -2.510
REMARK SMILES CCCCCCCCCCCCCCCCCC(=O)[O-]
REMARK SMILES IDX 10 1 11 2 12 3 13 4 14 5 15 6 16 7 17 8 18 9 19 10 20 11
REMARK SMILES IDX 9 12 8 13 7 14 6 15 5 16 4 17 3 18 2 19 1 20
REMARK H PARENT
REMARK Flexibility Score: inf
ROOT
ATOM      1  C   UNL     1      21.820  15.998   0.332  1.00  0.00     0.000 C 
ENDROOT
BRANCH   1   2
ATOM      2  C   UNL     1      20.353  15.899   0.777  1.00  0.00     0.000 C 
BRANCH   2   3
ATOM      3  C   UNL     1      19.674  14.603   0.292  1.00  0.00     0.000 C 
BRANCH   3   4
ATOM      4  C   UNL     1      20.422  13.943  -0.879  1.00  0.00     0.000 C 
BRANCH   4   5
ATOM      5  C   UNL     1      19.494  13.177  -1.848  1.00  0.00     0.000 C 
BRANCH   5   6
ATOM      6  C   UNL     1      20.220  12.595  -3.078  1.00  0.00     0.000 C 
BRANCH   6   7
ATOM      7  C   UNL     1      21.633  12.034  -2.796  1.00  0.00     0.006 C 
BRANCH   7   8
ATOM      8  C   UNL     1      22.791  12.867  -3.380  1.00  0.00     0.053 C 
BRANCH   8   9
ATOM      9  C   UNL     1      23.232  12.362  -4.724  1.00  0.00     0.041 C 
ATOM     10  O   UNL     1      23.970  11.342  -4.807  1.00  0.00    -0.550 OA
ATOM     11  O   UNL     1      22.802  12.997  -5.880  1.00  0.00    -0.550 OA
ENDBRANCH   8   9
ENDBRANCH   7   8
ENDBRANCH   6   7
ENDBRANCH   5   6
ENDBRANCH   4   5
ENDBRANCH   3   4
ENDBRANCH   2   3
ENDBRANCH   1   2
BRANCH   1  12
ATOM     12  C   UNL     1      22.807  15.924   1.514  1.00  0.00     0.000 C 
BRANCH  12  13
ATOM     13  C   UNL     1      22.109  16.185   2.867  1.00  0.00    -0.000 C 
BRANCH  13  14
ATOM     14  C   UNL     1      22.328  15.057   3.890  1.00  0.00    -0.000 C 
BRANCH  14  15
ATOM     15  C   UNL     1      23.360  14.017   3.423  1.00  0.00    -0.000 C 
BRANCH  15  16
ATOM     16  C   UNL     1      22.750  12.603   3.302  1.00  0.00    -0.000 C 
BRANCH  16  17
ATOM     17  C   UNL     1      22.032  12.354   1.963  1.00  0.00    -0.000 C 
BRANCH  17  18
ATOM     18  C   UNL     1      22.911  11.723   0.869  1.00  0.00    -0.000 C 
BRANCH  18  19
ATOM     19  C   UNL     1      23.716  12.767   0.082  1.00  0.00    -0.003 C 
ATOM     20  C   UNL     1      25.175  12.774   0.527  1.00  0.00     0.004 C 
ENDBRANCH  18  19
ENDBRANCH  17  18
ENDBRANCH  16  17
ENDBRANCH  15  16
ENDBRANCH  14  15
ENDBRANCH  13  14
ENDBRANCH  12  13
ENDBRANCH   1  12
TORSDOF 16
ENDMDL
MODEL 2
REMARK VINA RESULT:    -5.596      1.301      3.431
REMARK INTER + INTRA:         -13.341
REMARK INTER:                 -11.145
REMARK INTRA:                  -2.196
REMARK UNBOUND:                -2.510
REMARK SMILES CCCCCCCCCCCCCCCCCC(=O)[O-]
REMARK SMILES IDX 10 1 11 2 12 3 13 4 14 5 15 6 16 7 17 8 18 9 19 10 20 11
REMARK SMILES IDX 9 12 8 13 7 14 6 15 5 16 4 17 3 18 2 19 1 20
REMARK H PARENT
REMARK Flexibility Score: inf
ROOT
ATOM      1  C   UNL     1      19.657  12.923   0.571  1.00  0.00     0.000 C 
ENDROOT
BRANCH   1   2
ATOM      2  C   UNL     1      18.957  13.261  -0.754  1.00  0.00     0.000 C 
BRANCH   2   3
ATOM      3  C   UNL     1      19.951  13.643  -1.868  1.00  0.00     0.000 C 
BRANCH   3   4
ATOM      4  C   UNL     1      20.018  12.594  -2.990  1.00  0.00     0.000 C 
BRANCH   4   5
ATOM      5  C   UNL     1      21.428  11.991  -3.187  1.00  0.00     0.000 C 
BRANCH   5   6
ATOM      6  C   UNL     1      22.571  13.014  -3.028  1.00  0.00     0.000 C 
BRANCH   6   7
ATOM      7  C   UNL     1      23.431  13.233  -4.295  1.00  0.00     0.006 C 
BRANCH   7   8
ATOM      8  C   UNL     1      22.894  12.553  -5.568  1.00  0.00     0.053 C 
BRANCH   8   9
ATOM      9  C   UNL     1      23.773  11.424  -6.024  1.00  0.00     0.041 C 
ATOM     10  O   UNL     1      23.679  10.983  -7.203  1.00  0.00    -0.550 OA
ATOM     11  O   UNL     1      24.715  10.885  -5.161  1.00  0.00    -0.550 OA
ENDBRANCH   8   9
ENDBRANCH   7   8
ENDBRANCH   6   7
ENDBRANCH   5   6
ENDBRANCH   4   5
ENDBRANCH   3   4
ENDBRANCH   2   3
ENDBRANCH   1   2
BRANCH   1  12
ATOM     12  C   UNL     1      20.780  11.881   0.402  1.00  0.00     0.000 C 
BRANCH  12  13
ATOM     13  C   UNL     1      21.970  12.153   1.348  1.00  0.00    -0.000 C 
BRANCH  13  14
ATOM     14  C   UNL     1      23.151  12.852   0.653  1.00  0.00    -0.000 C 
BRANCH  14  15
ATOM     15  C   UNL     1      22.831  14.300   0.241  1.00  0.00    -0.000 C 
BRANCH  15  16
ATOM     16  C   UNL     1      23.362  15.327   1.265  1.00  0.00    -0.000 C 
BRANCH  16  17
ATOM     17  C   UNL     1      22.254  15.993   2.102  1.00  0.00    -0.000 C 
BRANCH  17  18
ATOM     18  C   UNL     1      21.860  15.226   3.376  1.00  0.00    -0.000 C 
BRANCH  18  19
ATOM     19  C   UNL     1      23.064  14.572   4.069  1.00  0.00    -0.003 C 
ATOM     20  C   UNL     1      22.651  13.286   4.776  1.00  0.00     0.004 C 
ENDBRANCH  18  19
ENDBRANCH  17  18
ENDBRANCH  16  17
ENDBRANCH  15  16
ENDBRANCH  14  15
ENDBRANCH  13  14
ENDBRANCH  12  13
ENDBRANCH   1  12
TORSDOF 16
ENDMDL
MODEL 3
REMARK VINA RESULT:    -5.562      1.134      3.551
REMARK INTER + INTRA:         -13.275
REMARK INTER:                 -10.400
REMARK INTRA:                  -2.875
REMARK UNBOUND:                -2.510
REMARK SMILES CCCCCCCCCCCCCCCCCC(=O)[O-]
REMARK SMILES IDX 10 1 11 2 12 3 13 4 14 5 15 6 16 7 17 8 18 9 19 10 20 11
REMARK SMILES IDX 9 12 8 13 7 14 6 15 5 16 4 17 3 18 2 19 1 20
REMARK H PARENT
REMARK Flexibility Score: inf
ROOT
ATOM      1  C   UNL     1      22.012  12.500   2.820  1.00  0.00     0.000 C 
ENDROOT
BRANCH   1   2
ATOM      2  C   UNL     1      22.092  11.502   1.654  1.00  0.00     0.000 C 
BRANCH   2   3
ATOM      3  C   UNL     1      23.277  11.786   0.712  1.00  0.00     0.000 C 
BRANCH   3   4
ATOM      4  C   UNL     1      22.843  11.946  -0.755  1.00  0.00     0.000 C 
BRANCH   4   5
ATOM      5  C   UNL     1      23.438  13.197  -1.440  1.00  0.00     0.000 C 
BRANCH   5   6
ATOM      6  C   UNL     1      22.810  13.514  -2.813  1.00  0.00     0.000 C 
BRANCH   6   7
ATOM      7  C   UNL     1      22.629  12.293  -3.745  1.00  0.00     0.006 C 
BRANCH   7   8
ATOM      8  C   UNL     1      22.821  12.587  -5.245  1.00  0.00     0.053 C 
BRANCH   8   9
ATOM      9  C   UNL     1      23.712  11.580  -5.913  1.00  0.00     0.041 C 
ATOM     10  O   UNL     1      24.466  10.842  -5.220  1.00  0.00    -0.550 OA
ATOM     11  O   UNL     1      23.684  11.434  -7.292  1.00  0.00    -0.550 OA
ENDBRANCH   8   9
ENDBRANCH   7   8
ENDBRANCH   6   7
ENDBRANCH   5   6
ENDBRANCH   4   5
ENDBRANCH   3   4
ENDBRANCH   2   3
ENDBRANCH   1   2
BRANCH   1  12
ATOM     12  C   UNL     1      23.230  13.443   2.879  1.00  0.00     0.000 C 
BRANCH  12  13
ATOM     13  C   UNL     1      22.818  14.927   2.771  1.00  0.00    -0.000 C 
BRANCH  13  14
ATOM     14  C   UNL     1      23.291  15.595   1.468  1.00  0.00    -0.000 C 
BRANCH  14  15
ATOM     15  C   UNL     1      22.127  16.022   0.558  1.00  0.00    -0.000 C 
BRANCH  15  16
ATOM     16  C   UNL     1      20.776  15.437   1.026  1.00  0.00    -0.000 C 
BRANCH  16  17
ATOM     17  C   UNL     1      19.959  14.789  -0.108  1.00  0.00    -0.000 C 
BRANCH  17  18
ATOM     18  C   UNL     1      19.152  13.548   0.309  1.00  0.00    -0.000 C 
BRANCH  18  19
ATOM     19  C   UNL     1      19.272  12.397  -0.700  1.00  0.00    -0.003 C 
ATOM     20  C   UNL     1      19.293  12.930  -2.129  1.00  0.00     0.004 C 
ENDBRANCH  18  19
ENDBRANCH  17  18
ENDBRANCH  16  17
ENDBRANCH  15  16
ENDBRANCH  14  15
ENDBRANCH  13  14
ENDBRANCH  12  13
ENDBRANCH   1  12
TORSDOF 16
ENDMDL
MODEL 4
REMARK VINA RESULT:    -5.526      1.124      2.189
REMARK INTER + INTRA:         -13.204
REMARK INTER:                 -10.938
REMARK INTRA:                  -2.266
REMARK UNBOUND:                -2.510
REMARK SMILES CCCCCCCCCCCCCCCCCC(=O)[O-]
REMARK SMILES IDX 10 1 11 2 12 3 13 4 14 5 15 6 16 7 17 8 18 9 19 10 20 11
REMARK SMILES IDX 9 12 8 13 7 14 6 15 5 16 4 17 3 18 2 19 1 20
REMARK H PARENT
REMARK Flexibility Score: inf
ROOT
ATOM      1  C   UNL     1      20.437  14.739  -0.311  1.00  0.00     0.000 C 
ENDROOT
BRANCH   1   2
ATOM      2  C   UNL     1      19.619  13.493   0.062  1.00  0.00     0.000 C 
BRANCH   2   3
ATOM      3  C   UNL     1      19.357  12.574  -1.147  1.00  0.00     0.000 C 
BRANCH   3   4
ATOM      4  C   UNL     1      19.856  13.177  -2.471  1.00  0.00     0.000 C 
BRANCH   4   5
ATOM      5  C   UNL     1      21.007  12.375  -3.118  1.00  0.00     0.000 C 
BRANCH   5   6
ATOM      6  C   UNL     1      22.411  12.916  -2.781  1.00  0.00     0.000 C 
BRANCH   6   7
ATOM      7  C   UNL     1      23.442  12.813  -3.929  1.00  0.00     0.006 C 
BRANCH   7   8
ATOM      8  C   UNL     1      22.878  12.287  -5.263  1.00  0.00     0.053 C 
BRANCH   8   9
ATOM      9  C   UNL     1      23.870  11.441  -6.007  1.00  0.00     0.041 C 
ATOM     10  O   UNL     1      23.856  11.408  -7.268  1.00  0.00    -0.550 OA
ATOM     11  O   UNL     1      24.829  10.720  -5.311  1.00  0.00    -0.550 OA
ENDBRANCH   8   9
ENDBRANCH   7   8
ENDBRANCH   6   7
ENDBRANCH   5   6
ENDBRANCH   4   5
ENDBRANCH   3   4
ENDBRANCH   2   3
ENDBRANCH   1   2
BRANCH   1  12
ATOM     12  C   UNL     1      20.368  15.839   0.766  1.00  0.00     0.000 C 
BRANCH  12  13
ATOM     13  C   UNL     1      21.674  15.929   1.585  1.00  0.00    -0.000 C 
BRANCH  13  14
ATOM     14  C   UNL     1      21.657  15.057   2.853  1.00  0.00    -0.000 C 
BRANCH  14  15
ATOM     15  C   UNL     1      23.062  14.810   3.427  1.00  0.00    -0.000 C 
BRANCH  15  16
ATOM     16  C   UNL     1      23.636  13.443   2.993  1.00  0.00    -0.000 C 
BRANCH  16  17
ATOM     17  C   UNL     1      24.261  13.456   1.584  1.00  0.00    -0.000 C 
BRANCH  17  18
ATOM     18  C   UNL     1      23.508  12.616   0.539  1.00  0.00    -0.000 C 
BRANCH  18  19
ATOM     19  C   UNL     1      22.535  11.613   1.175  1.00  0.00    -0.003 C 
ATOM     20  C   UNL     1      22.130  10.539   0.171  1.00  0.00     0.004 C 
ENDBRANCH  18  19
ENDBRANCH  17  18
ENDBRANCH  16  17
ENDBRANCH  15  16
ENDBRANCH  14  15
ENDBRANCH  13  14
ENDBRANCH  12  13
ENDBRANCH   1  12
TORSDOF 16
ENDMDL
MODEL 5
REMARK VINA RESULT:    -5.447      3.140      5.955
REMARK INTER + INTRA:         -13.053
REMARK INTER:                 -10.713
REMARK INTRA:                  -2.340
REMARK UNBOUND:                -2.510
REMARK SMILES CCCCCCCCCCCCCCCCCC(=O)[O-]
REMARK SMILES IDX 10 1 11 2 12 3 13 4 14 5 15 6 16 7 17 8 18 9 19 10 20 11
REMARK SMILES IDX 9 12 8 13 7 14 6 15 5 16 4 17 3 18 2 19 1 20
REMARK H PARENT
REMARK Flexibility Score: inf
ROOT
ATOM      1  C   UNL     1      19.692  13.742  -0.939  1.00  0.00     0.000 C 
ENDROOT
BRANCH   1   2
ATOM      2  C   UNL     1      19.189  14.402   0.354  1.00  0.00     0.000 C 
BRANCH   2   3
ATOM      3  C   UNL     1      20.052  15.606   0.779  1.00  0.00     0.000 C 
BRANCH   3   4
ATOM      4  C   UNL     1      21.452  15.585   0.143  1.00  0.00     0.000 C 
BRANCH   4   5
ATOM      5  C   UNL     1      22.598  15.701   1.174  1.00  0.00     0.000 C 
BRANCH   5   6
ATOM      6  C   UNL     1      22.130  16.118   2.583  1.00  0.00     0.000 C 
BRANCH   6   7
ATOM      7  C   UNL     1      22.729  15.287   3.741  1.00  0.00     0.006 C 
BRANCH   7   8
ATOM      8  C   UNL     1      23.305  13.919   3.328  1.00  0.00     0.053 C 
BRANCH   8   9
ATOM      9  C   UNL     1      22.576  12.776   3.974  1.00  0.00     0.041 C 
ATOM     10  O   UNL     1      22.065  11.868   3.263  1.00  0.00    -0.550 OA
ATOM     11  O   UNL     1      22.492  12.698   5.356  1.00  0.00    -0.550 OA
ENDBRANCH   8   9
ENDBRANCH   7   8
ENDBRANCH   6   7
ENDBRANCH   5   6
ENDBRANCH   4   5
ENDBRANCH   3   4
ENDBRANCH   2   3
ENDBRANCH   1   2
BRANCH   1  12
ATOM     12  C   UNL     1      19.503  12.212  -0.938  1.00  0.00     0.000 C 
BRANCH  12  13
ATOM     13  C   UNL     1      20.540  11.501  -0.042  1.00  0.00    -0.000 C 
BRANCH  13  14
ATOM     14  C   UNL     1      21.915  11.344  -0.712  1.00  0.00    -0.000 C 
BRANCH  14  15
ATOM     15  C   UNL     1      23.023  12.138   0.001  1.00  0.00    -0.000 C 
BRANCH  15  16
ATOM     16  C   UNL     1      23.895  12.938  -0.991  1.00  0.00    -0.000 C 
BRANCH  16  17
ATOM     17  C   UNL     1      23.116  13.467  -2.210  1.00  0.00    -0.000 C 
BRANCH  17  18
ATOM     18  C   UNL     1      23.717  13.083  -3.573  1.00  0.00    -0.000 C 
BRANCH  18  19
ATOM     19  C   UNL     1      22.665  12.541  -4.551  1.00  0.00    -0.003 C 
ATOM     20  C   UNL     1      23.331  11.864  -5.744  1.00  0.00     0.004 C 
ENDBRANCH  18  19
ENDBRANCH  17  18
ENDBRANCH  16  17
ENDBRANCH  15  16
ENDBRANCH  14  15
ENDBRANCH  13  14
ENDBRANCH  12  13
ENDBRANCH   1  12
TORSDOF 16
ENDMDL
MODEL 6
REMARK VINA RESULT:    -5.422      3.135      5.974
REMARK INTER + INTRA:         -13.003
REMARK INTER:                 -10.681
REMARK INTRA:                  -2.322
REMARK UNBOUND:                -2.510
REMARK SMILES CCCCCCCCCCCCCCCCCC(=O)[O-]
REMARK SMILES IDX 10 1 11 2 12 3 13 4 14 5 15 6 16 7 17 8 18 9 19 10 20 11
REMARK SMILES IDX 9 12 8 13 7 14 6 15 5 16 4 17 3 18 2 19 1 20
REMARK H PARENT
REMARK Flexibility Score: inf
ROOT
ATOM      1  C   UNL     1      19.515  13.359  -2.089  1.00  0.00     0.000 C 
ENDROOT
BRANCH   1   2
ATOM      2  C   UNL     1      18.939  12.989  -0.713  1.00  0.00     0.000 C 
BRANCH   2   3
ATOM      3  C   UNL     1      19.869  13.396   0.446  1.00  0.00     0.000 C 
BRANCH   3   4
ATOM      4  C   UNL     1      20.065  14.918   0.544  1.00  0.00     0.000 C 
BRANCH   4   5
ATOM      5  C   UNL     1      21.548  15.344   0.637  1.00  0.00     0.000 C 
BRANCH   5   6
ATOM      6  C   UNL     1      21.898  16.105   1.932  1.00  0.00     0.000 C 
BRANCH   6   7
ATOM      7  C   UNL     1      21.827  15.260   3.225  1.00  0.00     0.006 C 
BRANCH   7   8
ATOM      8  C   UNL     1      22.997  14.276   3.422  1.00  0.00     0.053 C 
BRANCH   8   9
ATOM      9  C   UNL     1      22.553  12.978   4.031  1.00  0.00     0.041 C 
ATOM     10  O   UNL     1      23.009  12.614   5.150  1.00  0.00    -0.550 OA
ATOM     11  O   UNL     1      21.613  12.190   3.382  1.00  0.00    -0.550 OA
ENDBRANCH   8   9
ENDBRANCH   7   8
ENDBRANCH   6   7
ENDBRANCH   5   6
ENDBRANCH   4   5
ENDBRANCH   3   4
ENDBRANCH   2   3
ENDBRANCH   1   2
BRANCH   1  12
ATOM     12  C   UNL     1      20.249  12.183  -2.762  1.00  0.00     0.000 C 
BRANCH  12  13
ATOM     13  C   UNL     1      21.273  12.666  -3.812  1.00  0.00    -0.000 C 
BRANCH  13  14
ATOM     14  C   UNL     1      22.695  12.135  -3.563  1.00  0.00    -0.000 C 
BRANCH  14  15
ATOM     15  C   UNL     1      23.639  13.203  -2.985  1.00  0.00    -0.000 C 
BRANCH  15  16
ATOM     16  C   UNL     1      23.300  13.547  -1.518  1.00  0.00    -0.000 C 
BRANCH  16  17
ATOM     17  C   UNL     1      24.061  12.688  -0.491  1.00  0.00    -0.000 C 
BRANCH  17  18
ATOM     18  C   UNL     1      23.165  11.931   0.505  1.00  0.00    -0.000 C 
BRANCH  18  19
ATOM     19  C   UNL     1      22.371  10.796  -0.158  1.00  0.00    -0.003 C 
ATOM     20  C   UNL     1      22.485   9.510   0.654  1.00  0.00     0.004 C 
ENDBRANCH  18  19
ENDBRANCH  17  18
ENDBRANCH  16  17
ENDBRANCH  15  16
ENDBRANCH  14  15
ENDBRANCH  13  14
ENDBRANCH  12  13
ENDBRANCH   1  12
TORSDOF 16
ENDMDL
MODEL 7
REMARK VINA RESULT:    -5.415      1.265      3.479
REMARK INTER + INTRA:         -12.991
REMARK INTER:                 -10.645
REMARK INTRA:                  -2.345
REMARK UNBOUND:                -2.510
REMARK SMILES CCCCCCCCCCCCCCCCCC(=O)[O-]
REMARK SMILES IDX 10 1 11 2 12 3 13 4 14 5 15 6 16 7 17 8 18 9 19 10 20 11
REMARK SMILES IDX 9 12 8 13 7 14 6 15 5 16 4 17 3 18 2 19 1 20
REMARK H PARENT
REMARK Flexibility Score: inf
ROOT
ATOM      1  C   UNL     1      19.335  12.443  -0.831  1.00  0.00     0.000 C 
ENDROOT
BRANCH   1   2
ATOM      2  C   UNL     1      20.416  11.717  -0.016  1.00  0.00     0.000 C 
BRANCH   2   3
ATOM      3  C   UNL     1      21.599  11.251  -0.886  1.00  0.00     0.000 C 
BRANCH   3   4
ATOM      4  C   UNL     1      22.915  11.965  -0.531  1.00  0.00     0.000 C 
BRANCH   4   5
ATOM      5  C   UNL     1      23.138  13.274  -1.322  1.00  0.00     0.000 C 
BRANCH   5   6
ATOM      6  C   UNL     1      22.475  13.282  -2.715  1.00  0.00     0.000 C 
BRANCH   6   7
ATOM      7  C   UNL     1      23.432  12.991  -3.894  1.00  0.00     0.006 C 
BRANCH   7   8
ATOM      8  C   UNL     1      22.797  12.225  -5.070  1.00  0.00     0.053 C 
BRANCH   8   9
ATOM      9  C   UNL     1      23.818  11.481  -5.882  1.00  0.00     0.041 C 
ATOM     10  O   UNL     1      23.804  11.556  -7.142  1.00  0.00    -0.550 OA
ATOM     11  O   UNL     1      24.802  10.736  -5.248  1.00  0.00    -0.550 OA
ENDBRANCH   8   9
ENDBRANCH   7   8
ENDBRANCH   6   7
ENDBRANCH   5   6
ENDBRANCH   4   5
ENDBRANCH   3   4
ENDBRANCH   2   3
ENDBRANCH   1   2
BRANCH   1  12
ATOM     12  C   UNL     1      19.338  13.967  -0.599  1.00  0.00     0.000 C 
BRANCH  12  13
ATOM     13  C   UNL     1      20.225  14.368   0.599  1.00  0.00    -0.000 C 
BRANCH  13  14
ATOM     14  C   UNL     1      20.465  15.884   0.697  1.00  0.00    -0.000 C 
BRANCH  14  15
ATOM     15  C   UNL     1      21.952  16.262   0.592  1.00  0.00    -0.000 C 
BRANCH  15  16
ATOM     16  C   UNL     1      22.819  15.511   1.626  1.00  0.00    -0.000 C 
BRANCH  16  17
ATOM     17  C   UNL     1      22.405  15.776   3.086  1.00  0.00    -0.000 C 
BRANCH  17  18
ATOM     18  C   UNL     1      22.664  14.607   4.051  1.00  0.00    -0.000 C 
BRANCH  18  19
ATOM     19  C   UNL     1      23.222  13.366   3.341  1.00  0.00    -0.003 C 
ATOM     20  C   UNL     1      22.119  12.343   3.090  1.00  0.00     0.004 C 
ENDBRANCH  18  19
ENDBRANCH  17  18
ENDBRANCH  16  17
ENDBRANCH  15  16
ENDBRANCH  14  15
ENDBRANCH  13  14
ENDBRANCH  12  13
ENDBRANCH   1  12
TORSDOF 16
ENDMDL
MODEL 8
REMARK VINA RESULT:    -5.407      1.461      3.607
REMARK INTER + INTRA:         -12.974
REMARK INTER:                 -10.944
REMARK INTRA:                  -2.030
REMARK UNBOUND:                -2.510
REMARK SMILES CCCCCCCCCCCCCCCCCC(=O)[O-]
REMARK SMILES IDX 10 1 11 2 12 3 13 4 14 5 15 6 16 7 17 8 18 9 19 10 20 11
REMARK SMILES IDX 9 12 8 13 7 14 6 15 5 16 4 17 3 18 2 19 1 20
REMARK H PARENT
REMARK Flexibility Score: inf
ROOT
ATOM      1  C   UNL     1      22.925  12.614   1.542  1.00  0.00     0.000 C 
ENDROOT
BRANCH   1   2
ATOM      2  C   UNL     1      22.583  11.739   0.327  1.00  0.00     0.000 C 
BRANCH   2   3
ATOM      3  C   UNL     1      22.814  12.468  -1.011  1.00  0.00     0.000 C 
BRANCH   3   4
ATOM      4  C   UNL     1      22.110  11.778  -2.192  1.00  0.00     0.000 C 
BRANCH   4   5
ATOM      5  C   UNL     1      21.743  12.745  -3.340  1.00  0.00     0.000 C 
BRANCH   5   6
ATOM      6  C   UNL     1      22.956  13.228  -4.161  1.00  0.00     0.000 C 
BRANCH   6   7
ATOM      7  C   UNL     1      23.004  12.713  -5.619  1.00  0.00     0.006 C 
BRANCH   7   8
ATOM      8  C   UNL     1      23.719  11.361  -5.805  1.00  0.00     0.053 C 
BRANCH   8   9
ATOM      9  C   UNL     1      24.027  11.074  -7.247  1.00  0.00     0.041 C 
ATOM     10  O   UNL     1      24.539   9.970  -7.578  1.00  0.00    -0.550 OA
ATOM     11  O   UNL     1      23.717  12.010  -8.223  1.00  0.00    -0.550 OA
ENDBRANCH   8   9
ENDBRANCH   7   8
ENDBRANCH   6   7
ENDBRANCH   5   6
ENDBRANCH   4   5
ENDBRANCH   3   4
ENDBRANCH   2   3
ENDBRANCH   1   2
BRANCH   1  12
ATOM     12  C   UNL     1      21.917  12.449   2.697  1.00  0.00     0.000 C 
BRANCH  12  13
ATOM     13  C   UNL     1      22.341  13.240   3.953  1.00  0.00    -0.000 C 
BRANCH  13  14
ATOM     14  C   UNL     1      23.010  14.586   3.625  1.00  0.00    -0.000 C 
BRANCH  14  15
ATOM     15  C   UNL     1      22.008  15.653   3.153  1.00  0.00    -0.000 C 
BRANCH  15  16
ATOM     16  C   UNL     1      22.357  16.200   1.751  1.00  0.00    -0.000 C 
BRANCH  16  17
ATOM     17  C   UNL     1      21.183  16.137   0.756  1.00  0.00    -0.000 C 
BRANCH  17  18
ATOM     18  C   UNL     1      20.158  15.026   1.039  1.00  0.00    -0.000 C 
BRANCH  18  19
ATOM     19  C   UNL     1      19.664  14.336  -0.240  1.00  0.00    -0.003 C 
ATOM     20  C   UNL     1      19.070  12.967   0.076  1.00  0.00     0.004 C 
ENDBRANCH  18  19
ENDBRANCH  17  18
ENDBRANCH  16  17
ENDBRANCH  15  16
ENDBRANCH  14  15
ENDBRANCH  13  14
ENDBRANCH  12  13
ENDBRANCH   1  12
TORSDOF 16
ENDMDL
MODEL 9
REMARK VINA RESULT:    -5.342      2.176      4.338
REMARK INTER + INTRA:         -12.849
REMARK INTER:                 -10.992
REMARK INTRA:                  -1.856
REMARK UNBOUND:                -2.510
REMARK SMILES CCCCCCCCCCCCCCCCCC(=O)[O-]
REMARK SMILES IDX 10 1 11 2 12 3 13 4 14 5 15 6 16 7 17 8 18 9 19 10 20 11
REMARK SMILES IDX 9 12 8 13 7 14 6 15 5 16 4 17 3 18 2 19 1 20
REMARK H PARENT
REMARK Flexibility Score: inf
ROOT
ATOM      1  C   UNL     1      19.739  12.936  -2.182  1.00  0.00     0.000 C 
ENDROOT
BRANCH   1   2
ATOM      2  C   UNL     1      20.887  12.413  -3.059  1.00  0.00     0.000 C 
BRANCH   2   3
ATOM      3  C   UNL     1      22.270  12.866  -2.554  1.00  0.00     0.000 C 
BRANCH   3   4
ATOM      4  C   UNL     1      23.233  13.224  -3.699  1.00  0.00     0.000 C 
BRANCH   4   5
ATOM      5  C   UNL     1      23.652  12.007  -4.555  1.00  0.00     0.000 C 
BRANCH   5   6
ATOM      6  C   UNL     1      23.261  12.126  -6.042  1.00  0.00     0.000 C 
BRANCH   6   7
ATOM      7  C   UNL     1      23.671  10.922  -6.922  1.00  0.00     0.006 C 
BRANCH   7   8
ATOM      8  C   UNL     1      24.492  11.285  -8.175  1.00  0.00     0.053 C 
BRANCH   8   9
ATOM      9  C   UNL     1      25.857  10.658  -8.162  1.00  0.00     0.041 C 
ATOM     10  O   UNL     1      26.885  11.380  -8.040  1.00  0.00    -0.550 OA
ATOM     11  O   UNL     1      25.990   9.280  -8.250  1.00  0.00    -0.550 OA
ENDBRANCH   8   9
ENDBRANCH   7   8
ENDBRANCH   6   7
ENDBRANCH   5   6
ENDBRANCH   4   5
ENDBRANCH   3   4
ENDBRANCH   2   3
ENDBRANCH   1   2
BRANCH   1  12
ATOM     12  C   UNL     1      19.733  12.309  -0.774  1.00  0.00     0.000 C 
BRANCH  12  13
ATOM     13  C   UNL     1      19.521  13.368   0.329  1.00  0.00    -0.000 C 
BRANCH  13  14
ATOM     14  C   UNL     1      19.974  14.778  -0.087  1.00  0.00    -0.000 C 
BRANCH  14  15
ATOM     15  C   UNL     1      20.696  15.533   1.041  1.00  0.00    -0.000 C 
BRANCH  15  16
ATOM     16  C   UNL     1      22.160  15.863   0.677  1.00  0.00    -0.000 C 
BRANCH  16  17
ATOM     17  C   UNL     1      23.193  15.026   1.454  1.00  0.00    -0.000 C 
BRANCH  17  18
ATOM     18  C   UNL     1      23.733  13.803   0.693  1.00  0.00    -0.000 C 
BRANCH  18  19
ATOM     19  C   UNL     1      23.032  12.498   1.097  1.00  0.00    -0.003 C 
ATOM     20  C   UNL     1      22.500  12.587   2.523  1.00  0.00     0.004 C 
ENDBRANCH  18  19
ENDBRANCH  17  18
ENDBRANCH  16  17
ENDBRANCH  15  16
ENDBRANCH  14  15
ENDBRANCH  13  14
ENDBRANCH  12  13
ENDBRANCH   1  12
TORSDOF 16
ENDMDL
