MODEL 1
REMARK VINA RESULT:    -2.574      0.000      0.000
REMARK INTER + INTRA:          -7.044
REMARK INTER:                  -4.681
REMARK INTRA:                  -2.363
REMARK UNBOUND:                -2.363
REMARK SMILES CCCCCCCCCCCCCCCC(=O)[O-]
REMARK SMILES IDX 9 1 10 2 11 3 12 4 13 5 14 6 15 7 16 8 17 9 18 10 8 11 7 12
REMARK SMILES IDX 6 13 5 14 4 15 3 16 2 17 1 18
REMARK H PARENT
REMARK Flexibility Score: inf
ROOT
ATOM      1  C   UNL     1      -9.156  -5.053   6.794  1.00  0.00     0.000 C 
ENDROOT
BRANCH   1   2
ATOM      2  C   UNL     1     -10.389  -4.390   7.426  1.00  0.00     0.000 C 
BRANCH   2   3
ATOM      3  C   UNL     1     -10.890  -5.137   8.673  1.00  0.00     0.000 C 
BRANCH   3   4
ATOM      4  C   UNL     1     -10.937  -4.243   9.921  1.00  0.00     0.000 C 
BRANCH   4   5
ATOM      5  C   UNL     1      -9.691  -3.347   9.997  1.00  0.00     0.000 C 
BRANCH   5   6
ATOM      6  C   UNL     1     -10.040  -1.850  10.040  1.00  0.00     0.006 C 
BRANCH   6   7
ATOM      7  C   UNL     1      -9.715  -1.130   8.724  1.00  0.00     0.053 C 
BRANCH   7   8
ATOM      8  C   UNL     1      -8.259  -1.254   8.408  1.00  0.00     0.041 C 
ATOM      9  O   UNL     1      -7.396  -0.822   9.218  1.00  0.00    -0.550 OA
ATOM     10  O   UNL     1      -7.852  -1.801   7.197  1.00  0.00    -0.550 OA
ENDBRANCH   7   8
ENDBRANCH   6   7
ENDBRANCH   5   6
ENDBRANCH   4   5
ENDBRANCH   3   4
ENDBRANCH   2   3
ENDBRANCH   1   2
BRANCH   1  11
ATOM     11  C   UNL     1      -9.469  -6.496   6.370  1.00  0.00     0.000 C 
BRANCH  11  12
ATOM     12  C   UNL     1      -8.234  -7.415   6.423  1.00  0.00    -0.000 C 
BRANCH  12  13
ATOM     13  C   UNL     1      -8.386  -8.656   7.326  1.00  0.00    -0.000 C 
BRANCH  13  14
ATOM     14  C   UNL     1      -9.485  -8.552   8.402  1.00  0.00    -0.000 C 
BRANCH  14  15
ATOM     15  C   UNL     1      -8.972  -8.261   9.824  1.00  0.00    -0.000 C 
BRANCH  15  16
ATOM     16  C   UNL     1      -7.554  -7.665   9.835  1.00  0.00    -0.000 C 
BRANCH  16  17
ATOM     17  C   UNL     1      -7.552  -6.155  10.120  1.00  0.00    -0.003 C 
ATOM     18  C   UNL     1      -6.501  -5.404   9.301  1.00  0.00     0.004 C 
ENDBRANCH  16  17
ENDBRANCH  15  16
ENDBRANCH  14  15
ENDBRANCH  13  14
ENDBRANCH  12  13
ENDBRANCH  11  12
ENDBRANCH   1  11
TORSDOF 14
ENDMDL
MODEL 2
REMARK VINA RESULT:    -1.998     21.131     23.252
REMARK INTER + INTRA:          -5.996
REMARK INTER:                  -4.442
REMARK INTRA:                  -1.554
REMARK UNBOUND:                -2.363
REMARK SMILES CCCCCCCCCCCCCCCC(=O)[O-]
REMARK SMILES IDX 9 1 10 2 11 3 12 4 13 5 14 6 15 7 16 8 17 9 18 10 8 11 7 12
REMARK SMILES IDX 6 13 5 14 4 15 3 16 2 17 1 18
REMARK H PARENT
REMARK Flexibility Score: inf
ROOT
ATOM      1  C   UNL     1       4.017  -3.373  -9.139  1.00  0.00     0.000 C 
ENDROOT
BRANCH   1   2
ATOM      2  C   UNL     1       4.683  -4.375 -10.094  1.00  0.00     0.000 C 
BRANCH   2   3
ATOM      3  C   UNL     1       4.066  -5.781 -10.003  1.00  0.00     0.000 C 
BRANCH   3   4
ATOM      4  C   UNL     1       5.122  -6.895 -10.051  1.00  0.00     0.000 C 
BRANCH   4   5
ATOM      5  C   UNL     1       5.055  -7.766  -8.787  1.00  0.00     0.000 C 
BRANCH   5   6
ATOM      6  C   UNL     1       5.875  -7.186  -7.623  1.00  0.00     0.006 C 
BRANCH   6   7
ATOM      7  C   UNL     1       5.029  -6.328  -6.674  1.00  0.00     0.053 C 
BRANCH   7   8
ATOM      8  C   UNL     1       4.988  -6.943  -5.311  1.00  0.00     0.041 C 
ATOM      9  O   UNL     1       3.913  -6.956  -4.655  1.00  0.00    -0.550 OA
ATOM     10  O   UNL     1       6.147  -7.458  -4.745  1.00  0.00    -0.550 OA
ENDBRANCH   7   8
ENDBRANCH   6   7
ENDBRANCH   5   6
ENDBRANCH   4   5
ENDBRANCH   3   4
ENDBRANCH   2   3
ENDBRANCH   1   2
BRANCH   1  11
ATOM     11  C   UNL     1       4.482  -1.940  -9.437  1.00  0.00     0.000 C 
BRANCH  11  12
ATOM     12  C   UNL     1       5.861  -1.889 -10.120  1.00  0.00    -0.000 C 
BRANCH  12  13
ATOM     13  C   UNL     1       6.920  -1.045  -9.384  1.00  0.00    -0.000 C 
BRANCH  13  14
ATOM     14  C   UNL     1       8.340  -1.107  -9.982  1.00  0.00    -0.000 C 
BRANCH  14  15
ATOM     15  C   UNL     1       9.098  -2.419  -9.712  1.00  0.00    -0.000 C 
BRANCH  15  16
ATOM     16  C   UNL     1       9.030  -2.854  -8.238  1.00  0.00    -0.000 C 
BRANCH  16  17
ATOM     17  C   UNL     1       8.012  -3.980  -8.002  1.00  0.00    -0.003 C 
ATOM     18  C   UNL     1       8.331  -5.240  -8.808  1.00  0.00     0.004 C 
ENDBRANCH  16  17
ENDBRANCH  15  16
ENDBRANCH  14  15
ENDBRANCH  13  14
ENDBRANCH  12  13
ENDBRANCH  11  12
ENDBRANCH   1  11
TORSDOF 14
ENDMDL
MODEL 3
REMARK VINA RESULT:    -1.954      1.263      2.593
REMARK INTER + INTRA:          -5.917
REMARK INTER:                  -3.868
REMARK INTRA:                  -2.049
REMARK UNBOUND:                -2.363
REMARK SMILES CCCCCCCCCCCCCCCC(=O)[O-]
REMARK SMILES IDX 9 1 10 2 11 3 12 4 13 5 14 6 15 7 16 8 17 9 18 10 8 11 7 12
REMARK SMILES IDX 6 13 5 14 4 15 3 16 2 17 1 18
REMARK H PARENT
REMARK Flexibility Score: inf
ROOT
ATOM      1  C   UNL     1      -8.002  -5.474   6.319  1.00  0.00     0.000 C 
ENDROOT
BRANCH   1   2
ATOM      2  C   UNL     1      -8.817  -4.295   6.870  1.00  0.00     0.000 C 
BRANCH   2   3
ATOM      3  C   UNL     1     -10.332  -4.484   6.685  1.00  0.00     0.000 C 
BRANCH   3   4
ATOM      4  C   UNL     1     -11.125  -4.204   7.971  1.00  0.00     0.000 C 
BRANCH   4   5
ATOM      5  C   UNL     1     -10.340  -3.268   8.903  1.00  0.00     0.000 C 
BRANCH   5   6
ATOM      6  C   UNL     1     -10.583  -1.782   8.593  1.00  0.00     0.006 C 
BRANCH   6   7
ATOM      7  C   UNL     1      -9.538  -0.864   9.240  1.00  0.00     0.053 C 
BRANCH   7   8
ATOM      8  C   UNL     1      -8.157  -1.327   8.899  1.00  0.00     0.041 C 
ATOM      9  O   UNL     1      -7.392  -1.756   9.804  1.00  0.00    -0.550 OA
ATOM     10  O   UNL     1      -7.695  -1.238   7.593  1.00  0.00    -0.550 OA
ENDBRANCH   7   8
ENDBRANCH   6   7
ENDBRANCH   5   6
ENDBRANCH   4   5
ENDBRANCH   3   4
ENDBRANCH   2   3
ENDBRANCH   1   2
BRANCH   1  11
ATOM     11  C   UNL     1      -7.783  -6.542   7.402  1.00  0.00     0.000 C 
BRANCH  11  12
ATOM     12  C   UNL     1      -7.660  -5.943   8.815  1.00  0.00    -0.000 C 
BRANCH  12  13
ATOM     13  C   UNL     1      -8.688  -6.470   9.836  1.00  0.00    -0.000 C 
BRANCH  13  14
ATOM     14  C   UNL     1      -8.639  -7.989  10.092  1.00  0.00    -0.000 C 
BRANCH  14  15
ATOM     15  C   UNL     1     -10.008  -8.692  10.083  1.00  0.00    -0.000 C 
BRANCH  15  16
ATOM     16  C   UNL     1     -10.992  -8.065   9.081  1.00  0.00    -0.000 C 
BRANCH  16  17
ATOM     17  C   UNL     1     -11.125  -8.891   7.792  1.00  0.00    -0.003 C 
ATOM     18  C   UNL     1     -11.001  -8.037   6.529  1.00  0.00     0.004 C 
ENDBRANCH  16  17
ENDBRANCH  15  16
ENDBRANCH  14  15
ENDBRANCH  13  14
ENDBRANCH  12  13
ENDBRANCH  11  12
ENDBRANCH   1  11
TORSDOF 14
ENDMDL
MODEL 4
REMARK VINA RESULT:    -1.829      1.247      2.990
REMARK INTER + INTRA:          -5.690
REMARK INTER:                  -3.626
REMARK INTRA:                  -2.064
REMARK UNBOUND:                -2.363
REMARK SMILES CCCCCCCCCCCCCCCC(=O)[O-]
REMARK SMILES IDX 9 1 10 2 11 3 12 4 13 5 14 6 15 7 16 8 17 9 18 10 8 11 7 12
REMARK SMILES IDX 6 13 5 14 4 15 3 16 2 17 1 18
REMARK H PARENT
REMARK Flexibility Score: inf
ROOT
ATOM      1  C   UNL     1      -8.033  -6.274   6.290  1.00  0.00     0.000 C 
ENDROOT
BRANCH   1   2
ATOM      2  C   UNL     1      -7.332  -5.361   7.307  1.00  0.00     0.000 C 
BRANCH   2   3
ATOM      3  C   UNL     1      -6.712  -6.142   8.477  1.00  0.00     0.000 C 
BRANCH   3   4
ATOM      4  C   UNL     1      -7.221  -5.662   9.845  1.00  0.00     0.000 C 
BRANCH   4   5
ATOM      5  C   UNL     1      -7.031  -4.145   9.996  1.00  0.00     0.000 C 
BRANCH   5   6
ATOM      6  C   UNL     1      -8.365  -3.386  10.080  1.00  0.00     0.006 C 
BRANCH   6   7
ATOM      7  C   UNL     1      -8.188  -1.865   9.982  1.00  0.00     0.053 C 
BRANCH   7   8
ATOM      8  C   UNL     1      -8.171  -1.434   8.550  1.00  0.00     0.041 C 
ATOM      9  O   UNL     1      -9.250  -1.315   7.912  1.00  0.00    -0.550 OA
ATOM     10  O   UNL     1      -6.962  -1.210   7.905  1.00  0.00    -0.550 OA
ENDBRANCH   7   8
ENDBRANCH   6   7
ENDBRANCH   5   6
ENDBRANCH   4   5
ENDBRANCH   3   4
ENDBRANCH   2   3
ENDBRANCH   1   2
BRANCH   1  11
ATOM     11  C   UNL     1      -7.924  -7.747   6.711  1.00  0.00     0.000 C 
BRANCH  11  12
ATOM     12  C   UNL     1      -9.258  -8.323   7.221  1.00  0.00    -0.000 C 
BRANCH  12  13
ATOM     13  C   UNL     1      -9.310  -8.597   8.737  1.00  0.00    -0.000 C 
BRANCH  13  14
ATOM     14  C   UNL     1     -10.314  -7.732   9.525  1.00  0.00    -0.000 C 
BRANCH  14  15
ATOM     15  C   UNL     1     -11.125  -6.742   8.671  1.00  0.00    -0.000 C 
BRANCH  15  16
ATOM     16  C   UNL     1     -10.608  -5.297   8.782  1.00  0.00    -0.000 C 
BRANCH  16  17
ATOM     17  C   UNL     1     -11.125  -4.398   7.648  1.00  0.00    -0.003 C 
ATOM     18  C   UNL     1     -11.120  -5.101   6.290  1.00  0.00     0.004 C 
ENDBRANCH  16  17
ENDBRANCH  15  16
ENDBRANCH  14  15
ENDBRANCH  13  14
ENDBRANCH  12  13
ENDBRANCH  11  12
ENDBRANCH   1  11
TORSDOF 14
ENDMDL
MODEL 5
REMARK VINA RESULT:    -1.766     21.602     23.184
REMARK INTER + INTRA:          -5.575
REMARK INTER:                  -4.279
REMARK INTRA:                  -1.295
REMARK UNBOUND:                -2.363
REMARK SMILES CCCCCCCCCCCCCCCC(=O)[O-]
REMARK SMILES IDX 9 1 10 2 11 3 12 4 13 5 14 6 15 7 16 8 17 9 18 10 8 11 7 12
REMARK SMILES IDX 6 13 5 14 4 15 3 16 2 17 1 18
REMARK H PARENT
REMARK Flexibility Score: inf
ROOT
ATOM      1  C   UNL     1       4.138  -4.173  -9.126  1.00  0.00     0.000 C 
ENDROOT
BRANCH   1   2
ATOM      2  C   UNL     1       4.319  -2.816  -9.823  1.00  0.00     0.000 C 
BRANCH   2   3
ATOM      3  C   UNL     1       5.797  -2.430  -9.995  1.00  0.00     0.000 C 
BRANCH   3   4
ATOM      4  C   UNL     1       6.743  -3.633  -9.858  1.00  0.00     0.000 C 
BRANCH   4   5
ATOM      5  C   UNL     1       8.070  -3.212  -9.208  1.00  0.00     0.000 C 
BRANCH   5   6
ATOM      6  C   UNL     1       8.228  -3.756  -7.779  1.00  0.00     0.006 C 
BRANCH   6   7
ATOM      7  C   UNL     1       7.250  -4.897  -7.469  1.00  0.00     0.053 C 
BRANCH   7   8
ATOM      8  C   UNL     1       6.885  -4.892  -6.019  1.00  0.00     0.041 C 
ATOM      9  O   UNL     1       7.710  -5.294  -5.156  1.00  0.00    -0.550 OA
ATOM     10  O   UNL     1       5.617  -4.489  -5.622  1.00  0.00    -0.550 OA
ENDBRANCH   7   8
ENDBRANCH   6   7
ENDBRANCH   5   6
ENDBRANCH   4   5
ENDBRANCH   3   4
ENDBRANCH   2   3
ENDBRANCH   1   2
BRANCH   1  11
ATOM     11  C   UNL     1       4.302  -5.328 -10.125  1.00  0.00     0.000 C 
BRANCH  11  12
ATOM     12  C   UNL     1       3.282  -6.460  -9.904  1.00  0.00    -0.000 C 
BRANCH  12  13
ATOM     13  C   UNL     1       3.884  -7.790  -9.411  1.00  0.00    -0.000 C 
BRANCH  13  14
ATOM     14  C   UNL     1       5.285  -7.681  -8.777  1.00  0.00    -0.000 C 
BRANCH  14  15
ATOM     15  C   UNL     1       6.402  -8.408  -9.548  1.00  0.00    -0.000 C 
BRANCH  15  16
ATOM     16  C   UNL     1       7.598  -7.494  -9.865  1.00  0.00    -0.000 C 
BRANCH  16  17
ATOM     17  C   UNL     1       8.921  -8.042  -9.309  1.00  0.00    -0.003 C 
ATOM     18  C   UNL     1       8.923  -8.141  -7.783  1.00  0.00     0.004 C 
ENDBRANCH  16  17
ENDBRANCH  15  16
ENDBRANCH  14  15
ENDBRANCH  13  14
ENDBRANCH  12  13
ENDBRANCH  11  12
ENDBRANCH   1  11
TORSDOF 14
ENDMDL
MODEL 6
REMARK VINA RESULT:    -1.637     13.930     16.468
REMARK INTER + INTRA:          -5.340
REMARK INTER:                  -4.506
REMARK INTRA:                  -0.834
REMARK UNBOUND:                -2.363
REMARK SMILES CCCCCCCCCCCCCCCC(=O)[O-]
REMARK SMILES IDX 9 1 10 2 11 3 12 4 13 5 14 6 15 7 16 8 17 9 18 10 8 11 7 12
REMARK SMILES IDX 6 13 5 14 4 15 3 16 2 17 1 18
REMARK H PARENT
REMARK Flexibility Score: inf
ROOT
ATOM      1  C   UNL     1       7.534  -7.675   5.831  1.00  0.00     0.000 C 
ENDROOT
BRANCH   1   2
ATOM      2  C   UNL     1       7.990  -7.150   4.461  1.00  0.00     0.000 C 
BRANCH   2   3
ATOM      3  C   UNL     1       8.447  -8.275   3.518  1.00  0.00     0.000 C 
BRANCH   3   4
ATOM      4  C   UNL     1       7.581  -8.376   2.253  1.00  0.00     0.000 C 
BRANCH   4   5
ATOM      5  C   UNL     1       6.269  -9.121   2.547  1.00  0.00     0.000 C 
BRANCH   5   6
ATOM      6  C   UNL     1       5.274  -9.052   1.378  1.00  0.00     0.006 C 
BRANCH   6   7
ATOM      7  C   UNL     1       3.836  -8.781   1.841  1.00  0.00     0.053 C 
BRANCH   7   8
ATOM      8  C   UNL     1       3.828  -7.792   2.963  1.00  0.00     0.041 C 
ATOM      9  O   UNL     1       3.933  -6.560   2.722  1.00  0.00    -0.550 OA
ATOM     10  O   UNL     1       3.753  -8.232   4.278  1.00  0.00    -0.550 OA
ENDBRANCH   7   8
ENDBRANCH   6   7
ENDBRANCH   5   6
ENDBRANCH   4   5
ENDBRANCH   3   4
ENDBRANCH   2   3
ENDBRANCH   1   2
BRANCH   1  11
ATOM     11  C   UNL     1       8.740  -8.083   6.690  1.00  0.00     0.000 C 
BRANCH  11  12
ATOM     12  C   UNL     1       8.968  -7.142   7.887  1.00  0.00    -0.000 C 
BRANCH  12  13
ATOM     13  C   UNL     1       7.770  -6.237   8.239  1.00  0.00    -0.000 C 
BRANCH  13  14
ATOM     14  C   UNL     1       7.209  -6.417   9.664  1.00  0.00    -0.000 C 
BRANCH  14  15
ATOM     15  C   UNL     1       6.169  -7.543   9.811  1.00  0.00    -0.000 C 
BRANCH  15  16
ATOM     16  C   UNL     1       4.721  -7.031   9.722  1.00  0.00    -0.000 C 
BRANCH  16  17
ATOM     17  C   UNL     1       4.637  -5.497   9.732  1.00  0.00    -0.003 C 
ATOM     18  C   UNL     1       3.251  -4.986  10.125  1.00  0.00     0.004 C 
ENDBRANCH  16  17
ENDBRANCH  15  16
ENDBRANCH  14  15
ENDBRANCH  13  14
ENDBRANCH  12  13
ENDBRANCH  11  12
ENDBRANCH   1  11
TORSDOF 14
ENDMDL
MODEL 7
REMARK VINA RESULT:    -1.592      1.253      2.573
REMARK INTER + INTRA:          -5.258
REMARK INTER:                  -4.143
REMARK INTRA:                  -1.116
REMARK UNBOUND:                -2.363
REMARK SMILES CCCCCCCCCCCCCCCC(=O)[O-]
REMARK SMILES IDX 9 1 10 2 11 3 12 4 13 5 14 6 15 7 16 8 17 9 18 10 8 11 7 12
REMARK SMILES IDX 6 13 5 14 4 15 3 16 2 17 1 18
REMARK H PARENT
REMARK Flexibility Score: inf
ROOT
ATOM      1  C   UNL     1      -7.565  -6.087   8.078  1.00  0.00     0.000 C 
ENDROOT
BRANCH   1   2
ATOM      2  C   UNL     1      -7.080  -4.941   8.979  1.00  0.00     0.000 C 
BRANCH   2   3
ATOM      3  C   UNL     1      -8.058  -4.633  10.125  1.00  0.00     0.000 C 
BRANCH   3   4
ATOM      4  C   UNL     1      -9.506  -5.019   9.787  1.00  0.00     0.000 C 
BRANCH   4   5
ATOM      5  C   UNL     1     -10.458  -3.839  10.039  1.00  0.00     0.000 C 
BRANCH   5   6
ATOM      6  C   UNL     1     -10.408  -2.788   8.919  1.00  0.00     0.006 C 
BRANCH   6   7
ATOM      7  C   UNL     1      -9.328  -1.724   9.155  1.00  0.00     0.053 C 
BRANCH   7   8
ATOM      8  C   UNL     1      -8.418  -1.633   7.972  1.00  0.00     0.041 C 
ATOM      9  O   UNL     1      -7.199  -1.355   8.130  1.00  0.00    -0.550 OA
ATOM     10  O   UNL     1      -8.923  -1.808   6.690  1.00  0.00    -0.550 OA
ENDBRANCH   7   8
ENDBRANCH   6   7
ENDBRANCH   5   6
ENDBRANCH   4   5
ENDBRANCH   3   4
ENDBRANCH   2   3
ENDBRANCH   1   2
BRANCH   1  11
ATOM     11  C   UNL     1      -7.694  -5.620   6.620  1.00  0.00     0.000 C 
BRANCH  11  12
ATOM     12  C   UNL     1      -9.008  -4.865   6.348  1.00  0.00    -0.000 C 
BRANCH  12  13
ATOM     13  C   UNL     1     -10.289  -5.701   6.536  1.00  0.00    -0.000 C 
BRANCH  13  14
ATOM     14  C   UNL     1     -10.091  -7.229   6.466  1.00  0.00    -0.000 C 
BRANCH  14  15
ATOM     15  C   UNL     1     -11.125  -8.052   7.255  1.00  0.00    -0.000 C 
BRANCH  15  16
ATOM     16  C   UNL     1     -10.476  -9.123   8.149  1.00  0.00    -0.000 C 
BRANCH  16  17
ATOM     17  C   UNL     1      -9.856  -8.529   9.424  1.00  0.00    -0.003 C 
ATOM     18  C   UNL     1      -8.333  -8.664   9.456  1.00  0.00     0.004 C 
ENDBRANCH  16  17
ENDBRANCH  15  16
ENDBRANCH  14  15
ENDBRANCH  13  14
ENDBRANCH  12  13
ENDBRANCH  11  12
ENDBRANCH   1  11
TORSDOF 14
ENDMDL
