MODEL 1
REMARK VINA RESULT:    -4.071      0.000      0.000
REMARK INTER + INTRA:          -5.165
REMARK INTER:                  -4.785
REMARK INTRA:                  -0.380
REMARK UNBOUND:                -0.380
REMARK SMILES [NH3+][C@H](CO)C(=O)[O-]
REMARK SMILES IDX 3 1 2 2 1 3 5 7 6 8 7 9 4 10
REMARK H PARENT 1 4 1 5 1 6 4 11
REMARK Flexibility Score: inf
ROOT
ATOM      1  C   UNL     1      -5.230   4.442  -2.834  1.00  0.00     0.227 C 
ENDROOT
BRANCH   1   2
ATOM      2  C   UNL     1      -4.925   5.811  -2.197  1.00  0.00     0.253 C 
BRANCH   2   3
ATOM      3  N   UNL     1      -4.442   6.766  -3.202  1.00  0.00    -0.348 N 
ATOM      4  H   UNL     1      -4.797   6.514  -4.153  1.00  0.00     0.345 HD
ATOM      5  H   UNL     1      -4.767   7.730  -2.958  1.00  0.00     0.345 HD
ATOM      6  H   UNL     1      -3.396   6.769  -3.217  1.00  0.00     0.345 HD
ENDBRANCH   2   3
BRANCH   2   7
ATOM      7  C   UNL     1      -6.153   6.345  -1.509  1.00  0.00     0.102 C 
ATOM      8  O   UNL     1      -6.369   6.087  -0.296  1.00  0.00    -0.544 OA
ATOM      9  O   UNL     1      -7.049   7.142  -2.211  1.00  0.00    -0.544 OA
ENDBRANCH   2   7
ENDBRANCH   1   2
BRANCH   1  10
ATOM     10  O   UNL     1      -6.612   4.210  -2.876  1.00  0.00    -0.390 OA
ATOM     11  H   UNL     1      -6.758   3.475  -3.528  1.00  0.00     0.210 HD
ENDBRANCH   1  10
TORSDOF 4
ENDMDL
MODEL 2
REMARK VINA RESULT:    -4.057      2.390      2.792
REMARK INTER + INTRA:          -5.149
REMARK INTER:                  -4.952
REMARK INTRA:                  -0.197
REMARK UNBOUND:                -0.380
REMARK SMILES [NH3+][C@H](CO)C(=O)[O-]
REMARK SMILES IDX 3 1 2 2 1 3 5 7 6 8 7 9 4 10
REMARK H PARENT 1 4 1 5 1 6 4 11
REMARK Flexibility Score: inf
ROOT
ATOM      1  C   UNL     1      -5.800   5.623  -1.756  1.00  0.00     0.227 C 
ENDROOT
BRANCH   1   2
ATOM      2  C   UNL     1      -7.288   5.997  -1.621  1.00  0.00     0.253 C 
BRANCH   2   3
ATOM      3  N   UNL     1      -8.147   4.986  -2.249  1.00  0.00    -0.348 N 
ATOM      4  H   UNL     1      -8.145   5.093  -3.290  1.00  0.00     0.345 HD
ATOM      5  H   UNL     1      -7.807   4.028  -2.002  1.00  0.00     0.345 HD
ATOM      6  H   UNL     1      -9.128   5.083  -1.898  1.00  0.00     0.345 HD
ENDBRANCH   2   3
BRANCH   2   7
ATOM      7  C   UNL     1      -7.648   6.166  -0.170  1.00  0.00     0.102 C 
ATOM      8  O   UNL     1      -6.809   6.629   0.647  1.00  0.00    -0.544 OA
ATOM      9  O   UNL     1      -8.920   5.824   0.274  1.00  0.00    -0.544 OA
ENDBRANCH   2   7
ENDBRANCH   1   2
BRANCH   1  10
ATOM     10  O   UNL     1      -4.980   6.702  -1.396  1.00  0.00    -0.390 OA
ATOM     11  H   UNL     1      -5.084   6.823  -0.416  1.00  0.00     0.210 HD
ENDBRANCH   1  10
TORSDOF 4
ENDMDL
MODEL 3
REMARK VINA RESULT:    -4.032      2.316      2.984
REMARK INTER + INTRA:          -5.120
REMARK INTER:                  -5.112
REMARK INTRA:                  -0.007
REMARK UNBOUND:                -0.380
REMARK SMILES [NH3+][C@H](CO)C(=O)[O-]
REMARK SMILES IDX 3 1 2 2 1 3 5 7 6 8 7 9 4 10
REMARK H PARENT 1 4 1 5 1 6 4 11
REMARK Flexibility Score: inf
ROOT
ATOM      1  C   UNL     1      -5.766   5.997  -1.322  1.00  0.00     0.227 C 
ENDROOT
BRANCH   1   2
ATOM      2  C   UNL     1      -6.895   6.781  -0.626  1.00  0.00     0.253 C 
BRANCH   2   3
ATOM      3  N   UNL     1      -7.153   8.055  -1.308  1.00  0.00    -0.348 N 
ATOM      4  H   UNL     1      -6.622   8.833  -0.852  1.00  0.00     0.345 HD
ATOM      5  H   UNL     1      -6.865   7.985  -2.311  1.00  0.00     0.345 HD
ATOM      6  H   UNL     1      -8.176   8.275  -1.278  1.00  0.00     0.345 HD
ENDBRANCH   2   3
BRANCH   2   7
ATOM      7  C   UNL     1      -8.147   5.947  -0.576  1.00  0.00     0.102 C 
ATOM      8  O   UNL     1      -8.503   5.268  -1.574  1.00  0.00    -0.544 OA
ATOM      9  O   UNL     1      -8.911   5.913   0.585  1.00  0.00    -0.544 OA
ENDBRANCH   2   7
ENDBRANCH   1   2
BRANCH   1  10
ATOM     10  O   UNL     1      -4.597   6.768  -1.394  1.00  0.00    -0.390 OA
ATOM     11  H   UNL     1      -4.771   7.488  -2.055  1.00  0.00     0.210 HD
ENDBRANCH   1  10
TORSDOF 4
ENDMDL
MODEL 4
REMARK VINA RESULT:    -4.016      3.109      3.726
REMARK INTER + INTRA:          -5.101
REMARK INTER:                  -4.863
REMARK INTRA:                  -0.238
REMARK UNBOUND:                -0.380
REMARK SMILES [NH3+][C@H](CO)C(=O)[O-]
REMARK SMILES IDX 3 1 2 2 1 3 5 7 6 8 7 9 4 10
REMARK H PARENT 1 4 1 5 1 6 4 11
REMARK Flexibility Score: inf
ROOT
ATOM      1  C   UNL     1      -6.878   7.781  -0.639  1.00  0.00     0.227 C 
ENDROOT
BRANCH   1   2
ATOM      2  C   UNL     1      -7.050   6.360  -0.072  1.00  0.00     0.253 C 
BRANCH   2   3
ATOM      3  N   UNL     1      -6.919   6.353   1.391  1.00  0.00    -0.348 N 
ATOM      4  H   UNL     1      -7.805   6.026   1.841  1.00  0.00     0.345 HD
ATOM      5  H   UNL     1      -6.136   5.719   1.673  1.00  0.00     0.345 HD
ATOM      6  H   UNL     1      -6.697   7.316   1.733  1.00  0.00     0.345 HD
ENDBRANCH   2   3
BRANCH   2   7
ATOM      7  C   UNL     1      -8.385   5.798  -0.483  1.00  0.00     0.102 C 
ATOM      8  O   UNL     1      -8.539   5.287  -1.623  1.00  0.00    -0.544 OA
ATOM      9  O   UNL     1      -9.453   5.828   0.405  1.00  0.00    -0.544 OA
ENDBRANCH   2   7
ENDBRANCH   1   2
BRANCH   1  10
ATOM     10  O   UNL     1      -7.146   7.804  -2.015  1.00  0.00    -0.390 OA
ATOM     11  H   UNL     1      -7.672   6.987  -2.216  1.00  0.00     0.210 HD
ENDBRANCH   1  10
TORSDOF 4
ENDMDL
MODEL 5
REMARK VINA RESULT:    -4.005      1.232      1.614
REMARK INTER + INTRA:          -5.087
REMARK INTER:                  -4.828
REMARK INTRA:                  -0.259
REMARK UNBOUND:                -0.380
REMARK SMILES [NH3+][C@H](CO)C(=O)[O-]
REMARK SMILES IDX 3 1 2 2 1 3 5 7 6 8 7 9 4 10
REMARK H PARENT 1 4 1 5 1 6 4 11
REMARK Flexibility Score: inf
ROOT
ATOM      1  C   UNL     1      -5.612   4.779  -2.601  1.00  0.00     0.227 C 
ENDROOT
BRANCH   1   2
ATOM      2  C   UNL     1      -5.852   5.712  -1.399  1.00  0.00     0.253 C 
BRANCH   2   3
ATOM      3  N   UNL     1      -4.871   6.804  -1.373  1.00  0.00    -0.348 N 
ATOM      4  H   UNL     1      -3.896   6.428  -1.425  1.00  0.00     0.345 HD
ATOM      5  H   UNL     1      -5.035   7.446  -2.182  1.00  0.00     0.345 HD
ATOM      6  H   UNL     1      -4.978   7.358  -0.491  1.00  0.00     0.345 HD
ENDBRANCH   2   3
BRANCH   2   7
ATOM      7  C   UNL     1      -7.252   6.262  -1.444  1.00  0.00     0.102 C 
ATOM      8  O   UNL     1      -7.484   7.378  -1.978  1.00  0.00    -0.544 OA
ATOM      9  O   UNL     1      -8.303   5.529  -0.906  1.00  0.00    -0.544 OA
ENDBRANCH   2   7
ENDBRANCH   1   2
BRANCH   1  10
ATOM     10  O   UNL     1      -6.798   4.128  -2.970  1.00  0.00    -0.390 OA
ATOM     11  H   UNL     1      -7.158   4.616  -3.756  1.00  0.00     0.210 HD
ENDBRANCH   1  10
TORSDOF 4
ENDMDL
MODEL 6
REMARK VINA RESULT:    -3.987      2.109      2.680
REMARK INTER + INTRA:          -5.066
REMARK INTER:                  -4.841
REMARK INTRA:                  -0.225
REMARK UNBOUND:                -0.380
REMARK SMILES [NH3+][C@H](CO)C(=O)[O-]
REMARK SMILES IDX 3 1 2 2 1 3 5 7 6 8 7 9 4 10
REMARK H PARENT 1 4 1 5 1 6 4 11
REMARK Flexibility Score: inf
ROOT
ATOM      1  C   UNL     1      -7.749   6.174  -1.815  1.00  0.00     0.227 C 
ENDROOT
BRANCH   1   2
ATOM      2  C   UNL     1      -6.286   6.438  -1.412  1.00  0.00     0.253 C 
BRANCH   2   3
ATOM      3  N   UNL     1      -6.045   6.056  -0.015  1.00  0.00    -0.348 N 
ATOM      4  H   UNL     1      -5.019   6.022   0.187  1.00  0.00     0.345 HD
ATOM      5  H   UNL     1      -6.498   6.748   0.625  1.00  0.00     0.345 HD
ATOM      6  H   UNL     1      -6.462   5.115   0.174  1.00  0.00     0.345 HD
ENDBRANCH   2   3
BRANCH   2   7
ATOM      7  C   UNL     1      -5.355   5.693  -2.330  1.00  0.00     0.102 C 
ATOM      8  O   UNL     1      -5.520   4.465  -2.549  1.00  0.00    -0.544 OA
ATOM      9  O   UNL     1      -4.312   6.366  -2.955  1.00  0.00    -0.544 OA
ENDBRANCH   2   7
ENDBRANCH   1   2
BRANCH   1  10
ATOM     10  O   UNL     1      -8.152   4.892  -1.415  1.00  0.00    -0.390 OA
ATOM     11  H   UNL     1      -7.460   4.261  -1.743  1.00  0.00     0.210 HD
ENDBRANCH   1  10
TORSDOF 4
ENDMDL
MODEL 7
REMARK VINA RESULT:    -3.934      2.211      2.956
REMARK INTER + INTRA:          -5.004
REMARK INTER:                  -4.602
REMARK INTRA:                  -0.402
REMARK UNBOUND:                -0.380
REMARK SMILES [NH3+][C@H](CO)C(=O)[O-]
REMARK SMILES IDX 3 1 2 2 1 3 5 7 6 8 7 9 4 10
REMARK H PARENT 1 4 1 5 1 6 4 11
REMARK Flexibility Score: inf
ROOT
ATOM      1  C   UNL     1      -7.146   6.516   0.669  1.00  0.00     0.227 C 
ENDROOT
BRANCH   1   2
ATOM      2  C   UNL     1      -6.721   6.938  -0.751  1.00  0.00     0.253 C 
BRANCH   2   3
ATOM      3  N   UNL     1      -5.348   6.506  -1.042  1.00  0.00    -0.348 N 
ATOM      4  H   UNL     1      -5.224   6.334  -2.067  1.00  0.00     0.345 HD
ATOM      5  H   UNL     1      -4.672   7.242  -0.733  1.00  0.00     0.345 HD
ATOM      6  H   UNL     1      -5.132   5.626  -0.519  1.00  0.00     0.345 HD
ENDBRANCH   2   3
BRANCH   2   7
ATOM      7  C   UNL     1      -7.677   6.372  -1.766  1.00  0.00     0.102 C 
ATOM      8  O   UNL     1      -7.490   5.226  -2.251  1.00  0.00    -0.544 OA
ATOM      9  O   UNL     1      -8.785   7.111  -2.162  1.00  0.00    -0.544 OA
ENDBRANCH   2   7
ENDBRANCH   1   2
BRANCH   1  10
ATOM     10  O   UNL     1      -8.315   5.743   0.629  1.00  0.00    -0.390 OA
ATOM     11  H   UNL     1      -8.835   6.054  -0.158  1.00  0.00     0.210 HD
ENDBRANCH   1  10
TORSDOF 4
ENDMDL
MODEL 8
REMARK VINA RESULT:    -3.933      1.895      2.649
REMARK INTER + INTRA:          -5.003
REMARK INTER:                  -4.629
REMARK INTRA:                  -0.374
REMARK UNBOUND:                -0.380
REMARK SMILES [NH3+][C@H](CO)C(=O)[O-]
REMARK SMILES IDX 3 1 2 2 1 3 5 7 6 8 7 9 4 10
REMARK H PARENT 1 4 1 5 1 6 4 11
REMARK Flexibility Score: inf
ROOT
ATOM      1  C   UNL     1      -5.859   6.330  -0.594  1.00  0.00     0.227 C 
ENDROOT
BRANCH   1   2
ATOM      2  C   UNL     1      -6.525   5.998  -1.942  1.00  0.00     0.253 C 
BRANCH   2   3
ATOM      3  N   UNL     1      -6.055   4.707  -2.461  1.00  0.00    -0.348 N 
ATOM      4  H   UNL     1      -6.607   3.920  -2.048  1.00  0.00     0.345 HD
ATOM      5  H   UNL     1      -6.154   4.687  -3.502  1.00  0.00     0.345 HD
ATOM      6  H   UNL     1      -5.044   4.576  -2.228  1.00  0.00     0.345 HD
ENDBRANCH   2   3
BRANCH   2   7
ATOM      7  C   UNL     1      -8.023   5.992  -1.792  1.00  0.00     0.102 C 
ATOM      8  O   UNL     1      -8.653   4.904  -1.720  1.00  0.00    -0.544 OA
ATOM      9  O   UNL     1      -8.717   7.193  -1.715  1.00  0.00    -0.544 OA
ENDBRANCH   2   7
ENDBRANCH   1   2
BRANCH   1  10
ATOM     10  O   UNL     1      -6.739   6.081   0.470  1.00  0.00    -0.390 OA
ATOM     11  H   UNL     1      -7.639   5.953   0.071  1.00  0.00     0.210 HD
ENDBRANCH   1  10
TORSDOF 4
ENDMDL
MODEL 9
REMARK VINA RESULT:    -3.899      1.749      2.878
REMARK INTER + INTRA:          -4.963
REMARK INTER:                  -4.956
REMARK INTRA:                  -0.007
REMARK UNBOUND:                -0.380
REMARK SMILES [NH3+][C@H](CO)C(=O)[O-]
REMARK SMILES IDX 3 1 2 2 1 3 5 7 6 8 7 9 4 10
REMARK H PARENT 1 4 1 5 1 6 4 11
REMARK Flexibility Score: inf
ROOT
ATOM      1  C   UNL     1      -5.920   6.364  -0.257  1.00  0.00     0.227 C 
ENDROOT
BRANCH   1   2
ATOM      2  C   UNL     1      -6.359   6.090  -1.708  1.00  0.00     0.253 C 
BRANCH   2   3
ATOM      3  N   UNL     1      -6.835   7.318  -2.358  1.00  0.00    -0.348 N 
ATOM      4  H   UNL     1      -6.042   7.980  -2.522  1.00  0.00     0.345 HD
ATOM      5  H   UNL     1      -7.281   7.083  -3.274  1.00  0.00     0.345 HD
ATOM      6  H   UNL     1      -7.552   7.785  -1.756  1.00  0.00     0.345 HD
ENDBRANCH   2   3
BRANCH   2   7
ATOM      7  C   UNL     1      -5.221   5.489  -2.487  1.00  0.00     0.102 C 
ATOM      8  O   UNL     1      -5.156   4.244  -2.666  1.00  0.00    -0.544 OA
ATOM      9  O   UNL     1      -4.239   6.311  -3.027  1.00  0.00    -0.544 OA
ENDBRANCH   2   7
ENDBRANCH   1   2
BRANCH   1  10
ATOM     10  O   UNL     1      -6.936   6.014   0.645  1.00  0.00    -0.390 OA
ATOM     11  H   UNL     1      -7.512   6.816   0.750  1.00  0.00     0.210 HD
ENDBRANCH   1  10
TORSDOF 4
ENDMDL
