MODEL 1
REMARK VINA RESULT:    -4.975      0.000      0.000
REMARK INTER + INTRA:          -6.727
REMARK INTER:                  -6.284
REMARK INTRA:                  -0.443
REMARK UNBOUND:                -0.443
REMARK SMILES Oc1cc(O)cc(CCc2ccccc2O)c1
REMARK SMILES IDX 9 1 10 2 12 3 13 4 11 5 14 6 15 7 16 8 8 10 7 11 6 12 17 13
REMARK SMILES IDX 4 14 2 15 3 16 5 17 1 19
REMARK H PARENT 16 9 5 18 1 20
REMARK Flexibility Score: inf
ROOT
ATOM      1  C   UNL     1       9.088  11.094   7.480  1.00  0.00     0.044 C 
ENDROOT
BRANCH   1   2
ATOM      2  C   UNL     1       7.761  11.797   7.603  1.00  0.00    -0.006 A 
ATOM      3  C   UNL     1       5.360  11.688   7.979  1.00  0.00     0.001 A 
ATOM      4  C   UNL     1       5.260  13.064   7.770  1.00  0.00     0.004 A 
ATOM      5  C   UNL     1       6.602  11.054   7.892  1.00  0.00     0.007 A 
ATOM      6  C   UNL     1       6.401  13.811   7.468  1.00  0.00     0.046 A 
ATOM      7  C   UNL     1       7.653  13.184   7.377  1.00  0.00     0.118 A 
BRANCH   7   8
ATOM      8  O   UNL     1       8.785  13.935   7.061  1.00  0.00    -0.508 OA
ATOM      9  H   UNL     1       9.721  13.567   7.196  1.00  0.00     0.293 HD
ENDBRANCH   7   8
ENDBRANCH   1   2
BRANCH   1  10
ATOM     10  C   UNL     1       8.920   9.585   7.683  1.00  0.00     0.040 C 
BRANCH  10  11
ATOM     11  C   UNL     1      10.009   8.830   6.967  1.00  0.00    -0.040 A 
ATOM     12  C   UNL     1      10.416   7.569   7.431  1.00  0.00     0.050 A 
ATOM     13  C   UNL     1      10.584   9.356   5.800  1.00  0.00     0.050 A 
ATOM     14  C   UNL     1      11.406   6.850   6.746  1.00  0.00     0.119 A 
ATOM     15  C   UNL     1      11.574   8.638   5.115  1.00  0.00     0.119 A 
ATOM     16  C   UNL     1      11.984   7.389   5.592  1.00  0.00     0.092 A 
BRANCH  14  17
ATOM     17  O   UNL     1      11.821   5.601   7.204  1.00  0.00    -0.508 OA
ATOM     18  H   UNL     1      11.931   5.410   8.193  1.00  0.00     0.293 HD
ENDBRANCH  14  17
BRANCH  15  19
ATOM     19  O   UNL     1      12.155   9.155   3.958  1.00  0.00    -0.508 OA
ATOM     20  H   UNL     1      13.112   8.939   3.705  1.00  0.00     0.293 HD
ENDBRANCH  15  19
ENDBRANCH  10  11
ENDBRANCH   1  10
TORSDOF 6
ENDMDL
MODEL 2
REMARK VINA RESULT:    -4.973      0.087      2.031
REMARK INTER + INTRA:          -6.725
REMARK INTER:                  -6.269
REMARK INTRA:                  -0.456
REMARK UNBOUND:                -0.443
REMARK SMILES Oc1cc(O)cc(CCc2ccccc2O)c1
REMARK SMILES IDX 9 1 10 2 12 3 13 4 11 5 14 6 15 7 16 8 8 10 7 11 6 12 17 13
REMARK SMILES IDX 4 14 2 15 3 16 5 17 1 19
REMARK H PARENT 16 9 5 18 1 20
REMARK Flexibility Score: inf
ROOT
ATOM      1  C   UNL     1       9.113  11.144   7.433  1.00  0.00     0.044 C 
ENDROOT
BRANCH   1   2
ATOM      2  C   UNL     1       7.769  11.811   7.569  1.00  0.00    -0.006 A 
ATOM      3  C   UNL     1       5.372  11.634   7.943  1.00  0.00     0.001 A 
ATOM      4  C   UNL     1       5.236  13.011   7.758  1.00  0.00     0.004 A 
ATOM      5  C   UNL     1       6.630  11.034   7.845  1.00  0.00     0.007 A 
ATOM      6  C   UNL     1       6.358  13.792   7.469  1.00  0.00     0.046 A 
ATOM      7  C   UNL     1       7.625  13.199   7.367  1.00  0.00     0.118 A 
BRANCH   7   8
ATOM      8  O   UNL     1       8.738  13.983   7.063  1.00  0.00    -0.508 OA
ATOM      9  H   UNL     1       9.683  13.635   7.186  1.00  0.00     0.293 HD
ENDBRANCH   7   8
ENDBRANCH   1   2
BRANCH   1  10
ATOM     10  C   UNL     1       9.020   9.661   7.804  1.00  0.00     0.040 C 
BRANCH  10  11
ATOM     11  C   UNL     1      10.015   8.854   7.013  1.00  0.00    -0.040 A 
ATOM     12  C   UNL     1      10.635   9.408   5.882  1.00  0.00     0.050 A 
ATOM     13  C   UNL     1      10.373   7.563   7.434  1.00  0.00     0.050 A 
ATOM     14  C   UNL     1      11.587   8.670   5.164  1.00  0.00     0.119 A 
ATOM     15  C   UNL     1      11.324   6.825   6.717  1.00  0.00     0.119 A 
ATOM     16  C   UNL     1      11.925   7.379   5.583  1.00  0.00     0.092 A 
BRANCH  14  17
ATOM     17  O   UNL     1      12.201   9.210   4.037  1.00  0.00    -0.508 OA
ATOM     18  H   UNL     1      12.070   8.805   3.117  1.00  0.00     0.293 HD
ENDBRANCH  14  17
BRANCH  15  19
ATOM     19  O   UNL     1      11.681   5.540   7.124  1.00  0.00    -0.508 OA
ATOM     20  H   UNL     1      11.395   4.721   6.600  1.00  0.00     0.293 HD
ENDBRANCH  15  19
ENDBRANCH  10  11
ENDBRANCH   1  10
TORSDOF 6
ENDMDL
MODEL 3
REMARK VINA RESULT:    -4.912      2.098      6.052
REMARK INTER + INTRA:          -6.647
REMARK INTER:                  -6.007
REMARK INTRA:                  -0.639
REMARK UNBOUND:                -0.443
REMARK SMILES Oc1cc(O)cc(CCc2ccccc2O)c1
REMARK SMILES IDX 9 1 10 2 12 3 13 4 11 5 14 6 15 7 16 8 8 10 7 11 6 12 17 13
REMARK SMILES IDX 4 14 2 15 3 16 5 17 1 19
REMARK H PARENT 16 9 5 18 1 20
REMARK Flexibility Score: inf
ROOT
ATOM      1  C   UNL     1       9.052   9.109   7.627  1.00  0.00     0.044 C 
ENDROOT
BRANCH   1   2
ATOM      2  C   UNL     1       8.702   8.559   6.268  1.00  0.00    -0.006 A 
ATOM      3  C   UNL     1       7.347   7.078   4.894  1.00  0.00     0.001 A 
ATOM      4  C   UNL     1       8.068   7.460   3.762  1.00  0.00     0.004 A 
ATOM      5  C   UNL     1       7.664   7.619   6.142  1.00  0.00     0.007 A 
ATOM      6  C   UNL     1       9.112   8.383   3.875  1.00  0.00     0.046 A 
ATOM      7  C   UNL     1       9.438   8.931   5.124  1.00  0.00     0.118 A 
BRANCH   7   8
ATOM      8  O   UNL     1      10.491   9.840   5.232  1.00  0.00    -0.508 OA
ATOM      9  H   UNL     1      10.330  10.841   5.251  1.00  0.00     0.293 HD
ENDBRANCH   7   8
ENDBRANCH   1   2
BRANCH   1  10
ATOM     10  C   UNL     1       7.803   9.648   8.329  1.00  0.00     0.040 C 
BRANCH  10  11
ATOM     11  C   UNL     1       7.594  11.101   7.994  1.00  0.00    -0.040 A 
ATOM     12  C   UNL     1       8.672  11.889   7.562  1.00  0.00     0.050 A 
ATOM     13  C   UNL     1       6.309  11.664   8.058  1.00  0.00     0.050 A 
ATOM     14  C   UNL     1       8.472  13.234   7.217  1.00  0.00     0.119 A 
ATOM     15  C   UNL     1       6.108  13.007   7.714  1.00  0.00     0.119 A 
ATOM     16  C   UNL     1       7.191  13.789   7.298  1.00  0.00     0.092 A 
BRANCH  14  17
ATOM     17  O   UNL     1       9.538  14.024   6.794  1.00  0.00    -0.508 OA
ATOM     18  H   UNL     1       9.804  14.865   7.293  1.00  0.00     0.293 HD
ENDBRANCH  14  17
BRANCH  15  19
ATOM     19  O   UNL     1       4.837  13.576   7.781  1.00  0.00    -0.508 OA
ATOM     20  H   UNL     1       4.696  14.571   7.654  1.00  0.00     0.293 HD
ENDBRANCH  15  19
ENDBRANCH  10  11
ENDBRANCH   1  10
TORSDOF 6
ENDMDL
MODEL 4
REMARK VINA RESULT:    -4.860      1.241      1.297
REMARK INTER + INTRA:          -6.581
REMARK INTER:                  -6.035
REMARK INTRA:                  -0.546
REMARK UNBOUND:                -0.443
REMARK SMILES Oc1cc(O)cc(CCc2ccccc2O)c1
REMARK SMILES IDX 9 1 10 2 12 3 13 4 11 5 14 6 15 7 16 8 8 10 7 11 6 12 17 13
REMARK SMILES IDX 4 14 2 15 3 16 5 17 1 19
REMARK H PARENT 16 9 5 18 1 20
REMARK Flexibility Score: inf
ROOT
ATOM      1  C   UNL     1       9.167  11.287   7.597  1.00  0.00     0.044 C 
ENDROOT
BRANCH   1   2
ATOM      2  C   UNL     1       7.782  11.876   7.673  1.00  0.00    -0.006 A 
ATOM      3  C   UNL     1       5.391  11.568   8.000  1.00  0.00     0.001 A 
ATOM      4  C   UNL     1       5.177  12.925   7.752  1.00  0.00     0.004 A 
ATOM      5  C   UNL     1       6.685  11.043   7.956  1.00  0.00     0.007 A 
ATOM      6  C   UNL     1       6.257  13.760   7.455  1.00  0.00     0.046 A 
ATOM      7  C   UNL     1       7.560  13.243   7.408  1.00  0.00     0.118 A 
BRANCH   7   8
ATOM      8  O   UNL     1       8.631  14.080   7.096  1.00  0.00    -0.508 OA
ATOM      9  H   UNL     1       8.720  15.004   7.504  1.00  0.00     0.293 HD
ENDBRANCH   7   8
ENDBRANCH   1   2
BRANCH   1  10
ATOM     10  C   UNL     1       9.125   9.775   7.835  1.00  0.00     0.040 C 
BRANCH  10  11
ATOM     11  C   UNL     1       9.663   9.036   6.639  1.00  0.00    -0.040 A 
ATOM     12  C   UNL     1      10.754   8.163   6.780  1.00  0.00     0.050 A 
ATOM     13  C   UNL     1       9.043   9.169   5.387  1.00  0.00     0.050 A 
ATOM     14  C   UNL     1      11.235   7.448   5.674  1.00  0.00     0.119 A 
ATOM     15  C   UNL     1       9.523   8.455   4.281  1.00  0.00     0.119 A 
ATOM     16  C   UNL     1      10.619   7.599   4.428  1.00  0.00     0.092 A 
BRANCH  14  17
ATOM     17  O   UNL     1      12.321   6.586   5.804  1.00  0.00    -0.508 OA
ATOM     18  H   UNL     1      12.195   5.583   5.877  1.00  0.00     0.293 HD
ENDBRANCH  14  17
BRANCH  15  19
ATOM     19  O   UNL     1       8.917   8.586   3.033  1.00  0.00    -0.508 OA
ATOM     20  H   UNL     1       9.159   9.344   2.405  1.00  0.00     0.293 HD
ENDBRANCH  15  19
ENDBRANCH  10  11
ENDBRANCH   1  10
TORSDOF 6
ENDMDL
MODEL 5
REMARK VINA RESULT:    -4.856      2.138      6.023
REMARK INTER + INTRA:          -6.576
REMARK INTER:                  -5.972
REMARK INTRA:                  -0.604
REMARK UNBOUND:                -0.443
REMARK SMILES Oc1cc(O)cc(CCc2ccccc2O)c1
REMARK SMILES IDX 9 1 10 2 12 3 13 4 11 5 14 6 15 7 16 8 8 10 7 11 6 12 17 13
REMARK SMILES IDX 4 14 2 15 3 16 5 17 1 19
REMARK H PARENT 16 9 5 18 1 20
REMARK Flexibility Score: inf
ROOT
ATOM      1  C   UNL     1       8.884   9.113   7.573  1.00  0.00     0.044 C 
ENDROOT
BRANCH   1   2
ATOM      2  C   UNL     1       8.605   8.549   6.203  1.00  0.00    -0.006 A 
ATOM      3  C   UNL     1       7.336   7.040   4.779  1.00  0.00     0.001 A 
ATOM      4  C   UNL     1       8.105   7.423   3.679  1.00  0.00     0.004 A 
ATOM      5  C   UNL     1       7.586   7.594   6.037  1.00  0.00     0.007 A 
ATOM      6  C   UNL     1       9.130   8.360   3.834  1.00  0.00     0.046 A 
ATOM      7  C   UNL     1       9.390   8.922   5.093  1.00  0.00     0.118 A 
BRANCH   7   8
ATOM      8  O   UNL     1      10.425   9.845   5.243  1.00  0.00    -0.508 OA
ATOM      9  H   UNL     1      10.324  10.809   4.945  1.00  0.00     0.293 HD
ENDBRANCH   7   8
ENDBRANCH   1   2
BRANCH   1  10
ATOM     10  C   UNL     1       7.601   9.669   8.199  1.00  0.00     0.040 C 
BRANCH  10  11
ATOM     11  C   UNL     1       7.461  11.138   7.903  1.00  0.00    -0.040 A 
ATOM     12  C   UNL     1       6.233  11.787   8.112  1.00  0.00     0.050 A 
ATOM     13  C   UNL     1       8.571  11.882   7.471  1.00  0.00     0.050 A 
ATOM     14  C   UNL     1       6.110  13.162   7.868  1.00  0.00     0.119 A 
ATOM     15  C   UNL     1       8.448  13.257   7.228  1.00  0.00     0.119 A 
ATOM     16  C   UNL     1       7.218  13.891   7.424  1.00  0.00     0.092 A 
BRANCH  14  17
ATOM     17  O   UNL     1       4.894  13.812   8.066  1.00  0.00    -0.508 OA
ATOM     18  H   UNL     1       4.028  13.295   8.165  1.00  0.00     0.293 HD
ENDBRANCH  14  17
BRANCH  15  19
ATOM     19  O   UNL     1       9.543  14.002   6.792  1.00  0.00    -0.508 OA
ATOM     20  H   UNL     1       9.435  14.768   6.138  1.00  0.00     0.293 HD
ENDBRANCH  15  19
ENDBRANCH  10  11
ENDBRANCH   1  10
TORSDOF 6
ENDMDL
MODEL 6
REMARK VINA RESULT:    -4.812      3.335      7.940
REMARK INTER + INTRA:          -6.521
REMARK INTER:                  -5.958
REMARK INTRA:                  -0.564
REMARK UNBOUND:                -0.443
REMARK SMILES Oc1cc(O)cc(CCc2ccccc2O)c1
REMARK SMILES IDX 9 1 10 2 12 3 13 4 11 5 14 6 15 7 16 8 8 10 7 11 6 12 17 13
REMARK SMILES IDX 4 14 2 15 3 16 5 17 1 19
REMARK H PARENT 16 9 5 18 1 20
REMARK Flexibility Score: inf
ROOT
ATOM      1  C   UNL     1       6.765  13.985   7.674  1.00  0.00     0.044 C 
ENDROOT
BRANCH   1   2
ATOM      2  C   UNL     1       7.483  12.674   7.486  1.00  0.00    -0.006 A 
ATOM      3  C   UNL     1       7.484  10.246   7.641  1.00  0.00     0.001 A 
ATOM      4  C   UNL     1       8.813  10.215   7.217  1.00  0.00     0.004 A 
ATOM      5  C   UNL     1       6.822  11.468   7.781  1.00  0.00     0.007 A 
ATOM      6  C   UNL     1       9.486  11.406   6.934  1.00  0.00     0.046 A 
ATOM      7  C   UNL     1       8.830  12.638   7.073  1.00  0.00     0.118 A 
BRANCH   7   8
ATOM      8  O   UNL     1       9.513  13.825   6.804  1.00  0.00    -0.508 OA
ATOM      9  H   UNL     1       9.058  14.728   6.873  1.00  0.00     0.293 HD
ENDBRANCH   7   8
ENDBRANCH   1   2
BRANCH   1  10
ATOM     10  C   UNL     1       5.501  13.792   8.517  1.00  0.00     0.040 C 
BRANCH  10  11
ATOM     11  C   UNL     1       4.269  14.034   7.687  1.00  0.00    -0.040 A 
ATOM     12  C   UNL     1       4.257  15.052   6.720  1.00  0.00     0.050 A 
ATOM     13  C   UNL     1       3.143  13.208   7.834  1.00  0.00     0.050 A 
ATOM     14  C   UNL     1       3.122  15.257   5.922  1.00  0.00     0.119 A 
ATOM     15  C   UNL     1       2.008  13.412   7.037  1.00  0.00     0.119 A 
ATOM     16  C   UNL     1       2.000  14.438   6.087  1.00  0.00     0.092 A 
BRANCH  14  17
ATOM     17  O   UNL     1       3.100  16.268   4.965  1.00  0.00    -0.508 OA
ATOM     18  H   UNL     1       2.274  16.452   4.408  1.00  0.00     0.293 HD
ENDBRANCH  14  17
BRANCH  15  19
ATOM     19  O   UNL     1       0.884  12.601   7.181  1.00  0.00    -0.508 OA
ATOM     20  H   UNL     1       0.435  12.173   6.379  1.00  0.00     0.293 HD
ENDBRANCH  15  19
ENDBRANCH  10  11
ENDBRANCH   1  10
TORSDOF 6
ENDMDL
MODEL 7
REMARK VINA RESULT:    -4.796      6.936      9.449
REMARK INTER + INTRA:          -6.501
REMARK INTER:                  -5.936
REMARK INTRA:                  -0.565
REMARK UNBOUND:                -0.443
REMARK SMILES Oc1cc(O)cc(CCc2ccccc2O)c1
REMARK SMILES IDX 9 1 10 2 12 3 13 4 11 5 14 6 15 7 16 8 8 10 7 11 6 12 17 13
REMARK SMILES IDX 4 14 2 15 3 16 5 17 1 19
REMARK H PARENT 16 9 5 18 1 20
REMARK Flexibility Score: inf
ROOT
ATOM      1  C   UNL     1      14.348  10.630  -0.747  1.00  0.00     0.044 C 
ENDROOT
BRANCH   1   2
ATOM      2  C   UNL     1      14.510  12.061  -1.191  1.00  0.00    -0.006 A 
ATOM      3  C   UNL     1      15.939  14.002  -1.518  1.00  0.00     0.001 A 
ATOM      4  C   UNL     1      14.838  14.747  -1.943  1.00  0.00     0.004 A 
ATOM      5  C   UNL     1      15.778  12.667  -1.138  1.00  0.00     0.007 A 
ATOM      6  C   UNL     1      13.570  14.160  -1.986  1.00  0.00     0.046 A 
ATOM      7  C   UNL     1      13.398  12.821  -1.606  1.00  0.00     0.118 A 
BRANCH   7   8
ATOM      8  O   UNL     1      12.128  12.246  -1.638  1.00  0.00    -0.508 OA
ATOM      9  H   UNL     1      11.288  12.807  -1.539  1.00  0.00     0.293 HD
ENDBRANCH   7   8
ENDBRANCH   1   2
BRANCH   1  10
ATOM     10  C   UNL     1      15.647  10.106  -0.127  1.00  0.00     0.040 C 
BRANCH  10  11
ATOM     11  C   UNL     1      15.454   9.815   1.337  1.00  0.00    -0.040 A 
ATOM     12  C   UNL     1      16.560   9.781   2.202  1.00  0.00     0.050 A 
ATOM     13  C   UNL     1      14.164   9.631   1.859  1.00  0.00     0.050 A 
ATOM     14  C   UNL     1      16.379   9.543   3.572  1.00  0.00     0.119 A 
ATOM     15  C   UNL     1      13.982   9.393   3.227  1.00  0.00     0.119 A 
ATOM     16  C   UNL     1      15.090   9.346   4.079  1.00  0.00     0.092 A 
BRANCH  14  17
ATOM     17  O   UNL     1      17.471   9.501   4.436  1.00  0.00    -0.508 OA
ATOM     18  H   UNL     1      18.165  10.239   4.446  1.00  0.00     0.293 HD
ENDBRANCH  14  17
BRANCH  15  19
ATOM     19  O   UNL     1      12.705   9.203   3.752  1.00  0.00    -0.508 OA
ATOM     20  H   UNL     1      12.112   8.442   3.439  1.00  0.00     0.293 HD
ENDBRANCH  15  19
ENDBRANCH  10  11
ENDBRANCH   1  10
TORSDOF 6
ENDMDL
MODEL 8
REMARK VINA RESULT:    -4.780      6.902      9.443
REMARK INTER + INTRA:          -6.481
REMARK INTER:                  -5.912
REMARK INTRA:                  -0.569
REMARK UNBOUND:                -0.443
REMARK SMILES Oc1cc(O)cc(CCc2ccccc2O)c1
REMARK SMILES IDX 9 1 10 2 12 3 13 4 11 5 14 6 15 7 16 8 8 10 7 11 6 12 17 13
REMARK SMILES IDX 4 14 2 15 3 16 5 17 1 19
REMARK H PARENT 16 9 5 18 1 20
REMARK Flexibility Score: inf
ROOT
ATOM      1  C   UNL     1      14.317  10.622  -0.760  1.00  0.00     0.044 C 
ENDROOT
BRANCH   1   2
ATOM      2  C   UNL     1      14.512  12.050  -1.201  1.00  0.00    -0.006 A 
ATOM      3  C   UNL     1      15.981  13.965  -1.505  1.00  0.00     0.001 A 
ATOM      4  C   UNL     1      14.901  14.730  -1.948  1.00  0.00     0.004 A 
ATOM      5  C   UNL     1      15.790  12.634  -1.129  1.00  0.00     0.007 A 
ATOM      6  C   UNL     1      13.623  14.166  -2.011  1.00  0.00     0.046 A 
ATOM      7  C   UNL     1      13.421  12.830  -1.633  1.00  0.00     0.118 A 
BRANCH   7   8
ATOM      8  O   UNL     1      12.141  12.279  -1.685  1.00  0.00    -0.508 OA
ATOM      9  H   UNL     1      11.894  11.571  -2.367  1.00  0.00     0.293 HD
ENDBRANCH   7   8
ENDBRANCH   1   2
BRANCH   1  10
ATOM     10  C   UNL     1      15.597  10.074  -0.123  1.00  0.00     0.040 C 
BRANCH  10  11
ATOM     11  C   UNL     1      15.399   9.845   1.352  1.00  0.00    -0.040 A 
ATOM     12  C   UNL     1      14.112   9.613   1.864  1.00  0.00     0.050 A 
ATOM     13  C   UNL     1      16.504   9.805   2.217  1.00  0.00     0.050 A 
ATOM     14  C   UNL     1      13.929   9.366   3.232  1.00  0.00     0.119 A 
ATOM     15  C   UNL     1      16.322   9.558   3.585  1.00  0.00     0.119 A 
ATOM     16  C   UNL     1      15.035   9.342   4.088  1.00  0.00     0.092 A 
BRANCH  14  17
ATOM     17  O   UNL     1      12.655   9.142   3.749  1.00  0.00    -0.508 OA
ATOM     18  H   UNL     1      12.167   9.854   4.280  1.00  0.00     0.293 HD
ENDBRANCH  14  17
BRANCH  15  19
ATOM     19  O   UNL     1      17.412   9.522   4.452  1.00  0.00    -0.508 OA
ATOM     20  H   UNL     1      18.353   9.718   4.127  1.00  0.00     0.293 HD
ENDBRANCH  15  19
ENDBRANCH  10  11
ENDBRANCH   1  10
TORSDOF 6
ENDMDL
MODEL 9
REMARK VINA RESULT:    -4.756      2.604      3.256
REMARK INTER + INTRA:          -6.450
REMARK INTER:                  -5.900
REMARK INTRA:                  -0.550
REMARK UNBOUND:                -0.443
REMARK SMILES Oc1cc(O)cc(CCc2ccccc2O)c1
REMARK SMILES IDX 9 1 10 2 12 3 13 4 11 5 14 6 15 7 16 8 8 10 7 11 6 12 17 13
REMARK SMILES IDX 4 14 2 15 3 16 5 17 1 19
REMARK H PARENT 16 9 5 18 1 20
REMARK Flexibility Score: inf
ROOT
ATOM      1  C   UNL     1       9.218  10.531   7.101  1.00  0.00     0.044 C 
ENDROOT
BRANCH   1   2
ATOM      2  C   UNL     1       8.109  11.507   7.400  1.00  0.00    -0.006 A 
ATOM      3  C   UNL     1       5.795  11.920   8.023  1.00  0.00     0.001 A 
ATOM      4  C   UNL     1       6.000  13.295   7.895  1.00  0.00     0.004 A 
ATOM      5  C   UNL     1       6.841  11.029   7.773  1.00  0.00     0.007 A 
ATOM      6  C   UNL     1       7.253  13.782   7.511  1.00  0.00     0.046 A 
ATOM      7  C   UNL     1       8.309  12.895   7.256  1.00  0.00     0.118 A 
BRANCH   7   8
ATOM      8  O   UNL     1       9.551  13.388   6.859  1.00  0.00    -0.508 OA
ATOM      9  H   UNL     1       9.949  14.224   7.274  1.00  0.00     0.293 HD
ENDBRANCH   7   8
ENDBRANCH   1   2
BRANCH   1  10
ATOM     10  C   UNL     1       8.741   9.091   7.315  1.00  0.00     0.040 C 
BRANCH  10  11
ATOM     11  C   UNL     1       8.385   8.451   6.000  1.00  0.00    -0.040 A 
ATOM     12  C   UNL     1       9.098   8.781   4.836  1.00  0.00     0.050 A 
ATOM     13  C   UNL     1       7.375   7.477   5.937  1.00  0.00     0.050 A 
ATOM     14  C   UNL     1       8.790   8.161   3.617  1.00  0.00     0.119 A 
ATOM     15  C   UNL     1       7.066   6.857   4.719  1.00  0.00     0.119 A 
ATOM     16  C   UNL     1       7.772   7.203   3.563  1.00  0.00     0.092 A 
BRANCH  14  17
ATOM     17  O   UNL     1       9.488   8.488   2.457  1.00  0.00    -0.508 OA
ATOM     18  H   UNL     1      10.138   7.838   2.030  1.00  0.00     0.293 HD
ENDBRANCH  14  17
BRANCH  15  19
ATOM     19  O   UNL     1       6.061   5.894   4.647  1.00  0.00    -0.508 OA
ATOM     20  H   UNL     1       6.047   5.197   3.911  1.00  0.00     0.293 HD
ENDBRANCH  15  19
ENDBRANCH  10  11
ENDBRANCH   1  10
TORSDOF 6
ENDMDL
