MODEL 1
REMARK VINA RESULT:    -4.315      0.000      0.000
REMARK INTER + INTRA:          -6.901
REMARK INTER:                  -6.333
REMARK INTRA:                  -0.568
REMARK UNBOUND:                -0.568
REMARK SMILES C=C1C=C[C@@H](C(C)C)CCC(C)=CCC1
REMARK SMILES IDX 3 1 4 2 5 3 9 4 10 5 11 6 12 7 13 8 6 10 7 11 8 12 2 13 1 14
REMARK SMILES IDX 15 15 14 16
REMARK H PARENT
REMARK Flexibility Score: 70.00
ROOT
ATOM      1  C   UNL     1     -41.006 -50.001  28.394  1.00  0.00    -0.001 C 
ATOM      2  C   UNL     1     -40.192 -49.050  27.891  1.00  0.00    -0.023 C 
ENDROOT
BRANCH   2   3
ATOM      3  C   UNL     1     -40.202 -47.540  28.126  1.00  0.00     0.014 C 
BRANCH   3   4
ATOM      4  C   UNL     1     -41.006 -46.706  27.097  1.00  0.00     0.012 C 
BRANCH   4   5
ATOM      5  C   UNL     1     -41.518 -47.582  25.941  1.00  0.00     0.031 C 
BRANCH   5   6
ATOM      6  C   UNL     1     -43.023 -47.528  25.745  1.00  0.00    -0.077 C 
ATOM      7  C   UNL     1     -43.591 -46.447  24.858  1.00  0.00     0.039 C 
ATOM      8  C   UNL     1     -43.906 -48.315  26.411  1.00  0.00    -0.028 CG0
ATOM      9  G   UNL     1     -43.608 -49.558  27.223  1.00  0.00     0.000 G0
ENDBRANCH   5   6
ENDBRANCH   4   5
ENDBRANCH   3   4
BRANCH   3  10
ATOM     10  C   UNL     1     -38.773 -46.999  28.435  1.00  0.00    -0.010 C 
ATOM     11  C   UNL     1     -37.741 -48.123  28.607  1.00  0.00     0.008 C 
ATOM     12  C   UNL     1     -38.722 -46.043  29.632  1.00  0.00     0.008 C 
ENDBRANCH   3  10
ENDBRANCH   2   3
BRANCH   1  13
ATOM     13  C   UNL     1     -42.151 -49.803  29.305  1.00  0.00    -0.055 C 
ATOM     14  C   UNL     1     -41.923 -49.714  30.619  1.00  0.00     0.012 C 
BRANCH  13  15
ATOM     15  C   UNL     1     -43.486 -49.338  28.757  1.00  0.00     0.039 C 
BRANCH  15  16
ATOM     16  C   UNL     1     -43.609 -49.563  27.233  1.00  0.00     0.032 CG0
ATOM     17  G   UNL     1     -43.900 -48.331  26.404  1.00  0.00     0.000 G0
ENDBRANCH  15  16
ENDBRANCH  13  15
ENDBRANCH   1  13
TORSDOF 1
ENDMDL
MODEL 2
REMARK VINA RESULT:    -4.210     11.277     13.019
REMARK INTER + INTRA:          -6.747
REMARK INTER:                  -6.358
REMARK INTRA:                  -0.389
REMARK UNBOUND:                -0.568
REMARK SMILES C=C1C=C[C@@H](C(C)C)CCC(C)=CCC1
REMARK SMILES IDX 3 1 4 2 5 3 9 4 10 5 11 6 12 7 13 8 6 10 7 11 8 12 2 13 1 14
REMARK SMILES IDX 15 15 14 16
REMARK H PARENT
REMARK Flexibility Score: 70.00
ROOT
ATOM      1  C   UNL     1     -48.745 -51.317  17.749  1.00  0.00    -0.001 C 
ATOM      2  C   UNL     1     -48.988 -50.629  18.884  1.00  0.00    -0.023 C 
ENDROOT
BRANCH   2   3
ATOM      3  C   UNL     1     -49.907 -49.431  19.115  1.00  0.00     0.014 C 
BRANCH   3   4
ATOM      4  C   UNL     1     -49.198 -48.063  19.283  1.00  0.00     0.012 C 
BRANCH   4   5
ATOM      5  C   UNL     1     -47.829 -48.050  18.583  1.00  0.00     0.031 C 
BRANCH   5   6
ATOM      6  C   UNL     1     -47.846 -47.410  17.207  1.00  0.00    -0.077 C 
ATOM      7  C   UNL     1     -48.125 -45.929  17.109  1.00  0.00     0.039 C 
ATOM      8  C   UNL     1     -47.743 -48.103  16.044  1.00  0.00    -0.028 CG0
ATOM      9  G   UNL     1     -47.311 -49.542  15.859  1.00  0.00     0.000 G0
ENDBRANCH   5   6
ENDBRANCH   4   5
ENDBRANCH   3   4
BRANCH   3  10
ATOM     10  C   UNL     1     -50.995 -49.741  20.188  1.00  0.00    -0.010 C 
ATOM     11  C   UNL     1     -50.444 -49.680  21.621  1.00  0.00     0.008 C 
ATOM     12  C   UNL     1     -51.729 -51.066  19.957  1.00  0.00     0.008 C 
ENDBRANCH   3  10
ENDBRANCH   2   3
BRANCH   1  13
ATOM     13  C   UNL     1     -49.311 -51.056  16.411  1.00  0.00    -0.055 C 
ATOM     14  C   UNL     1     -50.639 -51.017  16.269  1.00  0.00     0.012 C 
BRANCH  13  15
ATOM     15  C   UNL     1     -48.437 -50.479  15.316  1.00  0.00     0.039 C 
BRANCH  15  16
ATOM     16  C   UNL     1     -47.341 -49.539  15.868  1.00  0.00     0.032 CG0
ATOM     17  G   UNL     1     -47.740 -48.090  16.042  1.00  0.00     0.000 G0
ENDBRANCH  15  16
ENDBRANCH  13  15
ENDBRANCH   1  13
TORSDOF 1
ENDMDL
MODEL 3
REMARK VINA RESULT:    -4.207     10.743     12.469
REMARK INTER + INTRA:          -6.742
REMARK INTER:                  -6.301
REMARK INTRA:                  -0.441
REMARK UNBOUND:                -0.568
REMARK SMILES C=C1C=C[C@@H](C(C)C)CCC(C)=CCC1
REMARK SMILES IDX 3 1 4 2 5 3 9 4 10 5 11 6 12 7 13 8 6 10 7 11 8 12 2 13 1 14
REMARK SMILES IDX 15 15 14 16
REMARK H PARENT
REMARK Flexibility Score: 70.00
ROOT
ATOM      1  C   UNL     1     -48.706 -48.055  20.402  1.00  0.00    -0.001 C 
ATOM      2  C   UNL     1     -47.914 -47.829  19.333  1.00  0.00    -0.023 C 
ENDROOT
BRANCH   2   3
ATOM      3  C   UNL     1     -47.951 -48.467  17.946  1.00  0.00     0.014 C 
BRANCH   3   4
ATOM      4  C   UNL     1     -47.366 -49.899  17.850  1.00  0.00     0.012 C 
BRANCH   4   5
ATOM      5  C   UNL     1     -48.445 -50.965  18.100  1.00  0.00     0.031 C 
BRANCH   5   6
ATOM      6  C   UNL     1     -49.630 -50.878  17.155  1.00  0.00    -0.077 C 
ATOM      7  C   UNL     1     -49.403 -51.179  15.693  1.00  0.00     0.039 C 
ATOM      8  C   UNL     1     -50.860 -50.430  17.515  1.00  0.00    -0.028 CG0
ATOM      9  G   UNL     1     -51.393 -50.215  18.915  1.00  0.00     0.000 G0
ENDBRANCH   5   6
ENDBRANCH   4   5
ENDBRANCH   3   4
BRANCH   3  10
ATOM     10  C   UNL     1     -47.450 -47.480  16.847  1.00  0.00    -0.010 C 
ATOM     11  C   UNL     1     -48.200 -46.139  16.874  1.00  0.00     0.008 C 
ATOM     12  C   UNL     1     -47.468 -48.071  15.434  1.00  0.00     0.008 C 
ENDBRANCH   3  10
ENDBRANCH   2   3
BRANCH   1  13
ATOM     13  C   UNL     1     -49.820 -49.019  20.496  1.00  0.00    -0.055 C 
ATOM     14  C   UNL     1     -49.917 -49.789  21.584  1.00  0.00     0.012 C 
BRANCH  13  15
ATOM     15  C   UNL     1     -51.021 -48.883  19.581  1.00  0.00     0.039 C 
BRANCH  15  16
ATOM     16  C   UNL     1     -51.405 -50.221  18.909  1.00  0.00     0.032 CG0
ATOM     17  G   UNL     1     -50.857 -50.441  17.515  1.00  0.00     0.000 G0
ENDBRANCH  15  16
ENDBRANCH  13  15
ENDBRANCH   1  13
TORSDOF 1
ENDMDL
MODEL 4
REMARK VINA RESULT:    -4.173      0.971      3.393
REMARK INTER + INTRA:          -6.692
REMARK INTER:                  -6.078
REMARK INTRA:                  -0.614
REMARK UNBOUND:                -0.568
REMARK SMILES C=C1C=C[C@@H](C(C)C)CCC(C)=CCC1
REMARK SMILES IDX 3 1 4 2 5 3 9 4 10 5 11 6 12 7 13 8 6 10 7 11 8 12 2 13 1 14
REMARK SMILES IDX 15 15 14 16
REMARK H PARENT
REMARK Flexibility Score: 70.00
ROOT
ATOM      1  C   UNL     1     -42.467 -46.397  27.378  1.00  0.00    -0.001 C 
ATOM      2  C   UNL     1     -41.356 -46.711  28.076  1.00  0.00    -0.023 C 
ENDROOT
BRANCH   2   3
ATOM      3  C   UNL     1     -40.284 -47.757  27.774  1.00  0.00     0.014 C 
BRANCH   3   4
ATOM      4  C   UNL     1     -40.621 -49.207  28.205  1.00  0.00     0.012 C 
BRANCH   4   5
ATOM      5  C   UNL     1     -41.692 -49.231  29.309  1.00  0.00     0.031 C 
BRANCH   5   6
ATOM      6  C   UNL     1     -42.831 -50.198  29.042  1.00  0.00    -0.077 C 
ATOM      7  C   UNL     1     -42.752 -51.580  29.643  1.00  0.00     0.039 C 
ATOM      8  C   UNL     1     -43.864 -49.943  28.198  1.00  0.00    -0.028 CG0
ATOM      9  G   UNL     1     -44.262 -48.611  27.599  1.00  0.00     0.000 G0
ENDBRANCH   5   6
ENDBRANCH   4   5
ENDBRANCH   3   4
BRANCH   3  10
ATOM     10  C   UNL     1     -38.866 -47.262  28.194  1.00  0.00    -0.010 C 
ATOM     11  C   UNL     1     -37.919 -48.418  28.548  1.00  0.00     0.008 C 
ATOM     12  C   UNL     1     -38.884 -46.225  29.322  1.00  0.00     0.008 C 
ENDBRANCH   3  10
ENDBRANCH   2   3
BRANCH   1  13
ATOM     13  C   UNL     1     -42.940 -47.024  26.128  1.00  0.00    -0.055 C 
ATOM     14  C   UNL     1     -42.401 -46.636  24.968  1.00  0.00     0.012 C 
BRANCH  13  15
ATOM     15  C   UNL     1     -43.727 -48.318  26.177  1.00  0.00     0.039 C 
BRANCH  15  16
ATOM     16  C   UNL     1     -44.284 -48.617  27.588  1.00  0.00     0.032 CG0
ATOM     17  G   UNL     1     -43.857 -49.934  28.201  1.00  0.00     0.000 G0
ENDBRANCH  15  16
ENDBRANCH  13  15
ENDBRANCH   1  13
TORSDOF 1
ENDMDL
MODEL 5
REMARK VINA RESULT:    -4.128      1.521      2.169
REMARK INTER + INTRA:          -6.626
REMARK INTER:                  -6.188
REMARK INTRA:                  -0.439
REMARK UNBOUND:                -0.568
REMARK SMILES C=C1C=C[C@@H](C(C)C)CCC(C)=CCC1
REMARK SMILES IDX 3 1 4 2 5 3 9 4 10 5 11 6 12 7 13 8 6 10 7 11 8 12 2 13 1 14
REMARK SMILES IDX 15 15 14 16
REMARK H PARENT
REMARK Flexibility Score: 70.00
ROOT
ATOM      1  C   UNL     1     -41.913 -49.882  30.737  1.00  0.00    -0.001 C 
ATOM      2  C   UNL     1     -40.695 -49.415  30.391  1.00  0.00    -0.023 C 
ENDROOT
BRANCH   2   3
ATOM      3  C   UNL     1     -40.292 -48.541  29.205  1.00  0.00     0.014 C 
BRANCH   3   4
ATOM      4  C   UNL     1     -40.333 -49.231  27.818  1.00  0.00     0.012 C 
BRANCH   4   5
ATOM      5  C   UNL     1     -41.667 -48.969  27.099  1.00  0.00     0.031 C 
BRANCH   5   6
ATOM      6  C   UNL     1     -42.099 -47.513  27.113  1.00  0.00    -0.077 C 
ATOM      7  C   UNL     1     -41.265 -46.511  26.352  1.00  0.00     0.039 C 
ATOM      8  C   UNL     1     -43.122 -47.030  27.863  1.00  0.00    -0.028 CG0
ATOM      9  G   UNL     1     -44.197 -47.820  28.580  1.00  0.00     0.000 G0
ENDBRANCH   5   6
ENDBRANCH   4   5
ENDBRANCH   3   4
BRANCH   3  10
ATOM     10  C   UNL     1     -38.986 -47.741  29.501  1.00  0.00    -0.010 C 
ATOM     11  C   UNL     1     -39.124 -46.246  29.173  1.00  0.00     0.008 C 
ATOM     12  C   UNL     1     -37.741 -48.322  28.822  1.00  0.00     0.008 C 
ENDBRANCH   3  10
ENDBRANCH   2   3
BRANCH   1  13
ATOM     13  C   UNL     1     -43.185 -49.669  30.018  1.00  0.00    -0.055 C 
ATOM     14  C   UNL     1     -43.908 -50.733  29.657  1.00  0.00     0.012 C 
BRANCH  13  15
ATOM     15  C   UNL     1     -43.839 -48.302  30.020  1.00  0.00     0.039 C 
BRANCH  15  16
ATOM     16  C   UNL     1     -44.203 -47.820  28.597  1.00  0.00     0.032 CG0
ATOM     17  G   UNL     1     -43.134 -47.032  27.872  1.00  0.00     0.000 G0
ENDBRANCH  15  16
ENDBRANCH  13  15
ENDBRANCH   1  13
TORSDOF 1
ENDMDL
MODEL 6
REMARK VINA RESULT:    -4.034      9.335     12.500
REMARK INTER + INTRA:          -6.489
REMARK INTER:                  -5.945
REMARK INTRA:                  -0.543
REMARK UNBOUND:                -0.568
REMARK SMILES C=C1C=C[C@@H](C(C)C)CCC(C)=CCC1
REMARK SMILES IDX 3 1 4 2 5 3 9 4 10 5 11 6 12 7 13 8 6 10 7 11 8 12 2 13 1 14
REMARK SMILES IDX 15 15 14 16
REMARK H PARENT
REMARK Flexibility Score: 70.00
ROOT
ATOM      1  C   UNL     1     -51.827 -50.298  20.705  1.00  0.00    -0.001 C 
ATOM      2  C   UNL     1     -52.879 -49.613  21.200  1.00  0.00    -0.023 C 
ENDROOT
BRANCH   2   3
ATOM      3  C   UNL     1     -53.100 -48.104  21.289  1.00  0.00     0.014 C 
BRANCH   3   4
ATOM      4  C   UNL     1     -52.452 -47.402  22.509  1.00  0.00     0.012 C 
BRANCH   4   5
ATOM      5  C   UNL     1     -52.133 -48.404  23.631  1.00  0.00     0.031 C 
BRANCH   5   6
ATOM      6  C   UNL     1     -50.737 -48.259  24.210  1.00  0.00    -0.077 C 
ATOM      7  C   UNL     1     -50.567 -47.456  25.477  1.00  0.00     0.039 C 
ATOM      8  C   UNL     1     -49.609 -48.704  23.599  1.00  0.00    -0.028 CG0
ATOM      9  G   UNL     1     -49.507 -49.655  22.425  1.00  0.00     0.000 G0
ENDBRANCH   5   6
ENDBRANCH   4   5
ENDBRANCH   3   4
BRANCH   3  10
ATOM     10  C   UNL     1     -54.590 -47.727  21.032  1.00  0.00    -0.010 C 
ATOM     11  C   UNL     1     -55.007 -46.440  21.762  1.00  0.00     0.008 C 
ATOM     12  C   UNL     1     -55.576 -48.858  21.344  1.00  0.00     0.008 C 
ENDBRANCH   3  10
ENDBRANCH   2   3
BRANCH   1  13
ATOM     13  C   UNL     1     -50.590 -49.735  20.129  1.00  0.00    -0.055 C 
ATOM     14  C   UNL     1     -50.511 -49.571  18.805  1.00  0.00     0.012 C 
BRANCH  13  15
ATOM     15  C   UNL     1     -49.596 -49.018  21.020  1.00  0.00     0.039 C 
BRANCH  15  16
ATOM     16  C   UNL     1     -49.488 -49.661  22.422  1.00  0.00     0.032 CG0
ATOM     17  G   UNL     1     -49.596 -48.710  23.595  1.00  0.00     0.000 G0
ENDBRANCH  15  16
ENDBRANCH  13  15
ENDBRANCH   1  13
TORSDOF 1
ENDMDL
MODEL 7
REMARK VINA RESULT:    -4.032     10.667     13.378
REMARK INTER + INTRA:          -6.486
REMARK INTER:                  -5.941
REMARK INTRA:                  -0.545
REMARK UNBOUND:                -0.568
REMARK SMILES C=C1C=C[C@@H](C(C)C)CCC(C)=CCC1
REMARK SMILES IDX 3 1 4 2 5 3 9 4 10 5 11 6 12 7 13 8 6 10 7 11 8 12 2 13 1 14
REMARK SMILES IDX 15 15 14 16
REMARK H PARENT
REMARK Flexibility Score: 70.00
ROOT
ATOM      1  C   UNL     1     -52.443 -46.288  22.738  1.00  0.00    -0.001 C 
ATOM      2  C   UNL     1     -53.501 -46.560  21.946  1.00  0.00    -0.023 C 
ENDROOT
BRANCH   2   3
ATOM      3  C   UNL     1     -54.537 -47.677  22.060  1.00  0.00     0.014 C 
BRANCH   3   4
ATOM      4  C   UNL     1     -54.155 -49.018  21.385  1.00  0.00     0.012 C 
BRANCH   4   5
ATOM      5  C   UNL     1     -52.962 -48.847  20.430  1.00  0.00     0.031 C 
BRANCH   5   6
ATOM      6  C   UNL     1     -51.855 -49.865  20.636  1.00  0.00    -0.077 C 
ATOM      7  C   UNL     1     -51.866 -51.116  19.790  1.00  0.00     0.039 C 
ATOM      8  C   UNL     1     -50.919 -49.784  21.617  1.00  0.00    -0.028 CG0
ATOM      9  G   UNL     1     -50.590 -48.588  22.485  1.00  0.00     0.000 G0
ENDBRANCH   5   6
ENDBRANCH   4   5
ENDBRANCH   3   4
BRANCH   3  10
ATOM     10  C   UNL     1     -55.972 -47.163  21.729  1.00  0.00    -0.010 C 
ATOM     11  C   UNL     1     -56.928 -48.299  21.334  1.00  0.00     0.008 C 
ATOM     12  C   UNL     1     -56.002 -46.053  20.674  1.00  0.00     0.008 C 
ENDBRANCH   3  10
ENDBRANCH   2   3
BRANCH   1  13
ATOM     13  C   UNL     1     -52.007 -47.042  23.931  1.00  0.00    -0.055 C 
ATOM     14  C   UNL     1     -52.408 -46.630  25.137  1.00  0.00     0.012 C 
BRANCH  13  15
ATOM     15  C   UNL     1     -51.445 -48.442  23.781  1.00  0.00     0.039 C 
BRANCH  15  16
ATOM     16  C   UNL     1     -50.586 -48.599  22.505  1.00  0.00     0.032 CG0
ATOM     17  G   UNL     1     -50.928 -49.779  21.620  1.00  0.00     0.000 G0
ENDBRANCH  15  16
ENDBRANCH  13  15
ENDBRANCH   1  13
TORSDOF 1
ENDMDL
MODEL 8
REMARK VINA RESULT:    -3.910      9.045     11.828
REMARK INTER + INTRA:          -6.307
REMARK INTER:                  -5.679
REMARK INTRA:                  -0.628
REMARK UNBOUND:                -0.568
REMARK SMILES C=C1C=C[C@@H](C(C)C)CCC(C)=CCC1
REMARK SMILES IDX 3 1 4 2 5 3 9 4 10 5 11 6 12 7 13 8 6 10 7 11 8 12 2 13 1 14
REMARK SMILES IDX 15 15 14 16
REMARK H PARENT
REMARK Flexibility Score: 70.00
ROOT
ATOM      1  C   UNL     1     -49.953 -49.639  22.768  1.00  0.00    -0.001 C 
ATOM      2  C   UNL     1     -50.651 -49.982  21.665  1.00  0.00    -0.023 C 
ENDROOT
BRANCH   2   3
ATOM      3  C   UNL     1     -51.141 -49.104  20.515  1.00  0.00     0.014 C 
BRANCH   3   4
ATOM      4  C   UNL     1     -52.670 -49.124  20.260  1.00  0.00     0.012 C 
BRANCH   4   5
ATOM      5  C   UNL     1     -53.458 -49.224  21.576  1.00  0.00     0.031 C 
BRANCH   5   6
ATOM      6  C   UNL     1     -53.764 -47.882  22.216  1.00  0.00    -0.077 C 
ATOM      7  C   UNL     1     -54.928 -47.083  21.680  1.00  0.00     0.039 C 
ATOM      8  C   UNL     1     -52.987 -47.294  23.162  1.00  0.00    -0.028 CG0
ATOM      9  G   UNL     1     -51.876 -47.928  23.970  1.00  0.00     0.000 G0
ENDBRANCH   5   6
ENDBRANCH   4   5
ENDBRANCH   3   4
BRANCH   3  10
ATOM     10  C   UNL     1     -50.262 -49.286  19.240  1.00  0.00    -0.010 C 
ATOM     11  C   UNL     1     -49.709 -50.713  19.104  1.00  0.00     0.008 C 
ATOM     12  C   UNL     1     -49.127 -48.263  19.123  1.00  0.00     0.008 C 
ENDBRANCH   3  10
ENDBRANCH   2   3
BRANCH   1  13
ATOM     13  C   UNL     1     -49.498 -48.287  23.149  1.00  0.00    -0.055 C 
ATOM     14  C   UNL     1     -48.344 -47.830  22.653  1.00  0.00     0.012 C 
BRANCH  13  15
ATOM     15  C   UNL     1     -50.472 -47.305  23.770  1.00  0.00     0.039 C 
BRANCH  15  16
ATOM     16  C   UNL     1     -51.874 -47.919  23.983  1.00  0.00     0.032 CG0
ATOM     17  G   UNL     1     -52.992 -47.316  23.160  1.00  0.00     0.000 G0
ENDBRANCH  15  16
ENDBRANCH  13  15
ENDBRANCH   1  13
TORSDOF 1
ENDMDL
MODEL 9
REMARK VINA RESULT:    -3.861      1.527      4.481
REMARK INTER + INTRA:          -6.235
REMARK INTER:                  -5.568
REMARK INTRA:                  -0.667
REMARK UNBOUND:                -0.568
REMARK SMILES C=C1C=C[C@@H](C(C)C)CCC(C)=CCC1
REMARK SMILES IDX 3 1 4 2 5 3 9 4 10 5 11 6 12 7 13 8 6 10 7 11 8 12 2 13 1 14
REMARK SMILES IDX 15 15 14 16
REMARK H PARENT
REMARK Flexibility Score: 70.00
ROOT
ATOM      1  C   UNL     1     -44.005 -49.558  26.869  1.00  0.00    -0.001 C 
ATOM      2  C   UNL     1     -43.410 -50.017  27.990  1.00  0.00    -0.023 C 
ENDROOT
BRANCH   2   3
ATOM      3  C   UNL     1     -43.063 -49.273  29.278  1.00  0.00     0.014 C 
BRANCH   3   4
ATOM      4  C   UNL     1     -41.553 -49.182  29.615  1.00  0.00     0.012 C 
BRANCH   4   5
ATOM      5  C   UNL     1     -40.689 -49.229  28.344  1.00  0.00     0.031 C 
BRANCH   5   6
ATOM      6  C   UNL     1     -40.288 -47.863  27.820  1.00  0.00    -0.077 C 
ATOM      7  C   UNL     1     -39.137 -47.149  28.488  1.00  0.00     0.039 C 
ATOM      8  C   UNL     1     -40.972 -47.183  26.864  1.00  0.00    -0.028 CG0
ATOM      9  G   UNL     1     -42.045 -47.716  25.939  1.00  0.00     0.000 G0
ENDBRANCH   5   6
ENDBRANCH   4   5
ENDBRANCH   3   4
BRANCH   3  10
ATOM     10  C   UNL     1     -43.972 -49.724  30.462  1.00  0.00    -0.010 C 
ATOM     11  C   UNL     1     -44.405 -51.194  30.347  1.00  0.00     0.008 C 
ATOM     12  C   UNL     1     -45.195 -48.825  30.677  1.00  0.00     0.008 C 
ENDBRANCH   3  10
ENDBRANCH   2   3
BRANCH   1  13
ATOM     13  C   UNL     1     -44.460 -48.179  26.604  1.00  0.00    -0.055 C 
ATOM     14  C   UNL     1     -45.656 -47.795  27.060  1.00  0.00     0.012 C 
BRANCH  13  15
ATOM     15  C   UNL     1     -43.466 -47.122  26.166  1.00  0.00     0.039 C 
BRANCH  15  16
ATOM     16  C   UNL     1     -42.050 -47.699  25.942  1.00  0.00     0.032 CG0
ATOM     17  G   UNL     1     -40.969 -47.177  26.865  1.00  0.00     0.000 G0
ENDBRANCH  15  16
ENDBRANCH  13  15
ENDBRANCH   1  13
TORSDOF 1
ENDMDL
