MODEL 1
REMARK VINA RESULT:    -4.596      0.000      0.000
REMARK INTER + INTRA:          -6.130
REMARK INTER:                  -5.940
REMARK INTRA:                  -0.190
REMARK UNBOUND:                -0.190
REMARK SMILES C=CC(=O)CCCCC
REMARK SMILES IDX 6 1 7 2 8 3 9 4 5 5 3 6 4 7 2 8 1 9
REMARK H PARENT
REMARK Flexibility Score: inf
ROOT
ATOM      1  C   UNL     1     -13.105 -15.198  29.436  1.00  0.00     0.008 C 
ENDROOT
BRANCH   1   2
ATOM      2  C   UNL     1     -13.823 -14.030  28.742  1.00  0.00     0.000 C 
BRANCH   2   3
ATOM      3  C   UNL     1     -14.902 -13.389  29.627  1.00  0.00    -0.003 C 
ATOM      4  C   UNL     1     -15.558 -12.206  28.921  1.00  0.00     0.004 C 
ENDBRANCH   2   3
ENDBRANCH   1   2
BRANCH   1   5
ATOM      5  C   UNL     1     -11.608 -15.266  29.085  1.00  0.00     0.080 C 
BRANCH   5   6
ATOM      6  C   UNL     1     -11.216 -16.568  28.424  1.00  0.00     0.155 C 
ATOM      7  O   UNL     1     -10.279 -17.264  28.902  1.00  0.00    -0.295 OA
BRANCH   6   8
ATOM      8  C   UNL     1     -11.890 -17.056  27.203  1.00  0.00     0.039 C 
ATOM      9  C   UNL     1     -11.327 -17.044  25.995  1.00  0.00     0.012 C 
ENDBRANCH   6   8
ENDBRANCH   5   6
ENDBRANCH   1   5
TORSDOF 5
ENDMDL
MODEL 2
REMARK VINA RESULT:    -4.462      1.757      2.153
REMARK INTER + INTRA:          -5.957
REMARK INTER:                  -5.729
REMARK INTRA:                  -0.227
REMARK UNBOUND:                -0.190
REMARK SMILES C=CC(=O)CCCCC
REMARK SMILES IDX 6 1 7 2 8 3 9 4 5 5 3 6 4 7 2 8 1 9
REMARK H PARENT
REMARK Flexibility Score: inf
ROOT
ATOM      1  C   UNL     1     -13.635 -14.376  28.787  1.00  0.00     0.008 C 
ENDROOT
BRANCH   1   2
ATOM      2  C   UNL     1     -14.330 -14.020  30.110  1.00  0.00     0.000 C 
BRANCH   2   3
ATOM      3  C   UNL     1     -13.984 -14.997  31.243  1.00  0.00    -0.003 C 
ATOM      4  C   UNL     1     -14.793 -14.690  32.499  1.00  0.00     0.004 C 
ENDBRANCH   2   3
ENDBRANCH   1   2
BRANCH   1   5
ATOM      5  C   UNL     1     -12.371 -15.229  28.991  1.00  0.00     0.080 C 
BRANCH   5   6
ATOM      6  C   UNL     1     -12.428 -16.551  28.261  1.00  0.00     0.155 C 
ATOM      7  O   UNL     1     -13.427 -17.308  28.401  1.00  0.00    -0.295 OA
BRANCH   6   8
ATOM      8  C   UNL     1     -11.327 -17.009  27.388  1.00  0.00     0.039 C 
ATOM      9  C   UNL     1     -11.400 -17.027  26.058  1.00  0.00     0.012 C 
ENDBRANCH   6   8
ENDBRANCH   5   6
ENDBRANCH   1   5
TORSDOF 5
ENDMDL
MODEL 3
REMARK VINA RESULT:    -4.456      1.414      1.861
REMARK INTER + INTRA:          -5.948
REMARK INTER:                  -5.753
REMARK INTRA:                  -0.195
REMARK UNBOUND:                -0.190
REMARK SMILES C=CC(=O)CCCCC
REMARK SMILES IDX 6 1 7 2 8 3 9 4 5 5 3 6 4 7 2 8 1 9
REMARK H PARENT
REMARK Flexibility Score: inf
ROOT
ATOM      1  C   UNL     1     -12.931 -15.127  29.304  1.00  0.00     0.008 C 
ENDROOT
BRANCH   1   2
ATOM      2  C   UNL     1     -13.437 -15.448  30.719  1.00  0.00     0.000 C 
BRANCH   2   3
ATOM      3  C   UNL     1     -14.488 -14.443  31.214  1.00  0.00    -0.003 C 
ATOM      4  C   UNL     1     -14.829 -14.684  32.682  1.00  0.00     0.004 C 
ENDBRANCH   2   3
ENDBRANCH   1   2
BRANCH   1   5
ATOM      5  C   UNL     1     -11.411 -15.316  29.160  1.00  0.00     0.080 C 
BRANCH   5   6
ATOM      6  C   UNL     1     -11.034 -16.676  28.619  1.00  0.00     0.155 C 
ATOM      7  O   UNL     1     -10.090 -17.327  29.145  1.00  0.00    -0.295 OA
BRANCH   6   8
ATOM      8  C   UNL     1     -11.732 -17.276  27.462  1.00  0.00     0.039 C 
ATOM      9  C   UNL     1     -11.408 -17.024  26.195  1.00  0.00     0.012 C 
ENDBRANCH   6   8
ENDBRANCH   5   6
ENDBRANCH   1   5
TORSDOF 5
ENDMDL
MODEL 4
REMARK VINA RESULT:    -4.418      1.958      4.850
REMARK INTER + INTRA:          -5.899
REMARK INTER:                  -5.695
REMARK INTRA:                  -0.204
REMARK UNBOUND:                -0.190
REMARK SMILES C=CC(=O)CCCCC
REMARK SMILES IDX 6 1 7 2 8 3 9 4 5 5 3 6 4 7 2 8 1 9
REMARK H PARENT
REMARK Flexibility Score: inf
ROOT
ATOM      1  C   UNL     1     -11.384 -15.522  29.247  1.00  0.00     0.008 C 
ENDROOT
BRANCH   1   2
ATOM      2  C   UNL     1     -11.114 -16.838  28.501  1.00  0.00     0.000 C 
BRANCH   2   3
ATOM      3  C   UNL     1     -12.088 -17.068  27.335  1.00  0.00    -0.003 C 
ATOM      4  C   UNL     1     -11.361 -17.013  25.995  1.00  0.00     0.004 C 
ENDBRANCH   2   3
ENDBRANCH   1   2
BRANCH   1   5
ATOM      5  C   UNL     1     -12.872 -15.130  29.241  1.00  0.00     0.080 C 
BRANCH   5   6
ATOM      6  C   UNL     1     -13.585 -15.502  30.520  1.00  0.00     0.155 C 
ATOM      7  O   UNL     1     -13.530 -16.686  30.954  1.00  0.00    -0.295 OA
BRANCH   6   8
ATOM      8  C   UNL     1     -14.375 -14.517  31.288  1.00  0.00     0.039 C 
ATOM      9  C   UNL     1     -14.909 -14.771  32.482  1.00  0.00     0.012 C 
ENDBRANCH   6   8
ENDBRANCH   5   6
ENDBRANCH   1   5
TORSDOF 5
ENDMDL
MODEL 5
REMARK VINA RESULT:    -4.325      2.858      3.805
REMARK INTER + INTRA:          -5.779
REMARK INTER:                  -5.442
REMARK INTRA:                  -0.338
REMARK UNBOUND:                -0.190
REMARK SMILES C=CC(=O)CCCCC
REMARK SMILES IDX 6 1 7 2 8 3 9 4 5 5 3 6 4 7 2 8 1 9
REMARK H PARENT
REMARK Flexibility Score: inf
ROOT
ATOM      1  C   UNL     1     -11.753 -17.347  28.368  1.00  0.00     0.008 C 
ENDROOT
BRANCH   1   2
ATOM      2  C   UNL     1     -11.650 -15.863  28.751  1.00  0.00     0.000 C 
BRANCH   2   3
ATOM      3  C   UNL     1     -12.877 -15.364  29.528  1.00  0.00    -0.003 C 
ATOM      4  C   UNL     1     -13.583 -14.241  28.775  1.00  0.00     0.004 C 
ENDBRANCH   2   3
ENDBRANCH   1   2
BRANCH   1   5
ATOM      5  C   UNL     1     -13.208 -17.850  28.328  1.00  0.00     0.080 C 
BRANCH   5   6
ATOM      6  C   UNL     1     -13.428 -19.082  29.175  1.00  0.00     0.155 C 
ATOM      7  O   UNL     1     -13.790 -20.164  28.637  1.00  0.00    -0.295 OA
BRANCH   6   8
ATOM      8  C   UNL     1     -13.251 -19.062  30.643  1.00  0.00     0.039 C 
ATOM      9  C   UNL     1     -12.563 -19.984  31.314  1.00  0.00     0.012 C 
ENDBRANCH   6   8
ENDBRANCH   5   6
ENDBRANCH   1   5
TORSDOF 5
ENDMDL
MODEL 6
REMARK VINA RESULT:    -4.269      2.795      4.011
REMARK INTER + INTRA:          -5.706
REMARK INTER:                  -5.200
REMARK INTRA:                  -0.506
REMARK UNBOUND:                -0.190
REMARK SMILES C=CC(=O)CCCCC
REMARK SMILES IDX 6 1 7 2 8 3 9 4 5 5 3 6 4 7 2 8 1 9
REMARK H PARENT
REMARK Flexibility Score: inf
ROOT
ATOM      1  C   UNL     1     -11.900 -16.558  30.034  1.00  0.00     0.008 C 
ENDROOT
BRANCH   1   2
ATOM      2  C   UNL     1     -12.062 -15.602  28.842  1.00  0.00     0.000 C 
BRANCH   2   3
ATOM      3  C   UNL     1     -12.734 -16.270  27.634  1.00  0.00    -0.003 C 
ATOM      4  C   UNL     1     -11.705 -16.966  26.749  1.00  0.00     0.004 C 
ENDBRANCH   2   3
ENDBRANCH   1   2
BRANCH   1   5
ATOM      5  C   UNL     1     -13.234 -17.178  30.484  1.00  0.00     0.080 C 
BRANCH   5   6
ATOM      6  C   UNL     1     -13.186 -18.686  30.565  1.00  0.00     0.155 C 
ATOM      7  O   UNL     1     -13.279 -19.264  31.683  1.00  0.00    -0.295 OA
BRANCH   6   8
ATOM      8  C   UNL     1     -13.011 -19.527  29.362  1.00  0.00     0.039 C 
ATOM      9  C   UNL     1     -14.022 -19.939  28.598  1.00  0.00     0.012 C 
ENDBRANCH   6   8
ENDBRANCH   5   6
ENDBRANCH   1   5
TORSDOF 5
ENDMDL
MODEL 7
REMARK VINA RESULT:    -4.233      2.481      2.958
REMARK INTER + INTRA:          -5.660
REMARK INTER:                  -5.511
REMARK INTRA:                  -0.150
REMARK UNBOUND:                -0.190
REMARK SMILES C=CC(=O)CCCCC
REMARK SMILES IDX 6 1 7 2 8 3 9 4 5 5 3 6 4 7 2 8 1 9
REMARK H PARENT
REMARK Flexibility Score: inf
ROOT
ATOM      1  C   UNL     1     -12.506 -15.284  29.037  1.00  0.00     0.008 C 
ENDROOT
BRANCH   1   2
ATOM      2  C   UNL     1     -13.682 -14.442  29.553  1.00  0.00     0.000 C 
BRANCH   2   3
ATOM      3  C   UNL     1     -14.405 -13.682  28.431  1.00  0.00    -0.003 C 
ATOM      4  C   UNL     1     -15.300 -12.585  28.999  1.00  0.00     0.004 C 
ENDBRANCH   2   3
ENDBRANCH   1   2
BRANCH   1   5
ATOM      5  C   UNL     1     -12.115 -16.415  30.005  1.00  0.00     0.080 C 
BRANCH   5   6
ATOM      6  C   UNL     1     -13.011 -17.626  29.889  1.00  0.00     0.155 C 
ATOM      7  O   UNL     1     -13.538 -17.920  28.780  1.00  0.00    -0.295 OA
BRANCH   6   8
ATOM      8  C   UNL     1     -13.315 -18.486  31.052  1.00  0.00     0.039 C 
ATOM      9  C   UNL     1     -12.807 -19.707  31.218  1.00  0.00     0.012 C 
ENDBRANCH   6   8
ENDBRANCH   5   6
ENDBRANCH   1   5
TORSDOF 5
ENDMDL
MODEL 8
REMARK VINA RESULT:    -4.223      2.796      4.675
REMARK INTER + INTRA:          -5.647
REMARK INTER:                  -5.388
REMARK INTRA:                  -0.260
REMARK UNBOUND:                -0.190
REMARK SMILES C=CC(=O)CCCCC
REMARK SMILES IDX 6 1 7 2 8 3 9 4 5 5 3 6 4 7 2 8 1 9
REMARK H PARENT
REMARK Flexibility Score: inf
ROOT
ATOM      1  C   UNL     1     -12.138 -18.088  28.722  1.00  0.00     0.008 C 
ENDROOT
BRANCH   1   2
ATOM      2  C   UNL     1     -13.455 -18.878  28.682  1.00  0.00     0.000 C 
BRANCH   2   3
ATOM      3  C   UNL     1     -13.621 -19.816  29.886  1.00  0.00    -0.003 C 
ATOM      4  C   UNL     1     -13.188 -19.131  31.179  1.00  0.00     0.004 C 
ENDBRANCH   2   3
ENDBRANCH   1   2
BRANCH   1   5
ATOM      5  C   UNL     1     -12.002 -17.099  27.550  1.00  0.00     0.080 C 
BRANCH   5   6
ATOM      6  C   UNL     1     -13.037 -15.998  27.585  1.00  0.00     0.155 C 
ATOM      7  O   UNL     1     -13.904 -15.916  26.672  1.00  0.00    -0.295 OA
BRANCH   6   8
ATOM      8  C   UNL     1     -13.060 -14.983  28.659  1.00  0.00     0.039 C 
ATOM      9  C   UNL     1     -13.961 -14.004  28.727  1.00  0.00     0.012 C 
ENDBRANCH   6   8
ENDBRANCH   5   6
ENDBRANCH   1   5
TORSDOF 5
ENDMDL
MODEL 9
REMARK VINA RESULT:    -4.206      2.371      2.966
REMARK INTER + INTRA:          -5.625
REMARK INTER:                  -5.289
REMARK INTRA:                  -0.336
REMARK UNBOUND:                -0.190
REMARK SMILES C=CC(=O)CCCCC
REMARK SMILES IDX 6 1 7 2 8 3 9 4 5 5 3 6 4 7 2 8 1 9
REMARK H PARENT
REMARK Flexibility Score: inf
ROOT
ATOM      1  C   UNL     1     -11.994 -16.813  27.719  1.00  0.00     0.008 C 
ENDROOT
BRANCH   1   2
ATOM      2  C   UNL     1     -13.249 -15.934  27.826  1.00  0.00     0.000 C 
BRANCH   2   3
ATOM      3  C   UNL     1     -13.074 -14.767  28.809  1.00  0.00    -0.003 C 
ATOM      4  C   UNL     1     -14.203 -13.752  28.662  1.00  0.00     0.004 C 
ENDBRANCH   2   3
ENDBRANCH   1   2
BRANCH   1   5
ATOM      5  C   UNL     1     -11.545 -17.376  29.080  1.00  0.00     0.080 C 
BRANCH   5   6
ATOM      6  C   UNL     1     -12.607 -18.219  29.748  1.00  0.00     0.155 C 
ATOM      7  O   UNL     1     -13.203 -17.790  30.774  1.00  0.00    -0.295 OA
BRANCH   6   8
ATOM      8  C   UNL     1     -12.967 -19.561  29.245  1.00  0.00     0.039 C 
ATOM      9  C   UNL     1     -14.121 -19.835  28.638  1.00  0.00     0.012 C 
ENDBRANCH   6   8
ENDBRANCH   5   6
ENDBRANCH   1   5
TORSDOF 5
ENDMDL
