MODEL 1
REMARK VINA RESULT:    -4.869      0.000      0.000
REMARK INTER + INTRA:          -6.227
REMARK INTER:                  -6.007
REMARK INTRA:                  -0.220
REMARK UNBOUND:                -0.220
REMARK SMILES CCOC(=O)c1ccc(O)c(O)c1
REMARK SMILES IDX 4 1 5 2 3 3 2 4 1 5 6 6 13 7 7 8 11 9 8 10 9 11 12 12 10 14
REMARK H PARENT 12 13 10 15
REMARK Flexibility Score: inf
ROOT
ATOM      1  C   UNL     1      20.347  -1.422 -19.320  1.00  0.00     0.338 C 
ATOM      2  O   UNL     1      20.233  -2.609 -19.732  1.00  0.00    -0.246 OA
ENDROOT
BRANCH   1   3
ATOM      3  O   UNL     1      20.077  -1.117 -17.981  1.00  0.00    -0.462 OA
BRANCH   3   4
ATOM      4  C   UNL     1      18.767  -0.820 -17.509  1.00  0.00     0.230 C 
ATOM      5  C   UNL     1      18.853   0.190 -16.375  1.00  0.00     0.049 C 
ENDBRANCH   3   4
ENDBRANCH   1   3
BRANCH   1   6
ATOM      6  C   UNL     1      20.766  -0.349 -20.249  1.00  0.00     0.064 A 
ATOM      7  C   UNL     1      21.089   0.927 -19.760  1.00  0.00     0.065 A 
ATOM      8  C   UNL     1      20.847  -0.589 -21.630  1.00  0.00     0.020 A 
ATOM      9  C   UNL     1      21.487   1.952 -20.628  1.00  0.00     0.158 A 
ATOM     10  C   UNL     1      21.244   0.427 -22.502  1.00  0.00     0.051 A 
ATOM     11  C   UNL     1      21.565   1.699 -22.017  1.00  0.00     0.157 A 
BRANCH   9  12
ATOM     12  O   UNL     1      21.793   3.197 -20.070  1.00  0.00    -0.504 OA
ATOM     13  H   UNL     1      21.143   3.968 -20.023  1.00  0.00     0.293 HD
ENDBRANCH   9  12
BRANCH  11  14
ATOM     14  O   UNL     1      21.954   2.670 -22.942  1.00  0.00    -0.504 OA
ATOM     15  H   UNL     1      21.313   3.298 -23.405  1.00  0.00     0.293 HD
ENDBRANCH  11  14
ENDBRANCH   1   6
TORSDOF 5
ENDMDL
MODEL 2
REMARK VINA RESULT:    -4.851     15.744     18.361
REMARK INTER + INTRA:          -6.205
REMARK INTER:                  -5.900
REMARK INTRA:                  -0.305
REMARK UNBOUND:                -0.220
REMARK SMILES CCOC(=O)c1ccc(O)c(O)c1
REMARK SMILES IDX 4 1 5 2 3 3 2 4 1 5 6 6 13 7 7 8 11 9 8 10 9 11 12 12 10 14
REMARK H PARENT 12 13 10 15
REMARK Flexibility Score: inf
ROOT
ATOM      1  C   UNL     1      10.046  -7.606  -9.293  1.00  0.00     0.338 C 
ATOM      2  O   UNL     1      10.845  -8.575  -9.159  1.00  0.00    -0.246 OA
ENDROOT
BRANCH   1   3
ATOM      3  O   UNL     1       9.712  -7.149 -10.572  1.00  0.00    -0.462 OA
BRANCH   3   4
ATOM      4  C   UNL     1      10.216  -5.931 -11.111  1.00  0.00     0.230 C 
ATOM      5  C   UNL     1       9.128  -4.871 -11.079  1.00  0.00     0.049 C 
ENDBRANCH   3   4
ENDBRANCH   1   3
BRANCH   1   6
ATOM      6  C   UNL     1       9.464  -6.952  -8.101  1.00  0.00     0.064 A 
ATOM      7  C   UNL     1      10.232  -6.060  -7.335  1.00  0.00     0.065 A 
ATOM      8  C   UNL     1       8.139  -7.211  -7.716  1.00  0.00     0.020 A 
ATOM      9  C   UNL     1       9.695  -5.432  -6.203  1.00  0.00     0.158 A 
ATOM     10  C   UNL     1       7.595  -6.590  -6.590  1.00  0.00     0.051 A 
ATOM     11  C   UNL     1       8.359  -5.702  -5.826  1.00  0.00     0.157 A 
BRANCH   9  12
ATOM     12  O   UNL     1      10.518  -4.557  -5.490  1.00  0.00    -0.504 OA
ATOM     13  H   UNL     1      10.350  -4.277  -4.535  1.00  0.00     0.293 HD
ENDBRANCH   9  12
BRANCH  11  14
ATOM     14  O   UNL     1       7.755  -5.114  -4.712  1.00  0.00    -0.504 OA
ATOM     15  H   UNL     1       8.021  -5.309  -3.758  1.00  0.00     0.293 HD
ENDBRANCH  11  14
ENDBRANCH   1   6
TORSDOF 5
ENDMDL
MODEL 3
REMARK VINA RESULT:    -4.797      1.682      4.954
REMARK INTER + INTRA:          -6.139
REMARK INTER:                  -6.019
REMARK INTRA:                  -0.121
REMARK UNBOUND:                -0.220
REMARK SMILES CCOC(=O)c1ccc(O)c(O)c1
REMARK SMILES IDX 4 1 5 2 3 3 2 4 1 5 6 6 13 7 7 8 11 9 8 10 9 11 12 12 10 14
REMARK H PARENT 12 13 10 15
REMARK Flexibility Score: inf
ROOT
ATOM      1  C   UNL     1      21.403   0.831 -21.821  1.00  0.00     0.338 C 
ATOM      2  O   UNL     1      21.795   0.031 -22.715  1.00  0.00    -0.246 OA
ENDROOT
BRANCH   1   3
ATOM      3  O   UNL     1      21.630   2.204 -21.965  1.00  0.00    -0.462 OA
BRANCH   3   4
ATOM      4  C   UNL     1      22.259   2.765 -23.113  1.00  0.00     0.230 C 
ATOM      5  C   UNL     1      22.597   4.223 -22.845  1.00  0.00     0.049 C 
ENDBRANCH   3   4
ENDBRANCH   1   3
BRANCH   1   6
ATOM      6  C   UNL     1      20.706   0.321 -20.620  1.00  0.00     0.064 A 
ATOM      7  C   UNL     1      21.262   0.509 -19.344  1.00  0.00     0.065 A 
ATOM      8  C   UNL     1      19.481  -0.356 -20.736  1.00  0.00     0.020 A 
ATOM      9  C   UNL     1      20.613   0.032 -18.197  1.00  0.00     0.158 A 
ATOM     10  C   UNL     1      18.828  -0.834 -19.598  1.00  0.00     0.051 A 
ATOM     11  C   UNL     1      19.380  -0.649 -18.326  1.00  0.00     0.157 A 
BRANCH   9  12
ATOM     12  O   UNL     1      21.226   0.255 -16.962  1.00  0.00    -0.504 OA
ATOM     13  H   UNL     1      21.754   1.085 -16.736  1.00  0.00     0.293 HD
ENDBRANCH   9  12
BRANCH  11  14
ATOM     14  O   UNL     1      18.676  -1.151 -17.230  1.00  0.00    -0.504 OA
ATOM     15  H   UNL     1      18.669  -0.719 -16.318  1.00  0.00     0.293 HD
ENDBRANCH  11  14
ENDBRANCH   1   6
TORSDOF 5
ENDMDL
MODEL 4
REMARK VINA RESULT:    -4.719     14.717     17.947
REMARK INTER + INTRA:          -6.043
REMARK INTER:                  -5.788
REMARK INTRA:                  -0.254
REMARK UNBOUND:                -0.220
REMARK SMILES CCOC(=O)c1ccc(O)c(O)c1
REMARK SMILES IDX 4 1 5 2 3 3 2 4 1 5 6 6 13 7 7 8 11 9 8 10 9 11 12 12 10 14
REMARK H PARENT 12 13 10 15
REMARK Flexibility Score: inf
ROOT
ATOM      1  C   UNL     1      10.233  -7.794  -9.770  1.00  0.00     0.338 C 
ATOM      2  O   UNL     1       9.573  -8.487 -10.593  1.00  0.00    -0.246 OA
ENDROOT
BRANCH   1   3
ATOM      3  O   UNL     1      11.614  -7.643  -9.933  1.00  0.00    -0.462 OA
BRANCH   3   4
ATOM      4  C   UNL     1      12.185  -6.811 -10.938  1.00  0.00     0.230 C 
ATOM      5  C   UNL     1      12.962  -5.682 -10.282  1.00  0.00     0.049 C 
ENDBRANCH   3   4
ENDBRANCH   1   3
BRANCH   1   6
ATOM      6  C   UNL     1       9.550  -7.141  -8.632  1.00  0.00     0.064 A 
ATOM      7  C   UNL     1      10.254  -6.266  -7.788  1.00  0.00     0.065 A 
ATOM      8  C   UNL     1       8.190  -7.385  -8.376  1.00  0.00     0.020 A 
ATOM      9  C   UNL     1       9.620  -5.640  -6.707  1.00  0.00     0.158 A 
ATOM     10  C   UNL     1       7.551  -6.765  -7.301  1.00  0.00     0.051 A 
ATOM     11  C   UNL     1       8.251  -5.894  -6.460  1.00  0.00     0.157 A 
BRANCH   9  12
ATOM     12  O   UNL     1      10.384  -4.782  -5.912  1.00  0.00    -0.504 OA
ATOM     13  H   UNL     1      11.393  -4.757  -5.917  1.00  0.00     0.293 HD
ENDBRANCH   9  12
BRANCH  11  14
ATOM     14  O   UNL     1       7.553  -5.307  -5.402  1.00  0.00    -0.504 OA
ATOM     15  H   UNL     1       7.757  -5.476  -4.428  1.00  0.00     0.293 HD
ENDBRANCH  11  14
ENDBRANCH   1   6
TORSDOF 5
ENDMDL
MODEL 5
REMARK VINA RESULT:    -4.563      1.602      2.410
REMARK INTER + INTRA:          -5.850
REMARK INTER:                  -5.665
REMARK INTRA:                  -0.185
REMARK UNBOUND:                -0.220
REMARK SMILES CCOC(=O)c1ccc(O)c(O)c1
REMARK SMILES IDX 4 1 5 2 3 3 2 4 1 5 6 6 13 7 7 8 11 9 8 10 9 11 12 12 10 14
REMARK H PARENT 12 13 10 15
REMARK Flexibility Score: inf
ROOT
ATOM      1  C   UNL     1      19.310  -1.632 -18.393  1.00  0.00     0.338 C 
ATOM      2  O   UNL     1      18.825  -2.760 -18.683  1.00  0.00    -0.246 OA
ENDROOT
BRANCH   1   3
ATOM      3  O   UNL     1      19.201  -1.139 -17.089  1.00  0.00    -0.462 OA
BRANCH   3   4
ATOM      4  C   UNL     1      17.975  -0.661 -16.546  1.00  0.00     0.230 C 
ATOM      5  C   UNL     1      17.553  -1.549 -15.386  1.00  0.00     0.049 C 
ENDBRANCH   3   4
ENDBRANCH   1   3
BRANCH   1   6
ATOM      6  C   UNL     1      19.993  -0.827 -19.430  1.00  0.00     0.064 A 
ATOM      7  C   UNL     1      20.089  -1.302 -20.749  1.00  0.00     0.065 A 
ATOM      8  C   UNL     1      20.553   0.421 -19.115  1.00  0.00     0.020 A 
ATOM      9  C   UNL     1      20.731  -0.552 -21.741  1.00  0.00     0.158 A 
ATOM     10  C   UNL     1      21.195   1.176 -20.099  1.00  0.00     0.051 A 
ATOM     11  C   UNL     1      21.292   0.704 -21.412  1.00  0.00     0.157 A 
BRANCH   9  12
ATOM     12  O   UNL     1      20.788  -1.088 -23.030  1.00  0.00    -0.504 OA
ATOM     13  H   UNL     1      20.938  -2.067 -23.227  1.00  0.00     0.293 HD
ENDBRANCH   9  12
BRANCH  11  14
ATOM     14  O   UNL     1      21.947   1.508 -22.347  1.00  0.00    -0.504 OA
ATOM     15  H   UNL     1      22.807   1.251 -22.809  1.00  0.00     0.293 HD
ENDBRANCH  11  14
ENDBRANCH   1   6
TORSDOF 5
ENDMDL
MODEL 6
REMARK VINA RESULT:    -4.537     13.882     17.403
REMARK INTER + INTRA:          -5.818
REMARK INTER:                  -5.524
REMARK INTRA:                  -0.293
REMARK UNBOUND:                -0.220
REMARK SMILES CCOC(=O)c1ccc(O)c(O)c1
REMARK SMILES IDX 4 1 5 2 3 3 2 4 1 5 6 6 13 7 7 8 11 9 8 10 9 11 12 12 10 14
REMARK H PARENT 12 13 10 15
REMARK Flexibility Score: inf
ROOT
ATOM      1  C   UNL     1      10.204  -5.771 -10.721  1.00  0.00     0.338 C 
ATOM      2  O   UNL     1      10.042  -6.768 -11.478  1.00  0.00    -0.246 OA
ENDROOT
BRANCH   1   3
ATOM      3  O   UNL     1      11.055  -4.731 -11.109  1.00  0.00    -0.462 OA
BRANCH   3   4
ATOM      4  C   UNL     1      12.419  -4.941 -11.458  1.00  0.00     0.230 C 
ATOM      5  C   UNL     1      13.172  -5.494 -10.259  1.00  0.00     0.049 C 
ENDBRANCH   3   4
ENDBRANCH   1   3
BRANCH   1   6
ATOM      6  C   UNL     1       9.497  -5.701  -9.424  1.00  0.00     0.064 A 
ATOM      7  C   UNL     1       8.165  -5.259  -9.364  1.00  0.00     0.065 A 
ATOM      8  C   UNL     1      10.144  -6.073  -8.234  1.00  0.00     0.020 A 
ATOM      9  C   UNL     1       7.483  -5.187  -8.143  1.00  0.00     0.158 A 
ATOM     10  C   UNL     1       9.471  -6.005  -7.013  1.00  0.00     0.051 A 
ATOM     11  C   UNL     1       8.144  -5.565  -6.951  1.00  0.00     0.157 A 
BRANCH   9  12
ATOM     12  O   UNL     1       6.160  -4.738  -8.161  1.00  0.00    -0.504 OA
ATOM     13  H   UNL     1       5.357  -5.350  -8.171  1.00  0.00     0.293 HD
ENDBRANCH   9  12
BRANCH  11  14
ATOM     14  O   UNL     1       7.529  -5.520  -5.699  1.00  0.00    -0.504 OA
ATOM     15  H   UNL     1       7.465  -4.688  -5.131  1.00  0.00     0.293 HD
ENDBRANCH  11  14
ENDBRANCH   1   6
TORSDOF 5
ENDMDL
MODEL 7
REMARK VINA RESULT:    -4.503     15.535     17.020
REMARK INTER + INTRA:          -5.776
REMARK INTER:                  -5.633
REMARK INTRA:                  -0.143
REMARK UNBOUND:                -0.220
REMARK SMILES CCOC(=O)c1ccc(O)c(O)c1
REMARK SMILES IDX 4 1 5 2 3 3 2 4 1 5 6 6 13 7 7 8 11 9 8 10 9 11 12 12 10 14
REMARK H PARENT 12 13 10 15
REMARK Flexibility Score: inf
ROOT
ATOM      1  C   UNL     1       7.875  -4.701 -11.898  1.00  0.00     0.338 C 
ATOM      2  O   UNL     1       7.655  -5.551 -12.805  1.00  0.00    -0.246 OA
ENDROOT
BRANCH   1   3
ATOM      3  O   UNL     1       7.453  -3.378 -12.065  1.00  0.00    -0.462 OA
BRANCH   3   4
ATOM      4  C   UNL     1       7.586  -2.676 -13.296  1.00  0.00     0.230 C 
ATOM      5  C   UNL     1       6.240  -2.095 -13.698  1.00  0.00     0.049 C 
ENDBRANCH   3   4
ENDBRANCH   1   3
BRANCH   1   6
ATOM      6  C   UNL     1       8.581  -5.099 -10.661  1.00  0.00     0.064 A 
ATOM      7  C   UNL     1       7.926  -5.037  -9.419  1.00  0.00     0.065 A 
ATOM      8  C   UNL     1       9.911  -5.545 -10.706  1.00  0.00     0.020 A 
ATOM      9  C   UNL     1       8.580  -5.412  -8.239  1.00  0.00     0.158 A 
ATOM     10  C   UNL     1      10.571  -5.921  -9.534  1.00  0.00     0.051 A 
ATOM     11  C   UNL     1       9.921  -5.859  -8.297  1.00  0.00     0.157 A 
BRANCH   9  12
ATOM     12  O   UNL     1       7.866  -5.323  -7.041  1.00  0.00    -0.504 OA
ATOM     13  H   UNL     1       6.914  -5.638  -6.928  1.00  0.00     0.293 HD
ENDBRANCH   9  12
BRANCH  11  14
ATOM     14  O   UNL     1      10.638  -6.249  -7.163  1.00  0.00    -0.504 OA
ATOM     15  H   UNL     1      10.984  -5.606  -6.466  1.00  0.00     0.293 HD
ENDBRANCH  11  14
ENDBRANCH   1   6
TORSDOF 5
ENDMDL
MODEL 8
REMARK VINA RESULT:    -4.447     16.860     18.151
REMARK INTER + INTRA:          -5.707
REMARK INTER:                  -5.532
REMARK INTRA:                  -0.175
REMARK UNBOUND:                -0.220
REMARK SMILES CCOC(=O)c1ccc(O)c(O)c1
REMARK SMILES IDX 4 1 5 2 3 3 2 4 1 5 6 6 13 7 7 8 11 9 8 10 9 11 12 12 10 14
REMARK H PARENT 12 13 10 15
REMARK Flexibility Score: inf
ROOT
ATOM      1  C   UNL     1       7.957  -8.821 -10.093  1.00  0.00     0.338 C 
ATOM      2  O   UNL     1       7.237  -9.752  -9.636  1.00  0.00    -0.246 OA
ENDROOT
BRANCH   1   3
ATOM      3  O   UNL     1       8.128  -8.685 -11.474  1.00  0.00    -0.462 OA
BRANCH   3   4
ATOM      4  C   UNL     1       8.919  -7.653 -12.054  1.00  0.00     0.230 C 
ATOM      5  C   UNL     1       8.011  -6.562 -12.599  1.00  0.00     0.049 C 
ENDBRANCH   3   4
ENDBRANCH   1   3
BRANCH   1   6
ATOM      6  C   UNL     1       8.621  -7.874  -9.171  1.00  0.00     0.064 A 
ATOM      7  C   UNL     1       8.015  -6.646  -8.857  1.00  0.00     0.065 A 
ATOM      8  C   UNL     1       9.864  -8.186  -8.596  1.00  0.00     0.020 A 
ATOM      9  C   UNL     1       8.632  -5.739  -7.985  1.00  0.00     0.158 A 
ATOM     10  C   UNL     1      10.485  -7.288  -7.725  1.00  0.00     0.051 A 
ATOM     11  C   UNL     1       9.884  -6.064  -7.412  1.00  0.00     0.157 A 
BRANCH   9  12
ATOM     12  O   UNL     1       7.970  -4.538  -7.719  1.00  0.00    -0.504 OA
ATOM     13  H   UNL     1       7.181  -4.455  -7.097  1.00  0.00     0.293 HD
ENDBRANCH   9  12
BRANCH  11  14
ATOM     14  O   UNL     1      10.558  -5.212  -6.535  1.00  0.00    -0.504 OA
ATOM     15  H   UNL     1      10.969  -4.331  -6.809  1.00  0.00     0.293 HD
ENDBRANCH  11  14
ENDBRANCH   1   6
TORSDOF 5
ENDMDL
MODEL 9
REMARK VINA RESULT:    -4.409     16.339     17.542
REMARK INTER + INTRA:          -5.661
REMARK INTER:                  -5.364
REMARK INTRA:                  -0.296
REMARK UNBOUND:                -0.220
REMARK SMILES CCOC(=O)c1ccc(O)c(O)c1
REMARK SMILES IDX 4 1 5 2 3 3 2 4 1 5 6 6 13 7 7 8 11 9 8 10 9 11 12 12 10 14
REMARK H PARENT 12 13 10 15
REMARK Flexibility Score: inf
ROOT
ATOM      1  C   UNL     1       9.111  -5.825  -7.922  1.00  0.00     0.338 C 
ATOM      2  O   UNL     1      10.325  -5.886  -7.579  1.00  0.00    -0.246 OA
ENDROOT
BRANCH   1   3
ATOM      3  O   UNL     1       8.119  -5.656  -6.951  1.00  0.00    -0.462 OA
BRANCH   3   4
ATOM      4  C   UNL     1       7.960  -6.543  -5.848  1.00  0.00     0.230 C 
ATOM      5  C   UNL     1       7.634  -7.937  -6.361  1.00  0.00     0.049 C 
ENDBRANCH   3   4
ENDBRANCH   1   3
BRANCH   1   6
ATOM      6  C   UNL     1       8.735  -5.934  -9.348  1.00  0.00     0.064 A 
ATOM      7  C   UNL     1       8.305  -4.801 -10.057  1.00  0.00     0.065 A 
ATOM      8  C   UNL     1       8.802  -7.168 -10.015  1.00  0.00     0.020 A 
ATOM      9  C   UNL     1       7.946  -4.888 -11.409  1.00  0.00     0.158 A 
ATOM     10  C   UNL     1       8.447  -7.264 -11.362  1.00  0.00     0.051 A 
ATOM     11  C   UNL     1       8.018  -6.136 -12.069  1.00  0.00     0.157 A 
BRANCH   9  12
ATOM     12  O   UNL     1       7.528  -3.719 -12.049  1.00  0.00    -0.504 OA
ATOM     13  H   UNL     1       7.212  -3.683 -13.007  1.00  0.00     0.293 HD
ENDBRANCH   9  12
BRANCH  11  14
ATOM     14  O   UNL     1       7.677  -6.301 -13.414  1.00  0.00    -0.504 OA
ATOM     15  H   UNL     1       7.229  -7.125 -13.786  1.00  0.00     0.293 HD
ENDBRANCH  11  14
ENDBRANCH   1   6
TORSDOF 5
ENDMDL
