MODEL 1
REMARK VINA RESULT:    -4.738      0.000      0.000
REMARK INTER + INTRA:         -12.519
REMARK INTER:                 -10.279
REMARK INTRA:                  -2.241
REMARK UNBOUND:                -2.241
REMARK SMILES CCCCCCCCCCCCCCCCCCCCCC(=O)[O-]
REMARK SMILES IDX 12 1 11 2 10 3 9 4 8 5 7 6 6 7 5 8 4 9 3 10 2 11 1 12 13 13
REMARK SMILES IDX 14 14 15 15 16 16 17 17 18 18 19 19 20 20 21 21 22 22 23 23
REMARK SMILES IDX 24 24
REMARK H PARENT
REMARK Flexibility Score: inf
ROOT
ATOM      1  C   UNL     1      20.974   8.646   7.955  1.00  0.00     0.000 C 
ENDROOT
BRANCH   1   2
ATOM      2  C   UNL     1      20.730  10.107   8.377  1.00  0.00     0.000 C 
BRANCH   2   3
ATOM      3  C   UNL     1      20.051  10.942   7.280  1.00  0.00     0.000 C 
BRANCH   3   4
ATOM      4  C   UNL     1      19.217  10.087   6.309  1.00  0.00    -0.000 C 
BRANCH   4   5
ATOM      5  C   UNL     1      17.722  10.470   6.273  1.00  0.00    -0.000 C 
BRANCH   5   6
ATOM      6  C   UNL     1      16.809   9.242   6.440  1.00  0.00    -0.000 C 
BRANCH   6   7
ATOM      7  C   UNL     1      17.440   8.150   7.317  1.00  0.00    -0.000 C 
BRANCH   7   8
ATOM      8  C   UNL     1      17.173   6.736   6.780  1.00  0.00    -0.000 C 
BRANCH   8   9
ATOM      9  C   UNL     1      17.338   6.688   5.252  1.00  0.00    -0.000 C 
BRANCH   9  10
ATOM     10  C   UNL     1      18.808   6.781   4.811  1.00  0.00    -0.000 C 
BRANCH  10  11
ATOM     11  C   UNL     1      18.959   7.114   3.319  1.00  0.00    -0.003 C 
ATOM     12  C   UNL     1      18.456   8.520   3.017  1.00  0.00     0.004 C 
ENDBRANCH  10  11
ENDBRANCH   9  10
ENDBRANCH   8   9
ENDBRANCH   7   8
ENDBRANCH   6   7
ENDBRANCH   5   6
ENDBRANCH   4   5
ENDBRANCH   3   4
ENDBRANCH   2   3
ENDBRANCH   1   2
BRANCH   1  13
ATOM     13  C   UNL     1      22.144   7.942   8.666  1.00  0.00     0.000 C 
BRANCH  13  14
ATOM     14  C   UNL     1      22.527   6.602   8.015  1.00  0.00     0.000 C 
BRANCH  14  15
ATOM     15  C   UNL     1      22.325   6.616   6.489  1.00  0.00     0.000 C 
BRANCH  15  16
ATOM     16  C   UNL     1      23.615   6.286   5.724  1.00  0.00     0.000 C 
BRANCH  16  17
ATOM     17  C   UNL     1      23.305   5.497   4.444  1.00  0.00     0.000 C 
BRANCH  17  18
ATOM     18  C   UNL     1      24.481   4.610   4.005  1.00  0.00     0.000 C 
BRANCH  18  19
ATOM     19  C   UNL     1      25.171   5.138   2.736  1.00  0.00     0.000 C 
BRANCH  19  20
ATOM     20  C   UNL     1      25.562   4.010   1.767  1.00  0.00     0.006 C 
BRANCH  20  21
ATOM     21  C   UNL     1      24.394   3.573   0.873  1.00  0.00     0.053 C 
BRANCH  21  22
ATOM     22  C   UNL     1      24.106   2.117   1.063  1.00  0.00     0.041 C 
ATOM     23  O   UNL     1      24.561   1.505   2.067  1.00  0.00    -0.550 OA
ATOM     24  O   UNL     1      23.365   1.425   0.114  1.00  0.00    -0.550 OA
ENDBRANCH  21  22
ENDBRANCH  20  21
ENDBRANCH  19  20
ENDBRANCH  18  19
ENDBRANCH  17  18
ENDBRANCH  16  17
ENDBRANCH  15  16
ENDBRANCH  14  15
ENDBRANCH  13  14
ENDBRANCH   1  13
TORSDOF 20
ENDMDL
MODEL 2
REMARK VINA RESULT:    -4.725      1.620      2.889
REMARK INTER + INTRA:         -12.491
REMARK INTER:                  -9.493
REMARK INTRA:                  -2.997
REMARK UNBOUND:                -2.241
REMARK SMILES CCCCCCCCCCCCCCCCCCCCCC(=O)[O-]
REMARK SMILES IDX 12 1 11 2 10 3 9 4 8 5 7 6 6 7 5 8 4 9 3 10 2 11 1 12 13 13
REMARK SMILES IDX 14 14 15 15 16 16 17 17 18 18 19 19 20 20 21 21 22 22 23 23
REMARK SMILES IDX 24 24
REMARK H PARENT
REMARK Flexibility Score: inf
ROOT
ATOM      1  C   UNL     1      19.599   7.069   6.725  1.00  0.00     0.000 C 
ENDROOT
BRANCH   1   2
ATOM      2  C   UNL     1      18.205   6.619   7.201  1.00  0.00     0.000 C 
BRANCH   2   3
ATOM      3  C   UNL     1      17.179   7.764   7.219  1.00  0.00     0.000 C 
BRANCH   3   4
ATOM      4  C   UNL     1      16.288   7.787   5.965  1.00  0.00    -0.000 C 
BRANCH   4   5
ATOM      5  C   UNL     1      16.222   9.168   5.277  1.00  0.00    -0.000 C 
BRANCH   5   6
ATOM      6  C   UNL     1      17.459  10.028   5.591  1.00  0.00    -0.000 C 
BRANCH   6   7
ATOM      7  C   UNL     1      18.574   9.865   4.546  1.00  0.00    -0.000 C 
BRANCH   7   8
ATOM      8  C   UNL     1      18.050   9.963   3.106  1.00  0.00    -0.000 C 
BRANCH   8   9
ATOM      9  C   UNL     1      18.330   8.664   2.331  1.00  0.00    -0.000 C 
BRANCH   9  10
ATOM     10  C   UNL     1      18.901   7.552   3.226  1.00  0.00    -0.000 C 
BRANCH  10  11
ATOM     11  C   UNL     1      18.089   6.250   3.143  1.00  0.00    -0.003 C 
ATOM     12  C   UNL     1      16.712   6.499   2.539  1.00  0.00     0.004 C 
ENDBRANCH  10  11
ENDBRANCH   9  10
ENDBRANCH   8   9
ENDBRANCH   7   8
ENDBRANCH   6   7
ENDBRANCH   5   6
ENDBRANCH   4   5
ENDBRANCH   3   4
ENDBRANCH   2   3
ENDBRANCH   1   2
BRANCH   1  13
ATOM     13  C   UNL     1      20.189   8.280   7.469  1.00  0.00     0.000 C 
BRANCH  13  14
ATOM     14  C   UNL     1      21.618   8.033   7.984  1.00  0.00     0.000 C 
BRANCH  14  15
ATOM     15  C   UNL     1      22.105   6.604   7.688  1.00  0.00     0.000 C 
BRANCH  15  16
ATOM     16  C   UNL     1      23.630   6.529   7.514  1.00  0.00     0.000 C 
BRANCH  16  17
ATOM     17  C   UNL     1      24.008   6.453   6.028  1.00  0.00     0.000 C 
BRANCH  17  18
ATOM     18  C   UNL     1      22.854   5.930   5.157  1.00  0.00     0.000 C 
BRANCH  18  19
ATOM     19  C   UNL     1      23.344   5.360   3.815  1.00  0.00     0.000 C 
BRANCH  19  20
ATOM     20  C   UNL     1      24.543   4.412   3.982  1.00  0.00     0.006 C 
BRANCH  20  21
ATOM     21  C   UNL     1      25.802   4.927   3.272  1.00  0.00     0.053 C 
BRANCH  21  22
ATOM     22  C   UNL     1      26.126   4.064   2.093  1.00  0.00     0.041 C 
ATOM     23  O   UNL     1      27.224   3.446   2.041  1.00  0.00    -0.550 OA
ATOM     24  O   UNL     1      25.233   3.969   1.035  1.00  0.00    -0.550 OA
ENDBRANCH  21  22
ENDBRANCH  20  21
ENDBRANCH  19  20
ENDBRANCH  18  19
ENDBRANCH  17  18
ENDBRANCH  16  17
ENDBRANCH  15  16
ENDBRANCH  14  15
ENDBRANCH  13  14
ENDBRANCH   1  13
TORSDOF 20
ENDMDL
MODEL 3
REMARK VINA RESULT:    -4.713      2.537      7.414
REMARK INTER + INTRA:         -12.463
REMARK INTER:                 -10.527
REMARK INTRA:                  -1.937
REMARK UNBOUND:                -2.241
REMARK SMILES CCCCCCCCCCCCCCCCCCCCCC(=O)[O-]
REMARK SMILES IDX 12 1 11 2 10 3 9 4 8 5 7 6 6 7 5 8 4 9 3 10 2 11 1 12 13 13
REMARK SMILES IDX 14 14 15 15 16 16 17 17 18 18 19 19 20 20 21 21 22 22 23 23
REMARK SMILES IDX 24 24
REMARK H PARENT
REMARK Flexibility Score: inf
ROOT
ATOM      1  C   UNL     1      20.791   8.307   7.626  1.00  0.00     0.000 C 
ENDROOT
BRANCH   1   2
ATOM      2  C   UNL     1      22.052   7.451   7.847  1.00  0.00     0.000 C 
BRANCH   2   3
ATOM      3  C   UNL     1      22.263   6.400   6.744  1.00  0.00     0.000 C 
BRANCH   3   4
ATOM      4  C   UNL     1      23.658   6.483   6.100  1.00  0.00    -0.000 C 
BRANCH   4   5
ATOM      5  C   UNL     1      23.909   5.406   5.023  1.00  0.00    -0.000 C 
BRANCH   5   6
ATOM      6  C   UNL     1      22.923   5.525   3.847  1.00  0.00    -0.000 C 
BRANCH   6   7
ATOM      7  C   UNL     1      23.297   4.614   2.668  1.00  0.00    -0.000 C 
BRANCH   7   8
ATOM      8  C   UNL     1      24.747   4.819   2.202  1.00  0.00    -0.000 C 
BRANCH   8   9
ATOM      9  C   UNL     1      25.181   3.695   1.248  1.00  0.00    -0.000 C 
BRANCH   9  10
ATOM     10  C   UNL     1      24.549   2.339   1.603  1.00  0.00    -0.000 C 
BRANCH  10  11
ATOM     11  C   UNL     1      24.079   1.561   0.365  1.00  0.00    -0.003 C 
ATOM     12  C   UNL     1      22.844   2.207  -0.253  1.00  0.00     0.004 C 
ENDBRANCH  10  11
ENDBRANCH   9  10
ENDBRANCH   8   9
ENDBRANCH   7   8
ENDBRANCH   6   7
ENDBRANCH   5   6
ENDBRANCH   4   5
ENDBRANCH   3   4
ENDBRANCH   2   3
ENDBRANCH   1   2
BRANCH   1  13
ATOM     13  C   UNL     1      20.754   9.637   8.401  1.00  0.00     0.000 C 
BRANCH  13  14
ATOM     14  C   UNL     1      20.295  10.825   7.539  1.00  0.00     0.000 C 
BRANCH  14  15
ATOM     15  C   UNL     1      19.264  10.409   6.475  1.00  0.00     0.000 C 
BRANCH  15  16
ATOM     16  C   UNL     1      17.818  10.671   6.926  1.00  0.00     0.000 C 
BRANCH  16  17
ATOM     17  C   UNL     1      16.947   9.423   6.720  1.00  0.00     0.000 C 
BRANCH  17  18
ATOM     18  C   UNL     1      17.309   8.290   7.693  1.00  0.00     0.000 C 
BRANCH  18  19
ATOM     19  C   UNL     1      17.096   6.897   7.076  1.00  0.00     0.000 C 
BRANCH  19  20
ATOM     20  C   UNL     1      18.091   6.598   5.944  1.00  0.00     0.006 C 
BRANCH  20  21
ATOM     21  C   UNL     1      17.391   6.231   4.628  1.00  0.00     0.053 C 
BRANCH  21  22
ATOM     22  C   UNL     1      18.043   6.929   3.477  1.00  0.00     0.041 C 
ATOM     23  O   UNL     1      18.888   6.324   2.762  1.00  0.00    -0.550 OA
ATOM     24  O   UNL     1      17.746   8.259   3.212  1.00  0.00    -0.550 OA
ENDBRANCH  21  22
ENDBRANCH  20  21
ENDBRANCH  19  20
ENDBRANCH  18  19
ENDBRANCH  17  18
ENDBRANCH  16  17
ENDBRANCH  15  16
ENDBRANCH  14  15
ENDBRANCH  13  14
ENDBRANCH   1  13
TORSDOF 20
ENDMDL
MODEL 4
REMARK VINA RESULT:    -4.644      1.997      2.501
REMARK INTER + INTRA:         -12.315
REMARK INTER:                  -9.949
REMARK INTRA:                  -2.366
REMARK UNBOUND:                -2.241
REMARK SMILES CCCCCCCCCCCCCCCCCCCCCC(=O)[O-]
REMARK SMILES IDX 12 1 11 2 10 3 9 4 8 5 7 6 6 7 5 8 4 9 3 10 2 11 1 12 13 13
REMARK SMILES IDX 14 14 15 15 16 16 17 17 18 18 19 19 20 20 21 21 22 22 23 23
REMARK SMILES IDX 24 24
REMARK H PARENT
REMARK Flexibility Score: inf
ROOT
ATOM      1  C   UNL     1      20.692   7.118   6.805  1.00  0.00     0.000 C 
ENDROOT
BRANCH   1   2
ATOM      2  C   UNL     1      19.707   8.130   7.419  1.00  0.00     0.000 C 
BRANCH   2   3
ATOM      3  C   UNL     1      20.329   9.521   7.628  1.00  0.00     0.000 C 
BRANCH   3   4
ATOM      4  C   UNL     1      19.582  10.629   6.866  1.00  0.00    -0.000 C 
BRANCH   4   5
ATOM      5  C   UNL     1      18.711  10.105   5.705  1.00  0.00    -0.000 C 
BRANCH   5   6
ATOM      6  C   UNL     1      17.226  10.461   5.891  1.00  0.00    -0.000 C 
BRANCH   6   7
ATOM      7  C   UNL     1      16.286   9.445   5.223  1.00  0.00    -0.000 C 
BRANCH   7   8
ATOM      8  C   UNL     1      16.382   8.049   5.856  1.00  0.00    -0.000 C 
BRANCH   8   9
ATOM      9  C   UNL     1      16.357   6.955   4.776  1.00  0.00    -0.000 C 
BRANCH   9  10
ATOM     10  C   UNL     1      17.695   6.207   4.658  1.00  0.00    -0.000 C 
BRANCH  10  11
ATOM     11  C   UNL     1      18.726   6.967   3.810  1.00  0.00    -0.003 C 
ATOM     12  C   UNL     1      18.100   7.486   2.520  1.00  0.00     0.004 C 
ENDBRANCH  10  11
ENDBRANCH   9  10
ENDBRANCH   8   9
ENDBRANCH   7   8
ENDBRANCH   6   7
ENDBRANCH   5   6
ENDBRANCH   4   5
ENDBRANCH   3   4
ENDBRANCH   2   3
ENDBRANCH   1   2
BRANCH   1  13
ATOM     13  C   UNL     1      22.083   7.070   7.464  1.00  0.00     0.000 C 
BRANCH  13  14
ATOM     14  C   UNL     1      23.105   6.253   6.655  1.00  0.00     0.000 C 
BRANCH  14  15
ATOM     15  C   UNL     1      22.723   6.149   5.168  1.00  0.00     0.000 C 
BRANCH  15  16
ATOM     16  C   UNL     1      23.708   5.282   4.369  1.00  0.00     0.000 C 
BRANCH  16  17
ATOM     17  C   UNL     1      23.145   4.955   2.978  1.00  0.00     0.000 C 
BRANCH  17  18
ATOM     18  C   UNL     1      23.807   3.716   2.356  1.00  0.00     0.000 C 
BRANCH  18  19
ATOM     19  C   UNL     1      24.751   4.076   1.196  1.00  0.00     0.000 C 
BRANCH  19  20
ATOM     20  C   UNL     1      26.197   3.621   1.453  1.00  0.00     0.006 C 
BRANCH  20  21
ATOM     21  C   UNL     1      26.400   3.085   2.877  1.00  0.00     0.053 C 
BRANCH  21  22
ATOM     22  C   UNL     1      27.369   3.946   3.625  1.00  0.00     0.041 C 
ATOM     23  O   UNL     1      27.132   5.173   3.792  1.00  0.00    -0.550 OA
ATOM     24  O   UNL     1      28.552   3.402   4.109  1.00  0.00    -0.550 OA
ENDBRANCH  21  22
ENDBRANCH  20  21
ENDBRANCH  19  20
ENDBRANCH  18  19
ENDBRANCH  17  18
ENDBRANCH  16  17
ENDBRANCH  15  16
ENDBRANCH  14  15
ENDBRANCH  13  14
ENDBRANCH   1  13
TORSDOF 20
ENDMDL
MODEL 5
REMARK VINA RESULT:    -4.609      3.057      8.311
REMARK INTER + INTRA:         -12.240
REMARK INTER:                  -9.711
REMARK INTRA:                  -2.528
REMARK UNBOUND:                -2.241
REMARK SMILES CCCCCCCCCCCCCCCCCCCCCC(=O)[O-]
REMARK SMILES IDX 12 1 11 2 10 3 9 4 8 5 7 6 6 7 5 8 4 9 3 10 2 11 1 12 13 13
REMARK SMILES IDX 14 14 15 15 16 16 17 17 18 18 19 19 20 20 21 21 22 22 23 23
REMARK SMILES IDX 24 24
REMARK H PARENT
REMARK Flexibility Score: inf
ROOT
ATOM      1  C   UNL     1      23.492   6.797   7.470  1.00  0.00     0.000 C 
ENDROOT
BRANCH   1   2
ATOM      2  C   UNL     1      23.984   6.349   6.081  1.00  0.00     0.000 C 
BRANCH   2   3
ATOM      3  C   UNL     1      24.320   4.850   6.019  1.00  0.00     0.000 C 
BRANCH   3   4
ATOM      4  C   UNL     1      23.951   4.211   4.669  1.00  0.00    -0.000 C 
BRANCH   4   5
ATOM      5  C   UNL     1      23.400   5.218   3.636  1.00  0.00    -0.000 C 
BRANCH   5   6
ATOM      6  C   UNL     1      24.229   5.226   2.340  1.00  0.00    -0.000 C 
BRANCH   6   7
ATOM      7  C   UNL     1      24.588   3.812   1.858  1.00  0.00    -0.000 C 
BRANCH   7   8
ATOM      8  C   UNL     1      26.046   3.702   1.388  1.00  0.00    -0.000 C 
BRANCH   8   9
ATOM      9  C   UNL     1      26.902   2.957   2.425  1.00  0.00    -0.000 C 
BRANCH   9  10
ATOM     10  C   UNL     1      28.012   3.838   3.021  1.00  0.00    -0.000 C 
BRANCH  10  11
ATOM     11  C   UNL     1      27.642   4.408   4.399  1.00  0.00    -0.003 C 
ATOM     12  C   UNL     1      27.362   5.904   4.317  1.00  0.00     0.004 C 
ENDBRANCH  10  11
ENDBRANCH   9  10
ENDBRANCH   8   9
ENDBRANCH   7   8
ENDBRANCH   6   7
ENDBRANCH   5   6
ENDBRANCH   4   5
ENDBRANCH   3   4
ENDBRANCH   2   3
ENDBRANCH   1   2
BRANCH   1  13
ATOM     13  C   UNL     1      21.979   6.648   7.712  1.00  0.00     0.000 C 
BRANCH  13  14
ATOM     14  C   UNL     1      21.133   7.001   6.476  1.00  0.00     0.000 C 
BRANCH  14  15
ATOM     15  C   UNL     1      19.926   7.888   6.829  1.00  0.00     0.000 C 
BRANCH  15  16
ATOM     16  C   UNL     1      20.341   9.186   7.539  1.00  0.00     0.000 C 
BRANCH  16  17
ATOM     17  C   UNL     1      19.645  10.400   6.908  1.00  0.00     0.000 C 
BRANCH  17  18
ATOM     18  C   UNL     1      18.906  10.041   5.610  1.00  0.00     0.000 C 
BRANCH  18  19
ATOM     19  C   UNL     1      17.403  10.358   5.684  1.00  0.00     0.000 C 
BRANCH  19  20
ATOM     20  C   UNL     1      16.545   9.097   5.876  1.00  0.00     0.006 C 
BRANCH  20  21
ATOM     21  C   UNL     1      15.906   8.616   4.567  1.00  0.00     0.053 C 
BRANCH  21  22
ATOM     22  C   UNL     1      16.561   7.355   4.098  1.00  0.00     0.041 C 
ATOM     23  O   UNL     1      15.956   6.252   4.189  1.00  0.00    -0.550 OA
ATOM     24  O   UNL     1      17.854   7.390   3.592  1.00  0.00    -0.550 OA
ENDBRANCH  21  22
ENDBRANCH  20  21
ENDBRANCH  19  20
ENDBRANCH  18  19
ENDBRANCH  17  18
ENDBRANCH  16  17
ENDBRANCH  15  16
ENDBRANCH  14  15
ENDBRANCH  13  14
ENDBRANCH   1  13
TORSDOF 20
ENDMDL
MODEL 6
REMARK VINA RESULT:    -4.466      1.531      2.972
REMARK INTER + INTRA:         -11.929
REMARK INTER:                  -9.497
REMARK INTRA:                  -2.432
REMARK UNBOUND:                -2.241
REMARK SMILES CCCCCCCCCCCCCCCCCCCCCC(=O)[O-]
REMARK SMILES IDX 12 1 11 2 10 3 9 4 8 5 7 6 6 7 5 8 4 9 3 10 2 11 1 12 13 13
REMARK SMILES IDX 14 14 15 15 16 16 17 17 18 18 19 19 20 20 21 21 22 22 23 23
REMARK SMILES IDX 24 24
REMARK H PARENT
REMARK Flexibility Score: inf
ROOT
ATOM      1  C   UNL     1      22.419   6.181   6.868  1.00  0.00     0.000 C 
ENDROOT
BRANCH   1   2
ATOM      2  C   UNL     1      21.486   7.319   7.323  1.00  0.00     0.000 C 
BRANCH   2   3
ATOM      3  C   UNL     1      20.118   7.289   6.620  1.00  0.00     0.000 C 
BRANCH   3   4
ATOM      4  C   UNL     1      19.014   6.661   7.488  1.00  0.00    -0.000 C 
BRANCH   4   5
ATOM      5  C   UNL     1      17.760   7.549   7.635  1.00  0.00    -0.000 C 
BRANCH   5   6
ATOM      6  C   UNL     1      18.118   9.043   7.724  1.00  0.00    -0.000 C 
BRANCH   6   7
ATOM      7  C   UNL     1      17.495   9.869   6.588  1.00  0.00    -0.000 C 
BRANCH   7   8
ATOM      8  C   UNL     1      18.548  10.421   5.615  1.00  0.00    -0.000 C 
BRANCH   8   9
ATOM      9  C   UNL     1      18.445   9.732   4.245  1.00  0.00    -0.000 C 
BRANCH   9  10
ATOM     10  C   UNL     1      17.234   8.790   4.145  1.00  0.00    -0.000 C 
BRANCH  10  11
ATOM     11  C   UNL     1      17.637   7.333   3.874  1.00  0.00    -0.003 C 
ATOM     12  C   UNL     1      16.541   6.369   4.313  1.00  0.00     0.004 C 
ENDBRANCH  10  11
ENDBRANCH   9  10
ENDBRANCH   8   9
ENDBRANCH   7   8
ENDBRANCH   6   7
ENDBRANCH   5   6
ENDBRANCH   4   5
ENDBRANCH   3   4
ENDBRANCH   2   3
ENDBRANCH   1   2
BRANCH   1  13
ATOM     13  C   UNL     1      23.764   6.633   6.271  1.00  0.00     0.000 C 
BRANCH  13  14
ATOM     14  C   UNL     1      24.400   5.576   5.351  1.00  0.00     0.000 C 
BRANCH  14  15
ATOM     15  C   UNL     1      23.373   4.936   4.401  1.00  0.00     0.000 C 
BRANCH  15  16
ATOM     16  C   UNL     1      23.721   5.164   2.922  1.00  0.00     0.000 C 
BRANCH  16  17
ATOM     17  C   UNL     1      25.241   5.130   2.706  1.00  0.00     0.000 C 
BRANCH  17  18
ATOM     18  C   UNL     1      25.664   4.045   1.703  1.00  0.00     0.000 C 
BRANCH  18  19
ATOM     19  C   UNL     1      24.481   3.520   0.872  1.00  0.00     0.000 C 
BRANCH  19  20
ATOM     20  C   UNL     1      24.309   1.998   0.991  1.00  0.00     0.006 C 
BRANCH  20  21
ATOM     21  C   UNL     1      25.421   1.344   1.822  1.00  0.00     0.053 C 
BRANCH  21  22
ATOM     22  C   UNL     1      24.863   0.784   3.093  1.00  0.00     0.041 C 
ATOM     23  O   UNL     1      24.768  -0.463   3.251  1.00  0.00    -0.550 OA
ATOM     24  O   UNL     1      24.412   1.639   4.090  1.00  0.00    -0.550 OA
ENDBRANCH  21  22
ENDBRANCH  20  21
ENDBRANCH  19  20
ENDBRANCH  18  19
ENDBRANCH  17  18
ENDBRANCH  16  17
ENDBRANCH  15  16
ENDBRANCH  14  15
ENDBRANCH  13  14
ENDBRANCH   1  13
TORSDOF 20
ENDMDL
MODEL 7
REMARK VINA RESULT:    -4.461      2.867      7.700
REMARK INTER + INTRA:         -11.918
REMARK INTER:                  -9.505
REMARK INTRA:                  -2.413
REMARK UNBOUND:                -2.241
REMARK SMILES CCCCCCCCCCCCCCCCCCCCCC(=O)[O-]
REMARK SMILES IDX 12 1 11 2 10 3 9 4 8 5 7 6 6 7 5 8 4 9 3 10 2 11 1 12 13 13
REMARK SMILES IDX 14 14 15 15 16 16 17 17 18 18 19 19 20 20 21 21 22 22 23 23
REMARK SMILES IDX 24 24
REMARK H PARENT
REMARK Flexibility Score: inf
ROOT
ATOM      1  C   UNL     1      20.856   6.988   6.759  1.00  0.00     0.000 C 
ENDROOT
BRANCH   1   2
ATOM      2  C   UNL     1      22.131   7.011   7.623  1.00  0.00     0.000 C 
BRANCH   2   3
ATOM      3  C   UNL     1      23.302   6.246   6.984  1.00  0.00     0.000 C 
BRANCH   3   4
ATOM      4  C   UNL     1      23.223   6.209   5.448  1.00  0.00    -0.000 C 
BRANCH   4   5
ATOM      5  C   UNL     1      23.769   4.904   4.830  1.00  0.00    -0.000 C 
BRANCH   5   6
ATOM      6  C   UNL     1      23.944   5.017   3.305  1.00  0.00    -0.000 C 
BRANCH   6   7
ATOM      7  C   UNL     1      25.410   5.216   2.891  1.00  0.00    -0.000 C 
BRANCH   7   8
ATOM      8  C   UNL     1      26.393   4.867   4.018  1.00  0.00    -0.000 C 
BRANCH   8   9
ATOM      9  C   UNL     1      27.229   6.094   4.416  1.00  0.00    -0.000 C 
BRANCH   9  10
ATOM     10  C   UNL     1      27.073   6.461   5.901  1.00  0.00    -0.000 C 
BRANCH  10  11
ATOM     11  C   UNL     1      26.573   7.898   6.107  1.00  0.00    -0.003 C 
ATOM     12  C   UNL     1      26.390   8.210   7.588  1.00  0.00     0.004 C 
ENDBRANCH  10  11
ENDBRANCH   9  10
ENDBRANCH   8   9
ENDBRANCH   7   8
ENDBRANCH   6   7
ENDBRANCH   5   6
ENDBRANCH   4   5
ENDBRANCH   3   4
ENDBRANCH   2   3
ENDBRANCH   1   2
BRANCH   1  13
ATOM     13  C   UNL     1      19.721   7.913   7.236  1.00  0.00     0.000 C 
BRANCH  13  14
ATOM     14  C   UNL     1      20.125   9.397   7.266  1.00  0.00     0.000 C 
BRANCH  14  15
ATOM     15  C   UNL     1      19.196  10.272   6.407  1.00  0.00     0.000 C 
BRANCH  15  16
ATOM     16  C   UNL     1      18.347   9.443   5.431  1.00  0.00     0.000 C 
BRANCH  16  17
ATOM     17  C   UNL     1      16.854   9.764   5.597  1.00  0.00     0.000 C 
BRANCH  17  18
ATOM     18  C   UNL     1      15.957   8.565   5.251  1.00  0.00     0.000 C 
BRANCH  18  19
ATOM     19  C   UNL     1      16.634   7.218   5.557  1.00  0.00     0.000 C 
BRANCH  19  20
ATOM     20  C   UNL     1      16.584   6.251   4.363  1.00  0.00     0.006 C 
BRANCH  20  21
ATOM     21  C   UNL     1      16.518   6.984   3.016  1.00  0.00     0.053 C 
BRANCH  21  22
ATOM     22  C   UNL     1      17.879   7.064   2.398  1.00  0.00     0.041 C 
ATOM     23  O   UNL     1      18.136   7.953   1.541  1.00  0.00    -0.550 OA
ATOM     24  O   UNL     1      18.853   6.136   2.740  1.00  0.00    -0.550 OA
ENDBRANCH  21  22
ENDBRANCH  20  21
ENDBRANCH  19  20
ENDBRANCH  18  19
ENDBRANCH  17  18
ENDBRANCH  16  17
ENDBRANCH  15  16
ENDBRANCH  14  15
ENDBRANCH  13  14
ENDBRANCH   1  13
TORSDOF 20
ENDMDL
MODEL 8
REMARK VINA RESULT:    -4.432      2.878      3.641
REMARK INTER + INTRA:         -11.855
REMARK INTER:                  -9.429
REMARK INTRA:                  -2.426
REMARK UNBOUND:                -2.241
REMARK SMILES CCCCCCCCCCCCCCCCCCCCCC(=O)[O-]
REMARK SMILES IDX 12 1 11 2 10 3 9 4 8 5 7 6 6 7 5 8 4 9 3 10 2 11 1 12 13 13
REMARK SMILES IDX 14 14 15 15 16 16 17 17 18 18 19 19 20 20 21 21 22 22 23 23
REMARK SMILES IDX 24 24
REMARK H PARENT
REMARK Flexibility Score: inf
ROOT
ATOM      1  C   UNL     1      20.993   7.814   7.372  1.00  0.00     0.000 C 
ENDROOT
BRANCH   1   2
ATOM      2  C   UNL     1      21.163   9.016   8.319  1.00  0.00     0.000 C 
BRANCH   2   3
ATOM      3  C   UNL     1      20.381  10.258   7.859  1.00  0.00     0.000 C 
BRANCH   3   4
ATOM      4  C   UNL     1      19.525   9.994   6.608  1.00  0.00    -0.000 C 
BRANCH   4   5
ATOM      5  C   UNL     1      18.085  10.539   6.716  1.00  0.00    -0.000 C 
BRANCH   5   6
ATOM      6  C   UNL     1      17.043   9.407   6.766  1.00  0.00    -0.000 C 
BRANCH   6   7
ATOM      7  C   UNL     1      17.382   8.337   7.815  1.00  0.00    -0.000 C 
BRANCH   7   8
ATOM      8  C   UNL     1      17.284   6.910   7.253  1.00  0.00    -0.000 C 
BRANCH   8   9
ATOM      9  C   UNL     1      16.705   6.920   5.829  1.00  0.00    -0.000 C 
BRANCH   9  10
ATOM     10  C   UNL     1      17.577   6.144   4.829  1.00  0.00    -0.000 C 
BRANCH  10  11
ATOM     11  C   UNL     1      18.837   6.919   4.416  1.00  0.00    -0.003 C 
ATOM     12  C   UNL     1      18.483   8.117   3.542  1.00  0.00     0.004 C 
ENDBRANCH  10  11
ENDBRANCH   9  10
ENDBRANCH   8   9
ENDBRANCH   7   8
ENDBRANCH   6   7
ENDBRANCH   5   6
ENDBRANCH   4   5
ENDBRANCH   3   4
ENDBRANCH   2   3
ENDBRANCH   1   2
BRANCH   1  13
ATOM     13  C   UNL     1      22.221   6.894   7.248  1.00  0.00     0.000 C 
BRANCH  13  14
ATOM     14  C   UNL     1      22.341   6.232   5.864  1.00  0.00     0.000 C 
BRANCH  14  15
ATOM     15  C   UNL     1      23.794   5.859   5.521  1.00  0.00     0.000 C 
BRANCH  15  16
ATOM     16  C   UNL     1      23.881   4.675   4.546  1.00  0.00     0.000 C 
BRANCH  16  17
ATOM     17  C   UNL     1      24.382   5.135   3.170  1.00  0.00     0.000 C 
BRANCH  17  18
ATOM     18  C   UNL     1      25.901   4.967   3.014  1.00  0.00     0.000 C 
BRANCH  18  19
ATOM     19  C   UNL     1      26.531   4.211   4.197  1.00  0.00     0.000 C 
BRANCH  19  20
ATOM     20  C   UNL     1      27.500   5.089   5.006  1.00  0.00     0.006 C 
BRANCH  20  21
ATOM     21  C   UNL     1      27.736   6.458   4.355  1.00  0.00     0.053 C 
BRANCH  21  22
ATOM     22  C   UNL     1      28.249   7.435   5.365  1.00  0.00     0.041 C 
ATOM     23  O   UNL     1      27.858   7.376   6.562  1.00  0.00    -0.550 OA
ATOM     24  O   UNL     1      29.130   8.436   4.978  1.00  0.00    -0.550 OA
ENDBRANCH  21  22
ENDBRANCH  20  21
ENDBRANCH  19  20
ENDBRANCH  18  19
ENDBRANCH  17  18
ENDBRANCH  16  17
ENDBRANCH  15  16
ENDBRANCH  14  15
ENDBRANCH  13  14
ENDBRANCH   1  13
TORSDOF 20
ENDMDL
MODEL 9
REMARK VINA RESULT:    -4.367      2.573      7.666
REMARK INTER + INTRA:         -11.715
REMARK INTER:                  -9.653
REMARK INTRA:                  -2.062
REMARK UNBOUND:                -2.241
REMARK SMILES CCCCCCCCCCCCCCCCCCCCCC(=O)[O-]
REMARK SMILES IDX 12 1 11 2 10 3 9 4 8 5 7 6 6 7 5 8 4 9 3 10 2 11 1 12 13 13
REMARK SMILES IDX 14 14 15 15 16 16 17 17 18 18 19 19 20 20 21 21 22 22 23 23
REMARK SMILES IDX 24 24
REMARK H PARENT
REMARK Flexibility Score: inf
ROOT
ATOM      1  C   UNL     1      21.118   6.974   6.578  1.00  0.00     0.000 C 
ENDROOT
BRANCH   1   2
ATOM      2  C   UNL     1      22.254   7.348   7.547  1.00  0.00     0.000 C 
BRANCH   2   3
ATOM      3  C   UNL     1      23.488   6.442   7.403  1.00  0.00     0.000 C 
BRANCH   3   4
ATOM      4  C   UNL     1      23.122   4.955   7.257  1.00  0.00    -0.000 C 
BRANCH   4   5
ATOM      5  C   UNL     1      23.775   4.273   6.035  1.00  0.00    -0.000 C 
BRANCH   5   6
ATOM      6  C   UNL     1      23.653   5.129   4.763  1.00  0.00    -0.000 C 
BRANCH   6   7
ATOM      7  C   UNL     1      23.803   4.302   3.477  1.00  0.00    -0.000 C 
BRANCH   7   8
ATOM      8  C   UNL     1      24.543   5.066   2.368  1.00  0.00    -0.000 C 
BRANCH   8   9
ATOM      9  C   UNL     1      25.031   4.106   1.272  1.00  0.00    -0.000 C 
BRANCH   9  10
ATOM     10  C   UNL     1      25.887   2.956   1.829  1.00  0.00    -0.000 C 
BRANCH  10  11
ATOM     11  C   UNL     1      27.333   3.383   2.124  1.00  0.00    -0.003 C 
ATOM     12  C   UNL     1      27.601   3.411   3.624  1.00  0.00     0.004 C 
ENDBRANCH  10  11
ENDBRANCH   9  10
ENDBRANCH   8   9
ENDBRANCH   7   8
ENDBRANCH   6   7
ENDBRANCH   5   6
ENDBRANCH   4   5
ENDBRANCH   3   4
ENDBRANCH   2   3
ENDBRANCH   1   2
BRANCH   1  13
ATOM     13  C   UNL     1      19.803   7.751   6.773  1.00  0.00     0.000 C 
BRANCH  13  14
ATOM     14  C   UNL     1      20.025   9.215   7.190  1.00  0.00     0.000 C 
BRANCH  14  15
ATOM     15  C   UNL     1      18.987  10.163   6.563  1.00  0.00     0.000 C 
BRANCH  15  16
ATOM     16  C   UNL     1      17.546   9.676   6.772  1.00  0.00     0.000 C 
BRANCH  16  17
ATOM     17  C   UNL     1      16.740   9.776   5.469  1.00  0.00     0.000 C 
BRANCH  17  18
ATOM     18  C   UNL     1      15.878   8.529   5.218  1.00  0.00     0.000 C 
BRANCH  18  19
ATOM     19  C   UNL     1      16.419   7.285   5.944  1.00  0.00     0.000 C 
BRANCH  19  20
ATOM     20  C   UNL     1      16.960   6.225   4.971  1.00  0.00     0.006 C 
BRANCH  20  21
ATOM     21  C   UNL     1      16.939   6.701   3.513  1.00  0.00     0.053 C 
BRANCH  21  22
ATOM     22  C   UNL     1      18.333   6.891   3.005  1.00  0.00     0.041 C 
ATOM     23  O   UNL     1      18.900   8.013   3.109  1.00  0.00    -0.550 OA
ATOM     24  O   UNL     1      18.997   5.841   2.385  1.00  0.00    -0.550 OA
ENDBRANCH  21  22
ENDBRANCH  20  21
ENDBRANCH  19  20
ENDBRANCH  18  19
ENDBRANCH  17  18
ENDBRANCH  16  17
ENDBRANCH  15  16
ENDBRANCH  14  15
ENDBRANCH  13  14
ENDBRANCH   1  13
TORSDOF 20
ENDMDL
