MODEL 1
REMARK VINA RESULT:    -5.135      0.000      0.000
REMARK INTER + INTRA:          -5.781
REMARK INTER:                  -5.585
REMARK INTRA:                  -0.195
REMARK UNBOUND:                -0.195
REMARK SMILES Cc1ccc(C(C)C)c(O)c1
REMARK SMILES IDX 1 1 2 2 11 3 9 4 5 5 4 6 3 7 10 8 6 10 7 11 8 12
REMARK H PARENT 10 9
REMARK Flexibility Score: inf
ROOT
ATOM      1  C   UNL     1      21.570  28.503 -24.074  1.00  0.00     0.044 C 
ATOM      2  C   UNL     1      21.873  28.728 -22.622  1.00  0.00    -0.047 A 
ATOM      3  C   UNL     1      22.597  27.774 -21.895  1.00  0.00     0.049 A 
ATOM      4  C   UNL     1      22.853  27.959 -20.528  1.00  0.00     0.119 A 
ATOM      5  C   UNL     1      22.368  29.113 -19.867  1.00  0.00    -0.004 A 
ATOM      6  C   UNL     1      21.627  30.054 -20.605  1.00  0.00     0.008 A 
ATOM      7  C   UNL     1      21.376  29.860 -21.966  1.00  0.00     0.004 A 
ENDROOT
BRANCH   4   8
ATOM      8  O   UNL     1      23.584  26.995 -19.835  1.00  0.00    -0.508 OA
ATOM      9  H   UNL     1      24.363  26.506 -20.262  1.00  0.00     0.293 HD
ENDBRANCH   4   8
BRANCH   5  10
ATOM     10  C   UNL     1      22.616  29.369 -18.386  1.00  0.00     0.017 C 
ATOM     11  C   UNL     1      21.388  29.023 -17.534  1.00  0.00     0.012 C 
ATOM     12  C   UNL     1      23.095  30.803 -18.129  1.00  0.00     0.012 C 
ENDBRANCH   5  10
TORSDOF 2
ENDMDL
MODEL 2
REMARK VINA RESULT:    -5.131      1.768      4.836
REMARK INTER + INTRA:          -5.776
REMARK INTER:                  -5.579
REMARK INTRA:                  -0.197
REMARK UNBOUND:                -0.195
REMARK SMILES Cc1ccc(C(C)C)c(O)c1
REMARK SMILES IDX 1 1 2 2 11 3 9 4 5 5 4 6 3 7 10 8 6 10 7 11 8 12
REMARK H PARENT 10 9
REMARK Flexibility Score: inf
ROOT
ATOM      1  C   UNL     1      22.699  29.300 -14.669  1.00  0.00     0.044 C 
ATOM      2  C   UNL     1      22.587  29.275 -16.164  1.00  0.00    -0.047 A 
ATOM      3  C   UNL     1      23.618  29.792 -16.959  1.00  0.00     0.049 A 
ATOM      4  C   UNL     1      23.506  29.806 -18.358  1.00  0.00     0.119 A 
ATOM      5  C   UNL     1      22.337  29.306 -18.979  1.00  0.00    -0.004 A 
ATOM      6  C   UNL     1      21.301  28.806 -18.168  1.00  0.00     0.008 A 
ATOM      7  C   UNL     1      21.422  28.798 -16.776  1.00  0.00     0.004 A 
ENDROOT
BRANCH   4   8
ATOM      8  O   UNL     1      24.555  30.319 -19.121  1.00  0.00    -0.508 OA
ATOM      9  H   UNL     1      25.112  31.103 -18.803  1.00  0.00     0.293 HD
ENDBRANCH   4   8
BRANCH   5  10
ATOM     10  C   UNL     1      22.158  29.293 -20.492  1.00  0.00     0.017 C 
ATOM     11  C   UNL     1      21.415  30.540 -20.989  1.00  0.00     0.012 C 
ATOM     12  C   UNL     1      21.483  28.004 -20.974  1.00  0.00     0.012 C 
ENDBRANCH   5  10
TORSDOF 2
ENDMDL
MODEL 3
REMARK VINA RESULT:    -5.040      5.825      8.210
REMARK INTER + INTRA:          -5.678
REMARK INTER:                  -5.487
REMARK INTRA:                  -0.191
REMARK UNBOUND:                -0.195
REMARK SMILES Cc1ccc(C(C)C)c(O)c1
REMARK SMILES IDX 1 1 2 2 11 3 9 4 5 5 4 6 3 7 10 8 6 10 7 11 8 12
REMARK H PARENT 10 9
REMARK Flexibility Score: inf
ROOT
ATOM      1  C   UNL     1      20.797  25.011 -23.773  1.00  0.00     0.044 C 
ATOM      2  C   UNL     1      22.010  24.460 -24.461  1.00  0.00    -0.047 A 
ATOM      3  C   UNL     1      23.155  24.133 -23.722  1.00  0.00     0.049 A 
ATOM      4  C   UNL     1      24.307  23.652 -24.363  1.00  0.00     0.119 A 
ATOM      5  C   UNL     1      24.325  23.505 -25.770  1.00  0.00    -0.004 A 
ATOM      6  C   UNL     1      23.175  23.855 -26.502  1.00  0.00     0.008 A 
ATOM      7  C   UNL     1      22.034  24.334 -25.855  1.00  0.00     0.004 A 
ENDROOT
BRANCH   4   8
ATOM      8  O   UNL     1      25.426  23.327 -23.597  1.00  0.00    -0.508 OA
ATOM      9  H   UNL     1      25.851  23.992 -22.962  1.00  0.00     0.293 HD
ENDBRANCH   4   8
BRANCH   5  10
ATOM     10  C   UNL     1      25.545  22.986 -26.521  1.00  0.00     0.017 C 
ATOM     11  C   UNL     1      26.175  24.071 -27.403  1.00  0.00     0.012 C 
ATOM     12  C   UNL     1      25.224  21.721 -27.323  1.00  0.00     0.012 C 
ENDBRANCH   5  10
TORSDOF 2
ENDMDL
MODEL 4
REMARK VINA RESULT:    -5.031      1.943      4.376
REMARK INTER + INTRA:          -5.668
REMARK INTER:                  -5.474
REMARK INTRA:                  -0.194
REMARK UNBOUND:                -0.195
REMARK SMILES Cc1ccc(C(C)C)c(O)c1
REMARK SMILES IDX 1 1 2 2 11 3 9 4 5 5 4 6 3 7 10 8 6 10 7 11 8 12
REMARK H PARENT 10 9
REMARK Flexibility Score: inf
ROOT
ATOM      1  C   UNL     1      24.954  29.611 -17.600  1.00  0.00     0.044 C 
ATOM      2  C   UNL     1      23.974  29.306 -18.694  1.00  0.00    -0.047 A 
ATOM      3  C   UNL     1      22.965  30.224 -19.014  1.00  0.00     0.049 A 
ATOM      4  C   UNL     1      22.021  29.931 -20.010  1.00  0.00     0.119 A 
ATOM      5  C   UNL     1      22.076  28.694 -20.695  1.00  0.00    -0.004 A 
ATOM      6  C   UNL     1      23.084  27.774 -20.351  1.00  0.00     0.008 A 
ATOM      7  C   UNL     1      24.018  28.074 -19.357  1.00  0.00     0.004 A 
ENDROOT
BRANCH   4   8
ATOM      8  O   UNL     1      21.035  30.870 -20.311  1.00  0.00    -0.508 OA
ATOM      9  H   UNL     1      20.226  31.003 -19.716  1.00  0.00     0.293 HD
ENDBRANCH   4   8
BRANCH   5  10
ATOM     10  C   UNL     1      21.080  28.320 -21.786  1.00  0.00     0.017 C 
ATOM     11  C   UNL     1      20.488  26.923 -21.564  1.00  0.00     0.012 C 
ATOM     12  C   UNL     1      21.692  28.460 -23.185  1.00  0.00     0.012 C 
ENDBRANCH   5  10
TORSDOF 2
ENDMDL
MODEL 5
REMARK VINA RESULT:    -4.992      7.176      9.478
REMARK INTER + INTRA:          -5.625
REMARK INTER:                  -5.708
REMARK INTRA:                   0.083
REMARK UNBOUND:                -0.195
REMARK SMILES Cc1ccc(C(C)C)c(O)c1
REMARK SMILES IDX 1 1 2 2 11 3 9 4 5 5 4 6 3 7 10 8 6 10 7 11 8 12
REMARK H PARENT 10 9
REMARK Flexibility Score: inf
ROOT
ATOM      1  C   UNL     1      21.202  28.373  -9.779  1.00  0.00     0.044 C 
ATOM      2  C   UNL     1      20.287  28.256 -10.961  1.00  0.00    -0.047 A 
ATOM      3  C   UNL     1      19.223  27.344 -10.944  1.00  0.00     0.049 A 
ATOM      4  C   UNL     1      18.384  27.202 -12.060  1.00  0.00     0.119 A 
ATOM      5  C   UNL     1      18.616  27.975 -13.223  1.00  0.00    -0.004 A 
ATOM      6  C   UNL     1      19.699  28.873 -13.233  1.00  0.00     0.008 A 
ATOM      7  C   UNL     1      20.529  29.007 -12.117  1.00  0.00     0.004 A 
ENDROOT
BRANCH   4   8
ATOM      8  O   UNL     1      17.329  26.292 -12.007  1.00  0.00    -0.508 OA
ATOM      9  H   UNL     1      17.426  25.388 -11.561  1.00  0.00     0.293 HD
ENDBRANCH   4   8
BRANCH   5  10
ATOM     10  C   UNL     1      17.739  27.865 -14.464  1.00  0.00     0.017 C 
ATOM     11  C   UNL     1      17.721  26.438 -15.025  1.00  0.00     0.012 C 
ATOM     12  C   UNL     1      18.137  28.889 -15.533  1.00  0.00     0.012 C 
ENDBRANCH   5  10
TORSDOF 2
ENDMDL
MODEL 6
REMARK VINA RESULT:    -4.958      2.856      5.200
REMARK INTER + INTRA:          -5.588
REMARK INTER:                  -5.391
REMARK INTRA:                  -0.196
REMARK UNBOUND:                -0.195
REMARK SMILES Cc1ccc(C(C)C)c(O)c1
REMARK SMILES IDX 1 1 2 2 11 3 9 4 5 5 4 6 3 7 10 8 6 10 7 11 8 12
REMARK H PARENT 10 9
REMARK Flexibility Score: inf
ROOT
ATOM      1  C   UNL     1      19.720  28.344 -14.632  1.00  0.00     0.044 C 
ATOM      2  C   UNL     1      20.860  28.305 -15.605  1.00  0.00    -0.047 A 
ATOM      3  C   UNL     1      22.099  27.776 -15.221  1.00  0.00     0.049 A 
ATOM      4  C   UNL     1      23.182  27.768 -16.113  1.00  0.00     0.119 A 
ATOM      5  C   UNL     1      23.034  28.312 -17.411  1.00  0.00    -0.004 A 
ATOM      6  C   UNL     1      21.789  28.857 -17.778  1.00  0.00     0.008 A 
ATOM      7  C   UNL     1      20.717  28.860 -16.882  1.00  0.00     0.004 A 
ENDROOT
BRANCH   4   8
ATOM      8  O   UNL     1      24.399  27.226 -15.702  1.00  0.00    -0.508 OA
ATOM      9  H   UNL     1      24.835  26.456 -16.196  1.00  0.00     0.293 HD
ENDBRANCH   4   8
BRANCH   5  10
ATOM     10  C   UNL     1      24.172  28.332 -18.423  1.00  0.00     0.017 C 
ATOM     11  C   UNL     1      24.967  29.642 -18.362  1.00  0.00     0.012 C 
ATOM     12  C   UNL     1      23.676  28.036 -19.843  1.00  0.00     0.012 C 
ENDBRANCH   5  10
TORSDOF 2
ENDMDL
MODEL 7
REMARK VINA RESULT:    -4.935      6.887      8.369
REMARK INTER + INTRA:          -5.563
REMARK INTER:                  -5.371
REMARK INTRA:                  -0.192
REMARK UNBOUND:                -0.195
REMARK SMILES Cc1ccc(C(C)C)c(O)c1
REMARK SMILES IDX 1 1 2 2 11 3 9 4 5 5 4 6 3 7 10 8 6 10 7 11 8 12
REMARK H PARENT 10 9
REMARK Flexibility Score: inf
ROOT
ATOM      1  C   UNL     1      23.328  30.878 -11.844  1.00  0.00     0.044 C 
ATOM      2  C   UNL     1      22.187  30.033 -12.328  1.00  0.00    -0.047 A 
ATOM      3  C   UNL     1      22.344  29.207 -13.448  1.00  0.00     0.049 A 
ATOM      4  C   UNL     1      21.272  28.440 -13.929  1.00  0.00     0.119 A 
ATOM      5  C   UNL     1      20.011  28.507 -13.289  1.00  0.00    -0.004 A 
ATOM      6  C   UNL     1      19.862  29.355 -12.176  1.00  0.00     0.008 A 
ATOM      7  C   UNL     1      20.936  30.114 -11.705  1.00  0.00     0.004 A 
ENDROOT
BRANCH   4   8
ATOM      8  O   UNL     1      21.464  27.622 -15.041  1.00  0.00    -0.508 OA
ATOM      9  H   UNL     1      21.679  26.636 -14.948  1.00  0.00     0.293 HD
ENDBRANCH   4   8
BRANCH   5  10
ATOM     10  C   UNL     1      18.811  27.699 -13.764  1.00  0.00     0.017 C 
ATOM     11  C   UNL     1      18.021  28.436 -14.853  1.00  0.00     0.012 C 
ATOM     12  C   UNL     1      17.909  27.280 -12.597  1.00  0.00     0.012 C 
ENDBRANCH   5  10
TORSDOF 2
ENDMDL
MODEL 8
REMARK VINA RESULT:    -4.860      4.638      7.606
REMARK INTER + INTRA:          -5.481
REMARK INTER:                  -5.308
REMARK INTRA:                  -0.173
REMARK UNBOUND:                -0.195
REMARK SMILES Cc1ccc(C(C)C)c(O)c1
REMARK SMILES IDX 1 1 2 2 11 3 9 4 5 5 4 6 3 7 10 8 6 10 7 11 8 12
REMARK H PARENT 10 9
REMARK Flexibility Score: inf
ROOT
ATOM      1  C   UNL     1      16.882  27.184 -12.391  1.00  0.00     0.044 C 
ATOM      2  C   UNL     1      18.048  27.515 -13.273  1.00  0.00    -0.047 A 
ATOM      3  C   UNL     1      19.176  28.157 -12.743  1.00  0.00     0.049 A 
ATOM      4  C   UNL     1      20.256  28.503 -13.568  1.00  0.00     0.119 A 
ATOM      5  C   UNL     1      20.209  28.217 -14.954  1.00  0.00    -0.004 A 
ATOM      6  C   UNL     1      19.063  27.589 -15.476  1.00  0.00     0.008 A 
ATOM      7  C   UNL     1      17.992  27.249 -14.646  1.00  0.00     0.004 A 
ENDROOT
BRANCH   4   8
ATOM      8  O   UNL     1      21.367  29.132 -13.008  1.00  0.00    -0.508 OA
ATOM      9  H   UNL     1      22.213  29.297 -13.540  1.00  0.00     0.293 HD
ENDBRANCH   4   8
BRANCH   5  10
ATOM     10  C   UNL     1      21.351  28.568 -15.899  1.00  0.00     0.017 C 
ATOM     11  C   UNL     1      20.855  28.797 -17.332  1.00  0.00     0.012 C 
ATOM     12  C   UNL     1      22.472  27.524 -15.849  1.00  0.00     0.012 C 
ENDBRANCH   5  10
TORSDOF 2
ENDMDL
MODEL 9
REMARK VINA RESULT:    -4.807      7.820      9.434
REMARK INTER + INTRA:          -5.424
REMARK INTER:                  -5.317
REMARK INTRA:                  -0.107
REMARK UNBOUND:                -0.195
REMARK SMILES Cc1ccc(C(C)C)c(O)c1
REMARK SMILES IDX 1 1 2 2 11 3 9 4 5 5 4 6 3 7 10 8 6 10 7 11 8 12
REMARK H PARENT 10 9
REMARK Flexibility Score: inf
ROOT
ATOM      1  C   UNL     1      17.694  27.974 -14.659  1.00  0.00     0.044 C 
ATOM      2  C   UNL     1      18.502  28.133 -13.405  1.00  0.00    -0.047 A 
ATOM      3  C   UNL     1      19.454  29.156 -13.303  1.00  0.00     0.049 A 
ATOM      4  C   UNL     1      20.239  29.290 -12.148  1.00  0.00     0.119 A 
ATOM      5  C   UNL     1      20.084  28.378 -11.077  1.00  0.00    -0.004 A 
ATOM      6  C   UNL     1      19.137  27.344 -11.201  1.00  0.00     0.008 A 
ATOM      7  C   UNL     1      18.361  27.219 -12.355  1.00  0.00     0.004 A 
ENDROOT
BRANCH   4   8
ATOM      8  O   UNL     1      21.171  30.325 -12.074  1.00  0.00    -0.508 OA
ATOM      9  H   UNL     1      20.964  31.197 -11.603  1.00  0.00     0.293 HD
ENDBRANCH   4   8
BRANCH   5  10
ATOM     10  C   UNL     1      20.907  28.473  -9.799  1.00  0.00     0.017 C 
ATOM     11  C   UNL     1      22.361  28.038 -10.022  1.00  0.00     0.012 C 
ATOM     12  C   UNL     1      20.257  27.699  -8.645  1.00  0.00     0.012 C 
ENDBRANCH   5  10
TORSDOF 2
ENDMDL
