MODEL 1
REMARK VINA RESULT:    77.566      0.000      0.000
REMARK INTER + INTRA:         109.847
REMARK INTER:                 107.041
REMARK INTRA:                   2.807
REMARK UNBOUND:                 2.807
REMARK SMILES C=C(CC[C@@H](C(=O)[O-])[C@@H]1CC[C@@]2(C)C3=C(CC[C@@]12C)[C@]1(C)CC[C@H](O)C(C)(C)[C@H]1CC3)C(C)C
REMARK SMILES IDX 4 1 5 2 6 3 7 4 8 5 9 6 10 7 18 8 11 9 12 10 17 11 19 12
REMARK SMILES IDX 13 13 14 14 16 15 15 16 31 17 20 18 30 19 29 20 22 21 21 22
REMARK SMILES IDX 26 23 23 24 24 25 27 26 28 27 25 28 3 30 2 31 1 32 32 33
REMARK SMILES IDX 33 34 34 35
REMARK H PARENT 25 29
REMARK Flexibility Score: inf
ROOT
ATOM      1  C   UNL     1      20.820  15.089  28.392  1.00  0.00     0.014 C 
ENDROOT
BRANCH   1   2
ATOM      2  C   UNL     1      21.242  13.768  29.108  1.00  0.00     0.039 C 
BRANCH   2   3
ATOM      3  C   UNL     1      22.664  13.927  29.601  1.00  0.00     0.045 C 
ATOM      4  O   UNL     1      23.613  14.126  28.797  1.00  0.00    -0.550 OA
ATOM      5  O   UNL     1      22.937  13.812  30.958  1.00  0.00    -0.550 OA
ENDBRANCH   2   3
BRANCH   2   6
ATOM      6  C   UNL     1      20.286  13.214  30.237  1.00  0.00     0.004 C 
ATOM      7  C   UNL     1      19.528  11.954  29.754  1.00  0.00     0.006 C 
ATOM      8  C   UNL     1      19.164  14.156  30.852  1.00  0.00    -0.020 C 
ATOM      9  C   UNL     1      18.113  12.037  30.293  1.00  0.00     0.012 C 
ATOM     10  C   UNL     1      17.795  13.534  30.387  1.00  0.00    -0.006 C 
ATOM     11  C   UNL     1      19.264  14.043  32.395  1.00  0.00     0.012 C 
ATOM     12  C   UNL     1      19.276  15.661  30.471  1.00  0.00     0.012 C 
ATOM     13  C   UNL     1      17.409  14.044  28.963  1.00  0.00     0.017 C 
ATOM     14  C   UNL     1      16.596  13.752  31.356  1.00  0.00    -0.064 C 
ATOM     15  C   UNL     1      18.113  14.731  33.107  1.00  0.00     0.032 C 
ATOM     16  C   UNL     1      16.748  14.267  32.623  1.00  0.00    -0.064 C 
ATOM     17  C   UNL     1      15.257  13.143  30.914  1.00  0.00     0.032 C 
ATOM     18  C   UNL     1      15.504  14.660  33.468  1.00  0.00    -0.008 C 
ATOM     19  C   UNL     1      14.032  13.521  31.746  1.00  0.00     0.009 C 
ATOM     20  C   UNL     1      14.388  13.578  33.236  1.00  0.00     0.007 C 
ATOM     21  C   UNL     1      15.840  14.699  34.988  1.00  0.00     0.014 C 
ATOM     22  C   UNL     1      15.127  16.092  32.998  1.00  0.00     0.016 C 
ATOM     23  C   UNL     1      13.134  13.590  34.208  1.00  0.00    -0.006 C 
ATOM     24  C   UNL     1      14.609  14.868  35.884  1.00  0.00     0.033 C 
ATOM     25  C   UNL     1      13.613  13.715  35.689  1.00  0.00     0.120 C 
ATOM     26  C   UNL     1      12.361  12.246  34.073  1.00  0.00     0.014 C 
ATOM     27  C   UNL     1      12.103  14.711  33.896  1.00  0.00     0.014 C 
BRANCH  25  28
ATOM     28  O   UNL     1      14.212  12.512  36.112  1.00  0.00    -0.393 OA
ATOM     29  H   UNL     1      14.245  11.909  35.323  1.00  0.00     0.210 HD
ENDBRANCH  25  28
ENDBRANCH   2   6
ENDBRANCH   1   2
BRANCH   1  30
ATOM     30  C   UNL     1      19.349  15.227  27.950  1.00  0.00     0.031 C 
BRANCH  30  31
ATOM     31  C   UNL     1      19.126  16.253  26.847  1.00  0.00    -0.075 C 
ATOM     32  C   UNL     1      20.110  17.124  26.561  1.00  0.00     0.008 C 
BRANCH  31  33
ATOM     33  C   UNL     1      17.802  16.382  26.093  1.00  0.00     0.008 C 
ATOM     34  C   UNL     1      17.062  17.663  26.496  1.00  0.00     0.012 C 
ATOM     35  C   UNL     1      17.941  16.297  24.566  1.00  0.00     0.012 C 
ENDBRANCH  31  33
ENDBRANCH  30  31
ENDBRANCH   1  30
TORSDOF 7
ENDMDL
