MODEL 1
REMARK VINA RESULT:    -4.160      0.000      0.000
REMARK INTER + INTRA:          -6.513
REMARK INTER:                  -6.106
REMARK INTRA:                  -0.408
REMARK UNBOUND:                -0.408
REMARK SMILES O=C([O-])CCCCCCCC(=O)[O-]
REMARK SMILES IDX 7 1 6 2 5 3 4 4 2 5 1 6 3 7 8 8 9 9 10 10 11 11 12 12 13 13
REMARK H PARENT
REMARK Flexibility Score: inf
ROOT
ATOM      1  C   UNL     1     -26.383 -22.113 -28.809  1.00  0.00     0.000 C 
ENDROOT
BRANCH   1   2
ATOM      2  C   UNL     1     -27.177 -20.962 -29.446  1.00  0.00     0.000 C 
BRANCH   2   3
ATOM      3  C   UNL     1     -28.035 -20.192 -28.426  1.00  0.00     0.006 C 
BRANCH   3   4
ATOM      4  C   UNL     1     -27.661 -20.454 -26.958  1.00  0.00     0.053 C 
BRANCH   4   5
ATOM      5  C   UNL     1     -28.410 -19.560 -26.018  1.00  0.00     0.041 C 
ATOM      6  O   UNL     1     -29.593 -19.216 -26.279  1.00  0.00    -0.550 OA
ATOM      7  O   UNL     1     -27.813 -19.134 -24.838  1.00  0.00    -0.550 OA
ENDBRANCH   4   5
ENDBRANCH   3   4
ENDBRANCH   2   3
ENDBRANCH   1   2
BRANCH   1   8
ATOM      8  C   UNL     1     -25.288 -22.615 -29.757  1.00  0.00     0.000 C 
BRANCH   8   9
ATOM      9  C   UNL     1     -23.947 -22.752 -29.026  1.00  0.00     0.006 C 
BRANCH   9  10
ATOM     10  C   UNL     1     -24.146 -22.736 -27.508  1.00  0.00     0.053 C 
BRANCH  10  11
ATOM     11  C   UNL     1     -22.829 -22.844 -26.806  1.00  0.00     0.041 C 
ATOM     12  O   UNL     1     -22.664 -23.698 -25.895  1.00  0.00    -0.550 OA
ATOM     13  O   UNL     1     -21.798 -21.969 -27.124  1.00  0.00    -0.550 OA
ENDBRANCH  10  11
ENDBRANCH   9  10
ENDBRANCH   8   9
ENDBRANCH   1   8
TORSDOF 8
ENDMDL
MODEL 2
REMARK VINA RESULT:    -4.068      0.762      5.614
REMARK INTER + INTRA:          -6.378
REMARK INTER:                  -5.848
REMARK INTRA:                  -0.529
REMARK UNBOUND:                -0.408
REMARK SMILES O=C([O-])CCCCCCCC(=O)[O-]
REMARK SMILES IDX 7 1 6 2 5 3 4 4 2 5 1 6 3 7 8 8 9 9 10 10 11 11 12 12 13 13
REMARK H PARENT
REMARK Flexibility Score: inf
ROOT
ATOM      1  C   UNL     1     -26.053 -20.876 -29.269  1.00  0.00     0.000 C 
ENDROOT
BRANCH   1   2
ATOM      2  C   UNL     1     -25.367 -22.111 -29.871  1.00  0.00     0.000 C 
BRANCH   2   3
ATOM      3  C   UNL     1     -24.828 -23.077 -28.801  1.00  0.00     0.006 C 
BRANCH   3   4
ATOM      4  C   UNL     1     -24.297 -22.385 -27.535  1.00  0.00     0.053 C 
BRANCH   4   5
ATOM      5  C   UNL     1     -22.802 -22.282 -27.536  1.00  0.00     0.041 C 
ATOM      6  O   UNL     1     -22.225 -21.448 -28.283  1.00  0.00    -0.550 OA
ATOM      7  O   UNL     1     -22.049 -23.084 -26.687  1.00  0.00    -0.550 OA
ENDBRANCH   4   5
ENDBRANCH   3   4
ENDBRANCH   2   3
ENDBRANCH   1   2
BRANCH   1   8
ATOM      8  C   UNL     1     -27.576 -20.960 -29.433  1.00  0.00     0.000 C 
BRANCH   8   9
ATOM      9  C   UNL     1     -28.290 -20.099 -28.385  1.00  0.00     0.006 C 
BRANCH   9  10
ATOM     10  C   UNL     1     -27.572 -20.168 -27.034  1.00  0.00     0.053 C 
BRANCH  10  11
ATOM     11  C   UNL     1     -28.457 -19.655 -25.943  1.00  0.00     0.041 C 
ATOM     12  O   UNL     1     -29.708 -19.666 -26.083  1.00  0.00    -0.550 OA
ATOM     13  O   UNL     1     -27.899 -19.119 -24.789  1.00  0.00    -0.550 OA
ENDBRANCH  10  11
ENDBRANCH   9  10
ENDBRANCH   8   9
ENDBRANCH   1   8
TORSDOF 8
ENDMDL
MODEL 3
REMARK VINA RESULT:    -3.982     12.807     14.648
REMARK INTER + INTRA:          -6.252
REMARK INTER:                  -5.503
REMARK INTRA:                  -0.749
REMARK UNBOUND:                -0.408
REMARK SMILES O=C([O-])CCCCCCCC(=O)[O-]
REMARK SMILES IDX 7 1 6 2 5 3 4 4 2 5 1 6 3 7 8 8 9 9 10 10 11 11 12 12 13 13
REMARK H PARENT
REMARK Flexibility Score: inf
ROOT
ATOM      1  C   UNL     1     -22.125 -13.045 -19.310  1.00  0.00     0.000 C 
ENDROOT
BRANCH   1   2
ATOM      2  C   UNL     1     -20.904 -12.220 -18.875  1.00  0.00     0.000 C 
BRANCH   2   3
ATOM      3  C   UNL     1     -19.585 -13.007 -18.976  1.00  0.00     0.006 C 
BRANCH   3   4
ATOM      4  C   UNL     1     -19.087 -13.580 -17.639  1.00  0.00     0.053 C 
BRANCH   4   5
ATOM      5  C   UNL     1     -19.129 -15.078 -17.619  1.00  0.00     0.041 C 
ATOM      6  O   UNL     1     -20.177 -15.677 -17.263  1.00  0.00    -0.550 OA
ATOM      7  O   UNL     1     -18.021 -15.810 -18.027  1.00  0.00    -0.550 OA
ENDBRANCH   4   5
ENDBRANCH   3   4
ENDBRANCH   2   3
ENDBRANCH   1   2
BRANCH   1   8
ATOM      8  C   UNL     1     -22.894 -13.572 -18.092  1.00  0.00     0.000 C 
BRANCH   8   9
ATOM      9  C   UNL     1     -22.718 -12.644 -16.885  1.00  0.00     0.006 C 
BRANCH   9  10
ATOM     10  C   UNL     1     -22.407 -13.445 -15.617  1.00  0.00     0.053 C 
BRANCH  10  11
ATOM     11  C   UNL     1     -23.559 -13.386 -14.665  1.00  0.00     0.041 C 
ATOM     12  O   UNL     1     -24.117 -12.286 -14.411  1.00  0.00    -0.550 OA
ATOM     13  O   UNL     1     -23.986 -14.539 -14.018  1.00  0.00    -0.550 OA
ENDBRANCH  10  11
ENDBRANCH   9  10
ENDBRANCH   8   9
ENDBRANCH   1   8
TORSDOF 8
ENDMDL
MODEL 4
REMARK VINA RESULT:    -3.968     12.419     13.954
REMARK INTER + INTRA:          -6.232
REMARK INTER:                  -5.781
REMARK INTRA:                  -0.451
REMARK UNBOUND:                -0.408
REMARK SMILES O=C([O-])CCCCCCCC(=O)[O-]
REMARK SMILES IDX 7 1 6 2 5 3 4 4 2 5 1 6 3 7 8 8 9 9 10 10 11 11 12 12 13 13
REMARK H PARENT
REMARK Flexibility Score: inf
ROOT
ATOM      1  C   UNL     1     -22.921 -13.057 -17.542  1.00  0.00     0.000 C 
ENDROOT
BRANCH   1   2
ATOM      2  C   UNL     1     -22.003 -13.615 -16.443  1.00  0.00     0.000 C 
BRANCH   2   3
ATOM      3  C   UNL     1     -22.527 -13.330 -15.025  1.00  0.00     0.006 C 
BRANCH   3   4
ATOM      4  C   UNL     1     -23.563 -14.346 -14.518  1.00  0.00     0.053 C 
BRANCH   4   5
ATOM      5  C   UNL     1     -24.799 -13.677 -13.998  1.00  0.00     0.041 C 
ATOM      6  O   UNL     1     -24.757 -12.477 -13.619  1.00  0.00    -0.550 OA
ATOM      7  O   UNL     1     -26.003 -14.369 -13.963  1.00  0.00    -0.550 OA
ENDBRANCH   4   5
ENDBRANCH   3   4
ENDBRANCH   2   3
ENDBRANCH   1   2
BRANCH   1   8
ATOM      8  C   UNL     1     -22.819 -13.897 -18.821  1.00  0.00     0.000 C 
BRANCH   8   9
ATOM      9  C   UNL     1     -22.500 -13.015 -20.034  1.00  0.00     0.006 C 
BRANCH   9  10
ATOM     10  C   UNL     1     -21.376 -12.025 -19.713  1.00  0.00     0.053 C 
BRANCH  10  11
ATOM     11  C   UNL     1     -20.044 -12.703 -19.782  1.00  0.00     0.041 C 
ATOM     12  O   UNL     1     -19.615 -13.147 -20.879  1.00  0.00    -0.550 OA
ATOM     13  O   UNL     1     -19.298 -12.889 -18.625  1.00  0.00    -0.550 OA
ENDBRANCH  10  11
ENDBRANCH   9  10
ENDBRANCH   8   9
ENDBRANCH   1   8
TORSDOF 8
ENDMDL
MODEL 5
REMARK VINA RESULT:    -3.950     13.119     13.969
REMARK INTER + INTRA:          -6.206
REMARK INTER:                  -5.691
REMARK INTRA:                  -0.515
REMARK UNBOUND:                -0.408
REMARK SMILES O=C([O-])CCCCCCCC(=O)[O-]
REMARK SMILES IDX 7 1 6 2 5 3 4 4 2 5 1 6 3 7 8 8 9 9 10 10 11 11 12 12 13 13
REMARK H PARENT
REMARK Flexibility Score: inf
ROOT
ATOM      1  C   UNL     1     -22.062 -12.238 -18.365  1.00  0.00     0.000 C 
ENDROOT
BRANCH   1   2
ATOM      2  C   UNL     1     -22.943 -12.553 -17.146  1.00  0.00     0.000 C 
BRANCH   2   3
ATOM      3  C   UNL     1     -22.334 -13.630 -16.231  1.00  0.00     0.006 C 
BRANCH   3   4
ATOM      4  C   UNL     1     -22.692 -13.473 -14.744  1.00  0.00     0.053 C 
BRANCH   4   5
ATOM      5  C   UNL     1     -24.099 -13.899 -14.456  1.00  0.00     0.041 C 
ATOM      6  O   UNL     1     -24.510 -15.026 -14.838  1.00  0.00    -0.550 OA
ATOM      7  O   UNL     1     -24.945 -13.063 -13.738  1.00  0.00    -0.550 OA
ENDBRANCH   4   5
ENDBRANCH   3   4
ENDBRANCH   2   3
ENDBRANCH   1   2
BRANCH   1   8
ATOM      8  C   UNL     1     -21.163 -13.430 -18.715  1.00  0.00     0.000 C 
BRANCH   8   9
ATOM      9  C   UNL     1     -19.692 -13.007 -18.790  1.00  0.00     0.006 C 
BRANCH   9  10
ATOM     10  C   UNL     1     -18.895 -13.576 -17.612  1.00  0.00     0.053 C 
BRANCH  10  11
ATOM     11  C   UNL     1     -18.559 -15.014 -17.852  1.00  0.00     0.041 C 
ATOM     12  O   UNL     1     -17.597 -15.323 -18.603  1.00  0.00    -0.550 OA
ATOM     13  O   UNL     1     -19.340 -16.014 -17.286  1.00  0.00    -0.550 OA
ENDBRANCH  10  11
ENDBRANCH   9  10
ENDBRANCH   8   9
ENDBRANCH   1   8
TORSDOF 8
ENDMDL
MODEL 6
REMARK VINA RESULT:    -3.944     13.702     14.827
REMARK INTER + INTRA:          -6.196
REMARK INTER:                  -5.700
REMARK INTRA:                  -0.497
REMARK UNBOUND:                -0.408
REMARK SMILES O=C([O-])CCCCCCCC(=O)[O-]
REMARK SMILES IDX 7 1 6 2 5 3 4 4 2 5 1 6 3 7 8 8 9 9 10 10 11 11 12 12 13 13
REMARK H PARENT
REMARK Flexibility Score: inf
ROOT
ATOM      1  C   UNL     1     -22.940 -13.028 -15.012  1.00  0.00     0.000 C 
ENDROOT
BRANCH   1   2
ATOM      2  C   UNL     1     -23.033 -12.218 -16.313  1.00  0.00     0.000 C 
BRANCH   2   3
ATOM      3  C   UNL     1     -22.368 -12.926 -17.507  1.00  0.00     0.006 C 
BRANCH   3   4
ATOM      4  C   UNL     1     -21.148 -13.785 -17.133  1.00  0.00     0.053 C 
BRANCH   4   5
ATOM      5  C   UNL     1     -19.937 -13.420 -17.935  1.00  0.00     0.041 C 
ATOM      6  O   UNL     1     -20.029 -12.600 -18.886  1.00  0.00    -0.550 OA
ATOM      7  O   UNL     1     -18.699 -13.961 -17.609  1.00  0.00    -0.550 OA
ENDBRANCH   4   5
ENDBRANCH   3   4
ENDBRANCH   2   3
ENDBRANCH   1   2
BRANCH   1   8
ATOM      8  C   UNL     1     -24.298 -13.083 -14.301  1.00  0.00     0.000 C 
BRANCH   8   9
ATOM      9  C   UNL     1     -24.715 -14.531 -14.021  1.00  0.00     0.006 C 
BRANCH   9  10
ATOM     10  C   UNL     1     -23.780 -15.518 -14.727  1.00  0.00     0.053 C 
BRANCH  10  11
ATOM     11  C   UNL     1     -24.243 -16.925 -14.511  1.00  0.00     0.041 C 
ATOM     12  O   UNL     1     -25.448 -17.233 -14.709  1.00  0.00    -0.550 OA
ATOM     13  O   UNL     1     -23.355 -17.884 -14.043  1.00  0.00    -0.550 OA
ENDBRANCH  10  11
ENDBRANCH   9  10
ENDBRANCH   8   9
ENDBRANCH   1   8
TORSDOF 8
ENDMDL
MODEL 7
REMARK VINA RESULT:    -3.875     12.507     14.786
REMARK INTER + INTRA:          -6.095
REMARK INTER:                  -5.803
REMARK INTRA:                  -0.292
REMARK UNBOUND:                -0.408
REMARK SMILES O=C([O-])CCCCCCCC(=O)[O-]
REMARK SMILES IDX 7 1 6 2 5 3 4 4 2 5 1 6 3 7 8 8 9 9 10 10 11 11 12 12 13 13
REMARK H PARENT
REMARK Flexibility Score: inf
ROOT
ATOM      1  C   UNL     1     -23.035 -13.124 -15.091  1.00  0.00     0.000 C 
ENDROOT
BRANCH   1   2
ATOM      2  C   UNL     1     -23.004 -12.294 -16.383  1.00  0.00     0.000 C 
BRANCH   2   3
ATOM      3  C   UNL     1     -22.157 -12.944 -17.491  1.00  0.00     0.006 C 
BRANCH   3   4
ATOM      4  C   UNL     1     -21.616 -11.955 -18.537  1.00  0.00     0.053 C 
BRANCH   4   5
ATOM      5  C   UNL     1     -21.884 -12.416 -19.937  1.00  0.00     0.041 C 
ATOM      6  O   UNL     1     -22.780 -13.271 -20.163  1.00  0.00    -0.550 OA
ATOM      7  O   UNL     1     -21.165 -11.875 -20.997  1.00  0.00    -0.550 OA
ENDBRANCH   4   5
ENDBRANCH   3   4
ENDBRANCH   2   3
ENDBRANCH   1   2
BRANCH   1   8
ATOM      8  C   UNL     1     -24.208 -12.703 -14.196  1.00  0.00     0.000 C 
BRANCH   8   9
ATOM      9  C   UNL     1     -25.192 -13.862 -13.998  1.00  0.00     0.006 C 
BRANCH   9  10
ATOM     10  C   UNL     1     -24.534 -15.204 -14.330  1.00  0.00     0.053 C 
BRANCH  10  11
ATOM     11  C   UNL     1     -25.215 -16.317 -13.596  1.00  0.00     0.041 C 
ATOM     12  O   UNL     1     -26.340 -16.129 -13.062  1.00  0.00    -0.550 OA
ATOM     13  O   UNL     1     -24.585 -17.547 -13.459  1.00  0.00    -0.550 OA
ENDBRANCH  10  11
ENDBRANCH   9  10
ENDBRANCH   8   9
ENDBRANCH   1   8
TORSDOF 8
ENDMDL
MODEL 8
REMARK VINA RESULT:    -3.856     13.532     14.503
REMARK INTER + INTRA:          -6.067
REMARK INTER:                  -5.696
REMARK INTRA:                  -0.371
REMARK UNBOUND:                -0.408
REMARK SMILES O=C([O-])CCCCCCCC(=O)[O-]
REMARK SMILES IDX 7 1 6 2 5 3 4 4 2 5 1 6 3 7 8 8 9 9 10 10 11 11 12 12 13 13
REMARK H PARENT
REMARK Flexibility Score: inf
ROOT
ATOM      1  C   UNL     1     -23.035 -12.998 -15.392  1.00  0.00     0.000 C 
ENDROOT
BRANCH   1   2
ATOM      2  C   UNL     1     -24.084 -12.606 -14.341  1.00  0.00     0.000 C 
BRANCH   2   3
ATOM      3  C   UNL     1     -25.034 -13.764 -13.986  1.00  0.00     0.006 C 
BRANCH   3   4
ATOM      4  C   UNL     1     -24.578 -15.138 -14.502  1.00  0.00     0.053 C 
BRANCH   4   5
ATOM      5  C   UNL     1     -25.440 -16.248 -13.983  1.00  0.00     0.041 C 
ATOM      6  O   UNL     1     -26.002 -16.143 -12.862  1.00  0.00    -0.550 OA
ATOM      7  O   UNL     1     -25.649 -17.385 -14.755  1.00  0.00    -0.550 OA
ENDBRANCH   4   5
ENDBRANCH   3   4
ENDBRANCH   2   3
ENDBRANCH   1   2
BRANCH   1   8
ATOM      8  C   UNL     1     -23.021 -11.996 -16.554  1.00  0.00     0.000 C 
BRANCH   8   9
ATOM      9  C   UNL     1     -22.405 -12.620 -17.811  1.00  0.00     0.006 C 
BRANCH   9  10
ATOM     10  C   UNL     1     -21.350 -13.668 -17.445  1.00  0.00     0.053 C 
BRANCH  10  11
ATOM     11  C   UNL     1     -20.055 -13.371 -18.133  1.00  0.00     0.041 C 
ATOM     12  O   UNL     1     -20.044 -13.034 -19.346  1.00  0.00    -0.550 OA
ATOM     13  O   UNL     1     -18.856 -13.515 -17.448  1.00  0.00    -0.550 OA
ENDBRANCH  10  11
ENDBRANCH   9  10
ENDBRANCH   8   9
ENDBRANCH   1   8
TORSDOF 8
ENDMDL
MODEL 9
REMARK VINA RESULT:    -3.810     12.635     14.533
REMARK INTER + INTRA:          -5.999
REMARK INTER:                  -5.576
REMARK INTRA:                  -0.423
REMARK UNBOUND:                -0.408
REMARK SMILES O=C([O-])CCCCCCCC(=O)[O-]
REMARK SMILES IDX 7 1 6 2 5 3 4 4 2 5 1 6 3 7 8 8 9 9 10 10 11 11 12 12 13 13
REMARK H PARENT
REMARK Flexibility Score: inf
ROOT
ATOM      1  C   UNL     1     -22.532 -13.491 -16.827  1.00  0.00     0.000 C 
ENDROOT
BRANCH   1   2
ATOM      2  C   UNL     1     -22.713 -13.297 -18.340  1.00  0.00     0.000 C 
BRANCH   2   3
ATOM      3  C   UNL     1     -22.306 -11.891 -18.816  1.00  0.00     0.006 C 
BRANCH   3   4
ATOM      4  C   UNL     1     -21.398 -11.882 -20.056  1.00  0.00     0.053 C 
BRANCH   4   5
ATOM      5  C   UNL     1     -20.302 -12.897 -19.958  1.00  0.00     0.041 C 
ATOM      6  O   UNL     1     -20.232 -13.838 -20.793  1.00  0.00    -0.550 OA
ATOM      7  O   UNL     1     -19.337 -12.786 -18.965  1.00  0.00    -0.550 OA
ENDBRANCH   4   5
ENDBRANCH   3   4
ENDBRANCH   2   3
ENDBRANCH   1   2
BRANCH   1   8
ATOM      8  C   UNL     1     -23.000 -12.253 -16.054  1.00  0.00     0.000 C 
BRANCH   8   9
ATOM      9  C   UNL     1     -23.726 -12.650 -14.764  1.00  0.00     0.006 C 
BRANCH   9  10
ATOM     10  C   UNL     1     -23.495 -14.129 -14.437  1.00  0.00     0.053 C 
BRANCH  10  11
ATOM     11  C   UNL     1     -24.801 -14.852 -14.330  1.00  0.00     0.041 C 
ATOM     12  O   UNL     1     -25.842 -14.233 -13.987  1.00  0.00    -0.550 OA
ATOM     13  O   UNL     1     -24.858 -16.220 -14.562  1.00  0.00    -0.550 OA
ENDBRANCH  10  11
ENDBRANCH   9  10
ENDBRANCH   8   9
ENDBRANCH   1   8
TORSDOF 8
ENDMDL
