MODEL 1
REMARK VINA RESULT:    -5.004      0.000      0.000
REMARK INTER + INTRA:          -5.390
REMARK INTER:                  -5.297
REMARK INTRA:                  -0.093
REMARK UNBOUND:                -0.093
REMARK SMILES C=C(C)[C@@H]1CC=C(C)C(=O)C1
REMARK SMILES IDX 8 1 7 2 6 3 5 4 4 5 11 6 9 7 10 8 2 9 1 10 3 11
REMARK H PARENT
REMARK Flexibility Score: inf
ROOT
ATOM      1  C   UNL     1     -30.409  19.614 -33.741  1.00  0.00     0.048 C 
ATOM      2  C   UNL     1     -28.947  19.945 -33.608  1.00  0.00    -0.012 C 
ATOM      3  C   UNL     1     -28.439  21.006 -34.257  1.00  0.00    -0.019 C 
ATOM      4  C   UNL     1     -26.988  21.392 -34.144  1.00  0.00     0.036 C 
ATOM      5  C   UNL     1     -26.097  20.149 -33.957  1.00  0.00     0.025 C 
ATOM      6  C   UNL     1     -26.578  19.323 -32.749  1.00  0.00     0.089 C 
ATOM      7  C   UNL     1     -28.048  19.029 -32.861  1.00  0.00     0.158 C 
ATOM      8  O   UNL     1     -28.517  18.013 -32.281  1.00  0.00    -0.295 OA
ENDROOT
BRANCH   5   9
ATOM      9  C   UNL     1     -24.627  20.527 -33.831  1.00  0.00    -0.077 C 
ATOM     10  C   UNL     1     -24.209  21.417 -32.915  1.00  0.00     0.008 C 
ATOM     11  C   UNL     1     -23.605  19.898 -34.744  1.00  0.00     0.039 C 
ENDBRANCH   5   9
TORSDOF 1
ENDMDL
MODEL 2
REMARK VINA RESULT:    -4.953     11.727     13.757
REMARK INTER + INTRA:          -5.335
REMARK INTER:                  -5.243
REMARK INTRA:                  -0.092
REMARK UNBOUND:                -0.093
REMARK SMILES C=C(C)[C@@H]1CC=C(C)C(=O)C1
REMARK SMILES IDX 8 1 7 2 6 3 5 4 4 5 11 6 9 7 10 8 2 9 1 10 3 11
REMARK H PARENT
REMARK Flexibility Score: inf
ROOT
ATOM      1  C   UNL     1     -18.050  13.433 -30.686  1.00  0.00     0.048 C 
ATOM      2  C   UNL     1     -16.587  13.756 -30.828  1.00  0.00    -0.012 C 
ATOM      3  C   UNL     1     -15.711  13.309 -29.913  1.00  0.00    -0.019 C 
ATOM      4  C   UNL     1     -14.235  13.588 -30.017  1.00  0.00     0.036 C 
ATOM      5  C   UNL     1     -13.975  14.956 -30.676  1.00  0.00     0.025 C 
ATOM      6  C   UNL     1     -14.681  15.034 -32.042  1.00  0.00     0.089 C 
ATOM      7  C   UNL     1     -16.134  14.669 -31.908  1.00  0.00     0.158 C 
ATOM      8  O   UNL     1     -16.960  15.119 -32.746  1.00  0.00    -0.295 OA
ENDROOT
BRANCH   5   9
ATOM      9  C   UNL     1     -12.484  15.246 -30.797  1.00  0.00    -0.077 C 
ATOM     10  C   UNL     1     -11.704  15.366 -29.709  1.00  0.00     0.008 C 
ATOM     11  C   UNL     1     -11.853  15.403 -32.157  1.00  0.00     0.039 C 
ENDBRANCH   5   9
TORSDOF 1
ENDMDL
MODEL 3
REMARK VINA RESULT:    -4.827      6.537      8.594
REMARK INTER + INTRA:          -5.203
REMARK INTER:                  -5.110
REMARK INTRA:                  -0.093
REMARK UNBOUND:                -0.093
REMARK SMILES C=C(C)[C@@H]1CC=C(C)C(=O)C1
REMARK SMILES IDX 8 1 7 2 6 3 5 4 4 5 11 6 9 7 10 8 2 9 1 10 3 11
REMARK H PARENT
REMARK Flexibility Score: inf
ROOT
ATOM      1  C   UNL     1     -22.548  14.933 -30.500  1.00  0.00     0.048 C 
ATOM      2  C   UNL     1     -23.912  14.404 -30.148  1.00  0.00    -0.012 C 
ATOM      3  C   UNL     1     -24.046  13.147 -29.691  1.00  0.00    -0.019 C 
ATOM      4  C   UNL     1     -25.384  12.575 -29.307  1.00  0.00     0.036 C 
ATOM      5  C   UNL     1     -26.510  13.163 -30.180  1.00  0.00     0.025 C 
ATOM      6  C   UNL     1     -26.491  14.702 -30.111  1.00  0.00     0.089 C 
ATOM      7  C   UNL     1     -25.117  15.228 -30.420  1.00  0.00     0.158 C 
ATOM      8  O   UNL     1     -24.995  16.395 -30.882  1.00  0.00    -0.295 OA
ENDROOT
BRANCH   5   9
ATOM      9  C   UNL     1     -27.871  12.600 -29.795  1.00  0.00    -0.077 C 
ATOM     10  C   UNL     1     -28.430  12.872 -28.603  1.00  0.00     0.008 C 
ATOM     11  C   UNL     1     -28.624  11.718 -30.758  1.00  0.00     0.039 C 
ENDBRANCH   5   9
TORSDOF 1
ENDMDL
MODEL 4
REMARK VINA RESULT:    -4.755     12.474     13.980
REMARK INTER + INTRA:          -5.126
REMARK INTER:                  -5.030
REMARK INTRA:                  -0.096
REMARK UNBOUND:                -0.093
REMARK SMILES C=C(C)[C@@H]1CC=C(C)C(=O)C1
REMARK SMILES IDX 8 1 7 2 6 3 5 4 4 5 11 6 9 7 10 8 2 9 1 10 3 11
REMARK H PARENT
REMARK Flexibility Score: inf
ROOT
ATOM      1  C   UNL     1     -12.357  14.660 -32.940  1.00  0.00     0.048 C 
ATOM      2  C   UNL     1     -13.628  14.508 -32.149  1.00  0.00    -0.012 C 
ATOM      3  C   UNL     1     -13.590  14.553 -30.807  1.00  0.00    -0.019 C 
ATOM      4  C   UNL     1     -14.834  14.425 -29.968  1.00  0.00     0.036 C 
ATOM      5  C   UNL     1     -15.865  13.501 -30.643  1.00  0.00     0.025 C 
ATOM      6  C   UNL     1     -16.171  13.993 -32.070  1.00  0.00     0.089 C 
ATOM      7  C   UNL     1     -14.898  14.186 -32.847  1.00  0.00     0.158 C 
ATOM      8  O   UNL     1     -14.928  14.108 -34.105  1.00  0.00    -0.295 OA
ENDROOT
BRANCH   5   9
ATOM      9  C   UNL     1     -17.133  13.370 -29.810  1.00  0.00    -0.077 C 
ATOM     10  C   UNL     1     -17.326  14.115 -28.707  1.00  0.00     0.008 C 
ATOM     11  C   UNL     1     -18.205  12.392 -30.214  1.00  0.00     0.039 C 
ENDBRANCH   5   9
TORSDOF 1
ENDMDL
MODEL 5
REMARK VINA RESULT:    -4.733     11.787     13.344
REMARK INTER + INTRA:          -5.103
REMARK INTER:                  -5.006
REMARK INTRA:                  -0.097
REMARK UNBOUND:                -0.093
REMARK SMILES C=C(C)[C@@H]1CC=C(C)C(=O)C1
REMARK SMILES IDX 8 1 7 2 6 3 5 4 4 5 11 6 9 7 10 8 2 9 1 10 3 11
REMARK H PARENT
REMARK Flexibility Score: inf
ROOT
ATOM      1  C   UNL     1     -14.157  15.663 -31.727  1.00  0.00     0.048 C 
ATOM      2  C   UNL     1     -15.199  14.858 -30.999  1.00  0.00    -0.012 C 
ATOM      3  C   UNL     1     -14.893  14.267 -29.832  1.00  0.00    -0.019 C 
ATOM      4  C   UNL     1     -15.902  13.465 -29.053  1.00  0.00     0.036 C 
ATOM      5  C   UNL     1     -16.896  12.760 -29.996  1.00  0.00     0.025 C 
ATOM      6  C   UNL     1     -17.561  13.784 -30.934  1.00  0.00     0.089 C 
ATOM      7  C   UNL     1     -16.521  14.618 -31.630  1.00  0.00     0.158 C 
ATOM      8  O   UNL     1     -16.798  15.143 -32.742  1.00  0.00    -0.295 OA
ENDROOT
BRANCH   5   9
ATOM      9  C   UNL     1     -17.929  11.954 -29.220  1.00  0.00    -0.077 C 
ATOM     10  C   UNL     1     -19.246  12.171 -29.374  1.00  0.00     0.008 C 
ATOM     11  C   UNL     1     -17.484  10.884 -28.256  1.00  0.00     0.039 C 
ENDBRANCH   5   9
TORSDOF 1
ENDMDL
MODEL 6
REMARK VINA RESULT:    -4.723      1.260      4.520
REMARK INTER + INTRA:          -5.093
REMARK INTER:                  -4.998
REMARK INTRA:                  -0.095
REMARK UNBOUND:                -0.093
REMARK SMILES C=C(C)[C@@H]1CC=C(C)C(=O)C1
REMARK SMILES IDX 8 1 7 2 6 3 5 4 4 5 11 6 9 7 10 8 2 9 1 10 3 11
REMARK H PARENT
REMARK Flexibility Score: inf
ROOT
ATOM      1  C   UNL     1     -24.775  20.770 -33.779  1.00  0.00     0.048 C 
ATOM      2  C   UNL     1     -26.205  20.317 -33.655  1.00  0.00    -0.012 C 
ATOM      3  C   UNL     1     -27.169  20.949 -34.344  1.00  0.00    -0.019 C 
ATOM      4  C   UNL     1     -28.612  20.526 -34.271  1.00  0.00     0.036 C 
ATOM      5  C   UNL     1     -28.954  19.961 -32.879  1.00  0.00     0.025 C 
ATOM      6  C   UNL     1     -27.990  18.816 -32.515  1.00  0.00     0.089 C 
ATOM      7  C   UNL     1     -26.562  19.255 -32.681  1.00  0.00     0.158 C 
ATOM      8  O   UNL     1     -25.662  18.685 -32.007  1.00  0.00    -0.295 OA
ENDROOT
BRANCH   5   9
ATOM      9  C   UNL     1     -30.409  19.519 -32.794  1.00  0.00    -0.077 C 
ATOM     10  C   UNL     1     -31.089  19.136 -33.888  1.00  0.00     0.008 C 
ATOM     11  C   UNL     1     -31.117  19.504 -31.464  1.00  0.00     0.039 C 
ENDBRANCH   5   9
TORSDOF 1
ENDMDL
MODEL 7
REMARK VINA RESULT:    -4.559     12.086     13.887
REMARK INTER + INTRA:          -4.919
REMARK INTER:                  -4.821
REMARK INTRA:                  -0.098
REMARK UNBOUND:                -0.093
REMARK SMILES C=C(C)[C@@H]1CC=C(C)C(=O)C1
REMARK SMILES IDX 8 1 7 2 6 3 5 4 4 5 11 6 9 7 10 8 2 9 1 10 3 11
REMARK H PARENT
REMARK Flexibility Score: inf
ROOT
ATOM      1  C   UNL     1     -13.719  14.764 -32.672  1.00  0.00     0.048 C 
ATOM      2  C   UNL     1     -14.811  14.028 -31.944  1.00  0.00    -0.012 C 
ATOM      3  C   UNL     1     -16.069  14.500 -31.970  1.00  0.00    -0.019 C 
ATOM      4  C   UNL     1     -17.202  13.793 -31.275  1.00  0.00     0.036 C 
ATOM      5  C   UNL     1     -16.711  13.080 -30.001  1.00  0.00     0.025 C 
ATOM      6  C   UNL     1     -15.547  12.129 -30.335  1.00  0.00     0.089 C 
ATOM      7  C   UNL     1     -14.475  12.854 -31.100  1.00  0.00     0.158 C 
ATOM      8  O   UNL     1     -13.288  12.431 -31.046  1.00  0.00    -0.295 OA
ENDROOT
BRANCH   5   9
ATOM      9  C   UNL     1     -17.846  12.353 -29.292  1.00  0.00    -0.077 C 
ATOM     10  C   UNL     1     -17.605  11.365 -28.414  1.00  0.00     0.008 C 
ATOM     11  C   UNL     1     -19.278  12.736 -29.569  1.00  0.00     0.039 C 
ENDBRANCH   5   9
TORSDOF 1
ENDMDL
MODEL 8
REMARK VINA RESULT:    -4.546      8.027      8.944
REMARK INTER + INTRA:          -4.905
REMARK INTER:                  -4.817
REMARK INTRA:                  -0.088
REMARK UNBOUND:                -0.093
REMARK SMILES C=C(C)[C@@H]1CC=C(C)C(=O)C1
REMARK SMILES IDX 8 1 7 2 6 3 5 4 4 5 11 6 9 7 10 8 2 9 1 10 3 11
REMARK H PARENT
REMARK Flexibility Score: inf
ROOT
ATOM      1  C   UNL     1     -30.399  10.875 -31.296  1.00  0.00     0.048 C 
ATOM      2  C   UNL     1     -29.045  11.415 -30.921  1.00  0.00    -0.012 C 
ATOM      3  C   UNL     1     -28.003  11.244 -31.753  1.00  0.00    -0.019 C 
ATOM      4  C   UNL     1     -26.632  11.780 -31.436  1.00  0.00     0.036 C 
ATOM      5  C   UNL     1     -26.371  11.769 -29.917  1.00  0.00     0.025 C 
ATOM      6  C   UNL     1     -27.483  12.536 -29.177  1.00  0.00     0.089 C 
ATOM      7  C   UNL     1     -28.837  12.025 -29.584  1.00  0.00     0.158 C 
ATOM      8  O   UNL     1     -29.807  12.154 -28.788  1.00  0.00    -0.295 OA
ENDROOT
BRANCH   5   9
ATOM      9  C   UNL     1     -24.990  12.318 -29.582  1.00  0.00    -0.077 C 
ATOM     10  C   UNL     1     -24.020  11.525 -29.097  1.00  0.00     0.008 C 
ATOM     11  C   UNL     1     -24.687  13.780 -29.793  1.00  0.00     0.039 C 
ENDBRANCH   5   9
TORSDOF 1
ENDMDL
MODEL 9
REMARK VINA RESULT:    -4.468     12.522     13.559
REMARK INTER + INTRA:          -4.822
REMARK INTER:                  -4.726
REMARK INTRA:                  -0.097
REMARK UNBOUND:                -0.093
REMARK SMILES C=C(C)[C@@H]1CC=C(C)C(=O)C1
REMARK SMILES IDX 8 1 7 2 6 3 5 4 4 5 11 6 9 7 10 8 2 9 1 10 3 11
REMARK H PARENT
REMARK Flexibility Score: inf
ROOT
ATOM      1  C   UNL     1     -16.792  11.550 -29.183  1.00  0.00     0.048 C 
ATOM      2  C   UNL     1     -16.134  12.725 -29.854  1.00  0.00    -0.012 C 
ATOM      3  C   UNL     1     -15.017  12.543 -30.578  1.00  0.00    -0.019 C 
ATOM      4  C   UNL     1     -14.329  13.681 -31.285  1.00  0.00     0.036 C 
ATOM      5  C   UNL     1     -14.491  14.998 -30.503  1.00  0.00     0.025 C 
ATOM      6  C   UNL     1     -15.982  15.287 -30.245  1.00  0.00     0.089 C 
ATOM      7  C   UNL     1     -16.650  14.097 -29.614  1.00  0.00     0.158 C 
ATOM      8  O   UNL     1     -17.677  14.273 -28.906  1.00  0.00    -0.295 OA
ENDROOT
BRANCH   5   9
ATOM      9  C   UNL     1     -13.808  16.160 -31.212  1.00  0.00    -0.077 C 
ATOM     10  C   UNL     1     -12.952  15.955 -32.228  1.00  0.00     0.008 C 
ATOM     11  C   UNL     1     -14.085  17.577 -30.780  1.00  0.00     0.039 C 
ENDBRANCH   5   9
TORSDOF 1
ENDMDL
