MODEL 1
REMARK VINA RESULT:    -3.258      0.000      0.000
REMARK INTER + INTRA:          -6.805
REMARK INTER:                  -5.924
REMARK INTRA:                  -0.881
REMARK UNBOUND:                -0.881
REMARK SMILES CCCCCCCCCCCCCCCC(=O)[O-]
REMARK SMILES IDX 9 1 10 2 11 3 12 4 13 5 14 6 15 7 16 8 17 9 18 10 8 11 7 12
REMARK SMILES IDX 6 13 5 14 4 15 3 16 2 17 1 18
REMARK H PARENT
REMARK Flexibility Score: inf
ROOT
ATOM      1  C   UNL     1     -16.076 -11.589   3.186  1.00  0.00     0.000 C 
ENDROOT
BRANCH   1   2
ATOM      2  C   UNL     1     -15.634 -10.201   2.691  1.00  0.00     0.000 C 
BRANCH   2   3
ATOM      3  C   UNL     1     -14.113 -10.104   2.488  1.00  0.00     0.000 C 
BRANCH   3   4
ATOM      4  C   UNL     1     -13.523 -11.349   1.808  1.00  0.00     0.000 C 
BRANCH   4   5
ATOM      5  C   UNL     1     -12.313 -11.878   2.593  1.00  0.00     0.000 C 
BRANCH   5   6
ATOM      6  C   UNL     1     -12.710 -12.867   3.700  1.00  0.00     0.006 C 
BRANCH   6   7
ATOM      7  C   UNL     1     -11.871 -12.697   4.973  1.00  0.00     0.053 C 
BRANCH   7   8
ATOM      8  C   UNL     1     -12.723 -12.884   6.188  1.00  0.00     0.041 C 
ATOM      9  O   UNL     1     -12.214 -12.806   7.338  1.00  0.00    -0.550 OA
ATOM     10  O   UNL     1     -14.089 -13.094   6.054  1.00  0.00    -0.550 OA
ENDBRANCH   7   8
ENDBRANCH   6   7
ENDBRANCH   5   6
ENDBRANCH   4   5
ENDBRANCH   3   4
ENDBRANCH   2   3
ENDBRANCH   1   2
BRANCH   1  11
ATOM     11  C   UNL     1     -17.340 -12.102   2.473  1.00  0.00     0.000 C 
BRANCH  11  12
ATOM     12  C   UNL     1     -18.176 -13.124   3.270  1.00  0.00    -0.000 C 
BRANCH  12  13
ATOM     13  C   UNL     1     -19.690 -12.850   3.296  1.00  0.00    -0.000 C 
BRANCH  13  14
ATOM     14  C   UNL     1     -20.288 -12.667   1.894  1.00  0.00    -0.000 C 
BRANCH  14  15
ATOM     15  C   UNL     1     -21.799 -12.945   1.901  1.00  0.00    -0.000 C 
BRANCH  15  16
ATOM     16  C   UNL     1     -22.624 -11.786   1.314  1.00  0.00    -0.000 C 
BRANCH  16  17
ATOM     17  C   UNL     1     -23.640 -11.159   2.286  1.00  0.00    -0.003 C 
ATOM     18  C   UNL     1     -23.174 -11.193   3.741  1.00  0.00     0.004 C 
ENDBRANCH  16  17
ENDBRANCH  15  16
ENDBRANCH  14  15
ENDBRANCH  13  14
ENDBRANCH  12  13
ENDBRANCH  11  12
ENDBRANCH   1  11
TORSDOF 14
ENDMDL
MODEL 2
REMARK VINA RESULT:    -3.221     15.197     17.693
REMARK INTER + INTRA:          -6.739
REMARK INTER:                  -4.745
REMARK INTRA:                  -1.994
REMARK UNBOUND:                -0.881
REMARK SMILES CCCCCCCCCCCCCCCC(=O)[O-]
REMARK SMILES IDX 9 1 10 2 11 3 12 4 13 5 14 6 15 7 16 8 17 9 18 10 8 11 7 12
REMARK SMILES IDX 6 13 5 14 4 15 3 16 2 17 1 18
REMARK H PARENT
REMARK Flexibility Score: inf
ROOT
ATOM      1  C   UNL     1     -25.560   4.242   3.415  1.00  0.00     0.000 C 
ENDROOT
BRANCH   1   2
ATOM      2  C   UNL     1     -25.696   2.710   3.437  1.00  0.00     0.000 C 
BRANCH   2   3
ATOM      3  C   UNL     1     -26.010   2.126   2.050  1.00  0.00     0.000 C 
BRANCH   3   4
ATOM      4  C   UNL     1     -24.878   1.241   1.507  1.00  0.00     0.000 C 
BRANCH   4   5
ATOM      5  C   UNL     1     -23.708   2.100   1.001  1.00  0.00     0.000 C 
BRANCH   5   6
ATOM      6  C   UNL     1     -22.520   2.115   1.976  1.00  0.00     0.006 C 
BRANCH   6   7
ATOM      7  C   UNL     1     -22.209   0.727   2.550  1.00  0.00     0.053 C 
BRANCH   7   8
ATOM      8  C   UNL     1     -21.262  -0.008   1.655  1.00  0.00     0.041 C 
ATOM      9  O   UNL     1     -20.131   0.481   1.391  1.00  0.00    -0.550 OA
ATOM     10  O   UNL     1     -21.607  -1.255   1.151  1.00  0.00    -0.550 OA
ENDBRANCH   7   8
ENDBRANCH   6   7
ENDBRANCH   5   6
ENDBRANCH   4   5
ENDBRANCH   3   4
ENDBRANCH   2   3
ENDBRANCH   1   2
BRANCH   1  11
ATOM     11  C   UNL     1     -24.166   4.724   3.856  1.00  0.00     0.000 C 
BRANCH  11  12
ATOM     12  C   UNL     1     -23.498   5.751   2.919  1.00  0.00    -0.000 C 
BRANCH  12  13
ATOM     13  C   UNL     1     -24.386   6.262   1.771  1.00  0.00    -0.000 C 
BRANCH  13  14
ATOM     14  C   UNL     1     -23.907   5.790   0.391  1.00  0.00    -0.000 C 
BRANCH  14  15
ATOM     15  C   UNL     1     -22.441   6.181   0.154  1.00  0.00    -0.000 C 
BRANCH  15  16
ATOM     16  C   UNL     1     -21.534   4.968  -0.125  1.00  0.00    -0.000 C 
BRANCH  16  17
ATOM     17  C   UNL     1     -20.026   5.246   0.004  1.00  0.00    -0.003 C 
ATOM     18  C   UNL     1     -19.708   6.722   0.240  1.00  0.00     0.004 C 
ENDBRANCH  16  17
ENDBRANCH  15  16
ENDBRANCH  14  15
ENDBRANCH  13  14
ENDBRANCH  12  13
ENDBRANCH  11  12
ENDBRANCH   1  11
TORSDOF 14
ENDMDL
MODEL 3
REMARK VINA RESULT:    -3.085     15.139     16.869
REMARK INTER + INTRA:          -6.491
REMARK INTER:                  -5.089
REMARK INTRA:                  -1.401
REMARK UNBOUND:                -0.881
REMARK SMILES CCCCCCCCCCCCCCCC(=O)[O-]
REMARK SMILES IDX 9 1 10 2 11 3 12 4 13 5 14 6 15 7 16 8 17 9 18 10 8 11 7 12
REMARK SMILES IDX 6 13 5 14 4 15 3 16 2 17 1 18
REMARK H PARENT
REMARK Flexibility Score: inf
ROOT
ATOM      1  C   UNL     1     -21.506   0.704   2.298  1.00  0.00     0.000 C 
ENDROOT
BRANCH   1   2
ATOM      2  C   UNL     1     -20.123   0.533   1.647  1.00  0.00     0.000 C 
BRANCH   2   3
ATOM      3  C   UNL     1     -19.847   1.589   0.564  1.00  0.00     0.000 C 
BRANCH   3   4
ATOM      4  C   UNL     1     -18.408   2.127   0.612  1.00  0.00     0.000 C 
BRANCH   4   5
ATOM      5  C   UNL     1     -18.379   3.633   0.306  1.00  0.00     0.000 C 
BRANCH   5   6
ATOM      6  C   UNL     1     -19.750   4.177  -0.125  1.00  0.00     0.006 C 
BRANCH   6   7
ATOM      7  C   UNL     1     -19.906   5.677   0.160  1.00  0.00     0.053 C 
BRANCH   7   8
ATOM      8  C   UNL     1     -21.292   5.974   0.639  1.00  0.00     0.041 C 
ATOM      9  O   UNL     1     -21.514   6.996   1.341  1.00  0.00    -0.550 OA
ATOM     10  O   UNL     1     -22.347   5.151   0.270  1.00  0.00    -0.550 OA
ENDBRANCH   7   8
ENDBRANCH   6   7
ENDBRANCH   5   6
ENDBRANCH   4   5
ENDBRANCH   3   4
ENDBRANCH   2   3
ENDBRANCH   1   2
BRANCH   1  11
ATOM     11  C   UNL     1     -22.483   1.510   1.422  1.00  0.00     0.000 C 
BRANCH  11  12
ATOM     12  C   UNL     1     -23.412   0.667   0.525  1.00  0.00    -0.000 C 
BRANCH  12  13
ATOM     13  C   UNL     1     -24.912   0.982   0.660  1.00  0.00    -0.000 C 
BRANCH  13  14
ATOM     14  C   UNL     1     -25.229   1.868   1.873  1.00  0.00    -0.000 C 
BRANCH  14  15
ATOM     15  C   UNL     1     -25.845   3.204   1.432  1.00  0.00    -0.000 C 
BRANCH  15  16
ATOM     16  C   UNL     1     -25.285   4.409   2.210  1.00  0.00    -0.000 C 
BRANCH  16  17
ATOM     17  C   UNL     1     -24.120   4.080   3.161  1.00  0.00    -0.003 C 
ATOM     18  C   UNL     1     -23.586   5.307   3.899  1.00  0.00     0.004 C 
ENDBRANCH  16  17
ENDBRANCH  15  16
ENDBRANCH  14  15
ENDBRANCH  13  14
ENDBRANCH  12  13
ENDBRANCH  11  12
ENDBRANCH   1  11
TORSDOF 14
ENDMDL
MODEL 4
REMARK VINA RESULT:    -3.010     15.669     17.520
REMARK INTER + INTRA:          -6.354
REMARK INTER:                  -4.569
REMARK INTRA:                  -1.784
REMARK UNBOUND:                -0.881
REMARK SMILES CCCCCCCCCCCCCCCC(=O)[O-]
REMARK SMILES IDX 9 1 10 2 11 3 12 4 13 5 14 6 15 7 16 8 17 9 18 10 8 11 7 12
REMARK SMILES IDX 6 13 5 14 4 15 3 16 2 17 1 18
REMARK H PARENT
REMARK Flexibility Score: inf
ROOT
ATOM      1  C   UNL     1     -22.973   0.584   2.801  1.00  0.00     0.000 C 
ENDROOT
BRANCH   1   2
ATOM      2  C   UNL     1     -21.676  -0.189   2.511  1.00  0.00     0.000 C 
BRANCH   2   3
ATOM      3  C   UNL     1     -21.161   0.040   1.080  1.00  0.00     0.000 C 
BRANCH   3   4
ATOM      4  C   UNL     1     -20.173   1.213   0.984  1.00  0.00     0.000 C 
BRANCH   4   5
ATOM      5  C   UNL     1     -20.596   2.194  -0.121  1.00  0.00     0.000 C 
BRANCH   5   6
ATOM      6  C   UNL     1     -20.106   3.627   0.139  1.00  0.00     0.006 C 
BRANCH   6   7
ATOM      7  C   UNL     1     -21.255   4.642   0.205  1.00  0.00     0.053 C 
BRANCH   7   8
ATOM      8  C   UNL     1     -20.726   6.036   0.085  1.00  0.00     0.041 C 
ATOM      9  O   UNL     1     -21.514   6.997  -0.125  1.00  0.00    -0.550 OA
ATOM     10  O   UNL     1     -19.370   6.283   0.253  1.00  0.00    -0.550 OA
ENDBRANCH   7   8
ENDBRANCH   6   7
ENDBRANCH   5   6
ENDBRANCH   4   5
ENDBRANCH   3   4
ENDBRANCH   2   3
ENDBRANCH   1   2
BRANCH   1  11
ATOM     11  C   UNL     1     -23.744   0.959   1.522  1.00  0.00     0.000 C 
BRANCH  11  12
ATOM     12  C   UNL     1     -24.143   2.444   1.406  1.00  0.00    -0.000 C 
BRANCH  12  13
ATOM     13  C   UNL     1     -23.782   3.315   2.622  1.00  0.00    -0.000 C 
BRANCH  13  14
ATOM     14  C   UNL     1     -24.992   3.620   3.517  1.00  0.00    -0.000 C 
BRANCH  14  15
ATOM     15  C   UNL     1     -25.008   5.098   3.935  1.00  0.00    -0.000 C 
BRANCH  15  16
ATOM     16  C   UNL     1     -23.611   5.745   3.902  1.00  0.00    -0.000 C 
BRANCH  16  17
ATOM     17  C   UNL     1     -23.449   6.878   2.873  1.00  0.00    -0.003 C 
ATOM     18  C   UNL     1     -24.647   7.008   1.932  1.00  0.00     0.004 C 
ENDBRANCH  16  17
ENDBRANCH  15  16
ENDBRANCH  14  15
ENDBRANCH  13  14
ENDBRANCH  12  13
ENDBRANCH  11  12
ENDBRANCH   1  11
TORSDOF 14
ENDMDL
MODEL 5
REMARK VINA RESULT:    -3.008      1.325      2.322
REMARK INTER + INTRA:          -6.351
REMARK INTER:                  -5.164
REMARK INTRA:                  -1.187
REMARK UNBOUND:                -0.881
REMARK SMILES CCCCCCCCCCCCCCCC(=O)[O-]
REMARK SMILES IDX 9 1 10 2 11 3 12 4 13 5 14 6 15 7 16 8 17 9 18 10 8 11 7 12
REMARK SMILES IDX 6 13 5 14 4 15 3 16 2 17 1 18
REMARK H PARENT
REMARK Flexibility Score: inf
ROOT
ATOM      1  C   UNL     1     -17.141 -12.786   1.357  1.00  0.00     0.000 C 
ENDROOT
BRANCH   1   2
ATOM      2  C   UNL     1     -16.838 -12.630   2.857  1.00  0.00     0.000 C 
BRANCH   2   3
ATOM      3  C   UNL     1     -16.380 -11.208   3.221  1.00  0.00     0.000 C 
BRANCH   3   4
ATOM      4  C   UNL     1     -15.599 -10.526   2.087  1.00  0.00     0.000 C 
BRANCH   4   5
ATOM      5  C   UNL     1     -14.126 -10.332   2.479  1.00  0.00     0.000 C 
BRANCH   5   6
ATOM      6  C   UNL     1     -13.183 -11.284   1.727  1.00  0.00     0.006 C 
BRANCH   6   7
ATOM      7  C   UNL     1     -13.137 -12.685   2.351  1.00  0.00     0.053 C 
BRANCH   7   8
ATOM      8  C   UNL     1     -12.825 -12.596   3.811  1.00  0.00     0.041 C 
ATOM      9  O   UNL     1     -11.702 -12.173   4.195  1.00  0.00    -0.550 OA
ATOM     10  O   UNL     1     -13.791 -12.932   4.751  1.00  0.00    -0.550 OA
ENDBRANCH   7   8
ENDBRANCH   6   7
ENDBRANCH   5   6
ENDBRANCH   4   5
ENDBRANCH   3   4
ENDBRANCH   2   3
ENDBRANCH   1   2
BRANCH   1  11
ATOM     11  C   UNL     1     -18.643 -12.679   1.037  1.00  0.00     0.000 C 
BRANCH  11  12
ATOM     12  C   UNL     1     -19.586 -12.811   2.251  1.00  0.00    -0.000 C 
BRANCH  12  13
ATOM     13  C   UNL     1     -21.069 -13.029   1.905  1.00  0.00    -0.000 C 
BRANCH  13  14
ATOM     14  C   UNL     1     -22.012 -12.654   3.057  1.00  0.00    -0.000 C 
BRANCH  14  15
ATOM     15  C   UNL     1     -23.053 -11.620   2.601  1.00  0.00    -0.000 C 
BRANCH  15  16
ATOM     16  C   UNL     1     -23.023 -11.368   1.082  1.00  0.00    -0.000 C 
BRANCH  16  17
ATOM     17  C   UNL     1     -24.167 -10.487   0.551  1.00  0.00    -0.003 C 
ATOM     18  C   UNL     1     -24.828  -9.644   1.641  1.00  0.00     0.004 C 
ENDBRANCH  16  17
ENDBRANCH  15  16
ENDBRANCH  14  15
ENDBRANCH  13  14
ENDBRANCH  12  13
ENDBRANCH  11  12
ENDBRANCH   1  11
TORSDOF 14
ENDMDL
MODEL 6
REMARK VINA RESULT:    -2.738     15.508     17.241
REMARK INTER + INTRA:          -5.861
REMARK INTER:                  -5.054
REMARK INTRA:                  -0.807
REMARK UNBOUND:                -0.881
REMARK SMILES CCCCCCCCCCCCCCCC(=O)[O-]
REMARK SMILES IDX 9 1 10 2 11 3 12 4 13 5 14 6 15 7 16 8 17 9 18 10 8 11 7 12
REMARK SMILES IDX 6 13 5 14 4 15 3 16 2 17 1 18
REMARK H PARENT
REMARK Flexibility Score: inf
ROOT
ATOM      1  C   UNL     1     -18.700   2.013   0.646  1.00  0.00     0.000 C 
ENDROOT
BRANCH   1   2
ATOM      2  C   UNL     1     -17.979   3.132  -0.125  1.00  0.00     0.000 C 
BRANCH   2   3
ATOM      3  C   UNL     1     -18.355   4.534   0.383  1.00  0.00     0.000 C 
BRANCH   3   4
ATOM      4  C   UNL     1     -19.804   4.919   0.047  1.00  0.00     0.000 C 
BRANCH   4   5
ATOM      5  C   UNL     1     -20.037   6.421   0.276  1.00  0.00     0.000 C 
BRANCH   5   6
ATOM      6  C   UNL     1     -21.470   6.735   0.734  1.00  0.00     0.006 C 
BRANCH   6   7
ATOM      7  C   UNL     1     -22.299   5.470   0.991  1.00  0.00     0.053 C 
BRANCH   7   8
ATOM      8  C   UNL     1     -23.494   5.792   1.831  1.00  0.00     0.041 C 
ATOM      9  O   UNL     1     -24.569   6.162   1.289  1.00  0.00    -0.550 OA
ATOM     10  O   UNL     1     -23.437   5.638   3.211  1.00  0.00    -0.550 OA
ENDBRANCH   7   8
ENDBRANCH   6   7
ENDBRANCH   5   6
ENDBRANCH   4   5
ENDBRANCH   3   4
ENDBRANCH   2   3
ENDBRANCH   1   2
BRANCH   1  11
ATOM     11  C   UNL     1     -20.098   1.705   0.082  1.00  0.00     0.000 C 
BRANCH  11  12
ATOM     12  C   UNL     1     -21.038   0.936   1.033  1.00  0.00    -0.000 C 
BRANCH  12  13
ATOM     13  C   UNL     1     -22.056   1.807   1.790  1.00  0.00    -0.000 C 
BRANCH  13  14
ATOM     14  C   UNL     1     -23.317   1.033   2.198  1.00  0.00    -0.000 C 
BRANCH  14  15
ATOM     15  C   UNL     1     -24.272   0.871   1.006  1.00  0.00    -0.000 C 
BRANCH  15  16
ATOM     16  C   UNL     1     -25.584   1.659   1.176  1.00  0.00    -0.000 C 
BRANCH  16  17
ATOM     17  C   UNL     1     -25.519   2.808   2.197  1.00  0.00    -0.003 C 
ATOM     18  C   UNL     1     -26.036   2.410   3.580  1.00  0.00     0.004 C 
ENDBRANCH  16  17
ENDBRANCH  15  16
ENDBRANCH  14  15
ENDBRANCH  13  14
ENDBRANCH  12  13
ENDBRANCH  11  12
ENDBRANCH   1  11
TORSDOF 14
ENDMDL
MODEL 7
REMARK VINA RESULT:    -2.652      2.020      3.710
REMARK INTER + INTRA:          -5.704
REMARK INTER:                  -4.704
REMARK INTRA:                  -1.000
REMARK UNBOUND:                -0.881
REMARK SMILES CCCCCCCCCCCCCCCC(=O)[O-]
REMARK SMILES IDX 9 1 10 2 11 3 12 4 13 5 14 6 15 7 16 8 17 9 18 10 8 11 7 12
REMARK SMILES IDX 6 13 5 14 4 15 3 16 2 17 1 18
REMARK H PARENT
REMARK Flexibility Score: inf
ROOT
ATOM      1  C   UNL     1     -19.860 -12.933   2.237  1.00  0.00     0.000 C 
ENDROOT
BRANCH   1   2
ATOM      2  C   UNL     1     -18.363 -12.653   2.455  1.00  0.00     0.000 C 
BRANCH   2   3
ATOM      3  C   UNL     1     -17.612 -12.404   1.137  1.00  0.00     0.000 C 
BRANCH   3   4
ATOM      4  C   UNL     1     -16.113 -12.138   1.347  1.00  0.00     0.000 C 
BRANCH   4   5
ATOM      5  C   UNL     1     -15.750 -12.208   2.838  1.00  0.00     0.000 C 
BRANCH   5   6
ATOM      6  C   UNL     1     -15.003 -10.957   3.327  1.00  0.00     0.006 C 
BRANCH   6   7
ATOM      7  C   UNL     1     -13.950 -10.469   2.323  1.00  0.00     0.053 C 
BRANCH   7   8
ATOM      8  C   UNL     1     -12.739 -11.346   2.370  1.00  0.00     0.041 C 
ATOM      9  O   UNL     1     -12.149 -11.669   1.305  1.00  0.00    -0.550 OA
ATOM     10  O   UNL     1     -12.232 -11.767   3.592  1.00  0.00    -0.550 OA
ENDBRANCH   7   8
ENDBRANCH   6   7
ENDBRANCH   5   6
ENDBRANCH   4   5
ENDBRANCH   3   4
ENDBRANCH   2   3
ENDBRANCH   1   2
BRANCH   1  11
ATOM     11  C   UNL     1     -20.710 -12.639   3.486  1.00  0.00     0.000 C 
BRANCH  11  12
ATOM     12  C   UNL     1     -22.234 -12.608   3.253  1.00  0.00    -0.000 C 
BRANCH  12  13
ATOM     13  C   UNL     1     -22.668 -12.528   1.778  1.00  0.00    -0.000 C 
BRANCH  13  14
ATOM     14  C   UNL     1     -23.350 -11.197   1.429  1.00  0.00    -0.000 C 
BRANCH  14  15
ATOM     15  C   UNL     1     -24.762 -11.433   0.873  1.00  0.00    -0.000 C 
BRANCH  15  16
ATOM     16  C   UNL     1     -25.807 -11.677   1.977  1.00  0.00    -0.000 C 
BRANCH  16  17
ATOM     17  C   UNL     1     -25.652 -10.787   3.223  1.00  0.00    -0.003 C 
ATOM     18  C   UNL     1     -25.638 -11.583   4.528  1.00  0.00     0.004 C 
ENDBRANCH  16  17
ENDBRANCH  15  16
ENDBRANCH  14  15
ENDBRANCH  13  14
ENDBRANCH  12  13
ENDBRANCH  11  12
ENDBRANCH   1  11
TORSDOF 14
ENDMDL
