MODEL 1
REMARK VINA RESULT:    -2.471      0.000      0.000
REMARK INTER + INTRA:          -2.956
REMARK INTER:                  -2.904
REMARK INTRA:                  -0.052
REMARK UNBOUND:                -0.052
REMARK SMILES O=C([O-])CCC(=O)[O-]
REMARK SMILES IDX 4 1 2 2 1 3 3 4 5 5 6 6 7 7 8 8
REMARK H PARENT
REMARK Flexibility Score: inf
ROOT
ATOM      1  C   UNL     1     -26.895  60.105 -50.387  1.00  0.00     0.059 C 
ENDROOT
BRANCH   1   2
ATOM      2  C   UNL     1     -27.559  59.297 -51.460  1.00  0.00     0.042 C 
ATOM      3  O   UNL     1     -27.450  58.042 -51.466  1.00  0.00    -0.550 OA
ATOM      4  O   UNL     1     -28.332  59.926 -52.428  1.00  0.00    -0.550 OA
ENDBRANCH   1   2
BRANCH   1   5
ATOM      5  C   UNL     1     -27.080  61.610 -50.616  1.00  0.00     0.059 C 
BRANCH   5   6
ATOM      6  C   UNL     1     -27.289  62.344 -49.327  1.00  0.00     0.042 C 
ATOM      7  O   UNL     1     -27.288  61.718 -48.234  1.00  0.00    -0.550 OA
ATOM      8  O   UNL     1     -27.442  63.724 -49.328  1.00  0.00    -0.550 OA
ENDBRANCH   5   6
ENDBRANCH   1   5
TORSDOF 3
ENDMDL
MODEL 2
REMARK VINA RESULT:    -2.463      0.140      4.035
REMARK INTER + INTRA:          -2.947
REMARK INTER:                  -2.895
REMARK INTRA:                  -0.052
REMARK UNBOUND:                -0.052
REMARK SMILES O=C([O-])CCC(=O)[O-]
REMARK SMILES IDX 4 1 2 2 1 3 3 4 5 5 6 6 7 7 8 8
REMARK H PARENT
REMARK Flexibility Score: inf
ROOT
ATOM      1  C   UNL     1     -27.171  61.683 -50.566  1.00  0.00     0.059 C 
ENDROOT
BRANCH   1   2
ATOM      2  C   UNL     1     -27.250  62.344 -49.224  1.00  0.00     0.042 C 
ATOM      3  O   UNL     1     -27.272  61.647 -48.175  1.00  0.00    -0.550 OA
ATOM      4  O   UNL     1     -27.256  63.730 -49.129  1.00  0.00    -0.550 OA
ENDBRANCH   1   2
BRANCH   1   5
ATOM      5  C   UNL     1     -26.784  60.205 -50.446  1.00  0.00     0.059 C 
BRANCH   5   6
ATOM      6  C   UNL     1     -27.521  59.358 -51.438  1.00  0.00     0.042 C 
ATOM      7  O   UNL     1     -27.456  58.102 -51.371  1.00  0.00    -0.550 OA
ATOM      8  O   UNL     1     -28.314  59.955 -52.410  1.00  0.00    -0.550 OA
ENDBRANCH   5   6
ENDBRANCH   1   5
TORSDOF 3
ENDMDL
MODEL 3
REMARK VINA RESULT:    -2.455     12.005     12.745
REMARK INTER + INTRA:          -2.937
REMARK INTER:                  -2.832
REMARK INTRA:                  -0.106
REMARK UNBOUND:                -0.052
REMARK SMILES O=C([O-])CCC(=O)[O-]
REMARK SMILES IDX 4 1 2 2 1 3 3 4 5 5 6 6 7 7 8 8
REMARK H PARENT
REMARK Flexibility Score: inf
ROOT
ATOM      1  C   UNL     1     -36.344  56.362 -41.731  1.00  0.00     0.059 C 
ENDROOT
BRANCH   1   2
ATOM      2  C   UNL     1     -34.862  56.301 -41.520  1.00  0.00     0.042 C 
ATOM      3  O   UNL     1     -34.226  57.336 -41.186  1.00  0.00    -0.550 OA
ATOM      4  O   UNL     1     -34.190  55.092 -41.652  1.00  0.00    -0.550 OA
ENDBRANCH   1   2
BRANCH   1   5
ATOM      5  C   UNL     1     -36.784  55.488 -42.911  1.00  0.00     0.059 C 
BRANCH   5   6
ATOM      6  C   UNL     1     -36.751  56.245 -44.203  1.00  0.00     0.042 C 
ATOM      7  O   UNL     1     -37.006  57.478 -44.222  1.00  0.00    -0.550 OA
ATOM      8  O   UNL     1     -36.397  55.599 -45.380  1.00  0.00    -0.550 OA
ENDBRANCH   5   6
ENDBRANCH   1   5
TORSDOF 3
ENDMDL
MODEL 4
REMARK VINA RESULT:    -2.444      3.211      4.531
REMARK INTER + INTRA:          -2.924
REMARK INTER:                  -2.789
REMARK INTRA:                  -0.135
REMARK UNBOUND:                -0.052
REMARK SMILES O=C([O-])CCC(=O)[O-]
REMARK SMILES IDX 4 1 2 2 1 3 3 4 5 5 6 6 7 7 8 8
REMARK H PARENT
REMARK Flexibility Score: inf
ROOT
ATOM      1  C   UNL     1     -25.717  61.645 -48.005  1.00  0.00     0.059 C 
ENDROOT
BRANCH   1   2
ATOM      2  C   UNL     1     -26.685  62.705 -48.432  1.00  0.00     0.042 C 
ATOM      3  O   UNL     1     -27.649  62.415 -49.188  1.00  0.00    -0.550 OA
ATOM      4  O   UNL     1     -26.546  64.005 -47.960  1.00  0.00    -0.550 OA
ENDBRANCH   1   2
BRANCH   1   5
ATOM      5  C   UNL     1     -26.334  60.701 -46.966  1.00  0.00     0.059 C 
BRANCH   5   6
ATOM      6  C   UNL     1     -26.206  61.249 -45.577  1.00  0.00     0.042 C 
ATOM      7  O   UNL     1     -25.114  61.159 -44.959  1.00  0.00    -0.550 OA
ATOM      8  O   UNL     1     -27.281  61.897 -44.983  1.00  0.00    -0.550 OA
ENDBRANCH   5   6
ENDBRANCH   1   5
TORSDOF 3
ENDMDL
MODEL 5
REMARK VINA RESULT:    -2.440      3.205      4.670
REMARK INTER + INTRA:          -2.920
REMARK INTER:                  -2.790
REMARK INTRA:                  -0.130
REMARK UNBOUND:                -0.052
REMARK SMILES O=C([O-])CCC(=O)[O-]
REMARK SMILES IDX 4 1 2 2 1 3 3 4 5 5 6 6 7 7 8 8
REMARK H PARENT
REMARK Flexibility Score: inf
ROOT
ATOM      1  C   UNL     1     -26.435  60.711 -47.173  1.00  0.00     0.059 C 
ENDROOT
BRANCH   1   2
ATOM      2  C   UNL     1     -26.244  61.135 -45.748  1.00  0.00     0.042 C 
ATOM      3  O   UNL     1     -25.150  60.915 -45.164  1.00  0.00    -0.550 OA
ATOM      4  O   UNL     1     -27.259  61.809 -45.080  1.00  0.00    -0.550 OA
ENDBRANCH   1   2
BRANCH   1   5
ATOM      5  C   UNL     1     -25.783  61.698 -48.148  1.00  0.00     0.059 C 
BRANCH   5   6
ATOM      6  C   UNL     1     -26.716  62.813 -48.513  1.00  0.00     0.042 C 
ATOM      7  O   UNL     1     -27.675  62.603 -49.301  1.00  0.00    -0.550 OA
ATOM      8  O   UNL     1     -26.551  64.071 -47.949  1.00  0.00    -0.550 OA
ENDBRANCH   5   6
ENDBRANCH   1   5
TORSDOF 3
ENDMDL
MODEL 6
REMARK VINA RESULT:    -2.427      4.433      5.508
REMARK INTER + INTRA:          -2.905
REMARK INTER:                  -2.870
REMARK INTRA:                  -0.035
REMARK UNBOUND:                -0.052
REMARK SMILES O=C([O-])CCC(=O)[O-]
REMARK SMILES IDX 4 1 2 2 1 3 3 4 5 5 6 6 7 7 8 8
REMARK H PARENT
REMARK Flexibility Score: inf
ROOT
ATOM      1  C   UNL     1     -24.506  59.878 -47.019  1.00  0.00     0.059 C 
ENDROOT
BRANCH   1   2
ATOM      2  C   UNL     1     -23.229  59.160 -46.707  1.00  0.00     0.042 C 
ATOM      3  O   UNL     1     -22.356  59.707 -45.982  1.00  0.00    -0.550 OA
ATOM      4  O   UNL     1     -23.020  57.871 -47.182  1.00  0.00    -0.550 OA
ENDBRANCH   1   2
BRANCH   1   5
ATOM      5  C   UNL     1     -25.010  60.683 -45.816  1.00  0.00     0.059 C 
BRANCH   5   6
ATOM      6  C   UNL     1     -26.365  61.270 -46.071  1.00  0.00     0.042 C 
ATOM      7  O   UNL     1     -26.759  61.464 -47.251  1.00  0.00    -0.550 OA
ATOM      8  O   UNL     1     -27.208  61.563 -45.007  1.00  0.00    -0.550 OA
ENDBRANCH   5   6
ENDBRANCH   1   5
TORSDOF 3
ENDMDL
MODEL 7
REMARK VINA RESULT:    -2.422      4.403      6.056
REMARK INTER + INTRA:          -2.899
REMARK INTER:                  -2.865
REMARK INTRA:                  -0.034
REMARK UNBOUND:                -0.052
REMARK SMILES O=C([O-])CCC(=O)[O-]
REMARK SMILES IDX 4 1 2 2 1 3 3 4 5 5 6 6 7 7 8 8
REMARK H PARENT
REMARK Flexibility Score: inf
ROOT
ATOM      1  C   UNL     1     -25.015  60.703 -45.856  1.00  0.00     0.059 C 
ENDROOT
BRANCH   1   2
ATOM      2  C   UNL     1     -26.385  61.263 -46.093  1.00  0.00     0.042 C 
ATOM      3  O   UNL     1     -26.809  61.424 -47.268  1.00  0.00    -0.550 OA
ATOM      4  O   UNL     1     -27.208  61.567 -45.016  1.00  0.00    -0.550 OA
ENDBRANCH   1   2
BRANCH   1   5
ATOM      5  C   UNL     1     -24.523  59.887 -47.058  1.00  0.00     0.059 C 
BRANCH   5   6
ATOM      6  C   UNL     1     -23.253  59.156 -46.747  1.00  0.00     0.042 C 
ATOM      7  O   UNL     1     -22.355  59.710 -46.061  1.00  0.00    -0.550 OA
ATOM      8  O   UNL     1     -23.079  57.847 -47.178  1.00  0.00    -0.550 OA
ENDBRANCH   5   6
ENDBRANCH   1   5
TORSDOF 3
ENDMDL
MODEL 8
REMARK VINA RESULT:    -2.377     11.894     12.300
REMARK INTER + INTRA:          -2.845
REMARK INTER:                  -2.795
REMARK INTRA:                  -0.050
REMARK UNBOUND:                -0.052
REMARK SMILES O=C([O-])CCC(=O)[O-]
REMARK SMILES IDX 4 1 2 2 1 3 3 4 5 5 6 6 7 7 8 8
REMARK H PARENT
REMARK Flexibility Score: inf
ROOT
ATOM      1  C   UNL     1     -36.034  55.530 -42.912  1.00  0.00     0.059 C 
ENDROOT
BRANCH   1   2
ATOM      2  C   UNL     1     -36.501  56.116 -44.209  1.00  0.00     0.042 C 
ATOM      3  O   UNL     1     -36.917  57.304 -44.254  1.00  0.00    -0.550 OA
ATOM      4  O   UNL     1     -36.437  55.365 -45.376  1.00  0.00    -0.550 OA
ENDBRANCH   1   2
BRANCH   1   5
ATOM      5  C   UNL     1     -35.989  56.584 -41.799  1.00  0.00     0.059 C 
BRANCH   5   6
ATOM      6  C   UNL     1     -34.665  56.591 -41.097  1.00  0.00     0.042 C 
ATOM      7  O   UNL     1     -34.131  55.508 -40.742  1.00  0.00    -0.550 OA
ATOM      8  O   UNL     1     -34.003  57.791 -40.872  1.00  0.00    -0.550 OA
ENDBRANCH   5   6
ENDBRANCH   1   5
TORSDOF 3
ENDMDL
MODEL 9
REMARK VINA RESULT:    -2.332      3.352      5.484
REMARK INTER + INTRA:          -2.793
REMARK INTER:                  -2.710
REMARK INTRA:                  -0.082
REMARK UNBOUND:                -0.052
REMARK SMILES O=C([O-])CCC(=O)[O-]
REMARK SMILES IDX 4 1 2 2 1 3 3 4 5 5 6 6 7 7 8 8
REMARK H PARENT
REMARK Flexibility Score: inf
ROOT
ATOM      1  C   UNL     1     -25.407  60.894 -46.086  1.00  0.00     0.059 C 
ENDROOT
BRANCH   1   2
ATOM      2  C   UNL     1     -26.036  61.494 -44.866  1.00  0.00     0.042 C 
ATOM      3  O   UNL     1     -27.261  61.787 -44.865  1.00  0.00    -0.550 OA
ATOM      4  O   UNL     1     -25.280  61.690 -43.717  1.00  0.00    -0.550 OA
ENDBRANCH   1   2
BRANCH   1   5
ATOM      5  C   UNL     1     -26.444  60.619 -47.180  1.00  0.00     0.059 C 
BRANCH   5   6
ATOM      6  C   UNL     1     -26.377  61.641 -48.275  1.00  0.00     0.042 C 
ATOM      7  O   UNL     1     -25.268  61.959 -48.777  1.00  0.00    -0.550 OA
ATOM      8  O   UNL     1     -27.544  62.210 -48.768  1.00  0.00    -0.550 OA
ENDBRANCH   5   6
ENDBRANCH   1   5
TORSDOF 3
ENDMDL
