MODEL 1
REMARK VINA RESULT:    -7.373      0.000      0.000
REMARK INTER + INTRA:         -11.846
REMARK INTER:                 -10.821
REMARK INTRA:                  -1.025
REMARK UNBOUND:                -1.025
REMARK SMILES Cc1cc2c(C(C)C)c(O)c(O)c(C=O)c2c(O)c1-c1c(C)cc2c(C(C)C)c(O)c(O)c(C=O)c2c1O
REMARK SMILES IDX 1 1 2 2 3 3 4 4 16 5 13 6 11 7 9 8 5 9 17 10 19 11 20 12
REMARK SMILES IDX 37 13 21 14 36 15 23 16 22 17 24 18 33 19 25 20 31 21 29 22
REMARK SMILES IDX 38 23 34 25 35 26 26 27 27 28 28 29 32 30 30 32 18 34 6 36
REMARK SMILES IDX 7 37 8 38 14 39 15 40 10 41 12 43
REMARK H PARENT 38 24 32 31 30 33 18 35 10 42 12 44
REMARK Flexibility Score: inf
ROOT
ATOM      1  C   UNL     1      12.120   6.545  23.478  1.00  0.00     0.045 C 
ATOM      2  C   UNL     1      13.229   7.237  22.721  1.00  0.00    -0.039 A 
ATOM      3  C   UNL     1      13.160   7.325  21.331  1.00  0.00     0.013 A 
ATOM      4  C   UNL     1      14.151   7.987  20.573  1.00  0.00    -0.006 A 
ATOM      5  C   UNL     1      15.308   8.492  21.245  1.00  0.00     0.039 A 
ATOM      6  C   UNL     1      16.372   9.040  20.465  1.00  0.00     0.072 A 
ATOM      7  C   UNL     1      16.296   9.018  19.057  1.00  0.00     0.169 A 
ATOM      8  C   UNL     1      15.155   8.529  18.414  1.00  0.00     0.162 A 
ATOM      9  C   UNL     1      14.026   8.120  19.155  1.00  0.00     0.008 A 
ATOM     10  C   UNL     1      15.375   8.398  22.669  1.00  0.00     0.132 A 
ATOM     11  C   UNL     1      14.329   7.789  23.397  1.00  0.00     0.031 A 
ENDROOT
BRANCH  11  12
ATOM     12  C   UNL     1      14.396   7.703  24.880  1.00  0.00     0.031 A 
ATOM     13  C   UNL     1      13.957   8.785  25.671  1.00  0.00     0.132 A 
ATOM     14  C   UNL     1      14.929   6.557  25.490  1.00  0.00    -0.039 A 
ATOM     15  C   UNL     1      13.971   8.693  27.095  1.00  0.00     0.039 A 
ATOM     16  C   UNL     1      15.028   6.500  26.881  1.00  0.00     0.013 A 
ATOM     17  C   UNL     1      15.476   5.415  24.666  1.00  0.00     0.045 C 
ATOM     18  C   UNL     1      14.519   7.526  27.709  1.00  0.00    -0.006 A 
ATOM     19  C   UNL     1      13.504   9.754  27.927  1.00  0.00     0.072 A 
ATOM     20  C   UNL     1      14.585   7.428  29.132  1.00  0.00     0.008 A 
ATOM     21  C   UNL     1      13.759   9.720  29.311  1.00  0.00     0.169 A 
ATOM     22  C   UNL     1      14.327   8.585  29.899  1.00  0.00     0.162 A 
BRANCH  13  23
ATOM     23  O   UNL     1      13.550   9.969  25.043  1.00  0.00    -0.507 OA
ATOM     24  H   UNL     1      12.609  10.136  24.708  1.00  0.00     0.293 HD
ENDBRANCH  13  23
BRANCH  19  25
ATOM     25  C   UNL     1      12.715  10.885  27.398  1.00  0.00     0.264 C 
ATOM     26  O   UNL     1      11.643  11.233  27.964  1.00  0.00    -0.298 OA
ENDBRANCH  19  25
BRANCH  20  27
ATOM     27  C   UNL     1      14.959   6.113  29.840  1.00  0.00     0.017 C 
ATOM     28  C   UNL     1      14.050   4.969  29.383  1.00  0.00     0.012 C 
ATOM     29  C   UNL     1      16.446   5.734  29.706  1.00  0.00     0.012 C 
ENDBRANCH  20  27
BRANCH  21  30
ATOM     30  O   UNL     1      13.424  10.794  30.145  1.00  0.00    -0.504 OA
ATOM     31  H   UNL     1      13.914  11.024  30.999  1.00  0.00     0.293 HD
ENDBRANCH  21  30
BRANCH  22  32
ATOM     32  O   UNL     1      14.632   8.601  31.262  1.00  0.00    -0.504 OA
ATOM     33  H   UNL     1      15.559   8.411  31.623  1.00  0.00     0.293 HD
ENDBRANCH  22  32
ENDBRANCH  11  12
BRANCH  10  34
ATOM     34  O   UNL     1      16.481   8.900  23.364  1.00  0.00    -0.507 OA
ATOM     35  H   UNL     1      17.106   9.608  23.000  1.00  0.00     0.293 HD
ENDBRANCH  10  34
BRANCH   9  36
ATOM     36  C   UNL     1      12.708   7.810  18.424  1.00  0.00     0.017 C 
ATOM     37  C   UNL     1      12.922   6.754  17.336  1.00  0.00     0.012 C 
ATOM     38  C   UNL     1      11.998   9.057  17.862  1.00  0.00     0.012 C 
ENDBRANCH   9  36
BRANCH   6  39
ATOM     39  C   UNL     1      17.580   9.621  21.086  1.00  0.00     0.264 C 
ATOM     40  O   UNL     1      17.690  10.867  21.227  1.00  0.00    -0.298 OA
ENDBRANCH   6  39
BRANCH   8  41
ATOM     41  O   UNL     1      15.139   8.451  17.019  1.00  0.00    -0.504 OA
ATOM     42  H   UNL     1      14.638   9.109  16.435  1.00  0.00     0.293 HD
ENDBRANCH   8  41
BRANCH   7  43
ATOM     43  O   UNL     1      17.337   9.509  18.258  1.00  0.00    -0.504 OA
ATOM     44  H   UNL     1      17.296  10.377  17.742  1.00  0.00     0.293 HD
ENDBRANCH   7  43
TORSDOF 11
ENDMDL
MODEL 2
REMARK VINA RESULT:    -7.352      2.459      9.403
REMARK INTER + INTRA:         -11.816
REMARK INTER:                 -10.917
REMARK INTRA:                  -0.899
REMARK UNBOUND:                -1.025
REMARK SMILES Cc1cc2c(C(C)C)c(O)c(O)c(C=O)c2c(O)c1-c1c(C)cc2c(C(C)C)c(O)c(O)c(C=O)c2c1O
REMARK SMILES IDX 1 1 2 2 3 3 4 4 16 5 13 6 11 7 9 8 5 9 17 10 19 11 20 12
REMARK SMILES IDX 37 13 21 14 36 15 23 16 22 17 24 18 33 19 25 20 31 21 29 22
REMARK SMILES IDX 38 23 34 25 35 26 26 27 27 28 28 29 32 30 30 32 18 34 6 36
REMARK SMILES IDX 7 37 8 38 14 39 15 40 10 41 12 43
REMARK H PARENT 38 24 32 31 30 33 18 35 10 42 12 44
REMARK Flexibility Score: inf
ROOT
ATOM      1  C   UNL     1      15.383  10.648  22.064  1.00  0.00     0.045 C 
ATOM      2  C   UNL     1      14.897   9.458  22.858  1.00  0.00    -0.039 A 
ATOM      3  C   UNL     1      14.649   9.599  24.223  1.00  0.00     0.013 A 
ATOM      4  C   UNL     1      14.163   8.531  25.008  1.00  0.00    -0.006 A 
ATOM      5  C   UNL     1      14.018   7.242  24.405  1.00  0.00     0.039 A 
ATOM      6  C   UNL     1      13.658   6.133  25.229  1.00  0.00     0.072 A 
ATOM      7  C   UNL     1      13.512   6.308  26.620  1.00  0.00     0.169 A 
ATOM      8  C   UNL     1      13.648   7.575  27.196  1.00  0.00     0.162 A 
ATOM      9  C   UNL     1      13.855   8.716  26.392  1.00  0.00     0.008 A 
ATOM     10  C   UNL     1      14.275   7.103  23.006  1.00  0.00     0.132 A 
ATOM     11  C   UNL     1      14.694   8.214  22.241  1.00  0.00     0.031 A 
ENDROOT
BRANCH  11  12
ATOM     12  C   UNL     1      14.950   8.069  20.783  1.00  0.00     0.031 A 
ATOM     13  C   UNL     1      13.911   8.300  19.857  1.00  0.00     0.132 A 
ATOM     14  C   UNL     1      16.217   7.667  20.332  1.00  0.00    -0.039 A 
ATOM     15  C   UNL     1      14.158   8.211  18.455  1.00  0.00     0.039 A 
ATOM     16  C   UNL     1      16.438   7.492  18.965  1.00  0.00     0.013 A 
ATOM     17  C   UNL     1      17.325   7.340  21.305  1.00  0.00     0.045 C 
ATOM     18  C   UNL     1      15.449   7.797  18.003  1.00  0.00    -0.006 A 
ATOM     19  C   UNL     1      13.142   8.471  17.488  1.00  0.00     0.072 A 
ATOM     20  C   UNL     1      15.710   7.658  16.606  1.00  0.00     0.008 A 
ATOM     21  C   UNL     1      13.361   8.139  16.137  1.00  0.00     0.169 A 
ATOM     22  C   UNL     1      14.619   7.702  15.711  1.00  0.00     0.162 A 
BRANCH  13  23
ATOM     23  O   UNL     1      12.622   8.572  20.331  1.00  0.00    -0.507 OA
ATOM     24  H   UNL     1      12.371   9.414  20.835  1.00  0.00     0.293 HD
ENDBRANCH  13  23
BRANCH  19  25
ATOM     25  C   UNL     1      11.864   9.122  17.839  1.00  0.00     0.264 C 
ATOM     26  O   UNL     1      11.394  10.037  17.111  1.00  0.00    -0.298 OA
ENDBRANCH  19  25
BRANCH  20  27
ATOM     27  C   UNL     1      17.132   7.432  16.062  1.00  0.00     0.017 C 
ATOM     28  C   UNL     1      18.125   8.402  16.711  1.00  0.00     0.012 C 
ATOM     29  C   UNL     1      17.618   5.975  16.175  1.00  0.00     0.012 C 
ENDBRANCH  20  27
BRANCH  21  30
ATOM     30  O   UNL     1      12.349   8.265  15.177  1.00  0.00    -0.504 OA
ATOM     31  H   UNL     1      11.916   7.485  14.703  1.00  0.00     0.293 HD
ENDBRANCH  21  30
BRANCH  22  32
ATOM     32  O   UNL     1      14.793   7.314  14.380  1.00  0.00    -0.504 OA
ATOM     33  H   UNL     1      14.971   7.973  13.632  1.00  0.00     0.293 HD
ENDBRANCH  22  32
ENDBRANCH  11  12
BRANCH  10  34
ATOM     34  O   UNL     1      14.125   5.864  22.375  1.00  0.00    -0.507 OA
ATOM     35  H   UNL     1      14.325   5.697  21.397  1.00  0.00     0.293 HD
ENDBRANCH  10  34
BRANCH   9  36
ATOM     36  C   UNL     1      13.766  10.118  27.023  1.00  0.00     0.017 C 
ATOM     37  C   UNL     1      14.590  10.189  28.312  1.00  0.00     0.012 C 
ATOM     38  C   UNL     1      12.324  10.608  27.252  1.00  0.00     0.012 C 
ENDBRANCH   9  36
BRANCH   6  39
ATOM     39  C   UNL     1      13.447   4.781  24.674  1.00  0.00     0.264 C 
ATOM     40  O   UNL     1      12.283   4.324  24.528  1.00  0.00    -0.298 OA
ENDBRANCH   6  39
BRANCH   8  41
ATOM     41  O   UNL     1      13.572   7.706  28.585  1.00  0.00    -0.504 OA
ATOM     42  H   UNL     1      13.412   6.922  29.205  1.00  0.00     0.293 HD
ENDBRANCH   8  41
BRANCH   7  43
ATOM     43  O   UNL     1      13.199   5.237  27.467  1.00  0.00    -0.504 OA
ATOM     44  H   UNL     1      12.929   4.318  27.143  1.00  0.00     0.293 HD
ENDBRANCH   7  43
TORSDOF 11
ENDMDL
MODEL 3
REMARK VINA RESULT:    -7.282      2.807      5.117
REMARK INTER + INTRA:         -11.712
REMARK INTER:                 -10.332
REMARK INTRA:                  -1.380
REMARK UNBOUND:                -1.025
REMARK SMILES Cc1cc2c(C(C)C)c(O)c(O)c(C=O)c2c(O)c1-c1c(C)cc2c(C(C)C)c(O)c(O)c(C=O)c2c1O
REMARK SMILES IDX 1 1 2 2 3 3 4 4 16 5 13 6 11 7 9 8 5 9 17 10 19 11 20 12
REMARK SMILES IDX 37 13 21 14 36 15 23 16 22 17 24 18 33 19 25 20 31 21 29 22
REMARK SMILES IDX 38 23 34 25 35 26 26 27 27 28 28 29 32 30 30 32 18 34 6 36
REMARK SMILES IDX 7 37 8 38 14 39 15 40 10 41 12 43
REMARK H PARENT 38 24 32 31 30 33 18 35 10 42 12 44
REMARK Flexibility Score: inf
ROOT
ATOM      1  C   UNL     1      17.363   6.866  20.411  1.00  0.00     0.045 C 
ATOM      2  C   UNL     1      16.237   7.291  19.498  1.00  0.00    -0.039 A 
ATOM      3  C   UNL     1      16.412   7.222  18.116  1.00  0.00     0.013 A 
ATOM      4  C   UNL     1      15.384   7.575  17.215  1.00  0.00    -0.006 A 
ATOM      5  C   UNL     1      14.167   8.116  17.736  1.00  0.00     0.039 A 
ATOM      6  C   UNL     1      13.182   8.600  16.821  1.00  0.00     0.072 A 
ATOM      7  C   UNL     1      13.445   8.596  15.436  1.00  0.00     0.169 A 
ATOM      8  C   UNL     1      14.636   8.057  14.940  1.00  0.00     0.162 A 
ATOM      9  C   UNL     1      15.563   7.436  15.803  1.00  0.00     0.008 A 
ATOM     10  C   UNL     1      13.994   8.186  19.153  1.00  0.00     0.132 A 
ATOM     11  C   UNL     1      15.022   7.757  20.021  1.00  0.00     0.031 A 
ENDROOT
BRANCH  11  12
ATOM     12  C   UNL     1      14.834   7.821  21.495  1.00  0.00     0.031 A 
ATOM     13  C   UNL     1      14.324   6.705  22.191  1.00  0.00     0.132 A 
ATOM     14  C   UNL     1      15.133   9.005  22.188  1.00  0.00    -0.039 A 
ATOM     15  C   UNL     1      14.187   6.739  23.611  1.00  0.00     0.039 A 
ATOM     16  C   UNL     1      14.915   9.071  23.564  1.00  0.00     0.013 A 
ATOM     17  C   UNL     1      15.609  10.238  21.457  1.00  0.00     0.045 C 
ATOM     18  C   UNL     1      14.489   7.948  24.308  1.00  0.00    -0.006 A 
ATOM     19  C   UNL     1      13.706   5.619  24.353  1.00  0.00     0.072 A 
ATOM     20  C   UNL     1      14.318   8.022  25.725  1.00  0.00     0.008 A 
ATOM     21  C   UNL     1      13.360   5.775  25.709  1.00  0.00     0.169 A 
ATOM     22  C   UNL     1      13.629   6.975  26.374  1.00  0.00     0.162 A 
BRANCH  13  23
ATOM     23  O   UNL     1      13.910   5.580  21.468  1.00  0.00    -0.507 OA
ATOM     24  H   UNL     1      12.957   5.237  21.453  1.00  0.00     0.293 HD
ENDBRANCH  13  23
BRANCH  19  25
ATOM     25  C   UNL     1      13.593   4.269  23.763  1.00  0.00     0.264 C 
ATOM     26  O   UNL     1      12.498   3.877  23.277  1.00  0.00    -0.298 OA
ENDBRANCH  19  25
BRANCH  20  27
ATOM     27  C   UNL     1      14.834   9.218  26.545  1.00  0.00     0.017 C 
ATOM     28  C   UNL     1      13.686  10.164  26.911  1.00  0.00     0.012 C 
ATOM     29  C   UNL     1      15.648   8.816  27.790  1.00  0.00     0.012 C 
ENDBRANCH  20  27
BRANCH  21  30
ATOM     30  O   UNL     1      12.773   4.735  26.441  1.00  0.00    -0.504 OA
ATOM     31  H   UNL     1      11.921   4.828  26.975  1.00  0.00     0.293 HD
ENDBRANCH  21  30
BRANCH  22  32
ATOM     32  O   UNL     1      13.215   7.130  27.700  1.00  0.00    -0.504 OA
ATOM     33  H   UNL     1      12.247   7.261  27.964  1.00  0.00     0.293 HD
ENDBRANCH  22  32
ENDBRANCH  11  12
BRANCH  10  34
ATOM     34  O   UNL     1      12.809   8.689  19.700  1.00  0.00    -0.507 OA
ATOM     35  H   UNL     1      12.056   8.110  20.051  1.00  0.00     0.293 HD
ENDBRANCH  10  34
BRANCH   9  36
ATOM     36  C   UNL     1      16.745   6.648  15.210  1.00  0.00     0.017 C 
ATOM     37  C   UNL     1      17.758   7.593  14.556  1.00  0.00     0.012 C 
ATOM     38  C   UNL     1      16.324   5.524  14.244  1.00  0.00     0.012 C 
ENDBRANCH   9  36
BRANCH   6  39
ATOM     39  C   UNL     1      11.882   9.132  17.279  1.00  0.00     0.264 C 
ATOM     40  O   UNL     1      11.639  10.365  17.218  1.00  0.00    -0.298 OA
ENDBRANCH   6  39
BRANCH   8  41
ATOM     41  O   UNL     1      14.902   8.135  13.571  1.00  0.00    -0.504 OA
ATOM     42  H   UNL     1      15.002   9.013  13.077  1.00  0.00     0.293 HD
ENDBRANCH   8  41
BRANCH   7  43
ATOM     43  O   UNL     1      12.521   9.100  14.512  1.00  0.00    -0.504 OA
ATOM     44  H   UNL     1      11.713   8.590  14.182  1.00  0.00     0.293 HD
ENDBRANCH   7  43
TORSDOF 11
ENDMDL
MODEL 4
REMARK VINA RESULT:    -6.482      2.546      4.364
REMARK INTER + INTRA:         -10.539
REMARK INTER:                  -9.594
REMARK INTRA:                  -0.945
REMARK UNBOUND:                -1.025
REMARK SMILES Cc1cc2c(C(C)C)c(O)c(O)c(C=O)c2c(O)c1-c1c(C)cc2c(C(C)C)c(O)c(O)c(C=O)c2c1O
REMARK SMILES IDX 1 1 2 2 3 3 4 4 16 5 13 6 11 7 9 8 5 9 17 10 19 11 20 12
REMARK SMILES IDX 37 13 21 14 36 15 23 16 22 17 24 18 33 19 25 20 31 21 29 22
REMARK SMILES IDX 38 23 34 25 35 26 26 27 27 28 28 29 32 30 30 32 18 34 6 36
REMARK SMILES IDX 7 37 8 38 14 39 15 40 10 41 12 43
REMARK H PARENT 38 24 32 31 30 33 18 35 10 42 12 44
REMARK Flexibility Score: inf
ROOT
ATOM      1  C   UNL     1      17.206   6.108  20.783  1.00  0.00     0.045 C 
ATOM      2  C   UNL     1      16.111   6.536  19.835  1.00  0.00    -0.039 A 
ATOM      3  C   UNL     1      16.394   6.669  18.476  1.00  0.00     0.013 A 
ATOM      4  C   UNL     1      15.404   7.035  17.538  1.00  0.00    -0.006 A 
ATOM      5  C   UNL     1      14.100   7.378  18.013  1.00  0.00     0.039 A 
ATOM      6  C   UNL     1      13.139   7.878  17.082  1.00  0.00     0.072 A 
ATOM      7  C   UNL     1      13.503   8.085  15.736  1.00  0.00     0.169 A 
ATOM      8  C   UNL     1      14.780   7.737  15.284  1.00  0.00     0.162 A 
ATOM      9  C   UNL     1      15.703   7.102  16.141  1.00  0.00     0.008 A 
ATOM     10  C   UNL     1      13.815   7.242  19.407  1.00  0.00     0.132 A 
ATOM     11  C   UNL     1      14.816   6.806  20.303  1.00  0.00     0.031 A 
ENDROOT
BRANCH  11  12
ATOM     12  C   UNL     1      14.514   6.654  21.751  1.00  0.00     0.031 A 
ATOM     13  C   UNL     1      14.480   7.789  22.588  1.00  0.00     0.132 A 
ATOM     14  C   UNL     1      14.297   5.376  22.290  1.00  0.00    -0.039 A 
ATOM     15  C   UNL     1      14.143   7.660  23.968  1.00  0.00     0.039 A 
ATOM     16  C   UNL     1      14.056   5.237  23.657  1.00  0.00     0.013 A 
ATOM     17  C   UNL     1      14.402   4.138  21.431  1.00  0.00     0.045 C 
ATOM     18  C   UNL     1      13.928   6.356  24.511  1.00  0.00    -0.006 A 
ATOM     19  C   UNL     1      14.066   8.788  24.838  1.00  0.00     0.072 A 
ATOM     20  C   UNL     1      13.631   6.196  25.899  1.00  0.00     0.008 A 
ATOM     21  C   UNL     1      13.969   8.593  26.229  1.00  0.00     0.169 A 
ATOM     22  C   UNL     1      13.793   7.308  26.753  1.00  0.00     0.162 A 
BRANCH  13  23
ATOM     23  O   UNL     1      14.827   9.038  22.059  1.00  0.00    -0.507 OA
ATOM     24  H   UNL     1      14.836   9.250  21.069  1.00  0.00     0.293 HD
ENDBRANCH  13  23
BRANCH  19  25
ATOM     25  C   UNL     1      14.039  10.176  24.333  1.00  0.00     0.264 C 
ATOM     26  O   UNL     1      15.107  10.839  24.239  1.00  0.00    -0.298 OA
ENDBRANCH  19  25
BRANCH  20  27
ATOM     27  C   UNL     1      13.177   4.847  26.483  1.00  0.00     0.017 C 
ATOM     28  C   UNL     1      12.123   4.190  25.587  1.00  0.00     0.012 C 
ATOM     29  C   UNL     1      14.336   3.878  26.787  1.00  0.00     0.012 C 
ENDBRANCH  20  27
BRANCH  21  30
ATOM     30  O   UNL     1      14.011   9.669  27.126  1.00  0.00    -0.504 OA
ATOM     31  H   UNL     1      13.397  10.470  27.079  1.00  0.00     0.293 HD
ENDBRANCH  21  30
BRANCH  22  32
ATOM     32  O   UNL     1      13.768   7.133  28.139  1.00  0.00    -0.504 OA
ATOM     33  H   UNL     1      14.303   7.708  28.778  1.00  0.00     0.293 HD
ENDBRANCH  22  32
ENDBRANCH  11  12
BRANCH  10  34
ATOM     34  O   UNL     1      12.545   7.547  19.906  1.00  0.00    -0.507 OA
ATOM     35  H   UNL     1      12.078   7.018  20.632  1.00  0.00     0.293 HD
ENDBRANCH  10  34
BRANCH   9  36
ATOM     36  C   UNL     1      17.005   6.520  15.561  1.00  0.00     0.017 C 
ATOM     37  C   UNL     1      17.974   7.639  15.168  1.00  0.00     0.012 C 
ATOM     38  C   UNL     1      16.784   5.536  14.397  1.00  0.00     0.012 C 
ENDBRANCH   9  36
BRANCH   6  39
ATOM     39  C   UNL     1      11.758   8.213  17.486  1.00  0.00     0.264 C 
ATOM     40  O   UNL     1      11.380   9.413  17.538  1.00  0.00    -0.298 OA
ENDBRANCH   6  39
BRANCH   8  41
ATOM     41  O   UNL     1      15.137   8.022  13.964  1.00  0.00    -0.504 OA
ATOM     42  H   UNL     1      16.098   8.079  13.651  1.00  0.00     0.293 HD
ENDBRANCH   8  41
BRANCH   7  43
ATOM     43  O   UNL     1      12.601   8.612  14.803  1.00  0.00    -0.504 OA
ATOM     44  H   UNL     1      12.584   8.360  13.825  1.00  0.00     0.293 HD
ENDBRANCH   7  43
TORSDOF 11
ENDMDL
MODEL 5
REMARK VINA RESULT:    -6.465      2.112      9.480
REMARK INTER + INTRA:         -10.514
REMARK INTER:                  -9.356
REMARK INTRA:                  -1.158
REMARK UNBOUND:                -1.025
REMARK SMILES Cc1cc2c(C(C)C)c(O)c(O)c(C=O)c2c(O)c1-c1c(C)cc2c(C(C)C)c(O)c(O)c(C=O)c2c1O
REMARK SMILES IDX 1 1 2 2 3 3 4 4 16 5 13 6 11 7 9 8 5 9 17 10 19 11 20 12
REMARK SMILES IDX 37 13 21 14 36 15 23 16 22 17 24 18 33 19 25 20 31 21 29 22
REMARK SMILES IDX 38 23 34 25 35 26 26 27 27 28 28 29 32 30 30 32 18 34 6 36
REMARK SMILES IDX 7 37 8 38 14 39 15 40 10 41 12 43
REMARK H PARENT 38 24 32 31 30 33 18 35 10 42 12 44
REMARK Flexibility Score: inf
ROOT
ATOM      1  C   UNL     1      15.171  10.376  23.854  1.00  0.00     0.045 C 
ATOM      2  C   UNL     1      14.794   9.150  24.652  1.00  0.00    -0.039 A 
ATOM      3  C   UNL     1      14.912   9.174  26.042  1.00  0.00     0.013 A 
ATOM      4  C   UNL     1      14.545   8.071  26.843  1.00  0.00    -0.006 A 
ATOM      5  C   UNL     1      14.136   6.860  26.201  1.00  0.00     0.039 A 
ATOM      6  C   UNL     1      13.895   5.703  27.003  1.00  0.00     0.072 A 
ATOM      7  C   UNL     1      14.122   5.752  28.394  1.00  0.00     0.169 A 
ATOM      8  C   UNL     1      14.513   6.945  29.009  1.00  0.00     0.162 A 
ATOM      9  C   UNL     1      14.615   8.141  28.269  1.00  0.00     0.008 A 
ATOM     10  C   UNL     1      14.018   6.841  24.776  1.00  0.00     0.132 A 
ATOM     11  C   UNL     1      14.330   7.989  24.016  1.00  0.00     0.031 A 
ENDROOT
BRANCH  11  12
ATOM     12  C   UNL     1      14.194   7.969  22.535  1.00  0.00     0.031 A 
ATOM     13  C   UNL     1      15.295   7.610  21.730  1.00  0.00     0.132 A 
ATOM     14  C   UNL     1      12.979   8.343  21.939  1.00  0.00    -0.039 A 
ATOM     15  C   UNL     1      15.162   7.540  20.311  1.00  0.00     0.039 A 
ATOM     16  C   UNL     1      12.872   8.363  20.548  1.00  0.00     0.013 A 
ATOM     17  C   UNL     1      11.809   8.805  22.774  1.00  0.00     0.045 C 
ATOM     18  C   UNL     1      13.924   7.926  19.711  1.00  0.00    -0.006 A 
ATOM     19  C   UNL     1      16.243   7.148  19.466  1.00  0.00     0.072 A 
ATOM     20  C   UNL     1      13.778   7.907  18.290  1.00  0.00     0.008 A 
ATOM     21  C   UNL     1      16.141   7.325  18.073  1.00  0.00     0.169 A 
ATOM     22  C   UNL     1      14.934   7.736  17.498  1.00  0.00     0.162 A 
BRANCH  13  23
ATOM     23  O   UNL     1      16.534   7.367  22.336  1.00  0.00    -0.507 OA
ATOM     24  H   UNL     1      17.151   6.607  22.076  1.00  0.00     0.293 HD
ENDBRANCH  13  23
BRANCH  19  25
ATOM     25  C   UNL     1      17.468   6.514  19.994  1.00  0.00     0.264 C 
ATOM     26  O   UNL     1      17.785   5.347  19.638  1.00  0.00    -0.298 OA
ENDBRANCH  19  25
BRANCH  20  27
ATOM     27  C   UNL     1      12.411   8.098  17.610  1.00  0.00     0.017 C 
ATOM     28  C   UNL     1      12.275   9.517  17.049  1.00  0.00     0.012 C 
ATOM     29  C   UNL     1      12.094   7.039  16.538  1.00  0.00     0.012 C 
ENDBRANCH  20  27
BRANCH  21  30
ATOM     30  O   UNL     1      17.221   7.065  17.220  1.00  0.00    -0.504 OA
ATOM     31  H   UNL     1      18.161   6.870  17.538  1.00  0.00     0.293 HD
ENDBRANCH  21  30
BRANCH  22  32
ATOM     32  O   UNL     1      14.878   7.969  16.122  1.00  0.00    -0.504 OA
ATOM     33  H   UNL     1      14.633   8.868  15.724  1.00  0.00     0.293 HD
ENDBRANCH  22  32
ENDBRANCH  11  12
BRANCH  10  34
ATOM     34  O   UNL     1      13.600   5.682  24.114  1.00  0.00    -0.507 OA
ATOM     35  H   UNL     1      13.527   4.772  24.552  1.00  0.00     0.293 HD
ENDBRANCH  10  34
BRANCH   9  36
ATOM     36  C   UNL     1      14.816   9.478  29.006  1.00  0.00     0.017 C 
ATOM     37  C   UNL     1      16.171   9.507  29.720  1.00  0.00     0.012 C 
ATOM     38  C   UNL     1      13.668   9.839  29.968  1.00  0.00     0.012 C 
ENDBRANCH   9  36
BRANCH   6  39
ATOM     39  C   UNL     1      13.429   4.429  26.420  1.00  0.00     0.264 C 
ATOM     40  O   UNL     1      12.205   4.240  26.191  1.00  0.00    -0.298 OA
ENDBRANCH   6  39
BRANCH   8  41
ATOM     41  O   UNL     1      14.803   6.944  30.376  1.00  0.00    -0.504 OA
ATOM     42  H   UNL     1      15.318   7.686  30.832  1.00  0.00     0.293 HD
ENDBRANCH   8  41
BRANCH   7  43
ATOM     43  O   UNL     1      13.936   4.627  29.208  1.00  0.00    -0.504 OA
ATOM     44  H   UNL     1      13.311   4.597  30.001  1.00  0.00     0.293 HD
ENDBRANCH   7  43
TORSDOF 11
ENDMDL
MODEL 6
REMARK VINA RESULT:    -6.350      2.631      9.415
REMARK INTER + INTRA:         -10.344
REMARK INTER:                  -9.256
REMARK INTRA:                  -1.088
REMARK UNBOUND:                -1.025
REMARK SMILES Cc1cc2c(C(C)C)c(O)c(O)c(C=O)c2c(O)c1-c1c(C)cc2c(C(C)C)c(O)c(O)c(C=O)c2c1O
REMARK SMILES IDX 1 1 2 2 3 3 4 4 16 5 13 6 11 7 9 8 5 9 17 10 19 11 20 12
REMARK SMILES IDX 37 13 21 14 36 15 23 16 22 17 24 18 33 19 25 20 31 21 29 22
REMARK SMILES IDX 38 23 34 25 35 26 26 27 27 28 28 29 32 30 30 32 18 34 6 36
REMARK SMILES IDX 7 37 8 38 14 39 15 40 10 41 12 43
REMARK H PARENT 38 24 32 31 30 33 18 35 10 42 12 44
REMARK Flexibility Score: inf
ROOT
ATOM      1  C   UNL     1      15.925   9.692  22.499  1.00  0.00     0.045 C 
ATOM      2  C   UNL     1      15.310   8.596  23.336  1.00  0.00    -0.039 A 
ATOM      3  C   UNL     1      15.141   8.793  24.706  1.00  0.00     0.013 A 
ATOM      4  C   UNL     1      14.542   7.817  25.533  1.00  0.00    -0.006 A 
ATOM      5  C   UNL     1      14.194   6.552  24.964  1.00  0.00     0.039 A 
ATOM      6  C   UNL     1      13.715   5.518  25.826  1.00  0.00     0.072 A 
ATOM      7  C   UNL     1      13.653   5.735  27.218  1.00  0.00     0.169 A 
ATOM      8  C   UNL     1      13.989   6.980  27.759  1.00  0.00     0.162 A 
ATOM      9  C   UNL     1      14.321   8.066  26.924  1.00  0.00     0.008 A 
ATOM     10  C   UNL     1      14.370   6.355  23.560  1.00  0.00     0.132 A 
ATOM     11  C   UNL     1      14.909   7.383  22.755  1.00  0.00     0.031 A 
ENDROOT
BRANCH  11  12
ATOM     12  C   UNL     1      15.081   7.180  21.292  1.00  0.00     0.031 A 
ATOM     13  C   UNL     1      14.007   7.431  20.412  1.00  0.00     0.132 A 
ATOM     14  C   UNL     1      16.303   6.703  20.791  1.00  0.00    -0.039 A 
ATOM     15  C   UNL     1      14.177   7.285  19.003  1.00  0.00     0.039 A 
ATOM     16  C   UNL     1      16.444   6.474  19.422  1.00  0.00     0.013 A 
ATOM     17  C   UNL     1      17.444   6.354  21.717  1.00  0.00     0.045 C 
ATOM     18  C   UNL     1      15.421   6.796  18.501  1.00  0.00    -0.006 A 
ATOM     19  C   UNL     1      13.124   7.562  18.080  1.00  0.00     0.072 A 
ATOM     20  C   UNL     1      15.602   6.600  17.098  1.00  0.00     0.008 A 
ATOM     21  C   UNL     1      13.256   7.178  16.733  1.00  0.00     0.169 A 
ATOM     22  C   UNL     1      14.469   6.667  16.258  1.00  0.00     0.162 A 
BRANCH  13  23
ATOM     23  O   UNL     1      12.759   7.780  20.941  1.00  0.00    -0.507 OA
ATOM     24  H   UNL     1      12.476   7.591  21.895  1.00  0.00     0.293 HD
ENDBRANCH  13  23
BRANCH  19  25
ATOM     25  C   UNL     1      11.897   8.286  18.474  1.00  0.00     0.264 C 
ATOM     26  O   UNL     1      11.493   9.268  17.796  1.00  0.00    -0.298 OA
ENDBRANCH  19  25
BRANCH  20  27
ATOM     27  C   UNL     1      16.982   6.289  16.491  1.00  0.00     0.017 C 
ATOM     28  C   UNL     1      17.027   4.860  15.942  1.00  0.00     0.012 C 
ATOM     29  C   UNL     1      17.443   7.310  15.433  1.00  0.00     0.012 C 
ENDBRANCH  20  27
BRANCH  21  30
ATOM     30  O   UNL     1      12.202   7.322  15.822  1.00  0.00    -0.504 OA
ATOM     31  H   UNL     1      12.273   7.116  14.835  1.00  0.00     0.293 HD
ENDBRANCH  21  30
BRANCH  22  32
ATOM     32  O   UNL     1      14.555   6.230  14.935  1.00  0.00    -0.504 OA
ATOM     33  H   UNL     1      13.802   5.742  14.464  1.00  0.00     0.293 HD
ENDBRANCH  22  32
ENDBRANCH  11  12
BRANCH  10  34
ATOM     34  O   UNL     1      14.021   5.139  22.963  1.00  0.00    -0.507 OA
ATOM     35  H   UNL     1      13.656   5.053  22.022  1.00  0.00     0.293 HD
ENDBRANCH  10  34
BRANCH   9  36
ATOM     36  C   UNL     1      14.457   9.476  27.526  1.00  0.00     0.017 C 
ATOM     37  C   UNL     1      15.446   9.477  28.695  1.00  0.00     0.012 C 
ATOM     38  C   UNL     1      13.113  10.114  27.929  1.00  0.00     0.012 C 
ENDBRANCH   9  36
BRANCH   6  39
ATOM     39  C   UNL     1      13.294   4.200  25.310  1.00  0.00     0.264 C 
ATOM     40  O   UNL     1      12.073   3.930  25.169  1.00  0.00    -0.298 OA
ENDBRANCH   6  39
BRANCH   8  41
ATOM     41  O   UNL     1      13.990   7.142  29.147  1.00  0.00    -0.504 OA
ATOM     42  H   UNL     1      13.334   7.739  29.634  1.00  0.00     0.293 HD
ENDBRANCH   8  41
BRANCH   7  43
ATOM     43  O   UNL     1      13.228   4.732  28.099  1.00  0.00    -0.504 OA
ATOM     44  H   UNL     1      13.501   3.762  28.029  1.00  0.00     0.293 HD
ENDBRANCH   7  43
TORSDOF 11
ENDMDL
MODEL 7
REMARK VINA RESULT:    -6.163      1.611      3.084
REMARK INTER + INTRA:         -10.070
REMARK INTER:                  -9.595
REMARK INTRA:                  -0.475
REMARK UNBOUND:                -1.025
REMARK SMILES Cc1cc2c(C(C)C)c(O)c(O)c(C=O)c2c(O)c1-c1c(C)cc2c(C(C)C)c(O)c(O)c(C=O)c2c1O
REMARK SMILES IDX 1 1 2 2 3 3 4 4 16 5 13 6 11 7 9 8 5 9 17 10 19 11 20 12
REMARK SMILES IDX 37 13 21 14 36 15 23 16 22 17 24 18 33 19 25 20 31 21 29 22
REMARK SMILES IDX 38 23 34 25 35 26 26 27 27 28 28 29 32 30 30 32 18 34 6 36
REMARK SMILES IDX 7 37 8 38 14 39 15 40 10 41 12 43
REMARK H PARENT 38 24 32 31 30 33 18 35 10 42 12 44
REMARK Flexibility Score: inf
ROOT
ATOM      1  C   UNL     1      17.968   9.125  24.883  1.00  0.00     0.045 C 
ATOM      2  C   UNL     1      16.841   8.864  23.913  1.00  0.00    -0.039 A 
ATOM      3  C   UNL     1      17.072   8.989  22.543  1.00  0.00     0.013 A 
ATOM      4  C   UNL     1      16.066   8.727  21.588  1.00  0.00    -0.006 A 
ATOM      5  C   UNL     1      14.745   8.423  22.044  1.00  0.00     0.039 A 
ATOM      6  C   UNL     1      13.698   8.293  21.082  1.00  0.00     0.072 A 
ATOM      7  C   UNL     1      13.963   8.523  19.717  1.00  0.00     0.169 A 
ATOM      8  C   UNL     1      15.261   8.811  19.284  1.00  0.00     0.162 A 
ATOM      9  C   UNL     1      16.344   8.800  20.187  1.00  0.00     0.008 A 
ATOM     10  C   UNL     1      14.513   8.298  23.449  1.00  0.00     0.132 A 
ATOM     11  C   UNL     1      15.565   8.501  24.370  1.00  0.00     0.031 A 
ENDROOT
BRANCH  11  12
ATOM     12  C   UNL     1      15.323   8.358  25.830  1.00  0.00     0.031 A 
ATOM     13  C   UNL     1      14.595   9.346  26.525  1.00  0.00     0.132 A 
ATOM     14  C   UNL     1      15.850   7.256  26.522  1.00  0.00    -0.039 A 
ATOM     15  C   UNL     1      14.315   9.194  27.916  1.00  0.00     0.039 A 
ATOM     16  C   UNL     1      15.655   7.150  27.899  1.00  0.00     0.013 A 
ATOM     17  C   UNL     1      16.697   6.224  25.816  1.00  0.00     0.045 C 
ATOM     18  C   UNL     1      14.858   8.073  28.614  1.00  0.00    -0.006 A 
ATOM     19  C   UNL     1      13.553  10.156  28.646  1.00  0.00     0.072 A 
ATOM     20  C   UNL     1      14.629   7.920  30.016  1.00  0.00     0.008 A 
ATOM     21  C   UNL     1      13.508  10.090  30.052  1.00  0.00     0.169 A 
ATOM     22  C   UNL     1      14.073   9.005  30.728  1.00  0.00     0.162 A 
BRANCH  13  23
ATOM     23  O   UNL     1      14.189  10.501  25.846  1.00  0.00    -0.507 OA
ATOM     24  H   UNL     1      14.681  10.891  25.051  1.00  0.00     0.293 HD
ENDBRANCH  13  23
BRANCH  19  25
ATOM     25  C   UNL     1      12.762  11.209  27.978  1.00  0.00     0.264 C 
ATOM     26  O   UNL     1      11.573  10.985  27.626  1.00  0.00    -0.298 OA
ENDBRANCH  19  25
BRANCH  20  27
ATOM     27  C   UNL     1      15.002   6.628  30.765  1.00  0.00     0.017 C 
ATOM     28  C   UNL     1      14.370   5.406  30.093  1.00  0.00     0.012 C 
ATOM     29  C   UNL     1      16.518   6.437  30.963  1.00  0.00     0.012 C 
ENDBRANCH  20  27
BRANCH  21  30
ATOM     30  O   UNL     1      12.872  11.080  30.811  1.00  0.00    -0.504 OA
ATOM     31  H   UNL     1      13.027  11.223  31.800  1.00  0.00     0.293 HD
ENDBRANCH  21  30
BRANCH  22  32
ATOM     32  O   UNL     1      14.074   8.996  32.125  1.00  0.00    -0.504 OA
ATOM     33  H   UNL     1      13.260   9.228  32.680  1.00  0.00     0.293 HD
ENDBRANCH  22  32
ENDBRANCH  11  12
BRANCH  10  34
ATOM     34  O   UNL     1      13.239   7.981  23.933  1.00  0.00    -0.507 OA
ATOM     35  H   UNL     1      12.379   8.363  23.560  1.00  0.00     0.293 HD
ENDBRANCH  10  34
BRANCH   9  36
ATOM     36  C   UNL     1      17.784   8.886  19.650  1.00  0.00     0.017 C 
ATOM     37  C   UNL     1      18.086  10.292  19.122  1.00  0.00     0.012 C 
ATOM     38  C   UNL     1      18.125   7.809  18.602  1.00  0.00     0.012 C 
ENDBRANCH   9  36
BRANCH   6  39
ATOM     39  C   UNL     1      12.317   7.938  21.470  1.00  0.00     0.264 C 
ATOM     40  O   UNL     1      12.009   6.742  21.713  1.00  0.00    -0.298 OA
ENDBRANCH   6  39
BRANCH   8  41
ATOM     41  O   UNL     1      15.480   9.108  17.936  1.00  0.00    -0.504 OA
ATOM     42  H   UNL     1      16.107   8.575  17.348  1.00  0.00     0.293 HD
ENDBRANCH   8  41
BRANCH   7  43
ATOM     43  O   UNL     1      12.954   8.444  18.749  1.00  0.00    -0.504 OA
ATOM     44  H   UNL     1      12.303   7.675  18.669  1.00  0.00     0.293 HD
ENDBRANCH   7  43
TORSDOF 11
ENDMDL
MODEL 8
REMARK VINA RESULT:    -6.051      2.582      9.193
REMARK INTER + INTRA:          -9.906
REMARK INTER:                  -8.734
REMARK INTRA:                  -1.172
REMARK UNBOUND:                -1.025
REMARK SMILES Cc1cc2c(C(C)C)c(O)c(O)c(C=O)c2c(O)c1-c1c(C)cc2c(C(C)C)c(O)c(O)c(C=O)c2c1O
REMARK SMILES IDX 1 1 2 2 3 3 4 4 16 5 13 6 11 7 9 8 5 9 17 10 19 11 20 12
REMARK SMILES IDX 37 13 21 14 36 15 23 16 22 17 24 18 33 19 25 20 31 21 29 22
REMARK SMILES IDX 38 23 34 25 35 26 26 27 27 28 28 29 32 30 30 32 18 34 6 36
REMARK SMILES IDX 7 37 8 38 14 39 15 40 10 41 12 43
REMARK H PARENT 38 24 32 31 30 33 18 35 10 42 12 44
REMARK Flexibility Score: inf
ROOT
ATOM      1  C   UNL     1      13.257   3.898  22.278  1.00  0.00     0.045 C 
ATOM      2  C   UNL     1      13.742   5.125  23.013  1.00  0.00    -0.039 A 
ATOM      3  C   UNL     1      13.576   5.207  24.395  1.00  0.00     0.013 A 
ATOM      4  C   UNL     1      14.038   6.314  25.140  1.00  0.00    -0.006 A 
ATOM      5  C   UNL     1      14.599   7.428  24.440  1.00  0.00     0.039 A 
ATOM      6  C   UNL     1      14.941   8.602  25.177  1.00  0.00     0.072 A 
ATOM      7  C   UNL     1      14.665   8.671  26.558  1.00  0.00     0.169 A 
ATOM      8  C   UNL     1      14.123   7.572  27.231  1.00  0.00     0.162 A 
ATOM      9  C   UNL     1      13.914   6.347  26.564  1.00  0.00     0.008 A 
ATOM     10  C   UNL     1      14.766   7.340  23.023  1.00  0.00     0.132 A 
ATOM     11  C   UNL     1      14.353   6.184  22.324  1.00  0.00     0.031 A 
ENDROOT
BRANCH  11  12
ATOM     12  C   UNL     1      14.538   6.090  20.852  1.00  0.00     0.031 A 
ATOM     13  C   UNL     1      13.576   6.646  19.982  1.00  0.00     0.132 A 
ATOM     14  C   UNL     1      15.653   5.417  20.328  1.00  0.00    -0.039 A 
ATOM     15  C   UNL     1      13.769   6.605  18.569  1.00  0.00     0.039 A 
ATOM     16  C   UNL     1      15.799   5.297  18.946  1.00  0.00     0.013 A 
ATOM     17  C   UNL     1      16.658   4.748  21.236  1.00  0.00     0.045 C 
ATOM     18  C   UNL     1      14.904   5.915  18.044  1.00  0.00    -0.006 A 
ATOM     19  C   UNL     1      12.835   7.186  17.659  1.00  0.00     0.072 A 
ATOM     20  C   UNL     1      15.097   5.822  16.631  1.00  0.00     0.008 A 
ATOM     21  C   UNL     1      12.940   6.914  16.282  1.00  0.00     0.169 A 
ATOM     22  C   UNL     1      14.038   6.207  15.781  1.00  0.00     0.162 A 
BRANCH  13  23
ATOM     23  O   UNL     1      12.408   7.198  20.520  1.00  0.00    -0.507 OA
ATOM     24  H   UNL     1      11.986   6.893  21.388  1.00  0.00     0.293 HD
ENDBRANCH  13  23
BRANCH  19  25
ATOM     25  C   UNL     1      11.772   8.111  18.101  1.00  0.00     0.264 C 
ATOM     26  O   UNL     1      11.697   9.272  17.618  1.00  0.00    -0.298 OA
ENDBRANCH  19  25
BRANCH  20  27
ATOM     27  C   UNL     1      16.405   5.286  16.023  1.00  0.00     0.017 C 
ATOM     28  C   UNL     1      16.187   3.912  15.382  1.00  0.00     0.012 C 
ATOM     29  C   UNL     1      17.081   6.261  15.040  1.00  0.00     0.012 C 
ENDBRANCH  20  27
BRANCH  21  30
ATOM     30  O   UNL     1      11.977   7.365  15.370  1.00  0.00    -0.504 OA
ATOM     31  H   UNL     1      12.090   8.179  14.782  1.00  0.00     0.293 HD
ENDBRANCH  21  30
BRANCH  22  32
ATOM     32  O   UNL     1      14.085   5.891  14.422  1.00  0.00    -0.504 OA
ATOM     33  H   UNL     1      14.749   5.235  14.029  1.00  0.00     0.293 HD
ENDBRANCH  22  32
ENDBRANCH  11  12
BRANCH  10  34
ATOM     34  O   UNL     1      15.331   8.400  22.306  1.00  0.00    -0.507 OA
ATOM     35  H   UNL     1      15.072   8.646  21.359  1.00  0.00     0.293 HD
ENDBRANCH  10  34
BRANCH   9  36
ATOM     36  C   UNL     1      13.541   5.092  27.374  1.00  0.00     0.017 C 
ATOM     37  C   UNL     1      14.554   3.969  27.137  1.00  0.00     0.012 C 
ATOM     38  C   UNL     1      12.098   4.605  27.140  1.00  0.00     0.012 C 
ENDBRANCH   9  36
BRANCH   6  39
ATOM     39  C   UNL     1      15.565   9.777  24.535  1.00  0.00     0.264 C 
ATOM     40  O   UNL     1      14.863  10.757  24.174  1.00  0.00    -0.298 OA
ENDBRANCH   6  39
BRANCH   8  41
ATOM     41  O   UNL     1      13.791   7.695  28.583  1.00  0.00    -0.504 OA
ATOM     42  H   UNL     1      14.412   8.104  29.269  1.00  0.00     0.293 HD
ENDBRANCH   8  41
BRANCH   7  43
ATOM     43  O   UNL     1      14.948   9.821  27.307  1.00  0.00    -0.504 OA
ATOM     44  H   UNL     1      14.316  10.228  27.984  1.00  0.00     0.293 HD
ENDBRANCH   7  43
TORSDOF 11
ENDMDL
MODEL 9
REMARK VINA RESULT:    -6.002      2.113      3.275
REMARK INTER + INTRA:          -9.834
REMARK INTER:                  -8.673
REMARK INTRA:                  -1.161
REMARK UNBOUND:                -1.025
REMARK SMILES Cc1cc2c(C(C)C)c(O)c(O)c(C=O)c2c(O)c1-c1c(C)cc2c(C(C)C)c(O)c(O)c(C=O)c2c1O
REMARK SMILES IDX 1 1 2 2 3 3 4 4 16 5 13 6 11 7 9 8 5 9 17 10 19 11 20 12
REMARK SMILES IDX 37 13 21 14 36 15 23 16 22 17 24 18 33 19 25 20 31 21 29 22
REMARK SMILES IDX 38 23 34 25 35 26 26 27 27 28 28 29 32 30 30 32 18 34 6 36
REMARK SMILES IDX 7 37 8 38 14 39 15 40 10 41 12 43
REMARK H PARENT 38 24 32 31 30 33 18 35 10 42 12 44
REMARK Flexibility Score: inf
ROOT
ATOM      1  C   UNL     1      11.960   8.660  22.922  1.00  0.00     0.045 C 
ATOM      2  C   UNL     1      13.160   8.288  22.084  1.00  0.00    -0.039 A 
ATOM      3  C   UNL     1      13.031   8.211  20.697  1.00  0.00     0.013 A 
ATOM      4  C   UNL     1      14.125   7.899  19.861  1.00  0.00    -0.006 A 
ATOM      5  C   UNL     1      15.375   7.553  20.463  1.00  0.00     0.039 A 
ATOM      6  C   UNL     1      16.441   7.106  19.625  1.00  0.00     0.072 A 
ATOM      7  C   UNL     1      16.231   6.954  18.239  1.00  0.00     0.169 A 
ATOM      8  C   UNL     1      15.007   7.305  17.663  1.00  0.00     0.162 A 
ATOM      9  C   UNL     1      13.984   7.890  18.438  1.00  0.00     0.008 A 
ATOM     10  C   UNL     1      15.501   7.631  21.884  1.00  0.00     0.132 A 
ATOM     11  C   UNL     1      14.400   8.015  22.681  1.00  0.00     0.031 A 
ENDROOT
BRANCH  11  12
ATOM     12  C   UNL     1      14.538   8.107  24.159  1.00  0.00     0.031 A 
ATOM     13  C   UNL     1      14.355   6.959  24.958  1.00  0.00     0.132 A 
ATOM     14  C   UNL     1      14.814   9.345  24.759  1.00  0.00    -0.039 A 
ATOM     15  C   UNL     1      14.534   7.026  26.372  1.00  0.00     0.039 A 
ATOM     16  C   UNL     1      14.901   9.433  26.149  1.00  0.00     0.013 A 
ATOM     17  C   UNL     1      14.939  10.604  23.933  1.00  0.00     0.045 C 
ATOM     18  C   UNL     1      14.811   8.290  26.977  1.00  0.00    -0.006 A 
ATOM     19  C   UNL     1      14.392   5.880  27.210  1.00  0.00     0.072 A 
ATOM     20  C   UNL     1      14.951   8.393  28.395  1.00  0.00     0.008 A 
ATOM     21  C   UNL     1      14.337   6.037  28.608  1.00  0.00     0.169 A 
ATOM     22  C   UNL     1      14.577   7.287  29.188  1.00  0.00     0.162 A 
BRANCH  13  23
ATOM     23  O   UNL     1      13.952   5.763  24.353  1.00  0.00    -0.507 OA
ATOM     24  H   UNL     1      13.079   5.648  23.853  1.00  0.00     0.293 HD
ENDBRANCH  13  23
BRANCH  19  25
ATOM     25  C   UNL     1      14.340   4.507  26.668  1.00  0.00     0.264 C 
ATOM     26  O   UNL     1      15.405   3.877  26.427  1.00  0.00    -0.298 OA
ENDBRANCH  19  25
BRANCH  20  27
ATOM     27  C   UNL     1      15.464   9.677  29.071  1.00  0.00     0.017 C 
ATOM     28  C   UNL     1      14.311  10.450  29.719  1.00  0.00     0.012 C 
ATOM     29  C   UNL     1      16.611   9.439  30.071  1.00  0.00     0.012 C 
ENDBRANCH  20  27
BRANCH  21  30
ATOM     30  O   UNL     1      14.079   4.955  29.458  1.00  0.00    -0.504 OA
ATOM     31  H   UNL     1      13.689   5.044  30.386  1.00  0.00     0.293 HD
ENDBRANCH  21  30
BRANCH  22  32
ATOM     32  O   UNL     1      14.451   7.433  30.572  1.00  0.00    -0.504 OA
ATOM     33  H   UNL     1      14.464   8.333  31.036  1.00  0.00     0.293 HD
ENDBRANCH  22  32
ENDBRANCH  11  12
BRANCH  10  34
ATOM     34  O   UNL     1      16.714   7.321  22.508  1.00  0.00    -0.507 OA
ATOM     35  H   UNL     1      17.623   7.516  22.109  1.00  0.00     0.293 HD
ENDBRANCH  10  34
BRANCH   9  36
ATOM     36  C   UNL     1      12.743   8.479  17.742  1.00  0.00     0.017 C 
ATOM     37  C   UNL     1      12.738  10.007  17.839  1.00  0.00     0.012 C 
ATOM     38  C   UNL     1      11.410   7.881  18.232  1.00  0.00     0.012 C 
ENDBRANCH   9  36
BRANCH   6  39
ATOM     39  C   UNL     1      17.775   6.771  20.165  1.00  0.00     0.264 C 
ATOM     40  O   UNL     1      18.123   5.571  20.310  1.00  0.00    -0.298 OA
ENDBRANCH   6  39
BRANCH   8  41
ATOM     41  O   UNL     1      14.802   7.073  16.300  1.00  0.00    -0.504 OA
ATOM     42  H   UNL     1      15.203   7.654  15.575  1.00  0.00     0.293 HD
ENDBRANCH   8  41
BRANCH   7  43
ATOM     43  O   UNL     1      17.240   6.479  17.391  1.00  0.00    -0.504 OA
ATOM     44  H   UNL     1      17.093   6.211  16.428  1.00  0.00     0.293 HD
ENDBRANCH   7  43
TORSDOF 11
ENDMDL
