MODEL 1
REMARK VINA RESULT:    -3.424      0.000      0.000
REMARK INTER + INTRA:          -6.806
REMARK INTER:                  -5.525
REMARK INTRA:                  -1.280
REMARK UNBOUND:                -1.280
REMARK SMILES CCCCCCCCCCCCO
REMARK SMILES IDX 7 1 6 2 5 3 4 4 3 5 2 6 1 7 8 8 9 9 10 10 11 11 12 12 13 13
REMARK H PARENT 13 14
REMARK Flexibility Score: inf
ROOT
ATOM      1  C   UNL     1      10.380   0.033  30.559  1.00  0.00     0.000 C 
ENDROOT
BRANCH   1   2
ATOM      2  C   UNL     1      10.996   1.434  30.397  1.00  0.00    -0.000 C 
BRANCH   2   3
ATOM      3  C   UNL     1      10.896   2.278  31.678  1.00  0.00    -0.000 C 
BRANCH   3   4
ATOM      4  C   UNL     1      12.231   2.358  32.437  1.00  0.00    -0.000 C 
BRANCH   4   5
ATOM      5  C   UNL     1      12.282   1.427  33.662  1.00  0.00    -0.000 C 
BRANCH   5   6
ATOM      6  C   UNL     1      12.896   0.040  33.400  1.00  0.00    -0.003 C 
ATOM      7  C   UNL     1      13.921   0.044  32.265  1.00  0.00     0.004 C 
ENDBRANCH   5   6
ENDBRANCH   4   5
ENDBRANCH   3   4
ENDBRANCH   2   3
ENDBRANCH   1   2
BRANCH   1   8
ATOM      8  C   UNL     1       9.389  -0.044  31.731  1.00  0.00     0.000 C 
BRANCH   8   9
ATOM      9  C   UNL     1       9.564  -1.319  32.570  1.00  0.00     0.000 C 
BRANCH   9  10
ATOM     10  C   UNL     1       9.374  -1.025  34.063  1.00  0.00     0.002 C 
BRANCH  10  11
ATOM     11  C   UNL     1       7.927  -1.291  34.497  1.00  0.00     0.028 C 
BRANCH  11  12
ATOM     12  C   UNL     1       7.628  -0.695  35.877  1.00  0.00     0.156 C 
BRANCH  12  13
ATOM     13  O   UNL     1       6.271  -0.363  35.996  1.00  0.00    -0.396 OA
ATOM     14  H   UNL     1       6.191   0.597  35.758  1.00  0.00     0.210 HD
ENDBRANCH  12  13
ENDBRANCH  11  12
ENDBRANCH  10  11
ENDBRANCH   9  10
ENDBRANCH   8   9
ENDBRANCH   1   8
TORSDOF 11
ENDMDL
MODEL 2
REMARK VINA RESULT:    -3.386      0.892      2.206
REMARK INTER + INTRA:          -6.744
REMARK INTER:                  -5.734
REMARK INTRA:                  -1.010
REMARK UNBOUND:                -1.280
REMARK SMILES CCCCCCCCCCCCO
REMARK SMILES IDX 7 1 6 2 5 3 4 4 3 5 2 6 1 7 8 8 9 9 10 10 11 11 12 12 13 13
REMARK H PARENT 13 14
REMARK Flexibility Score: inf
ROOT
ATOM      1  C   UNL     1       9.491  -1.636  32.252  1.00  0.00     0.000 C 
ENDROOT
BRANCH   1   2
ATOM      2  C   UNL     1       9.313  -0.259  31.588  1.00  0.00    -0.000 C 
BRANCH   2   3
ATOM      3  C   UNL     1      10.271  -0.042  30.405  1.00  0.00    -0.000 C 
BRANCH   3   4
ATOM      4  C   UNL     1      11.220   1.147  30.626  1.00  0.00    -0.000 C 
BRANCH   4   5
ATOM      5  C   UNL     1      10.816   2.021  31.828  1.00  0.00    -0.000 C 
BRANCH   5   6
ATOM      6  C   UNL     1      11.901   2.185  32.908  1.00  0.00    -0.003 C 
ATOM      7  C   UNL     1      12.730   0.919  33.119  1.00  0.00     0.004 C 
ENDBRANCH   5   6
ENDBRANCH   4   5
ENDBRANCH   3   4
ENDBRANCH   2   3
ENDBRANCH   1   2
BRANCH   1   8
ATOM      8  C   UNL     1      10.021  -1.534  33.691  1.00  0.00     0.000 C 
BRANCH   8   9
ATOM      9  C   UNL     1       8.963  -1.008  34.673  1.00  0.00     0.000 C 
BRANCH   9  10
ATOM     10  C   UNL     1       7.845  -2.036  34.877  1.00  0.00     0.002 C 
BRANCH  10  11
ATOM     11  C   UNL     1       6.488  -1.344  35.059  1.00  0.00     0.028 C 
BRANCH  11  12
ATOM     12  C   UNL     1       6.109  -1.215  36.539  1.00  0.00     0.156 C 
BRANCH  12  13
ATOM     13  O   UNL     1       6.132   0.127  36.947  1.00  0.00    -0.396 OA
ATOM     14  H   UNL     1       6.893   0.554  36.475  1.00  0.00     0.210 HD
ENDBRANCH  12  13
ENDBRANCH  11  12
ENDBRANCH  10  11
ENDBRANCH   9  10
ENDBRANCH   8   9
ENDBRANCH   1   8
TORSDOF 11
ENDMDL
MODEL 3
REMARK VINA RESULT:    -3.312      2.948      5.568
REMARK INTER + INTRA:          -6.626
REMARK INTER:                  -5.950
REMARK INTRA:                  -0.676
REMARK UNBOUND:                -1.280
REMARK SMILES CCCCCCCCCCCCO
REMARK SMILES IDX 7 1 6 2 5 3 4 4 3 5 2 6 1 7 8 8 9 9 10 10 11 11 12 12 13 13
REMARK H PARENT 13 14
REMARK Flexibility Score: inf
ROOT
ATOM      1  C   UNL     1      10.655   0.116  30.736  1.00  0.00     0.000 C 
ENDROOT
BRANCH   1   2
ATOM      2  C   UNL     1       9.281   0.016  31.422  1.00  0.00    -0.000 C 
BRANCH   2   3
ATOM      3  C   UNL     1       9.207  -1.138  32.436  1.00  0.00    -0.000 C 
BRANCH   3   4
ATOM      4  C   UNL     1       9.843  -0.775  33.788  1.00  0.00    -0.000 C 
BRANCH   4   5
ATOM      5  C   UNL     1       9.049  -1.321  34.989  1.00  0.00    -0.000 C 
BRANCH   5   6
ATOM      6  C   UNL     1       7.658  -1.884  34.648  1.00  0.00    -0.003 C 
ATOM      7  C   UNL     1       6.523  -1.144  35.356  1.00  0.00     0.004 C 
ENDBRANCH   5   6
ENDBRANCH   4   5
ENDBRANCH   3   4
ENDBRANCH   2   3
ENDBRANCH   1   2
BRANCH   1   8
ATOM      8  C   UNL     1      11.013   1.557  30.339  1.00  0.00     0.000 C 
BRANCH   8   9
ATOM      9  C   UNL     1      10.858   2.546  31.505  1.00  0.00     0.000 C 
BRANCH   9  10
ATOM     10  C   UNL     1      11.935   2.312  32.570  1.00  0.00     0.002 C 
BRANCH  10  11
ATOM     11  C   UNL     1      12.151   3.570  33.421  1.00  0.00     0.028 C 
BRANCH  11  12
ATOM     12  C   UNL     1      13.418   4.326  33.005  1.00  0.00     0.156 C 
BRANCH  12  13
ATOM     13  O   UNL     1      13.965   5.023  34.093  1.00  0.00    -0.396 OA
ATOM     14  H   UNL     1      13.770   4.483  34.903  1.00  0.00     0.210 HD
ENDBRANCH  12  13
ENDBRANCH  11  12
ENDBRANCH  10  11
ENDBRANCH   9  10
ENDBRANCH   8   9
ENDBRANCH   1   8
TORSDOF 11
ENDMDL
MODEL 4
REMARK VINA RESULT:    -3.304      3.013      6.031
REMARK INTER + INTRA:          -6.612
REMARK INTER:                  -5.513
REMARK INTRA:                  -1.099
REMARK UNBOUND:                -1.280
REMARK SMILES CCCCCCCCCCCCO
REMARK SMILES IDX 7 1 6 2 5 3 4 4 3 5 2 6 1 7 8 8 9 9 10 10 11 11 12 12 13 13
REMARK H PARENT 13 14
REMARK Flexibility Score: inf
ROOT
ATOM      1  C   UNL     1       8.800  -3.613  34.431  1.00  0.00     0.000 C 
ENDROOT
BRANCH   1   2
ATOM      2  C   UNL     1       9.614  -3.034  35.602  1.00  0.00    -0.000 C 
BRANCH   2   3
ATOM      3  C   UNL     1       8.876  -3.139  36.946  1.00  0.00    -0.000 C 
BRANCH   3   4
ATOM      4  C   UNL     1       8.719  -1.776  37.641  1.00  0.00    -0.000 C 
BRANCH   4   5
ATOM      5  C   UNL     1       8.281  -0.659  36.675  1.00  0.00    -0.000 C 
BRANCH   5   6
ATOM      6  C   UNL     1       6.761  -0.541  36.463  1.00  0.00    -0.003 C 
ATOM      7  C   UNL     1       6.297  -1.124  35.128  1.00  0.00     0.004 C 
ENDBRANCH   5   6
ENDBRANCH   4   5
ENDBRANCH   3   4
ENDBRANCH   2   3
ENDBRANCH   1   2
BRANCH   1   8
ATOM      8  C   UNL     1       9.087  -2.898  33.101  1.00  0.00     0.000 C 
BRANCH   8   9
ATOM      9  C   UNL     1       9.670  -1.491  33.303  1.00  0.00     0.000 C 
BRANCH   9  10
ATOM     10  C   UNL     1       9.076  -0.501  32.294  1.00  0.00     0.002 C 
BRANCH  10  11
ATOM     11  C   UNL     1      10.049  -0.244  31.136  1.00  0.00     0.028 C 
BRANCH  11  12
ATOM     12  C   UNL     1      10.469   1.229  31.062  1.00  0.00     0.156 C 
BRANCH  12  13
ATOM     13  O   UNL     1      11.218   1.478  29.903  1.00  0.00    -0.396 OA
ATOM     14  H   UNL     1      11.749   0.658  29.727  1.00  0.00     0.210 HD
ENDBRANCH  12  13
ENDBRANCH  11  12
ENDBRANCH  10  11
ENDBRANCH   9  10
ENDBRANCH   8   9
ENDBRANCH   1   8
TORSDOF 11
ENDMDL
MODEL 5
REMARK VINA RESULT:    -3.295      2.960      4.556
REMARK INTER + INTRA:          -6.598
REMARK INTER:                  -5.073
REMARK INTRA:                  -1.525
REMARK UNBOUND:                -1.280
REMARK SMILES CCCCCCCCCCCCO
REMARK SMILES IDX 7 1 6 2 5 3 4 4 3 5 2 6 1 7 8 8 9 9 10 10 11 11 12 12 13 13
REMARK H PARENT 13 14
REMARK Flexibility Score: inf
ROOT
ATOM      1  C   UNL     1      10.424   0.237  30.429  1.00  0.00     0.000 C 
ENDROOT
BRANCH   1   2
ATOM      2  C   UNL     1       9.404   0.202  31.581  1.00  0.00    -0.000 C 
BRANCH   2   3
ATOM      3  C   UNL     1       9.695  -0.915  32.597  1.00  0.00    -0.000 C 
BRANCH   3   4
ATOM      4  C   UNL     1      11.183  -1.298  32.642  1.00  0.00    -0.000 C 
BRANCH   4   5
ATOM      5  C   UNL     1      11.986  -0.465  33.658  1.00  0.00    -0.000 C 
BRANCH   5   6
ATOM      6  C   UNL     1      13.463  -0.236  33.290  1.00  0.00    -0.003 C 
ATOM      7  C   UNL     1      13.761  -0.508  31.816  1.00  0.00     0.004 C 
ENDBRANCH   5   6
ENDBRANCH   4   5
ENDBRANCH   3   4
ENDBRANCH   2   3
ENDBRANCH   1   2
BRANCH   1   8
ATOM      8  C   UNL     1      11.073   1.619  30.256  1.00  0.00     0.000 C 
BRANCH   8   9
ATOM      9  C   UNL     1      10.886   2.517  31.489  1.00  0.00     0.000 C 
BRANCH   9  10
ATOM     10  C   UNL     1      12.229   3.088  31.961  1.00  0.00     0.002 C 
BRANCH  10  11
ATOM     11  C   UNL     1      12.255   3.243  33.487  1.00  0.00     0.028 C 
BRANCH  11  12
ATOM     12  C   UNL     1      12.126   4.710  33.912  1.00  0.00     0.156 C 
BRANCH  12  13
ATOM     13  O   UNL     1      13.362   5.219  34.337  1.00  0.00    -0.396 OA
ATOM     14  H   UNL     1      13.208   5.631  35.227  1.00  0.00     0.210 HD
ENDBRANCH  12  13
ENDBRANCH  11  12
ENDBRANCH  10  11
ENDBRANCH   9  10
ENDBRANCH   8   9
ENDBRANCH   1   8
TORSDOF 11
ENDMDL
MODEL 6
REMARK VINA RESULT:    -3.287      1.635      3.304
REMARK INTER + INTRA:          -6.586
REMARK INTER:                  -5.967
REMARK INTRA:                  -0.619
REMARK UNBOUND:                -1.280
REMARK SMILES CCCCCCCCCCCCO
REMARK SMILES IDX 7 1 6 2 5 3 4 4 3 5 2 6 1 7 8 8 9 9 10 10 11 11 12 12 13 13
REMARK H PARENT 13 14
REMARK Flexibility Score: inf
ROOT
ATOM      1  C   UNL     1       9.811  -0.960  34.032  1.00  0.00     0.000 C 
ENDROOT
BRANCH   1   2
ATOM      2  C   UNL     1       9.288  -1.440  32.666  1.00  0.00    -0.000 C 
BRANCH   2   3
ATOM      3  C   UNL     1       9.192  -0.303  31.635  1.00  0.00    -0.000 C 
BRANCH   3   4
ATOM      4  C   UNL     1      10.343  -0.333  30.617  1.00  0.00    -0.000 C 
BRANCH   4   5
ATOM      5  C   UNL     1      11.556   0.507  31.058  1.00  0.00    -0.000 C 
BRANCH   5   6
ATOM      6  C   UNL     1      11.311   2.025  31.114  1.00  0.00    -0.003 C 
ATOM      7  C   UNL     1      11.758   2.750  29.845  1.00  0.00     0.004 C 
ENDBRANCH   5   6
ENDBRANCH   4   5
ENDBRANCH   3   4
ENDBRANCH   2   3
ENDBRANCH   1   2
BRANCH   1   8
ATOM      8  C   UNL     1       8.980  -1.502  35.206  1.00  0.00     0.000 C 
BRANCH   8   9
ATOM      9  C   UNL     1       7.577  -1.956  34.775  1.00  0.00     0.000 C 
BRANCH   9  10
ATOM     10  C   UNL     1       6.501  -1.021  35.339  1.00  0.00     0.002 C 
BRANCH  10  11
ATOM     11  C   UNL     1       7.034  -0.230  36.541  1.00  0.00     0.028 C 
BRANCH  11  12
ATOM     12  C   UNL     1       6.335  -0.636  37.844  1.00  0.00     0.156 C 
BRANCH  12  13
ATOM     13  O   UNL     1       5.210   0.169  38.080  1.00  0.00    -0.396 OA
ATOM     14  H   UNL     1       5.539   1.103  38.149  1.00  0.00     0.210 HD
ENDBRANCH  12  13
ENDBRANCH  11  12
ENDBRANCH  10  11
ENDBRANCH   9  10
ENDBRANCH   8   9
ENDBRANCH   1   8
TORSDOF 11
ENDMDL
MODEL 7
REMARK VINA RESULT:    -3.273     10.792     12.935
REMARK INTER + INTRA:          -6.562
REMARK INTER:                  -5.376
REMARK INTRA:                  -1.186
REMARK UNBOUND:                -1.280
REMARK SMILES CCCCCCCCCCCCO
REMARK SMILES IDX 7 1 6 2 5 3 4 4 3 5 2 6 1 7 8 8 9 9 10 10 11 11 12 12 13 13
REMARK H PARENT 13 14
REMARK Flexibility Score: inf
ROOT
ATOM      1  C   UNL     1       8.714   7.930  44.880  1.00  0.00     0.000 C 
ENDROOT
BRANCH   1   2
ATOM      2  C   UNL     1       9.059   8.532  43.507  1.00  0.00    -0.000 C 
BRANCH   2   3
ATOM      3  C   UNL     1       9.945   7.604  42.658  1.00  0.00    -0.000 C 
BRANCH   3   4
ATOM      4  C   UNL     1       9.320   7.282  41.291  1.00  0.00    -0.000 C 
BRANCH   4   5
ATOM      5  C   UNL     1       8.728   5.862  41.222  1.00  0.00    -0.000 C 
BRANCH   5   6
ATOM      6  C   UNL     1       7.192   5.799  41.150  1.00  0.00    -0.003 C 
ATOM      7  C   UNL     1       6.547   7.169  40.943  1.00  0.00     0.004 C 
ENDBRANCH   5   6
ENDBRANCH   4   5
ENDBRANCH   3   4
ENDBRANCH   2   3
ENDBRANCH   1   2
BRANCH   1   8
ATOM      8  C   UNL     1       7.986   6.581  44.767  1.00  0.00     0.000 C 
BRANCH   8   9
ATOM      9  C   UNL     1       6.461   6.739  44.673  1.00  0.00     0.000 C 
BRANCH   9  10
ATOM     10  C   UNL     1       5.769   5.372  44.617  1.00  0.00     0.002 C 
BRANCH  10  11
ATOM     11  C   UNL     1       5.254   4.959  46.001  1.00  0.00     0.028 C 
BRANCH  11  12
ATOM     12  C   UNL     1       4.141   3.910  45.904  1.00  0.00     0.156 C 
BRANCH  12  13
ATOM     13  O   UNL     1       4.678   2.619  45.796  1.00  0.00    -0.396 OA
ATOM     14  H   UNL     1       5.199   2.458  46.625  1.00  0.00     0.210 HD
ENDBRANCH  12  13
ENDBRANCH  11  12
ENDBRANCH  10  11
ENDBRANCH   9  10
ENDBRANCH   8   9
ENDBRANCH   1   8
TORSDOF 11
ENDMDL
MODEL 8
REMARK VINA RESULT:    -3.264      2.933      5.080
REMARK INTER + INTRA:          -6.547
REMARK INTER:                  -4.957
REMARK INTRA:                  -1.590
REMARK UNBOUND:                -1.280
REMARK SMILES CCCCCCCCCCCCO
REMARK SMILES IDX 7 1 6 2 5 3 4 4 3 5 2 6 1 7 8 8 9 9 10 10 11 11 12 12 13 13
REMARK H PARENT 13 14
REMARK Flexibility Score: inf
ROOT
ATOM      1  C   UNL     1      12.026   2.327  32.466  1.00  0.00     0.000 C 
ENDROOT
BRANCH   1   2
ATOM      2  C   UNL     1      10.736   2.183  31.638  1.00  0.00    -0.000 C 
BRANCH   2   3
ATOM      3  C   UNL     1      10.950   1.388  30.341  1.00  0.00    -0.000 C 
BRANCH   3   4
ATOM      4  C   UNL     1      10.371  -0.035  30.419  1.00  0.00    -0.000 C 
BRANCH   4   5
ATOM      5  C   UNL     1       9.333  -0.198  31.545  1.00  0.00    -0.000 C 
BRANCH   5   6
ATOM      6  C   UNL     1       9.547  -1.421  32.455  1.00  0.00    -0.003 C 
ATOM      7  C   UNL     1       9.359  -1.102  33.938  1.00  0.00     0.004 C 
ENDBRANCH   5   6
ENDBRANCH   4   5
ENDBRANCH   3   4
ENDBRANCH   2   3
ENDBRANCH   1   2
BRANCH   1   8
ATOM      8  C   UNL     1      12.093   1.329  33.633  1.00  0.00     0.000 C 
BRANCH   8   9
ATOM      9  C   UNL     1      13.384   0.497  33.624  1.00  0.00     0.000 C 
BRANCH   9  10
ATOM     10  C   UNL     1      13.147  -0.879  32.991  1.00  0.00     0.002 C 
BRANCH  10  11
ATOM     11  C   UNL     1      13.723  -0.939  31.570  1.00  0.00     0.028 C 
BRANCH  11  12
ATOM     12  C   UNL     1      13.450  -2.291  30.902  1.00  0.00     0.156 C 
BRANCH  12  13
ATOM     13  O   UNL     1      13.676  -2.221  29.520  1.00  0.00    -0.396 OA
ATOM     14  H   UNL     1      13.313  -3.059  29.130  1.00  0.00     0.210 HD
ENDBRANCH  12  13
ENDBRANCH  11  12
ENDBRANCH  10  11
ENDBRANCH   9  10
ENDBRANCH   8   9
ENDBRANCH   1   8
TORSDOF 11
ENDMDL
MODEL 9
REMARK VINA RESULT:    -3.240      1.993      2.220
REMARK INTER + INTRA:          -6.509
REMARK INTER:                  -5.276
REMARK INTRA:                  -1.233
REMARK UNBOUND:                -1.280
REMARK SMILES CCCCCCCCCCCCO
REMARK SMILES IDX 7 1 6 2 5 3 4 4 3 5 2 6 1 7 8 8 9 9 10 10 11 11 12 12 13 13
REMARK H PARENT 13 14
REMARK Flexibility Score: inf
ROOT
ATOM      1  C   UNL     1      10.881   1.106  30.441  1.00  0.00     0.000 C 
ENDROOT
BRANCH   1   2
ATOM      2  C   UNL     1      10.346   2.213  31.365  1.00  0.00    -0.000 C 
BRANCH   2   3
ATOM      3  C   UNL     1      11.462   2.919  32.152  1.00  0.00    -0.000 C 
BRANCH   3   4
ATOM      4  C   UNL     1      12.717   2.044  32.308  1.00  0.00    -0.000 C 
BRANCH   4   5
ATOM      5  C   UNL     1      12.716   1.224  33.611  1.00  0.00    -0.000 C 
BRANCH   5   6
ATOM      6  C   UNL     1      13.672   0.017  33.622  1.00  0.00    -0.003 C 
ATOM      7  C   UNL     1      13.142  -1.172  32.820  1.00  0.00     0.004 C 
ENDBRANCH   5   6
ENDBRANCH   4   5
ENDBRANCH   3   4
ENDBRANCH   2   3
ENDBRANCH   1   2
BRANCH   1   8
ATOM      8  C   UNL     1      10.287  -0.274  30.767  1.00  0.00     0.000 C 
BRANCH   8   9
ATOM      9  C   UNL     1       9.097  -0.189  31.736  1.00  0.00     0.000 C 
BRANCH   9  10
ATOM     10  C   UNL     1       9.385  -0.964  33.028  1.00  0.00     0.002 C 
BRANCH  10  11
ATOM     11  C   UNL     1       9.547  -2.463  32.746  1.00  0.00     0.028 C 
BRANCH  11  12
ATOM     12  C   UNL     1       8.476  -3.295  33.460  1.00  0.00     0.156 C 
BRANCH  12  13
ATOM     13  O   UNL     1       8.903  -4.620  33.631  1.00  0.00    -0.396 OA
ATOM     14  H   UNL     1       9.172  -4.711  34.582  1.00  0.00     0.210 HD
ENDBRANCH  12  13
ENDBRANCH  11  12
ENDBRANCH  10  11
ENDBRANCH   9  10
ENDBRANCH   8   9
ENDBRANCH   1   8
TORSDOF 11
ENDMDL
