MODEL 1
REMARK VINA RESULT:    -3.738      0.000      0.000
REMARK INTER + INTRA:          -9.928
REMARK INTER:                  -7.015
REMARK INTRA:                  -2.913
REMARK UNBOUND:                -2.913
REMARK SMILES CCCCCCCCC=CCCCCCCCC(=O)[O-]
REMARK SMILES IDX 10 1 9 2 11 3 12 4 13 5 14 6 15 7 16 8 17 9 18 10 19 11
REMARK SMILES IDX 20 12 8 13 7 14 6 15 5 16 4 17 3 18 2 19 1 20
REMARK H PARENT
REMARK Flexibility Score: inf
ROOT
ATOM      1  C   UNL     1      77.190 -73.638  -2.309  1.00  0.00    -0.031 C 
ATOM      2  C   UNL     1      77.882 -74.759  -2.564  1.00  0.00    -0.031 C 
ENDROOT
BRANCH   1   3
ATOM      3  C   UNL     1      76.437 -72.915  -3.392  1.00  0.00     0.027 C 
BRANCH   3   4
ATOM      4  C   UNL     1      75.381 -73.824  -4.032  1.00  0.00     0.004 C 
BRANCH   4   5
ATOM      5  C   UNL     1      73.998 -73.163  -4.005  1.00  0.00     0.000 C 
BRANCH   5   6
ATOM      6  C   UNL     1      73.088 -73.831  -2.964  1.00  0.00     0.000 C 
BRANCH   6   7
ATOM      7  C   UNL     1      72.558 -72.846  -1.908  1.00  0.00     0.000 C 
BRANCH   7   8
ATOM      8  C   UNL     1      73.521 -72.564  -0.739  1.00  0.00     0.006 C 
BRANCH   8   9
ATOM      9  C   UNL     1      73.969 -71.098  -0.675  1.00  0.00     0.053 C 
BRANCH   9  10
ATOM     10  C   UNL     1      73.188 -70.359   0.365  1.00  0.00     0.041 C 
ATOM     11  O   UNL     1      73.394 -69.131   0.558  1.00  0.00    -0.550 OA
ATOM     12  O   UNL     1      72.197 -71.011   1.086  1.00  0.00    -0.550 OA
ENDBRANCH   9  10
ENDBRANCH   8   9
ENDBRANCH   7   8
ENDBRANCH   6   7
ENDBRANCH   5   6
ENDBRANCH   4   5
ENDBRANCH   3   4
ENDBRANCH   1   3
BRANCH   2  13
ATOM     13  C   UNL     1      78.649 -75.472  -1.484  1.00  0.00     0.027 C 
BRANCH  13  14
ATOM     14  C   UNL     1      78.392 -76.984  -1.528  1.00  0.00     0.004 C 
BRANCH  14  15
ATOM     15  C   UNL     1      78.102 -77.452  -2.958  1.00  0.00     0.000 C 
BRANCH  15  16
ATOM     16  C   UNL     1      76.801 -78.264  -3.017  1.00  0.00     0.000 C 
BRANCH  16  17
ATOM     17  C   UNL     1      75.631 -77.481  -3.642  1.00  0.00    -0.000 C 
BRANCH  17  18
ATOM     18  C   UNL     1      74.449 -77.212  -2.692  1.00  0.00    -0.000 C 
BRANCH  18  19
ATOM     19  C   UNL     1      74.824 -77.363  -1.211  1.00  0.00    -0.003 C 
ATOM     20  C   UNL     1      74.899 -76.004  -0.522  1.00  0.00     0.004 C 
ENDBRANCH  18  19
ENDBRANCH  17  18
ENDBRANCH  16  17
ENDBRANCH  15  16
ENDBRANCH  14  15
ENDBRANCH  13  14
ENDBRANCH   2  13
TORSDOF 15
ENDMDL
MODEL 2
REMARK VINA RESULT:    -3.656      1.403      2.117
REMARK INTER + INTRA:          -9.775
REMARK INTER:                  -6.651
REMARK INTRA:                  -3.124
REMARK UNBOUND:                -2.913
REMARK SMILES CCCCCCCCC=CCCCCCCCC(=O)[O-]
REMARK SMILES IDX 10 1 9 2 11 3 12 4 13 5 14 6 15 7 16 8 17 9 18 10 19 11
REMARK SMILES IDX 20 12 8 13 7 14 6 15 5 16 4 17 3 18 2 19 1 20
REMARK H PARENT
REMARK Flexibility Score: inf
ROOT
ATOM      1  C   UNL     1      77.699 -75.371  -1.487  1.00  0.00    -0.031 C 
ATOM      2  C   UNL     1      78.312 -76.488  -1.909  1.00  0.00    -0.031 C 
ENDROOT
BRANCH   1   3
ATOM      3  C   UNL     1      77.801 -74.080  -2.252  1.00  0.00     0.027 C 
BRANCH   3   4
ATOM      4  C   UNL     1      77.497 -74.294  -3.739  1.00  0.00     0.004 C 
BRANCH   4   5
ATOM      5  C   UNL     1      76.158 -73.655  -4.125  1.00  0.00     0.000 C 
BRANCH   5   6
ATOM      6  C   UNL     1      76.159 -72.149  -3.824  1.00  0.00     0.000 C 
BRANCH   6   7
ATOM      7  C   UNL     1      74.903 -71.687  -3.063  1.00  0.00     0.000 C 
BRANCH   7   8
ATOM      8  C   UNL     1      73.979 -72.821  -2.584  1.00  0.00     0.006 C 
BRANCH   8   9
ATOM      9  C   UNL     1      74.031 -73.033  -1.065  1.00  0.00     0.053 C 
BRANCH   9  10
ATOM     10  C   UNL     1      72.696 -72.751  -0.452  1.00  0.00     0.041 C 
ATOM     11  O   UNL     1      72.059 -71.711  -0.771  1.00  0.00    -0.550 OA
ATOM     12  O   UNL     1      72.129 -73.660   0.431  1.00  0.00    -0.550 OA
ENDBRANCH   9  10
ENDBRANCH   8   9
ENDBRANCH   7   8
ENDBRANCH   6   7
ENDBRANCH   5   6
ENDBRANCH   4   5
ENDBRANCH   3   4
ENDBRANCH   1   3
BRANCH   2  13
ATOM     13  C   UNL     1      78.224 -77.773  -1.134  1.00  0.00     0.027 C 
BRANCH  13  14
ATOM     14  C   UNL     1      77.806 -78.939  -2.040  1.00  0.00     0.004 C 
BRANCH  14  15
ATOM     15  C   UNL     1      77.312 -78.430  -3.399  1.00  0.00     0.000 C 
BRANCH  15  16
ATOM     16  C   UNL     1      75.784 -78.542  -3.505  1.00  0.00     0.000 C 
BRANCH  16  17
ATOM     17  C   UNL     1      75.103 -77.196  -3.814  1.00  0.00    -0.000 C 
BRANCH  17  18
ATOM     18  C   UNL     1      74.354 -76.560  -2.629  1.00  0.00    -0.000 C 
BRANCH  18  19
ATOM     19  C   UNL     1      74.426 -77.407  -1.350  1.00  0.00    -0.003 C 
ATOM     20  C   UNL     1      74.397 -76.527  -0.105  1.00  0.00     0.004 C 
ENDBRANCH  18  19
ENDBRANCH  17  18
ENDBRANCH  16  17
ENDBRANCH  15  16
ENDBRANCH  14  15
ENDBRANCH  13  14
ENDBRANCH   2  13
TORSDOF 15
ENDMDL
MODEL 3
REMARK VINA RESULT:    -3.622      1.672      2.274
REMARK INTER + INTRA:          -9.711
REMARK INTER:                  -6.597
REMARK INTRA:                  -3.113
REMARK UNBOUND:                -2.913
REMARK SMILES CCCCCCCCC=CCCCCCCCC(=O)[O-]
REMARK SMILES IDX 10 1 9 2 11 3 12 4 13 5 14 6 15 7 16 8 17 9 18 10 19 11
REMARK SMILES IDX 20 12 8 13 7 14 6 15 5 16 4 17 3 18 2 19 1 20
REMARK H PARENT
REMARK Flexibility Score: inf
ROOT
ATOM      1  C   UNL     1      77.694 -74.590  -2.302  1.00  0.00    -0.031 C 
ATOM      2  C   UNL     1      76.889 -74.796  -1.248  1.00  0.00    -0.031 C 
ENDROOT
BRANCH   1   3
ATOM      3  C   UNL     1      77.647 -73.310  -3.089  1.00  0.00     0.027 C 
BRANCH   3   4
ATOM      4  C   UNL     1      76.369 -73.227  -3.933  1.00  0.00     0.004 C 
BRANCH   4   5
ATOM      5  C   UNL     1      75.929 -71.771  -4.123  1.00  0.00     0.000 C 
BRANCH   5   6
ATOM      6  C   UNL     1      74.982 -71.329  -2.997  1.00  0.00     0.000 C 
BRANCH   6   7
ATOM      7  C   UNL     1      74.122 -72.482  -2.448  1.00  0.00     0.000 C 
BRANCH   7   8
ATOM      8  C   UNL     1      74.102 -72.604  -0.913  1.00  0.00     0.006 C 
BRANCH   8   9
ATOM      9  C   UNL     1      72.987 -73.527  -0.402  1.00  0.00     0.053 C 
BRANCH   9  10
ATOM     10  C   UNL     1      71.694 -73.209  -1.082  1.00  0.00     0.041 C 
ATOM     11  O   UNL     1      71.100 -72.125  -0.839  1.00  0.00    -0.550 OA
ATOM     12  O   UNL     1      71.168 -74.085  -2.022  1.00  0.00    -0.550 OA
ENDBRANCH   9  10
ENDBRANCH   8   9
ENDBRANCH   7   8
ENDBRANCH   6   7
ENDBRANCH   5   6
ENDBRANCH   4   5
ENDBRANCH   3   4
ENDBRANCH   1   3
BRANCH   2  13
ATOM     13  C   UNL     1      76.923 -76.084  -0.472  1.00  0.00     0.027 C 
BRANCH  13  14
ATOM     14  C   UNL     1      77.902 -77.084  -1.103  1.00  0.00     0.004 C 
BRANCH  14  15
ATOM     15  C   UNL     1      77.165 -78.326  -1.616  1.00  0.00     0.000 C 
BRANCH  15  16
ATOM     16  C   UNL     1      76.941 -78.244  -3.133  1.00  0.00     0.000 C 
BRANCH  16  17
ATOM     17  C   UNL     1      75.460 -78.053  -3.512  1.00  0.00    -0.000 C 
BRANCH  17  18
ATOM     18  C   UNL     1      75.087 -76.633  -3.976  1.00  0.00    -0.000 C 
BRANCH  18  19
ATOM     19  C   UNL     1      73.913 -76.034  -3.188  1.00  0.00    -0.003 C 
ATOM     20  C   UNL     1      73.608 -76.860  -1.942  1.00  0.00     0.004 C 
ENDBRANCH  18  19
ENDBRANCH  17  18
ENDBRANCH  16  17
ENDBRANCH  15  16
ENDBRANCH  14  15
ENDBRANCH  13  14
ENDBRANCH   2  13
TORSDOF 15
ENDMDL
MODEL 4
REMARK VINA RESULT:    -3.609      1.132      1.720
REMARK INTER + INTRA:          -9.686
REMARK INTER:                  -7.281
REMARK INTRA:                  -2.405
REMARK UNBOUND:                -2.913
REMARK SMILES CCCCCCCCC=CCCCCCCCC(=O)[O-]
REMARK SMILES IDX 10 1 9 2 11 3 12 4 13 5 14 6 15 7 16 8 17 9 18 10 19 11
REMARK SMILES IDX 20 12 8 13 7 14 6 15 5 16 4 17 3 18 2 19 1 20
REMARK H PARENT
REMARK Flexibility Score: inf
ROOT
ATOM      1  C   UNL     1      77.991 -75.369  -2.270  1.00  0.00    -0.031 C 
ATOM      2  C   UNL     1      78.009 -76.288  -1.292  1.00  0.00    -0.031 C 
ENDROOT
BRANCH   1   3
ATOM      3  C   UNL     1      77.373 -74.013  -2.064  1.00  0.00     0.027 C 
BRANCH   3   4
ATOM      4  C   UNL     1      77.324 -73.223  -3.377  1.00  0.00     0.004 C 
BRANCH   4   5
ATOM      5  C   UNL     1      75.896 -73.162  -3.930  1.00  0.00     0.000 C 
BRANCH   5   6
ATOM      6  C   UNL     1      75.122 -71.981  -3.326  1.00  0.00     0.000 C 
BRANCH   6   7
ATOM      7  C   UNL     1      73.978 -72.424  -2.396  1.00  0.00     0.000 C 
BRANCH   7   8
ATOM      8  C   UNL     1      74.148 -72.023  -0.919  1.00  0.00     0.006 C 
BRANCH   8   9
ATOM      9  C   UNL     1      72.897 -71.353  -0.334  1.00  0.00     0.053 C 
BRANCH   9  10
ATOM     10  C   UNL     1      73.284 -70.226   0.570  1.00  0.00     0.041 C 
ATOM     11  O   UNL     1      74.114 -69.361   0.184  1.00  0.00    -0.550 OA
ATOM     12  O   UNL     1      72.691 -70.100   1.819  1.00  0.00    -0.550 OA
ENDBRANCH   9  10
ENDBRANCH   8   9
ENDBRANCH   7   8
ENDBRANCH   6   7
ENDBRANCH   5   6
ENDBRANCH   4   5
ENDBRANCH   3   4
ENDBRANCH   1   3
BRANCH   2  13
ATOM     13  C   UNL     1      78.611 -77.650  -1.504  1.00  0.00     0.027 C 
BRANCH  13  14
ATOM     14  C   UNL     1      77.565 -78.755  -1.303  1.00  0.00     0.004 C 
BRANCH  14  15
ATOM     15  C   UNL     1      76.740 -78.969  -2.576  1.00  0.00     0.000 C 
BRANCH  15  16
ATOM     16  C   UNL     1      75.319 -79.442  -2.237  1.00  0.00     0.000 C 
BRANCH  16  17
ATOM     17  C   UNL     1      74.232 -78.442  -2.676  1.00  0.00    -0.000 C 
BRANCH  17  18
ATOM     18  C   UNL     1      74.748 -77.035  -3.025  1.00  0.00    -0.000 C 
BRANCH  18  19
ATOM     19  C   UNL     1      74.082 -75.929  -2.195  1.00  0.00    -0.003 C 
ATOM     20  C   UNL     1      74.437 -76.061  -0.717  1.00  0.00     0.004 C 
ENDBRANCH  18  19
ENDBRANCH  17  18
ENDBRANCH  16  17
ENDBRANCH  15  16
ENDBRANCH  14  15
ENDBRANCH  13  14
ENDBRANCH   2  13
TORSDOF 15
ENDMDL
MODEL 5
REMARK VINA RESULT:    -3.596      1.191      2.186
REMARK INTER + INTRA:          -9.661
REMARK INTER:                  -7.077
REMARK INTRA:                  -2.584
REMARK UNBOUND:                -2.913
REMARK SMILES CCCCCCCCC=CCCCCCCCC(=O)[O-]
REMARK SMILES IDX 10 1 9 2 11 3 12 4 13 5 14 6 15 7 16 8 17 9 18 10 19 11
REMARK SMILES IDX 20 12 8 13 7 14 6 15 5 16 4 17 3 18 2 19 1 20
REMARK H PARENT
REMARK Flexibility Score: inf
ROOT
ATOM      1  C   UNL     1      75.928 -73.005  -2.963  1.00  0.00    -0.031 C 
ATOM      2  C   UNL     1      76.429 -73.896  -3.833  1.00  0.00    -0.031 C 
ENDROOT
BRANCH   1   3
ATOM      3  C   UNL     1      74.549 -72.430  -3.134  1.00  0.00     0.027 C 
BRANCH   3   4
ATOM      4  C   UNL     1      73.532 -73.525  -3.477  1.00  0.00     0.004 C 
BRANCH   4   5
ATOM      5  C   UNL     1      72.176 -73.242  -2.821  1.00  0.00     0.000 C 
BRANCH   5   6
ATOM      6  C   UNL     1      72.050 -73.974  -1.477  1.00  0.00     0.000 C 
BRANCH   6   7
ATOM      7  C   UNL     1      72.576 -73.148  -0.290  1.00  0.00     0.000 C 
BRANCH   7   8
ATOM      8  C   UNL     1      72.299 -71.635  -0.376  1.00  0.00     0.006 C 
BRANCH   8   9
ATOM      9  C   UNL     1      73.506 -70.782   0.036  1.00  0.00     0.053 C 
BRANCH   9  10
ATOM     10  C   UNL     1      73.118 -69.811   1.105  1.00  0.00     0.041 C 
ATOM     11  O   UNL     1      72.690 -70.228   2.214  1.00  0.00    -0.550 OA
ATOM     12  O   UNL     1      73.276 -68.447   0.898  1.00  0.00    -0.550 OA
ENDBRANCH   9  10
ENDBRANCH   8   9
ENDBRANCH   7   8
ENDBRANCH   6   7
ENDBRANCH   5   6
ENDBRANCH   4   5
ENDBRANCH   3   4
ENDBRANCH   1   3
BRANCH   2  13
ATOM     13  C   UNL     1      77.815 -74.457  -3.673  1.00  0.00     0.027 C 
BRANCH  13  14
ATOM     14  C   UNL     1      77.804 -75.990  -3.753  1.00  0.00     0.004 C 
BRANCH  14  15
ATOM     15  C   UNL     1      78.586 -76.607  -2.588  1.00  0.00     0.000 C 
BRANCH  15  16
ATOM     16  C   UNL     1      78.334 -75.833  -1.286  1.00  0.00     0.000 C 
BRANCH  16  17
ATOM     17  C   UNL     1      77.202 -76.439  -0.435  1.00  0.00    -0.000 C 
BRANCH  17  18
ATOM     18  C   UNL     1      75.867 -75.674  -0.490  1.00  0.00    -0.000 C 
BRANCH  18  19
ATOM     19  C   UNL     1      74.852 -76.307  -1.452  1.00  0.00    -0.003 C 
ATOM     20  C   UNL     1      75.121 -77.798  -1.634  1.00  0.00     0.004 C 
ENDBRANCH  18  19
ENDBRANCH  17  18
ENDBRANCH  16  17
ENDBRANCH  15  16
ENDBRANCH  14  15
ENDBRANCH  13  14
ENDBRANCH   2  13
TORSDOF 15
ENDMDL
MODEL 6
REMARK VINA RESULT:    -3.552      2.267      6.038
REMARK INTER + INTRA:          -9.579
REMARK INTER:                  -7.334
REMARK INTRA:                  -2.245
REMARK UNBOUND:                -2.913
REMARK SMILES CCCCCCCCC=CCCCCCCCC(=O)[O-]
REMARK SMILES IDX 10 1 9 2 11 3 12 4 13 5 14 6 15 7 16 8 17 9 18 10 19 11
REMARK SMILES IDX 20 12 8 13 7 14 6 15 5 16 4 17 3 18 2 19 1 20
REMARK H PARENT
REMARK Flexibility Score: inf
ROOT
ATOM      1  C   UNL     1      77.327 -74.781  -2.099  1.00  0.00    -0.031 C 
ATOM      2  C   UNL     1      77.179 -74.701  -3.430  1.00  0.00    -0.031 C 
ENDROOT
BRANCH   1   3
ATOM      3  C   UNL     1      78.370 -75.668  -1.476  1.00  0.00     0.027 C 
BRANCH   3   4
ATOM      4  C   UNL     1      77.723 -76.843  -0.734  1.00  0.00     0.004 C 
BRANCH   4   5
ATOM      5  C   UNL     1      78.234 -78.184  -1.274  1.00  0.00     0.000 C 
BRANCH   5   6
ATOM      6  C   UNL     1      77.115 -78.950  -1.994  1.00  0.00     0.000 C 
BRANCH   6   7
ATOM      7  C   UNL     1      76.863 -78.443  -3.425  1.00  0.00     0.000 C 
BRANCH   7   8
ATOM      8  C   UNL     1      75.418 -77.991  -3.710  1.00  0.00     0.006 C 
BRANCH   8   9
ATOM      9  C   UNL     1      74.573 -77.855  -2.437  1.00  0.00     0.053 C 
BRANCH   9  10
ATOM     10  C   UNL     1      74.027 -76.467  -2.320  1.00  0.00     0.041 C 
ATOM     11  O   UNL     1      73.427 -75.938  -3.293  1.00  0.00    -0.550 OA
ATOM     12  O   UNL     1      74.134 -75.776  -1.120  1.00  0.00    -0.550 OA
ENDBRANCH   9  10
ENDBRANCH   8   9
ENDBRANCH   7   8
ENDBRANCH   6   7
ENDBRANCH   5   6
ENDBRANCH   4   5
ENDBRANCH   3   4
ENDBRANCH   1   3
BRANCH   2  13
ATOM     13  C   UNL     1      76.124 -73.828  -4.053  1.00  0.00     0.027 C 
BRANCH  13  14
ATOM     14  C   UNL     1      76.336 -72.354  -3.683  1.00  0.00     0.004 C 
BRANCH  14  15
ATOM     15  C   UNL     1      74.997 -71.650  -3.440  1.00  0.00     0.000 C 
BRANCH  15  16
ATOM     16  C   UNL     1      74.078 -72.506  -2.557  1.00  0.00     0.000 C 
BRANCH  16  17
ATOM     17  C   UNL     1      74.254 -72.223  -1.053  1.00  0.00    -0.000 C 
BRANCH  17  18
ATOM     18  C   UNL     1      73.147 -71.359  -0.422  1.00  0.00    -0.000 C 
BRANCH  18  19
ATOM     19  C   UNL     1      73.695 -70.140   0.333  1.00  0.00    -0.003 C 
ATOM     20  C   UNL     1      72.771 -69.741   1.480  1.00  0.00     0.004 C 
ENDBRANCH  18  19
ENDBRANCH  17  18
ENDBRANCH  16  17
ENDBRANCH  15  16
ENDBRANCH  14  15
ENDBRANCH  13  14
ENDBRANCH   2  13
TORSDOF 15
ENDMDL
MODEL 7
REMARK VINA RESULT:    -3.544      1.612      2.550
REMARK INTER + INTRA:          -9.565
REMARK INTER:                  -7.087
REMARK INTRA:                  -2.478
REMARK UNBOUND:                -2.913
REMARK SMILES CCCCCCCCC=CCCCCCCCC(=O)[O-]
REMARK SMILES IDX 10 1 9 2 11 3 12 4 13 5 14 6 15 7 16 8 17 9 18 10 19 11
REMARK SMILES IDX 20 12 8 13 7 14 6 15 5 16 4 17 3 18 2 19 1 20
REMARK H PARENT
REMARK Flexibility Score: inf
ROOT
ATOM      1  C   UNL     1      78.552 -76.496  -1.506  1.00  0.00    -0.031 C 
ATOM      2  C   UNL     1      78.885 -77.429  -2.411  1.00  0.00    -0.031 C 
ENDROOT
BRANCH   1   3
ATOM      3  C   UNL     1      78.289 -75.071  -1.907  1.00  0.00     0.027 C 
BRANCH   3   4
ATOM      4  C   UNL     1      77.560 -75.001  -3.254  1.00  0.00     0.004 C 
BRANCH   4   5
ATOM      5  C   UNL     1      76.225 -74.259  -3.119  1.00  0.00     0.000 C 
BRANCH   5   6
ATOM      6  C   UNL     1      76.111 -73.574  -1.749  1.00  0.00     0.000 C 
BRANCH   6   7
ATOM      7  C   UNL     1      74.986 -74.159  -0.877  1.00  0.00     0.000 C 
BRANCH   7   8
ATOM      8  C   UNL     1      73.756 -73.248  -0.705  1.00  0.00     0.006 C 
BRANCH   8   9
ATOM      9  C   UNL     1      74.016 -71.803  -1.150  1.00  0.00     0.053 C 
BRANCH   9  10
ATOM     10  C   UNL     1      73.421 -70.841  -0.172  1.00  0.00     0.041 C 
ATOM     11  O   UNL     1      74.103 -69.874   0.261  1.00  0.00    -0.550 OA
ATOM     12  O   UNL     1      72.097 -70.980   0.225  1.00  0.00    -0.550 OA
ENDBRANCH   9  10
ENDBRANCH   8   9
ENDBRANCH   7   8
ENDBRANCH   6   7
ENDBRANCH   5   6
ENDBRANCH   4   5
ENDBRANCH   3   4
ENDBRANCH   1   3
BRANCH   2  13
ATOM     13  C   UNL     1      79.166 -78.851  -2.007  1.00  0.00     0.027 C 
BRANCH  13  14
ATOM     14  C   UNL     1      78.508 -79.185  -0.662  1.00  0.00     0.004 C 
BRANCH  14  15
ATOM     15  C   UNL     1      77.892 -80.588  -0.684  1.00  0.00     0.000 C 
BRANCH  15  16
ATOM     16  C   UNL     1      77.215 -80.869  -2.033  1.00  0.00     0.000 C 
BRANCH  16  17
ATOM     17  C   UNL     1      75.801 -80.266  -2.133  1.00  0.00    -0.000 C 
BRANCH  17  18
ATOM     18  C   UNL     1      75.576 -79.336  -3.340  1.00  0.00    -0.000 C 
BRANCH  18  19
ATOM     19  C   UNL     1      75.214 -77.901  -2.931  1.00  0.00    -0.003 C 
ATOM     20  C   UNL     1      75.069 -77.780  -1.417  1.00  0.00     0.004 C 
ENDBRANCH  18  19
ENDBRANCH  17  18
ENDBRANCH  16  17
ENDBRANCH  15  16
ENDBRANCH  14  15
ENDBRANCH  13  14
ENDBRANCH   2  13
TORSDOF 15
ENDMDL
MODEL 8
REMARK VINA RESULT:    -3.517      1.373      2.126
REMARK INTER + INTRA:          -9.515
REMARK INTER:                  -6.977
REMARK INTRA:                  -2.538
REMARK UNBOUND:                -2.913
REMARK SMILES CCCCCCCCC=CCCCCCCCC(=O)[O-]
REMARK SMILES IDX 10 1 9 2 11 3 12 4 13 5 14 6 15 7 16 8 17 9 18 10 19 11
REMARK SMILES IDX 20 12 8 13 7 14 6 15 5 16 4 17 3 18 2 19 1 20
REMARK H PARENT
REMARK Flexibility Score: inf
ROOT
ATOM      1  C   UNL     1      77.481 -74.267  -3.216  1.00  0.00    -0.031 C 
ATOM      2  C   UNL     1      77.939 -74.434  -1.965  1.00  0.00    -0.031 C 
ENDROOT
BRANCH   1   3
ATOM      3  C   UNL     1      77.172 -72.901  -3.763  1.00  0.00     0.027 C 
BRANCH   3   4
ATOM      4  C   UNL     1      75.764 -72.449  -3.357  1.00  0.00     0.004 C 
BRANCH   4   5
ATOM      5  C   UNL     1      74.742 -73.571  -3.570  1.00  0.00     0.000 C 
BRANCH   5   6
ATOM      6  C   UNL     1      73.981 -73.878  -2.272  1.00  0.00     0.000 C 
BRANCH   6   7
ATOM      7  C   UNL     1      74.408 -72.978  -1.098  1.00  0.00     0.000 C 
BRANCH   7   8
ATOM      8  C   UNL     1      73.314 -72.031  -0.572  1.00  0.00     0.006 C 
BRANCH   8   9
ATOM      9  C   UNL     1      73.863 -70.664  -0.141  1.00  0.00     0.053 C 
BRANCH   9  10
ATOM     10  C   UNL     1      72.908 -69.989   0.791  1.00  0.00     0.041 C 
ATOM     11  O   UNL     1      73.069 -68.776   1.094  1.00  0.00    -0.550 OA
ATOM     12  O   UNL     1      71.811 -70.681   1.287  1.00  0.00    -0.550 OA
ENDBRANCH   9  10
ENDBRANCH   8   9
ENDBRANCH   7   8
ENDBRANCH   6   7
ENDBRANCH   5   6
ENDBRANCH   4   5
ENDBRANCH   3   4
ENDBRANCH   1   3
BRANCH   2  13
ATOM     13  C   UNL     1      78.231 -75.802  -1.412  1.00  0.00     0.027 C 
BRANCH  13  14
ATOM     14  C   UNL     1      77.099 -76.785  -1.739  1.00  0.00     0.004 C 
BRANCH  14  15
ATOM     15  C   UNL     1      75.922 -76.611  -0.773  1.00  0.00     0.000 C 
BRANCH  15  16
ATOM     16  C   UNL     1      74.736 -77.495  -1.186  1.00  0.00     0.000 C 
BRANCH  16  17
ATOM     17  C   UNL     1      73.427 -77.117  -0.469  1.00  0.00    -0.000 C 
BRANCH  17  18
ATOM     18  C   UNL     1      73.609 -76.348   0.853  1.00  0.00    -0.000 C 
BRANCH  18  19
ATOM     19  C   UNL     1      72.492 -75.328   1.112  1.00  0.00    -0.003 C 
ATOM     20  C   UNL     1      71.444 -75.366   0.004  1.00  0.00     0.004 C 
ENDBRANCH  18  19
ENDBRANCH  17  18
ENDBRANCH  16  17
ENDBRANCH  15  16
ENDBRANCH  14  15
ENDBRANCH  13  14
ENDBRANCH   2  13
TORSDOF 15
ENDMDL
MODEL 9
REMARK VINA RESULT:    -2.858      1.270      2.392
REMARK INTER + INTRA:          -8.278
REMARK INTER:                  -5.955
REMARK INTRA:                  -2.323
REMARK UNBOUND:                -2.913
REMARK SMILES CCCCCCCCC=CCCCCCCCC(=O)[O-]
REMARK SMILES IDX 10 1 9 2 11 3 12 4 13 5 14 6 15 7 16 8 17 9 18 10 19 11
REMARK SMILES IDX 20 12 8 13 7 14 6 15 5 16 4 17 3 18 2 19 1 20
REMARK H PARENT
REMARK Flexibility Score: inf
ROOT
ATOM      1  C   UNL     1      77.815 -74.208  -2.268  1.00  0.00    -0.031 C 
ATOM      2  C   UNL     1      76.733 -74.762  -1.699  1.00  0.00    -0.031 C 
ENDROOT
BRANCH   1   3
ATOM      3  C   UNL     1      77.707 -73.376  -3.516  1.00  0.00     0.027 C 
BRANCH   3   4
ATOM      4  C   UNL     1      76.246 -73.227  -3.956  1.00  0.00     0.004 C 
BRANCH   4   5
ATOM      5  C   UNL     1      75.869 -71.751  -4.125  1.00  0.00     0.000 C 
BRANCH   5   6
ATOM      6  C   UNL     1      74.896 -71.300  -3.026  1.00  0.00     0.000 C 
BRANCH   6   7
ATOM      7  C   UNL     1      74.242 -72.479  -2.282  1.00  0.00     0.000 C 
BRANCH   7   8
ATOM      8  C   UNL     1      74.103 -72.291  -0.760  1.00  0.00     0.006 C 
BRANCH   8   9
ATOM      9  C   UNL     1      72.693 -71.855  -0.338  1.00  0.00     0.053 C 
BRANCH   9  10
ATOM     10  C   UNL     1      72.755 -70.588   0.455  1.00  0.00     0.041 C 
ATOM     11  O   UNL     1      73.781 -69.859   0.405  1.00  0.00    -0.550 OA
ATOM     12  O   UNL     1      71.661 -70.185   1.210  1.00  0.00    -0.550 OA
ENDBRANCH   9  10
ENDBRANCH   8   9
ENDBRANCH   7   8
ENDBRANCH   6   7
ENDBRANCH   5   6
ENDBRANCH   4   5
ENDBRANCH   3   4
ENDBRANCH   1   3
BRANCH   2  13
ATOM     13  C   UNL     1      76.844 -75.610  -0.461  1.00  0.00     0.027 C 
BRANCH  13  14
ATOM     14  C   UNL     1      75.646 -76.561  -0.332  1.00  0.00     0.004 C 
BRANCH  14  15
ATOM     15  C   UNL     1      74.933 -76.733  -1.678  1.00  0.00     0.000 C 
BRANCH  15  16
ATOM     16  C   UNL     1      75.026 -78.185  -2.167  1.00  0.00     0.000 C 
BRANCH  16  17
ATOM     17  C   UNL     1      76.372 -78.507  -2.843  1.00  0.00    -0.000 C 
BRANCH  17  18
ATOM     18  C   UNL     1      77.314 -79.404  -2.020  1.00  0.00    -0.000 C 
BRANCH  18  19
ATOM     19  C   UNL     1      78.597 -78.683  -1.581  1.00  0.00    -0.003 C 
ATOM     20  C   UNL     1      79.041 -77.664  -2.626  1.00  0.00     0.004 C 
ENDBRANCH  18  19
ENDBRANCH  17  18
ENDBRANCH  16  17
ENDBRANCH  15  16
ENDBRANCH  14  15
ENDBRANCH  13  14
ENDBRANCH   2  13
TORSDOF 15
ENDMDL
