MODEL 1
REMARK VINA RESULT:    -6.880      0.000      0.000
REMARK INTER + INTRA:          -7.826
REMARK INTER:                  -7.685
REMARK INTRA:                  -0.141
REMARK UNBOUND:                -0.141
REMARK SMILES COc1cc2ccc(=O)oc2cc1OC
REMARK SMILES IDX 3 1 13 2 12 3 11 4 5 5 4 6 6 7 7 8 8 9 9 10 10 11 2 12 1 13
REMARK SMILES IDX 14 14 15 15
REMARK H PARENT
REMARK Flexibility Score: inf
ROOT
ATOM      1  C   UNL     1     -12.440  -1.457 -10.496  1.00  0.00     0.161 A 
ATOM      2  C   UNL     1     -11.120  -1.394 -10.017  1.00  0.00     0.164 A 
ATOM      3  C   UNL     1     -10.619  -0.182  -9.502  1.00  0.00     0.098 A 
ATOM      4  C   UNL     1     -11.425   0.958  -9.468  1.00  0.00     0.142 A 
ATOM      5  C   UNL     1     -12.749   0.897  -9.949  1.00  0.00     0.022 A 
ATOM      6  C   UNL     1     -13.252  -0.306 -10.460  1.00  0.00     0.062 A 
ATOM      7  C   UNL     1     -13.530   2.056  -9.900  1.00  0.00     0.019 A 
ATOM      8  C   UNL     1     -12.984   3.229  -9.382  1.00  0.00     0.094 A 
ATOM      9  C   UNL     1     -11.663   3.216  -8.922  1.00  0.00     0.336 A 
ATOM     10  O   UNL     1     -11.151   4.264  -8.450  1.00  0.00    -0.246 OA
ATOM     11  O   UNL     1     -10.941   2.099  -8.980  1.00  0.00    -0.423 OA
ENDROOT
BRANCH   1  12
ATOM     12  O   UNL     1     -12.906  -2.681 -11.001  1.00  0.00    -0.493 OA
ATOM     13  C   UNL     1     -13.850  -3.519 -10.343  1.00  0.00     0.278 C 
ENDBRANCH   1  12
BRANCH   2  14
ATOM     14  O   UNL     1     -10.339  -2.560 -10.067  1.00  0.00    -0.493 OA
ATOM     15  C   UNL     1      -9.739  -3.179  -8.934  1.00  0.00     0.278 C 
ENDBRANCH   2  14
TORSDOF 2
ENDMDL
MODEL 2
REMARK VINA RESULT:    -6.693      1.540      2.833
REMARK INTER + INTRA:          -7.617
REMARK INTER:                  -7.466
REMARK INTRA:                  -0.150
REMARK UNBOUND:                -0.141
REMARK SMILES COc1cc2ccc(=O)oc2cc1OC
REMARK SMILES IDX 3 1 13 2 12 3 11 4 5 5 4 6 6 7 7 8 8 9 9 10 10 11 2 12 1 13
REMARK SMILES IDX 14 14 15 15
REMARK H PARENT
REMARK Flexibility Score: inf
ROOT
ATOM      1  C   UNL     1     -12.195  -0.518 -10.382  1.00  0.00     0.161 A 
ATOM      2  C   UNL     1     -13.570  -0.239 -10.461  1.00  0.00     0.164 A 
ATOM      3  C   UNL     1     -14.058   1.005 -10.014  1.00  0.00     0.098 A 
ATOM      4  C   UNL     1     -13.185   1.961  -9.491  1.00  0.00     0.142 A 
ATOM      5  C   UNL     1     -11.805   1.682  -9.411  1.00  0.00     0.022 A 
ATOM      6  C   UNL     1     -11.315   0.447  -9.855  1.00  0.00     0.062 A 
ATOM      7  C   UNL     1     -10.957   2.660  -8.882  1.00  0.00     0.019 A 
ATOM      8  C   UNL     1     -11.493   3.873  -8.453  1.00  0.00     0.094 A 
ATOM      9  C   UNL     1     -12.873   4.081  -8.564  1.00  0.00     0.336 A 
ATOM     10  O   UNL     1     -13.377   5.169  -8.183  1.00  0.00    -0.246 OA
ATOM     11  O   UNL     1     -13.657   3.132  -9.071  1.00  0.00    -0.423 OA
ENDROOT
BRANCH   1  12
ATOM     12  O   UNL     1     -11.743  -1.766 -10.838  1.00  0.00    -0.493 OA
ATOM     13  C   UNL     1     -11.403  -2.860  -9.992  1.00  0.00     0.278 C 
ENDBRANCH   1  12
BRANCH   2  14
ATOM     14  O   UNL     1     -14.419  -1.223 -10.992  1.00  0.00    -0.493 OA
ATOM     15  C   UNL     1     -15.121  -2.188 -10.215  1.00  0.00     0.278 C 
ENDBRANCH   2  14
TORSDOF 2
ENDMDL
MODEL 3
REMARK VINA RESULT:    -5.770      1.440      4.874
REMARK INTER + INTRA:          -6.586
REMARK INTER:                  -6.485
REMARK INTRA:                  -0.101
REMARK UNBOUND:                -0.141
REMARK SMILES COc1cc2ccc(=O)oc2cc1OC
REMARK SMILES IDX 3 1 13 2 12 3 11 4 5 5 4 6 6 7 7 8 8 9 9 10 10 11 2 12 1 13
REMARK SMILES IDX 14 14 15 15
REMARK H PARENT
REMARK Flexibility Score: inf
ROOT
ATOM      1  C   UNL     1     -13.059   1.223  -9.997  1.00  0.00     0.161 A 
ATOM      2  C   UNL     1     -11.844   1.649  -9.434  1.00  0.00     0.164 A 
ATOM      3  C   UNL     1     -10.796   0.725  -9.251  1.00  0.00     0.098 A 
ATOM      4  C   UNL     1     -10.958  -0.611  -9.622  1.00  0.00     0.142 A 
ATOM      5  C   UNL     1     -12.177  -1.040 -10.187  1.00  0.00     0.022 A 
ATOM      6  C   UNL     1     -13.221  -0.125 -10.372  1.00  0.00     0.062 A 
ATOM      7  C   UNL     1     -12.308  -2.384 -10.549  1.00  0.00     0.019 A 
ATOM      8  C   UNL     1     -11.239  -3.256 -10.344  1.00  0.00     0.094 A 
ATOM      9  C   UNL     1     -10.059  -2.760  -9.780  1.00  0.00     0.336 A 
ATOM     10  O   UNL     1      -9.083  -3.530  -9.587  1.00  0.00    -0.246 OA
ATOM     11  O   UNL     1      -9.961  -1.476  -9.444  1.00  0.00    -0.423 OA
ENDROOT
BRANCH   1  12
ATOM     12  O   UNL     1     -14.081   2.170 -10.166  1.00  0.00    -0.493 OA
ATOM     13  C   UNL     1     -15.125   2.409  -9.228  1.00  0.00     0.278 C 
ENDBRANCH   1  12
BRANCH   2  14
ATOM     14  O   UNL     1     -11.716   2.999  -9.071  1.00  0.00    -0.493 OA
ATOM     15  C   UNL     1     -10.653   3.527  -8.285  1.00  0.00     0.278 C 
ENDBRANCH   2  14
TORSDOF 2
ENDMDL
MODEL 4
REMARK VINA RESULT:    -5.520      1.911      5.669
REMARK INTER + INTRA:          -6.307
REMARK INTER:                  -6.467
REMARK INTRA:                   0.160
REMARK UNBOUND:                -0.141
REMARK SMILES COc1cc2ccc(=O)oc2cc1OC
REMARK SMILES IDX 3 1 13 2 12 3 11 4 5 5 4 6 6 7 7 8 8 9 9 10 10 11 2 12 1 13
REMARK SMILES IDX 14 14 15 15
REMARK H PARENT
REMARK Flexibility Score: inf
ROOT
ATOM      1  C   UNL     1     -12.013   2.377  -9.593  1.00  0.00     0.161 A 
ATOM      2  C   UNL     1     -13.392   2.561  -9.388  1.00  0.00     0.164 A 
ATOM      3  C   UNL     1     -14.284   1.500  -9.640  1.00  0.00     0.098 A 
ATOM      4  C   UNL     1     -13.808   0.268 -10.095  1.00  0.00     0.142 A 
ATOM      5  C   UNL     1     -12.425   0.083 -10.301  1.00  0.00     0.022 A 
ATOM      6  C   UNL     1     -11.534   1.134 -10.051  1.00  0.00     0.062 A 
ATOM      7  C   UNL     1     -11.980  -1.162 -10.756  1.00  0.00     0.019 A 
ATOM      8  C   UNL     1     -12.907  -2.177 -10.990  1.00  0.00     0.094 A 
ATOM      9  C   UNL     1     -14.264  -1.922 -10.762  1.00  0.00     0.336 A 
ATOM     10  O   UNL     1     -15.116  -2.824 -10.967  1.00  0.00    -0.246 OA
ATOM     11  O   UNL     1     -14.660  -0.727 -10.329  1.00  0.00    -0.423 OA
ENDROOT
BRANCH   1  12
ATOM     12  O   UNL     1     -11.153   3.455  -9.332  1.00  0.00    -0.493 OA
ATOM     13  C   UNL     1     -10.428   3.635  -8.120  1.00  0.00     0.278 C 
ENDBRANCH   1  12
BRANCH   2  14
ATOM     14  O   UNL     1     -13.835   3.813  -8.932  1.00  0.00    -0.493 OA
ATOM     15  C   UNL     1     -13.702   4.276  -7.592  1.00  0.00     0.278 C 
ENDBRANCH   2  14
TORSDOF 2
ENDMDL
MODEL 5
REMARK VINA RESULT:    -5.224      1.653      5.213
REMARK INTER + INTRA:          -5.976
REMARK INTER:                  -6.104
REMARK INTRA:                   0.128
REMARK UNBOUND:                -0.141
REMARK SMILES COc1cc2ccc(=O)oc2cc1OC
REMARK SMILES IDX 3 1 13 2 12 3 11 4 5 5 4 6 6 7 7 8 8 9 9 10 10 11 2 12 1 13
REMARK SMILES IDX 14 14 15 15
REMARK H PARENT
REMARK Flexibility Score: inf
ROOT
ATOM      1  C   UNL     1     -13.311   2.769  -9.325  1.00  0.00     0.161 A 
ATOM      2  C   UNL     1     -11.968   2.423  -9.550  1.00  0.00     0.164 A 
ATOM      3  C   UNL     1     -11.638   1.104  -9.921  1.00  0.00     0.098 A 
ATOM      4  C   UNL     1     -12.637   0.139 -10.063  1.00  0.00     0.142 A 
ATOM      5  C   UNL     1     -13.985   0.484  -9.837  1.00  0.00     0.022 A 
ATOM      6  C   UNL     1     -14.318   1.794  -9.469  1.00  0.00     0.062 A 
ATOM      7  C   UNL     1     -14.961  -0.505  -9.988  1.00  0.00     0.019 A 
ATOM      8  C   UNL     1     -14.579  -1.795 -10.355  1.00  0.00     0.094 A 
ATOM      9  C   UNL     1     -13.222  -2.065 -10.564  1.00  0.00     0.336 A 
ATOM     10  O   UNL     1     -12.856  -3.222 -10.897  1.00  0.00    -0.246 OA
ATOM     11  O   UNL     1     -12.313  -1.105 -10.414  1.00  0.00    -0.423 OA
ENDROOT
BRANCH   1  12
ATOM     12  O   UNL     1     -13.604   4.091  -8.958  1.00  0.00    -0.493 OA
ATOM     13  C   UNL     1     -13.539   4.594  -7.628  1.00  0.00     0.278 C 
ENDBRANCH   1  12
BRANCH   2  14
ATOM     14  O   UNL     1     -10.990   3.419  -9.397  1.00  0.00    -0.493 OA
ATOM     15  C   UNL     1     -10.334   3.724  -8.171  1.00  0.00     0.278 C 
ENDBRANCH   2  14
TORSDOF 2
ENDMDL
MODEL 6
REMARK VINA RESULT:    -5.033     15.398     17.551
REMARK INTER + INTRA:          -5.763
REMARK INTER:                  -5.630
REMARK INTRA:                  -0.133
REMARK UNBOUND:                -0.141
REMARK SMILES COc1cc2ccc(=O)oc2cc1OC
REMARK SMILES IDX 3 1 13 2 12 3 11 4 5 5 4 6 6 7 7 8 8 9 9 10 10 11 2 12 1 13
REMARK SMILES IDX 14 14 15 15
REMARK H PARENT
REMARK Flexibility Score: inf
ROOT
ATOM      1  C   UNL     1     -13.619   6.707   4.732  1.00  0.00     0.161 A 
ATOM      2  C   UNL     1     -13.059   7.828   5.369  1.00  0.00     0.164 A 
ATOM      3  C   UNL     1     -12.119   7.647   6.403  1.00  0.00     0.098 A 
ATOM      4  C   UNL     1     -11.742   6.362   6.799  1.00  0.00     0.142 A 
ATOM      5  C   UNL     1     -12.303   5.237   6.161  1.00  0.00     0.022 A 
ATOM      6  C   UNL     1     -13.238   5.412   5.132  1.00  0.00     0.062 A 
ATOM      7  C   UNL     1     -11.905   3.964   6.580  1.00  0.00     0.019 A 
ATOM      8  C   UNL     1     -10.971   3.843   7.609  1.00  0.00     0.094 A 
ATOM      9  C   UNL     1     -10.455   5.003   8.196  1.00  0.00     0.336 A 
ATOM     10  O   UNL     1      -9.612   4.916   9.125  1.00  0.00    -0.246 OA
ATOM     11  O   UNL     1     -10.852   6.203   7.777  1.00  0.00    -0.423 OA
ENDROOT
BRANCH   1  12
ATOM     12  O   UNL     1     -14.552   6.924   3.706  1.00  0.00    -0.493 OA
ATOM     13  C   UNL     1     -14.386   6.497   2.358  1.00  0.00     0.278 C 
ENDBRANCH   1  12
BRANCH   2  14
ATOM     14  O   UNL     1     -13.462   9.104   4.946  1.00  0.00    -0.493 OA
ATOM     15  C   UNL     1     -14.285   9.984   5.705  1.00  0.00     0.278 C 
ENDBRANCH   2  14
TORSDOF 2
ENDMDL
MODEL 7
REMARK VINA RESULT:    -4.447     15.661     17.790
REMARK INTER + INTRA:          -5.108
REMARK INTER:                  -5.004
REMARK INTRA:                  -0.104
REMARK UNBOUND:                -0.141
REMARK SMILES COc1cc2ccc(=O)oc2cc1OC
REMARK SMILES IDX 3 1 13 2 12 3 11 4 5 5 4 6 6 7 7 8 8 9 9 10 10 11 2 12 1 13
REMARK SMILES IDX 14 14 15 15
REMARK H PARENT
REMARK Flexibility Score: inf
ROOT
ATOM      1  C   UNL     1     -13.150   7.441   5.278  1.00  0.00     0.161 A 
ATOM      2  C   UNL     1     -13.888   6.245   5.297  1.00  0.00     0.164 A 
ATOM      3  C   UNL     1     -13.463   5.173   6.106  1.00  0.00     0.098 A 
ATOM      4  C   UNL     1     -12.312   5.290   6.888  1.00  0.00     0.142 A 
ATOM      5  C   UNL     1     -11.570   6.489   6.870  1.00  0.00     0.022 A 
ATOM      6  C   UNL     1     -11.989   7.559   6.068  1.00  0.00     0.062 A 
ATOM      7  C   UNL     1     -10.422   6.576   7.664  1.00  0.00     0.019 A 
ATOM      8  C   UNL     1     -10.046   5.484   8.445  1.00  0.00     0.094 A 
ATOM      9  C   UNL     1     -10.831   4.326   8.414  1.00  0.00     0.336 A 
ATOM     10  O   UNL     1     -10.510   3.330   9.112  1.00  0.00    -0.246 OA
ATOM     11  O   UNL     1     -11.919   4.271   7.649  1.00  0.00    -0.423 OA
ENDROOT
BRANCH   1  12
ATOM     12  O   UNL     1     -13.603   8.489   4.461  1.00  0.00    -0.493 OA
ATOM     13  C   UNL     1     -14.319   9.627   4.929  1.00  0.00     0.278 C 
ENDBRANCH   1  12
BRANCH   2  14
ATOM     14  O   UNL     1     -15.040   6.162   4.498  1.00  0.00    -0.493 OA
ATOM     15  C   UNL     1     -15.053   5.713   3.146  1.00  0.00     0.278 C 
ENDBRANCH   2  14
TORSDOF 2
ENDMDL
MODEL 8
REMARK VINA RESULT:    -4.190     16.555     17.883
REMARK INTER + INTRA:          -4.822
REMARK INTER:                  -4.687
REMARK INTRA:                  -0.134
REMARK UNBOUND:                -0.141
REMARK SMILES COc1cc2ccc(=O)oc2cc1OC
REMARK SMILES IDX 3 1 13 2 12 3 11 4 5 5 4 6 6 7 7 8 8 9 9 10 10 11 2 12 1 13
REMARK SMILES IDX 14 14 15 15
REMARK H PARENT
REMARK Flexibility Score: inf
ROOT
ATOM      1  C   UNL     1     -13.648   9.512   4.566  1.00  0.00     0.161 A 
ATOM      2  C   UNL     1     -12.588   9.932   5.389  1.00  0.00     0.164 A 
ATOM      3  C   UNL     1     -11.893   8.988   6.171  1.00  0.00     0.098 A 
ATOM      4  C   UNL     1     -12.252   7.639   6.135  1.00  0.00     0.142 A 
ATOM      5  C   UNL     1     -13.315   7.216   5.311  1.00  0.00     0.022 A 
ATOM      6  C   UNL     1     -14.008   8.151   4.530  1.00  0.00     0.062 A 
ATOM      7  C   UNL     1     -13.649   5.859   5.297  1.00  0.00     0.019 A 
ATOM      8  C   UNL     1     -12.928   4.968   6.091  1.00  0.00     0.094 A 
ATOM      9  C   UNL     1     -11.885   5.458   6.884  1.00  0.00     0.336 A 
ATOM     10  O   UNL     1     -11.222   4.671   7.608  1.00  0.00    -0.246 OA
ATOM     11  O   UNL     1     -11.588   6.756   6.878  1.00  0.00    -0.423 OA
ENDROOT
BRANCH   1  12
ATOM     12  O   UNL     1     -14.318  10.479   3.800  1.00  0.00    -0.493 OA
ATOM     13  C   UNL     1     -13.951  10.859   2.479  1.00  0.00     0.278 C 
ENDBRANCH   1  12
BRANCH   2  14
ATOM     14  O   UNL     1     -12.256  11.296   5.401  1.00  0.00    -0.493 OA
ATOM     15  C   UNL     1     -11.102  11.851   4.777  1.00  0.00     0.278 C 
ENDBRANCH   2  14
TORSDOF 2
ENDMDL
MODEL 9
REMARK VINA RESULT:    -4.072     16.407     17.701
REMARK INTER + INTRA:          -4.689
REMARK INTER:                  -4.580
REMARK INTRA:                  -0.109
REMARK UNBOUND:                -0.141
REMARK SMILES COc1cc2ccc(=O)oc2cc1OC
REMARK SMILES IDX 3 1 13 2 12 3 11 4 5 5 4 6 6 7 7 8 8 9 9 10 10 11 2 12 1 13
REMARK SMILES IDX 14 14 15 15
REMARK H PARENT
REMARK Flexibility Score: inf
ROOT
ATOM      1  C   UNL     1     -10.556   6.063   6.023  1.00  0.00     0.161 A 
ATOM      2  C   UNL     1     -11.727   6.839   6.049  1.00  0.00     0.164 A 
ATOM      3  C   UNL     1     -11.641   8.239   5.917  1.00  0.00     0.098 A 
ATOM      4  C   UNL     1     -10.400   8.861   5.763  1.00  0.00     0.142 A 
ATOM      5  C   UNL     1      -9.224   8.083   5.738  1.00  0.00     0.022 A 
ATOM      6  C   UNL     1      -9.304   6.690   5.867  1.00  0.00     0.062 A 
ATOM      7  C   UNL     1      -7.996   8.735   5.582  1.00  0.00     0.019 A 
ATOM      8  C   UNL     1      -7.969  10.123   5.457  1.00  0.00     0.094 A 
ATOM      9  C   UNL     1      -9.176  10.830   5.490  1.00  0.00     0.336 A 
ATOM     10  O   UNL     1      -9.173  12.083   5.378  1.00  0.00    -0.246 OA
ATOM     11  O   UNL     1     -10.330  10.184   5.640  1.00  0.00    -0.423 OA
ENDROOT
BRANCH   1  12
ATOM     12  O   UNL     1     -10.678   4.671   6.156  1.00  0.00    -0.493 OA
ATOM     13  C   UNL     1     -10.635   3.971   7.395  1.00  0.00     0.278 C 
ENDBRANCH   1  12
BRANCH   2  14
ATOM     14  O   UNL     1     -12.957   6.182   6.205  1.00  0.00    -0.493 OA
ATOM     15  C   UNL     1     -13.835   5.846   5.136  1.00  0.00     0.278 C 
ENDBRANCH   2  14
TORSDOF 2
ENDMDL
