MODEL 1
REMARK VINA RESULT:    19.347      0.000      0.000
REMARK INTER + INTRA:          26.971
REMARK INTER:                  27.265
REMARK INTRA:                  -0.294
REMARK UNBOUND:                -0.294
REMARK SMILES O=C(C=Cc1ccc(O)cc1)CC(=O)C=Cc1ccc(O)cc1
REMARK SMILES IDX 12 1 2 2 1 3 3 4 4 5 5 6 6 7 7 8 8 9 11 10 10 11 9 12 13 14
REMARK SMILES IDX 14 15 15 16 16 17 17 18 18 19 23 20 19 21 22 22 20 23 21 24
REMARK H PARENT 9 13 21 25
REMARK Flexibility Score: inf
ROOT
ATOM      1  C   UNL     1     -28.539  32.974  -2.663  1.00  0.00     0.160 C 
ENDROOT
BRANCH   1   2
ATOM      2  C   UNL     1     -29.488  32.268  -1.723  1.00  0.00     0.163 C 
ATOM      3  O   UNL     1     -29.071  31.839  -0.612  1.00  0.00    -0.294 OA
BRANCH   2   4
ATOM      4  C   UNL     1     -30.911  32.053  -2.060  1.00  0.00     0.048 C 
ATOM      5  C   UNL     1     -31.499  30.847  -2.046  1.00  0.00     0.012 C 
BRANCH   5   6
ATOM      6  C   UNL     1     -32.928  30.627  -2.376  1.00  0.00    -0.025 A 
ATOM      7  C   UNL     1     -33.390  30.507  -3.703  1.00  0.00     0.012 A 
ATOM      8  C   UNL     1     -34.746  30.283  -3.962  1.00  0.00     0.047 A 
ATOM      9  C   UNL     1     -35.657  30.168  -2.906  1.00  0.00     0.115 A 
ATOM     10  C   UNL     1     -33.850  30.494  -1.324  1.00  0.00     0.012 A 
ATOM     11  C   UNL     1     -35.204  30.271  -1.587  1.00  0.00     0.047 A 
BRANCH   9  12
ATOM     12  O   UNL     1     -37.010  29.947  -3.153  1.00  0.00    -0.508 OA
ATOM     13  H   UNL     1     -37.343  29.064  -3.523  1.00  0.00     0.293 HD
ENDBRANCH   9  12
ENDBRANCH   5   6
ENDBRANCH   2   4
ENDBRANCH   1   2
BRANCH   1  14
ATOM     14  C   UNL     1     -27.486  32.056  -3.218  1.00  0.00     0.163 C 
ATOM     15  O   UNL     1     -26.926  31.225  -2.452  1.00  0.00    -0.294 OA
BRANCH  14  16
ATOM     16  C   UNL     1     -27.146  32.104  -4.654  1.00  0.00     0.048 C 
ATOM     17  C   UNL     1     -26.364  31.183  -5.234  1.00  0.00     0.012 C 
BRANCH  17  18
ATOM     18  C   UNL     1     -26.010  31.189  -6.676  1.00  0.00    -0.025 A 
ATOM     19  C   UNL     1     -27.045  31.131  -7.624  1.00  0.00     0.012 A 
ATOM     20  C   UNL     1     -24.673  31.214  -7.128  1.00  0.00     0.012 A 
ATOM     21  C   UNL     1     -26.758  31.122  -8.991  1.00  0.00     0.047 A 
ATOM     22  C   UNL     1     -24.391  31.205  -8.498  1.00  0.00     0.047 A 
ATOM     23  C   UNL     1     -25.430  31.162  -9.432  1.00  0.00     0.115 A 
BRANCH  23  24
ATOM     24  O   UNL     1     -25.131  31.154 -10.793  1.00  0.00    -0.508 OA
ATOM     25  H   UNL     1     -25.854  31.032 -11.492  1.00  0.00     0.293 HD
ENDBRANCH  23  24
ENDBRANCH  17  18
ENDBRANCH  14  16
ENDBRANCH   1  14
TORSDOF 8
ENDMDL
MODEL 2
REMARK VINA RESULT:    19.379      0.046      8.927
REMARK INTER + INTRA:          27.016
REMARK INTER:                  27.351
REMARK INTRA:                  -0.335
REMARK UNBOUND:                -0.294
REMARK SMILES O=C(C=Cc1ccc(O)cc1)CC(=O)C=Cc1ccc(O)cc1
REMARK SMILES IDX 12 1 2 2 1 3 3 4 4 5 5 6 6 7 7 8 8 9 11 10 10 11 9 12 13 14
REMARK SMILES IDX 14 15 15 16 16 17 17 18 18 19 23 20 19 21 22 22 20 23 21 24
REMARK H PARENT 9 13 21 25
REMARK Flexibility Score: inf
ROOT
ATOM      1  C   UNL     1     -28.560  32.958  -2.650  1.00  0.00     0.160 C 
ENDROOT
BRANCH   1   2
ATOM      2  C   UNL     1     -27.512  32.041  -3.236  1.00  0.00     0.163 C 
ATOM      3  O   UNL     1     -26.888  31.238  -2.489  1.00  0.00    -0.294 OA
BRANCH   2   4
ATOM      4  C   UNL     1     -27.182  32.048  -4.677  1.00  0.00     0.048 C 
ATOM      5  C   UNL     1     -26.298  31.206  -5.235  1.00  0.00     0.012 C 
BRANCH   5   6
ATOM      6  C   UNL     1     -25.968  31.203  -6.681  1.00  0.00    -0.025 A 
ATOM      7  C   UNL     1     -24.640  31.188  -7.156  1.00  0.00     0.012 A 
ATOM      8  C   UNL     1     -24.381  31.170  -8.530  1.00  0.00     0.047 A 
ATOM      9  C   UNL     1     -25.437  31.158  -9.448  1.00  0.00     0.115 A 
ATOM     10  C   UNL     1     -27.020  31.176  -7.613  1.00  0.00     0.012 A 
ATOM     11  C   UNL     1     -26.756  31.158  -8.985  1.00  0.00     0.047 A 
BRANCH   9  12
ATOM     12  O   UNL     1     -25.189  31.141 -10.819  1.00  0.00    -0.508 OA
ATOM     13  H   UNL     1     -24.439  30.587 -11.214  1.00  0.00     0.293 HD
ENDBRANCH   9  12
ENDBRANCH   5   6
ENDBRANCH   2   4
ENDBRANCH   1   2
BRANCH   1  14
ATOM     14  C   UNL     1     -29.485  32.246  -1.702  1.00  0.00     0.163 C 
ATOM     15  O   UNL     1     -29.042  31.846  -0.591  1.00  0.00    -0.294 OA
BRANCH  14  16
ATOM     16  C   UNL     1     -30.905  32.056  -2.059  1.00  0.00     0.048 C 
ATOM     17  C   UNL     1     -31.489  30.850  -2.052  1.00  0.00     0.012 C 
BRANCH  17  18
ATOM     18  C   UNL     1     -32.915  30.619  -2.392  1.00  0.00    -0.025 A 
ATOM     19  C   UNL     1     -33.846  30.502  -1.346  1.00  0.00     0.012 A 
ATOM     20  C   UNL     1     -33.365  30.477  -3.722  1.00  0.00     0.012 A 
ATOM     21  C   UNL     1     -35.198  30.273  -1.618  1.00  0.00     0.047 A 
ATOM     22  C   UNL     1     -34.719  30.248  -3.989  1.00  0.00     0.047 A 
ATOM     23  C   UNL     1     -35.638  30.148  -2.941  1.00  0.00     0.115 A 
BRANCH  23  24
ATOM     24  O   UNL     1     -36.982  29.919  -3.225  1.00  0.00    -0.508 OA
ATOM     25  H   UNL     1     -37.658  30.675  -3.229  1.00  0.00     0.293 HD
ENDBRANCH  23  24
ENDBRANCH  17  18
ENDBRANCH  14  16
ENDBRANCH   1  14
TORSDOF 8
ENDMDL
