MODEL 1
REMARK VINA RESULT:    -4.931      0.000      0.000
REMARK INTER + INTRA:          -5.075
REMARK INTER:                  -5.075
REMARK INTRA:                   0.000
REMARK UNBOUND:                 0.000
REMARK SMILES Oc1ccc2[nH]ccc2c1
REMARK SMILES IDX 3 1 4 2 5 3 9 4 8 5 7 6 6 7 10 8 2 9 1 11
REMARK H PARENT 6 10 1 12
REMARK Flexibility Score: inf
ROOT
ATOM      1  C   UNL     1      13.509  12.888   9.513  1.00  0.00     0.048 A 
ATOM      2  C   UNL     1      14.435  12.878  10.574  1.00  0.00     0.030 A 
ATOM      3  C   UNL     1      15.791  12.887  10.253  1.00  0.00     0.046 A 
ATOM      4  C   UNL     1      16.224  12.906   8.954  1.00  0.00     0.003 A 
ATOM      5  C   UNL     1      17.601  12.910   8.980  1.00  0.00     0.028 A 
ATOM      6  C   UNL     1      17.940  12.894  10.329  1.00  0.00     0.083 A 
ATOM      7  N   UNL     1      16.831  12.880  11.102  1.00  0.00    -0.361 N 
ATOM      8  C   UNL     1      15.334  12.916   7.882  1.00  0.00     0.056 A 
ATOM      9  C   UNL     1      13.953  12.908   8.171  1.00  0.00     0.116 A 
ATOM     10  H   UNL     1      16.795  12.865  12.147  1.00  0.00     0.166 HD
ENDROOT
BRANCH   9  11
ATOM     11  O   UNL     1      13.017  12.917   7.139  1.00  0.00    -0.508 OA
ATOM     12  H   UNL     1      12.717  12.060   6.689  1.00  0.00     0.293 HD
ENDBRANCH   9  11
TORSDOF 1
ENDMDL
MODEL 2
REMARK VINA RESULT:    -4.911      2.670      4.156
REMARK INTER + INTRA:          -5.055
REMARK INTER:                  -5.055
REMARK INTRA:                   0.000
REMARK UNBOUND:                 0.000
REMARK SMILES Oc1ccc2[nH]ccc2c1
REMARK SMILES IDX 3 1 4 2 5 3 9 4 8 5 7 6 6 7 10 8 2 9 1 11
REMARK H PARENT 6 10 1 12
REMARK Flexibility Score: inf
ROOT
ATOM      1  C   UNL     1      18.096  12.936   9.783  1.00  0.00     0.048 A 
ATOM      2  C   UNL     1      17.277  12.957   8.638  1.00  0.00     0.030 A 
ATOM      3  C   UNL     1      15.897  12.936   8.826  1.00  0.00     0.046 A 
ATOM      4  C   UNL     1      15.340  12.896  10.076  1.00  0.00     0.003 A 
ATOM      5  C   UNL     1      13.972  12.885   9.918  1.00  0.00     0.028 A 
ATOM      6  C   UNL     1      13.765  12.919   8.543  1.00  0.00     0.083 A 
ATOM      7  N   UNL     1      14.944  12.950   7.880  1.00  0.00    -0.361 N 
ATOM      8  C   UNL     1      16.123  12.875  11.229  1.00  0.00     0.056 A 
ATOM      9  C   UNL     1      17.525  12.895  11.075  1.00  0.00     0.116 A 
ATOM     10  H   UNL     1      15.079  12.978   6.844  1.00  0.00     0.166 HD
ENDROOT
BRANCH   9  11
ATOM     11  O   UNL     1      18.357  12.875  12.192  1.00  0.00    -0.508 OA
ATOM     12  H   UNL     1      19.257  12.408  12.173  1.00  0.00     0.293 HD
ENDBRANCH   9  11
TORSDOF 1
ENDMDL
MODEL 3
REMARK VINA RESULT:    -4.762      2.307      3.539
REMARK INTER + INTRA:          -4.901
REMARK INTER:                  -4.901
REMARK INTRA:                   0.000
REMARK UNBOUND:                 0.000
REMARK SMILES Oc1ccc2[nH]ccc2c1
REMARK SMILES IDX 3 1 4 2 5 3 9 4 8 5 7 6 6 7 10 8 2 9 1 11
REMARK H PARENT 6 10 1 12
REMARK Flexibility Score: inf
ROOT
ATOM      1  C   UNL     1      17.575  12.881  10.546  1.00  0.00     0.048 A 
ATOM      2  C   UNL     1      16.242  12.876  11.000  1.00  0.00     0.030 A 
ATOM      3  C   UNL     1      15.229  12.879  10.043  1.00  0.00     0.046 A 
ATOM      4  C   UNL     1      15.506  12.888   8.701  1.00  0.00     0.003 A 
ATOM      5  C   UNL     1      14.301  12.889   8.033  1.00  0.00     0.028 A 
ATOM      6  C   UNL     1      13.332  12.881   9.030  1.00  0.00     0.083 A 
ATOM      7  N   UNL     1      13.904  12.875  10.256  1.00  0.00    -0.361 N 
ATOM      8  C   UNL     1      16.813  12.893   8.220  1.00  0.00     0.056 A 
ATOM      9  C   UNL     1      17.863  12.890   9.162  1.00  0.00     0.116 A 
ATOM     10  H   UNL     1      13.411  12.869  11.177  1.00  0.00     0.166 HD
ENDROOT
BRANCH   9  11
ATOM     11  O   UNL     1      19.191  12.895   8.739  1.00  0.00    -0.508 OA
ATOM     12  H   UNL     1      19.676  12.036   8.510  1.00  0.00     0.293 HD
ENDBRANCH   9  11
TORSDOF 1
ENDMDL
MODEL 4
REMARK VINA RESULT:    -4.659      1.162      2.018
REMARK INTER + INTRA:          -4.795
REMARK INTER:                  -4.795
REMARK INTRA:                   0.000
REMARK UNBOUND:                 0.000
REMARK SMILES Oc1ccc2[nH]ccc2c1
REMARK SMILES IDX 3 1 4 2 5 3 9 4 8 5 7 6 6 7 10 8 2 9 1 11
REMARK H PARENT 6 10 1 12
REMARK Flexibility Score: inf
ROOT
ATOM      1  C   UNL     1      13.910  13.180   7.729  1.00  0.00     0.048 A 
ATOM      2  C   UNL     1      15.309  13.104   7.589  1.00  0.00     0.030 A 
ATOM      3  C   UNL     1      16.075  13.020   8.750  1.00  0.00     0.046 A 
ATOM      4  C   UNL     1      15.501  13.012   9.993  1.00  0.00     0.003 A 
ATOM      5  C   UNL     1      16.519  12.923  10.916  1.00  0.00     0.028 A 
ATOM      6  C   UNL     1      17.689  12.880  10.165  1.00  0.00     0.083 A 
ATOM      7  N   UNL     1      17.412  12.941   8.842  1.00  0.00    -0.361 N 
ATOM      8  C   UNL     1      14.120  13.086  10.166  1.00  0.00     0.056 A 
ATOM      9  C   UNL     1      13.314  13.171   9.011  1.00  0.00     0.116 A 
ATOM     10  H   UNL     1      18.102  12.928   8.057  1.00  0.00     0.166 HD
ENDROOT
BRANCH   9  11
ATOM     11  O   UNL     1      11.928  13.247   9.122  1.00  0.00    -0.508 OA
ATOM     12  H   UNL     1      11.438  14.130   9.037  1.00  0.00     0.293 HD
ENDBRANCH   9  11
TORSDOF 1
ENDMDL
MODEL 5
REMARK VINA RESULT:    -4.451      2.357      3.250
REMARK INTER + INTRA:          -4.581
REMARK INTER:                  -4.581
REMARK INTRA:                   0.000
REMARK UNBOUND:                 0.000
REMARK SMILES Oc1ccc2[nH]ccc2c1
REMARK SMILES IDX 3 1 4 2 5 3 9 4 8 5 7 6 6 7 10 8 2 9 1 11
REMARK H PARENT 6 10 1 12
REMARK Flexibility Score: inf
ROOT
ATOM      1  C   UNL     1      13.579  16.037   7.092  1.00  0.00     0.048 A 
ATOM      2  C   UNL     1      14.804  15.607   7.638  1.00  0.00     0.030 A 
ATOM      3  C   UNL     1      14.780  14.525   8.515  1.00  0.00     0.046 A 
ATOM      4  C   UNL     1      13.612  13.890   8.845  1.00  0.00     0.003 A 
ATOM      5  C   UNL     1      13.928  12.875   9.721  1.00  0.00     0.028 A 
ATOM      6  C   UNL     1      15.308  12.950   9.882  1.00  0.00     0.083 A 
ATOM      7  N   UNL     1      15.823  13.959   9.143  1.00  0.00    -0.361 N 
ATOM      8  C   UNL     1      12.384  14.290   8.321  1.00  0.00     0.056 A 
ATOM      9  C   UNL     1      12.372  15.383   7.430  1.00  0.00     0.116 A 
ATOM     10  H   UNL     1      16.828  14.238   9.079  1.00  0.00     0.166 HD
ENDROOT
BRANCH   9  11
ATOM     11  O   UNL     1      11.174  15.828   6.875  1.00  0.00    -0.508 OA
ATOM     12  H   UNL     1      11.015  16.809   6.677  1.00  0.00     0.293 HD
ENDBRANCH   9  11
TORSDOF 1
ENDMDL
MODEL 6
REMARK VINA RESULT:    -3.719      2.176      2.660
REMARK INTER + INTRA:          -3.828
REMARK INTER:                  -3.828
REMARK INTRA:                   0.000
REMARK UNBOUND:                 0.000
REMARK SMILES Oc1ccc2[nH]ccc2c1
REMARK SMILES IDX 3 1 4 2 5 3 9 4 8 5 7 6 6 7 10 8 2 9 1 11
REMARK H PARENT 6 10 1 12
REMARK Flexibility Score: inf
ROOT
ATOM      1  C   UNL     1      11.690  13.910   8.304  1.00  0.00     0.048 A 
ATOM      2  C   UNL     1      12.607  13.116   9.021  1.00  0.00     0.030 A 
ATOM      3  C   UNL     1      13.949  13.488   8.993  1.00  0.00     0.046 A 
ATOM      4  C   UNL     1      14.379  14.586   8.296  1.00  0.00     0.003 A 
ATOM      5  C   UNL     1      15.742  14.676   8.469  1.00  0.00     0.028 A 
ATOM      6  C   UNL     1      16.078  13.600   9.283  1.00  0.00     0.083 A 
ATOM      7  N   UNL     1      14.979  12.877   9.601  1.00  0.00    -0.361 N 
ATOM      8  C   UNL     1      13.498  15.392   7.577  1.00  0.00     0.056 A 
ATOM      9  C   UNL     1      12.130  15.044   7.584  1.00  0.00     0.116 A 
ATOM     10  H   UNL     1      14.944  12.019  10.196  1.00  0.00     0.166 HD
ENDROOT
BRANCH   9  11
ATOM     11  O   UNL     1      11.204  15.812   6.883  1.00  0.00    -0.508 OA
ATOM     12  H   UNL     1      11.406  16.767   6.612  1.00  0.00     0.293 HD
ENDBRANCH   9  11
TORSDOF 1
ENDMDL
MODEL 7
REMARK VINA RESULT:    -3.278      2.844      4.396
REMARK INTER + INTRA:          -3.374
REMARK INTER:                  -3.374
REMARK INTRA:                   0.000
REMARK UNBOUND:                 0.000
REMARK SMILES Oc1ccc2[nH]ccc2c1
REMARK SMILES IDX 3 1 4 2 5 3 9 4 8 5 7 6 6 7 10 8 2 9 1 11
REMARK H PARENT 6 10 1 12
REMARK Flexibility Score: inf
ROOT
ATOM      1  C   UNL     1      15.938  14.274   8.752  1.00  0.00     0.048 A 
ATOM      2  C   UNL     1      15.002  14.785   7.833  1.00  0.00     0.030 A 
ATOM      3  C   UNL     1      13.679  14.365   7.952  1.00  0.00     0.046 A 
ATOM      4  C   UNL     1      13.287  13.485   8.925  1.00  0.00     0.003 A 
ATOM      5  C   UNL     1      11.933  13.278   8.772  1.00  0.00     0.028 A 
ATOM      6  C   UNL     1      11.566  14.063   7.685  1.00  0.00     0.083 A 
ATOM      7  N   UNL     1      12.635  14.725   7.187  1.00  0.00    -0.361 N 
ATOM      8  C   UNL     1      14.188  12.962   9.850  1.00  0.00     0.056 A 
ATOM      9  C   UNL     1      15.537  13.366   9.758  1.00  0.00     0.116 A 
ATOM     10  H   UNL     1      12.643  15.381   6.374  1.00  0.00     0.166 HD
ENDROOT
BRANCH   9  11
ATOM     11  O   UNL     1      16.483  12.875  10.655  1.00  0.00    -0.508 OA
ATOM     12  H   UNL     1      17.374  12.512  10.338  1.00  0.00     0.293 HD
ENDBRANCH   9  11
TORSDOF 1
ENDMDL
MODEL 8
REMARK VINA RESULT:    -3.070     20.718     21.494
REMARK INTER + INTRA:          -3.160
REMARK INTER:                  -3.160
REMARK INTRA:                   0.000
REMARK UNBOUND:                 0.000
REMARK SMILES Oc1ccc2[nH]ccc2c1
REMARK SMILES IDX 3 1 4 2 5 3 9 4 8 5 7 6 6 7 10 8 2 9 1 11
REMARK H PARENT 6 10 1 12
REMARK Flexibility Score: inf
ROOT
ATOM      1  C   UNL     1      12.121  30.547  22.402  1.00  0.00     0.048 A 
ATOM      2  C   UNL     1      12.669  30.112  21.180  1.00  0.00     0.030 A 
ATOM      3  C   UNL     1      11.796  29.906  20.113  1.00  0.00     0.046 A 
ATOM      4  C   UNL     1      10.448  30.115  20.235  1.00  0.00     0.003 A 
ATOM      5  C   UNL     1       9.875  29.825  19.016  1.00  0.00     0.028 A 
ATOM      6  C   UNL     1      10.934  29.445  18.197  1.00  0.00     0.083 A 
ATOM      7  N   UNL     1      12.105  29.496  18.873  1.00  0.00    -0.361 N 
ATOM      8  C   UNL     1       9.875  30.545  21.430  1.00  0.00     0.056 A 
ATOM      9  C   UNL     1      10.730  30.764  22.530  1.00  0.00     0.116 A 
ATOM     10  H   UNL     1      13.053  29.263  18.500  1.00  0.00     0.166 HD
ENDROOT
BRANCH   9  11
ATOM     11  O   UNL     1      10.214  31.194  23.750  1.00  0.00    -0.508 OA
ATOM     12  H   UNL     1       9.485  30.676  24.228  1.00  0.00     0.293 HD
ENDBRANCH   9  11
TORSDOF 1
ENDMDL
MODEL 9
REMARK VINA RESULT:    -2.807      2.807      3.615
REMARK INTER + INTRA:          -2.889
REMARK INTER:                  -2.889
REMARK INTRA:                   0.000
REMARK UNBOUND:                 0.000
REMARK SMILES Oc1ccc2[nH]ccc2c1
REMARK SMILES IDX 3 1 4 2 5 3 9 4 8 5 7 6 6 7 10 8 2 9 1 11
REMARK H PARENT 6 10 1 12
REMARK Flexibility Score: inf
ROOT
ATOM      1  C   UNL     1      13.523  13.120   9.058  1.00  0.00     0.048 A 
ATOM      2  C   UNL     1      14.737  13.829   8.982  1.00  0.00     0.030 A 
ATOM      3  C   UNL     1      14.757  15.004   8.235  1.00  0.00     0.046 A 
ATOM      4  C   UNL     1      13.642  15.467   7.589  1.00  0.00     0.003 A 
ATOM      5  C   UNL     1      13.992  16.635   6.948  1.00  0.00     0.028 A 
ATOM      6  C   UNL     1      15.337  16.825   7.247  1.00  0.00     0.083 A 
ATOM      7  N   UNL     1      15.800  15.826   8.033  1.00  0.00    -0.361 N 
ATOM      8  C   UNL     1      12.425  14.790   7.644  1.00  0.00     0.056 A 
ATOM      9  C   UNL     1      12.369  13.595   8.393  1.00  0.00     0.116 A 
ATOM     10  H   UNL     1      16.771  15.719   8.404  1.00  0.00     0.166 HD
ENDROOT
BRANCH   9  11
ATOM     11  O   UNL     1      11.180  12.875   8.484  1.00  0.00    -0.508 OA
ATOM     12  H   UNL     1      11.172  11.862   8.449  1.00  0.00     0.293 HD
ENDBRANCH   9  11
TORSDOF 1
ENDMDL
