MODEL 1
REMARK VINA RESULT:    -7.934      0.000      0.000
REMARK INTER + INTRA:         -10.581
REMARK INTER:                 -10.021
REMARK INTRA:                  -0.560
REMARK UNBOUND:                -0.560
REMARK SMILES Oc1ccc(CCc2cc(O)cc(O)c2)cc1
REMARK SMILES IDX 6 1 5 2 4 3 3 4 2 5 16 6 17 7 1 8 7 10 8 11 15 12 9 13 13 14
REMARK SMILES IDX 10 15 12 16 14 17 11 19
REMARK H PARENT 1 9 14 18 11 20
REMARK Flexibility Score: inf
ROOT
ATOM      1  C   UNL     1      80.557  63.207 103.952  1.00  0.00     0.040 C 
ENDROOT
BRANCH   1   2
ATOM      2  C   UNL     1      79.479  63.522 102.950  1.00  0.00    -0.047 A 
ATOM      3  C   UNL     1      78.366  64.292 103.325  1.00  0.00     0.007 A 
ATOM      4  C   UNL     1      77.349  64.556 102.402  1.00  0.00     0.046 A 
ATOM      5  C   UNL     1      77.430  64.047 101.099  1.00  0.00     0.115 A 
ATOM      6  C   UNL     1      79.549  63.002 101.647  1.00  0.00     0.007 A 
ATOM      7  C   UNL     1      78.531  63.269 100.726  1.00  0.00     0.046 A 
BRANCH   5   8
ATOM      8  O   UNL     1      76.424  64.303 100.172  1.00  0.00    -0.508 OA
ATOM      9  H   UNL     1      75.448  64.338 100.446  1.00  0.00     0.293 HD
ENDBRANCH   5   8
ENDBRANCH   1   2
BRANCH   1  10
ATOM     10  C   UNL     1      80.391  61.782 104.490  1.00  0.00     0.040 C 
BRANCH  10  11
ATOM     11  C   UNL     1      79.403  61.758 105.626  1.00  0.00    -0.040 A 
ATOM     12  C   UNL     1      79.225  62.893 106.433  1.00  0.00     0.050 A 
ATOM     13  C   UNL     1      78.610  60.621 105.849  1.00  0.00     0.050 A 
ATOM     14  C   UNL     1      78.284  62.884 107.468  1.00  0.00     0.119 A 
ATOM     15  C   UNL     1      77.669  60.608 106.884  1.00  0.00     0.119 A 
ATOM     16  C   UNL     1      77.507  61.739 107.695  1.00  0.00     0.092 A 
BRANCH  14  17
ATOM     17  O   UNL     1      78.127  64.018 108.263  1.00  0.00    -0.508 OA
ATOM     18  H   UNL     1      78.883  64.681 108.394  1.00  0.00     0.293 HD
ENDBRANCH  14  17
BRANCH  15  19
ATOM     19  O   UNL     1      76.896  59.468 107.095  1.00  0.00    -0.508 OA
ATOM     20  H   UNL     1      75.927  59.423 106.802  1.00  0.00     0.293 HD
ENDBRANCH  15  19
ENDBRANCH  10  11
ENDBRANCH   1  10
TORSDOF 6
ENDMDL
MODEL 2
REMARK VINA RESULT:    -7.895      0.080      2.041
REMARK INTER + INTRA:         -10.532
REMARK INTER:                  -9.972
REMARK INTRA:                  -0.561
REMARK UNBOUND:                -0.560
REMARK SMILES Oc1ccc(CCc2cc(O)cc(O)c2)cc1
REMARK SMILES IDX 6 1 5 2 4 3 3 4 2 5 16 6 17 7 1 8 7 10 8 11 15 12 9 13 13 14
REMARK SMILES IDX 10 15 12 16 14 17 11 19
REMARK H PARENT 1 9 14 18 11 20
REMARK Flexibility Score: inf
ROOT
ATOM      1  C   UNL     1      80.567  63.184 103.987  1.00  0.00     0.040 C 
ENDROOT
BRANCH   1   2
ATOM      2  C   UNL     1      79.511  63.477 102.956  1.00  0.00    -0.047 A 
ATOM      3  C   UNL     1      78.381  64.239 103.296  1.00  0.00     0.007 A 
ATOM      4  C   UNL     1      77.384  64.483 102.346  1.00  0.00     0.046 A 
ATOM      5  C   UNL     1      77.503  63.961 101.050  1.00  0.00     0.115 A 
ATOM      6  C   UNL     1      79.618  62.945 101.661  1.00  0.00     0.007 A 
ATOM      7  C   UNL     1      78.621  63.191 100.713  1.00  0.00     0.046 A 
BRANCH   5   8
ATOM      8  O   UNL     1      76.517  64.198 100.096  1.00  0.00    -0.508 OA
ATOM      9  H   UNL     1      75.531  64.148 100.329  1.00  0.00     0.293 HD
ENDBRANCH   5   8
ENDBRANCH   1   2
BRANCH   1  10
ATOM     10  C   UNL     1      80.389  61.771 104.553  1.00  0.00     0.040 C 
BRANCH  10  11
ATOM     11  C   UNL     1      79.349  61.765 105.641  1.00  0.00    -0.040 A 
ATOM     12  C   UNL     1      78.582  60.613 105.880  1.00  0.00     0.050 A 
ATOM     13  C   UNL     1      79.179  62.890 106.464  1.00  0.00     0.050 A 
ATOM     14  C   UNL     1      77.637  60.594 106.912  1.00  0.00     0.119 A 
ATOM     15  C   UNL     1      78.236  62.875 107.497  1.00  0.00     0.119 A 
ATOM     16  C   UNL     1      77.463  61.727 107.719  1.00  0.00     0.092 A 
BRANCH  14  17
ATOM     17  O   UNL     1      76.880  59.444 107.128  1.00  0.00    -0.508 OA
ATOM     18  H   UNL     1      77.106  58.568 106.671  1.00  0.00     0.293 HD
ENDBRANCH  14  17
BRANCH  15  19
ATOM     19  O   UNL     1      78.076  64.003 108.298  1.00  0.00    -0.508 OA
ATOM     20  H   UNL     1      77.217  64.541 108.290  1.00  0.00     0.293 HD
ENDBRANCH  15  19
ENDBRANCH  10  11
ENDBRANCH   1  10
TORSDOF 6
ENDMDL
MODEL 3
REMARK VINA RESULT:    -7.764      2.003      3.542
REMARK INTER + INTRA:         -10.367
REMARK INTER:                  -9.745
REMARK INTRA:                  -0.622
REMARK UNBOUND:                -0.560
REMARK SMILES Oc1ccc(CCc2cc(O)cc(O)c2)cc1
REMARK SMILES IDX 6 1 5 2 4 3 3 4 2 5 16 6 17 7 1 8 7 10 8 11 15 12 9 13 13 14
REMARK SMILES IDX 10 15 12 16 14 17 11 19
REMARK H PARENT 1 9 14 18 11 20
REMARK Flexibility Score: inf
ROOT
ATOM      1  C   UNL     1      79.128  64.637 101.600  1.00  0.00     0.040 C 
ENDROOT
BRANCH   1   2
ATOM      2  C   UNL     1      77.637  64.545 101.425  1.00  0.00    -0.047 A 
ATOM      3  C   UNL     1      77.085  63.628 100.516  1.00  0.00     0.007 A 
ATOM      4  C   UNL     1      75.700  63.566 100.331  1.00  0.00     0.046 A 
ATOM      5  C   UNL     1      74.855  64.426 101.046  1.00  0.00     0.115 A 
ATOM      6  C   UNL     1      76.786  65.414 102.128  1.00  0.00     0.007 A 
ATOM      7  C   UNL     1      75.402  65.349 101.942  1.00  0.00     0.046 A 
BRANCH   5   8
ATOM      8  O   UNL     1      73.474  64.373 100.870  1.00  0.00    -0.508 OA
ATOM      9  H   UNL     1      72.965  65.140 100.444  1.00  0.00     0.293 HD
ENDBRANCH   5   8
ENDBRANCH   1   2
BRANCH   1  10
ATOM     10  C   UNL     1      79.748  63.238 101.674  1.00  0.00     0.040 C 
BRANCH  10  11
ATOM     11  C   UNL     1      79.782  62.750 103.098  1.00  0.00    -0.040 A 
ATOM     12  C   UNL     1      78.696  62.032 103.626  1.00  0.00     0.050 A 
ATOM     13  C   UNL     1      80.922  62.959 103.891  1.00  0.00     0.050 A 
ATOM     14  C   UNL     1      78.739  61.549 104.938  1.00  0.00     0.119 A 
ATOM     15  C   UNL     1      80.967  62.479 105.204  1.00  0.00     0.119 A 
ATOM     16  C   UNL     1      79.875  61.776 105.728  1.00  0.00     0.092 A 
BRANCH  14  17
ATOM     17  O   UNL     1      77.649  60.845 105.446  1.00  0.00    -0.508 OA
ATOM     18  H   UNL     1      76.800  60.721 104.905  1.00  0.00     0.293 HD
ENDBRANCH  14  17
BRANCH  15  19
ATOM     19  O   UNL     1      82.104  62.702 105.978  1.00  0.00    -0.508 OA
ATOM     20  H   UNL     1      82.631  63.565 105.909  1.00  0.00     0.293 HD
ENDBRANCH  15  19
ENDBRANCH  10  11
ENDBRANCH   1  10
TORSDOF 6
ENDMDL
MODEL 4
REMARK VINA RESULT:    -7.737      1.276      5.834
REMARK INTER + INTRA:         -10.332
REMARK INTER:                  -9.608
REMARK INTRA:                  -0.724
REMARK UNBOUND:                -0.560
REMARK SMILES Oc1ccc(CCc2cc(O)cc(O)c2)cc1
REMARK SMILES IDX 6 1 5 2 4 3 3 4 2 5 16 6 17 7 1 8 7 10 8 11 15 12 9 13 13 14
REMARK SMILES IDX 10 15 12 16 14 17 11 19
REMARK H PARENT 1 9 14 18 11 20
REMARK Flexibility Score: inf
ROOT
ATOM      1  C   UNL     1      80.429  62.082 104.080  1.00  0.00     0.040 C 
ENDROOT
BRANCH   1   2
ATOM      2  C   UNL     1      79.544  62.094 105.297  1.00  0.00    -0.047 A 
ATOM      3  C   UNL     1      78.771  60.968 105.623  1.00  0.00     0.007 A 
ATOM      4  C   UNL     1      77.924  60.992 106.735  1.00  0.00     0.046 A 
ATOM      5  C   UNL     1      77.835  62.145 107.527  1.00  0.00     0.115 A 
ATOM      6  C   UNL     1      79.440  63.252 106.086  1.00  0.00     0.007 A 
ATOM      7  C   UNL     1      78.593  63.273 107.199  1.00  0.00     0.046 A 
BRANCH   5   8
ATOM      8  O   UNL     1      76.995  62.181 108.638  1.00  0.00    -0.508 OA
ATOM      9  H   UNL     1      76.471  63.015 108.879  1.00  0.00     0.293 HD
ENDBRANCH   5   8
ENDBRANCH   1   2
BRANCH   1  10
ATOM     10  C   UNL     1      80.417  63.451 103.392  1.00  0.00     0.040 C 
BRANCH  10  11
ATOM     11  C   UNL     1      79.148  63.635 102.604  1.00  0.00    -0.040 A 
ATOM     12  C   UNL     1      78.687  62.614 101.756  1.00  0.00     0.050 A 
ATOM     13  C   UNL     1      78.384  64.804 102.754  1.00  0.00     0.050 A 
ATOM     14  C   UNL     1      77.491  62.770 101.047  1.00  0.00     0.119 A 
ATOM     15  C   UNL     1      77.188  64.963 102.047  1.00  0.00     0.119 A 
ATOM     16  C   UNL     1      76.743  63.947 101.191  1.00  0.00     0.092 A 
BRANCH  14  17
ATOM     17  O   UNL     1      77.055  61.750 100.204  1.00  0.00    -0.508 OA
ATOM     18  H   UNL     1      77.571  60.881 100.114  1.00  0.00     0.293 HD
ENDBRANCH  14  17
BRANCH  15  19
ATOM     19  O   UNL     1      76.448  66.133 102.203  1.00  0.00    -0.508 OA
ATOM     20  H   UNL     1      76.570  66.733 103.011  1.00  0.00     0.293 HD
ENDBRANCH  15  19
ENDBRANCH  10  11
ENDBRANCH   1  10
TORSDOF 6
ENDMDL
MODEL 5
REMARK VINA RESULT:    -7.731      1.976      2.937
REMARK INTER + INTRA:         -10.325
REMARK INTER:                  -9.691
REMARK INTRA:                  -0.634
REMARK UNBOUND:                -0.560
REMARK SMILES Oc1ccc(CCc2cc(O)cc(O)c2)cc1
REMARK SMILES IDX 6 1 5 2 4 3 3 4 2 5 16 6 17 7 1 8 7 10 8 11 15 12 9 13 13 14
REMARK SMILES IDX 10 15 12 16 14 17 11 19
REMARK H PARENT 1 9 14 18 11 20
REMARK Flexibility Score: inf
ROOT
ATOM      1  C   UNL     1      79.093  64.611 101.662  1.00  0.00     0.040 C 
ENDROOT
BRANCH   1   2
ATOM      2  C   UNL     1      77.611  64.534 101.415  1.00  0.00    -0.047 A 
ATOM      3  C   UNL     1      76.734  65.396 102.093  1.00  0.00     0.007 A 
ATOM      4  C   UNL     1      75.353  65.301 101.888  1.00  0.00     0.046 A 
ATOM      5  C   UNL     1      74.837  64.338 101.010  1.00  0.00     0.115 A 
ATOM      6  C   UNL     1      77.086  63.561 100.548  1.00  0.00     0.007 A 
ATOM      7  C   UNL     1      75.706  63.470 100.344  1.00  0.00     0.046 A 
BRANCH   5   8
ATOM      8  O   UNL     1      73.464  64.234 100.798  1.00  0.00    -0.508 OA
ATOM      9  H   UNL     1      72.879  63.656 101.390  1.00  0.00     0.293 HD
ENDBRANCH   5   8
ENDBRANCH   1   2
BRANCH   1  10
ATOM     10  C   UNL     1      79.708  63.208 101.690  1.00  0.00     0.040 C 
BRANCH  10  11
ATOM     11  C   UNL     1      79.766  62.685 103.101  1.00  0.00    -0.040 A 
ATOM     12  C   UNL     1      80.900  62.919 103.896  1.00  0.00     0.050 A 
ATOM     13  C   UNL     1      78.664  62.011 103.652  1.00  0.00     0.050 A 
ATOM     14  C   UNL     1      80.944  62.462 105.218  1.00  0.00     0.119 A 
ATOM     15  C   UNL     1      78.705  61.552 104.973  1.00  0.00     0.119 A 
ATOM     16  C   UNL     1      79.846  61.776 105.755  1.00  0.00     0.092 A 
BRANCH  14  17
ATOM     17  O   UNL     1      82.081  62.697 105.988  1.00  0.00    -0.508 OA
ATOM     18  H   UNL     1      82.684  63.493 105.812  1.00  0.00     0.293 HD
ENDBRANCH  14  17
BRANCH  15  19
ATOM     19  O   UNL     1      77.605  60.879 105.500  1.00  0.00    -0.508 OA
ATOM     20  H   UNL     1      76.657  61.183 105.311  1.00  0.00     0.293 HD
ENDBRANCH  15  19
ENDBRANCH  10  11
ENDBRANCH   1  10
TORSDOF 6
ENDMDL
MODEL 6
REMARK VINA RESULT:    -7.705      1.302      5.513
REMARK INTER + INTRA:         -10.293
REMARK INTER:                  -9.596
REMARK INTRA:                  -0.697
REMARK UNBOUND:                -0.560
REMARK SMILES Oc1ccc(CCc2cc(O)cc(O)c2)cc1
REMARK SMILES IDX 6 1 5 2 4 3 3 4 2 5 16 6 17 7 1 8 7 10 8 11 15 12 9 13 13 14
REMARK SMILES IDX 10 15 12 16 14 17 11 19
REMARK H PARENT 1 9 14 18 11 20
REMARK Flexibility Score: inf
ROOT
ATOM      1  C   UNL     1      80.247  61.808 104.423  1.00  0.00     0.040 C 
ENDROOT
BRANCH   1   2
ATOM      2  C   UNL     1      79.356  61.967 105.625  1.00  0.00    -0.047 A 
ATOM      3  C   UNL     1      78.504  60.923 106.019  1.00  0.00     0.007 A 
ATOM      4  C   UNL     1      77.652  61.084 107.117  1.00  0.00     0.046 A 
ATOM      5  C   UNL     1      77.639  62.293 107.826  1.00  0.00     0.115 A 
ATOM      6  C   UNL     1      79.327  63.182 106.331  1.00  0.00     0.007 A 
ATOM      7  C   UNL     1      78.476  63.339 107.428  1.00  0.00     0.046 A 
BRANCH   5   8
ATOM      8  O   UNL     1      76.795  62.464 108.921  1.00  0.00    -0.508 OA
ATOM      9  H   UNL     1      76.640  63.379 109.331  1.00  0.00     0.293 HD
ENDBRANCH   5   8
ENDBRANCH   1   2
BRANCH   1  10
ATOM     10  C   UNL     1      80.394  63.142 103.683  1.00  0.00     0.040 C 
BRANCH  10  11
ATOM     11  C   UNL     1      79.159  63.436 102.874  1.00  0.00    -0.040 A 
ATOM     12  C   UNL     1      78.554  64.702 102.942  1.00  0.00     0.050 A 
ATOM     13  C   UNL     1      78.636  62.467 102.003  1.00  0.00     0.050 A 
ATOM     14  C   UNL     1      77.425  64.988 102.167  1.00  0.00     0.119 A 
ATOM     15  C   UNL     1      77.507  62.750 101.227  1.00  0.00     0.119 A 
ATOM     16  C   UNL     1      76.900  64.011 101.311  1.00  0.00     0.092 A 
BRANCH  14  17
ATOM     17  O   UNL     1      76.835  66.248 102.254  1.00  0.00    -0.508 OA
ATOM     18  H   UNL     1      77.070  66.988 101.602  1.00  0.00     0.293 HD
ENDBRANCH  14  17
BRANCH  15  19
ATOM     19  O   UNL     1      76.998  61.774 100.373  1.00  0.00    -0.508 OA
ATOM     20  H   UNL     1      77.051  61.872  99.366  1.00  0.00     0.293 HD
ENDBRANCH  15  19
ENDBRANCH  10  11
ENDBRANCH   1  10
TORSDOF 6
ENDMDL
MODEL 7
REMARK VINA RESULT:    -7.599      1.638      2.908
REMARK INTER + INTRA:         -10.158
REMARK INTER:                  -9.552
REMARK INTRA:                  -0.605
REMARK UNBOUND:                -0.560
REMARK SMILES Oc1ccc(CCc2cc(O)cc(O)c2)cc1
REMARK SMILES IDX 6 1 5 2 4 3 3 4 2 5 16 6 17 7 1 8 7 10 8 11 15 12 9 13 13 14
REMARK SMILES IDX 10 15 12 16 14 17 11 19
REMARK H PARENT 1 9 14 18 11 20
REMARK Flexibility Score: inf
ROOT
ATOM      1  C   UNL     1      79.929  62.302 105.131  1.00  0.00     0.040 C 
ENDROOT
BRANCH   1   2
ATOM      2  C   UNL     1      79.335  62.641 103.790  1.00  0.00    -0.047 A 
ATOM      3  C   UNL     1      79.988  63.544 102.935  1.00  0.00     0.007 A 
ATOM      4  C   UNL     1      79.419  63.884 101.703  1.00  0.00     0.046 A 
ATOM      5  C   UNL     1      78.189  63.331 101.319  1.00  0.00     0.115 A 
ATOM      6  C   UNL     1      78.097  62.101 103.406  1.00  0.00     0.007 A 
ATOM      7  C   UNL     1      77.531  62.442 102.174  1.00  0.00     0.046 A 
BRANCH   5   8
ATOM      8  O   UNL     1      77.614  63.662 100.094  1.00  0.00    -0.508 OA
ATOM      9  H   UNL     1      76.609  63.641  99.959  1.00  0.00     0.293 HD
ENDBRANCH   5   8
ENDBRANCH   1   2
BRANCH   1  10
ATOM     10  C   UNL     1      78.876  61.655 106.036  1.00  0.00     0.040 C 
BRANCH  10  11
ATOM     11  C   UNL     1      78.469  62.602 107.134  1.00  0.00    -0.040 A 
ATOM     12  C   UNL     1      77.343  62.325 107.926  1.00  0.00     0.050 A 
ATOM     13  C   UNL     1      79.246  63.739 107.411  1.00  0.00     0.050 A 
ATOM     14  C   UNL     1      76.983  63.187 108.967  1.00  0.00     0.119 A 
ATOM     15  C   UNL     1      78.888  64.603 108.451  1.00  0.00     0.119 A 
ATOM     16  C   UNL     1      77.755  64.328 109.228  1.00  0.00     0.092 A 
BRANCH  14  17
ATOM     17  O   UNL     1      75.858  62.899 109.738  1.00  0.00    -0.508 OA
ATOM     18  H   UNL     1      75.619  63.453 110.553  1.00  0.00     0.293 HD
ENDBRANCH  14  17
BRANCH  15  19
ATOM     19  O   UNL     1      79.667  65.729 108.707  1.00  0.00    -0.508 OA
ATOM     20  H   UNL     1      79.395  66.647 108.376  1.00  0.00     0.293 HD
ENDBRANCH  15  19
ENDBRANCH  10  11
ENDBRANCH   1  10
TORSDOF 6
ENDMDL
MODEL 8
REMARK VINA RESULT:    -7.506      1.809      5.893
REMARK INTER + INTRA:         -10.041
REMARK INTER:                  -9.459
REMARK INTRA:                  -0.582
REMARK UNBOUND:                -0.560
REMARK SMILES Oc1ccc(CCc2cc(O)cc(O)c2)cc1
REMARK SMILES IDX 6 1 5 2 4 3 3 4 2 5 16 6 17 7 1 8 7 10 8 11 15 12 9 13 13 14
REMARK SMILES IDX 10 15 12 16 14 17 11 19
REMARK H PARENT 1 9 14 18 11 20
REMARK Flexibility Score: inf
ROOT
ATOM      1  C   UNL     1      80.006  63.062 105.586  1.00  0.00     0.040 C 
ENDROOT
BRANCH   1   2
ATOM      2  C   UNL     1      78.988  63.010 106.693  1.00  0.00    -0.047 A 
ATOM      3  C   UNL     1      78.130  61.906 106.815  1.00  0.00     0.007 A 
ATOM      4  C   UNL     1      77.162  61.873 107.824  1.00  0.00     0.046 A 
ATOM      5  C   UNL     1      77.037  62.948 108.715  1.00  0.00     0.115 A 
ATOM      6  C   UNL     1      78.849  64.091 107.579  1.00  0.00     0.007 A 
ATOM      7  C   UNL     1      77.882  64.055 108.588  1.00  0.00     0.046 A 
BRANCH   5   8
ATOM      8  O   UNL     1      76.078  62.927 109.724  1.00  0.00    -0.508 OA
ATOM      9  H   UNL     1      75.102  62.737 109.523  1.00  0.00     0.293 HD
ENDBRANCH   5   8
ENDBRANCH   1   2
BRANCH   1  10
ATOM     10  C   UNL     1      79.803  61.895 104.614  1.00  0.00     0.040 C 
BRANCH  10  11
ATOM     11  C   UNL     1      79.278  62.391 103.294  1.00  0.00    -0.040 A 
ATOM     12  C   UNL     1      80.084  63.189 102.466  1.00  0.00     0.050 A 
ATOM     13  C   UNL     1      77.999  62.013 102.854  1.00  0.00     0.050 A 
ATOM     14  C   UNL     1      79.610  63.625 101.224  1.00  0.00     0.119 A 
ATOM     15  C   UNL     1      77.521  62.447 101.613  1.00  0.00     0.119 A 
ATOM     16  C   UNL     1      78.326  63.256 100.799  1.00  0.00     0.092 A 
BRANCH  14  17
ATOM     17  O   UNL     1      80.423  64.422 100.420  1.00  0.00    -0.508 OA
ATOM     18  H   UNL     1      80.473  65.426 100.550  1.00  0.00     0.293 HD
ENDBRANCH  14  17
BRANCH  15  19
ATOM     19  O   UNL     1      76.247  62.068 101.196  1.00  0.00    -0.508 OA
ATOM     20  H   UNL     1      75.445  62.140 101.811  1.00  0.00     0.293 HD
ENDBRANCH  15  19
ENDBRANCH  10  11
ENDBRANCH   1  10
TORSDOF 6
ENDMDL
MODEL 9
REMARK VINA RESULT:    -7.485      1.626      2.272
REMARK INTER + INTRA:         -10.014
REMARK INTER:                  -9.416
REMARK INTRA:                  -0.598
REMARK UNBOUND:                -0.560
REMARK SMILES Oc1ccc(CCc2cc(O)cc(O)c2)cc1
REMARK SMILES IDX 6 1 5 2 4 3 3 4 2 5 16 6 17 7 1 8 7 10 8 11 15 12 9 13 13 14
REMARK SMILES IDX 10 15 12 16 14 17 11 19
REMARK H PARENT 1 9 14 18 11 20
REMARK Flexibility Score: inf
ROOT
ATOM      1  C   UNL     1      79.863  62.359 105.072  1.00  0.00     0.040 C 
ENDROOT
BRANCH   1   2
ATOM      2  C   UNL     1      79.213  62.717 103.763  1.00  0.00    -0.047 A 
ATOM      3  C   UNL     1      77.969  62.166 103.416  1.00  0.00     0.007 A 
ATOM      4  C   UNL     1      77.381  62.474 102.185  1.00  0.00     0.046 A 
ATOM      5  C   UNL     1      78.035  63.328 101.286  1.00  0.00     0.115 A 
ATOM      6  C   UNL     1      79.871  63.560 102.853  1.00  0.00     0.007 A 
ATOM      7  C   UNL     1      79.280  63.867 101.623  1.00  0.00     0.046 A 
BRANCH   5   8
ATOM      8  O   UNL     1      77.459  63.641 100.058  1.00  0.00    -0.508 OA
ATOM      9  H   UNL     1      76.565  64.117  99.998  1.00  0.00     0.293 HD
ENDBRANCH   5   8
ENDBRANCH   1   2
BRANCH   1  10
ATOM     10  C   UNL     1      78.857  61.674 106.003  1.00  0.00     0.040 C 
BRANCH  10  11
ATOM     11  C   UNL     1      78.490  62.583 107.145  1.00  0.00    -0.040 A 
ATOM     12  C   UNL     1      79.245  63.740 107.399  1.00  0.00     0.050 A 
ATOM     13  C   UNL     1      77.357  62.312 107.930  1.00  0.00     0.050 A 
ATOM     14  C   UNL     1      78.887  64.603 108.440  1.00  0.00     0.119 A 
ATOM     15  C   UNL     1      76.997  63.173 108.972  1.00  0.00     0.119 A 
ATOM     16  C   UNL     1      77.763  64.318 109.229  1.00  0.00     0.092 A 
BRANCH  14  17
ATOM     17  O   UNL     1      79.652  65.743 108.681  1.00  0.00    -0.508 OA
ATOM     18  H   UNL     1      79.846  66.415 107.947  1.00  0.00     0.293 HD
ENDBRANCH  14  17
BRANCH  15  19
ATOM     19  O   UNL     1      75.873  62.884 109.744  1.00  0.00    -0.508 OA
ATOM     20  H   UNL     1      75.068  63.499 109.757  1.00  0.00     0.293 HD
ENDBRANCH  15  19
ENDBRANCH  10  11
ENDBRANCH   1  10
TORSDOF 6
ENDMDL
