MODEL 1
REMARK VINA RESULT:    -3.402      0.000      0.000
REMARK INTER + INTRA:         -13.575
REMARK INTER:                  -8.572
REMARK INTRA:                  -5.003
REMARK UNBOUND:                -5.003
REMARK SMILES CCCCCCCCCCCCCCCCCCCCCCCCCCCC(=O)[O-]
REMARK SMILES IDX 15 1 16 2 17 3 18 4 19 5 20 6 21 7 22 8 23 9 24 10 25 11
REMARK SMILES IDX 26 12 27 13 28 14 29 15 30 16 14 17 13 18 12 19 11 20 10 21
REMARK SMILES IDX 9 22 8 23 7 24 6 25 5 26 4 27 3 28 2 29 1 30
REMARK H PARENT
REMARK Flexibility Score: inf
ROOT
ATOM      1  C   UNL     1      31.701  -0.964 -34.465  1.00  0.00     0.000 C 
ENDROOT
BRANCH   1   2
ATOM      2  C   UNL     1      31.567  -2.448 -34.843  1.00  0.00     0.000 C 
BRANCH   2   3
ATOM      3  C   UNL     1      30.130  -2.825 -35.244  1.00  0.00     0.000 C 
BRANCH   3   4
ATOM      4  C   UNL     1      29.073  -1.975 -34.521  1.00  0.00     0.000 C 
BRANCH   4   5
ATOM      5  C   UNL     1      27.744  -2.723 -34.312  1.00  0.00     0.000 C 
BRANCH   5   6
ATOM      6  C   UNL     1      27.679  -4.037 -35.108  1.00  0.00     0.000 C 
BRANCH   6   7
ATOM      7  C   UNL     1      26.238  -4.453 -35.451  1.00  0.00     0.000 C 
BRANCH   7   8
ATOM      8  C   UNL     1      25.552  -3.467 -36.411  1.00  0.00     0.000 C 
BRANCH   8   9
ATOM      9  C   UNL     1      24.141  -3.078 -35.938  1.00  0.00     0.000 C 
BRANCH   9  10
ATOM     10  C   UNL     1      23.774  -3.710 -34.587  1.00  0.00     0.000 C 
BRANCH  10  11
ATOM     11  C   UNL     1      23.709  -2.675 -33.450  1.00  0.00     0.000 C 
BRANCH  11  12
ATOM     12  C   UNL     1      24.448  -3.138 -32.184  1.00  0.00     0.006 C 
BRANCH  12  13
ATOM     13  C   UNL     1      24.576  -4.664 -32.097  1.00  0.00     0.053 C 
BRANCH  13  14
ATOM     14  C   UNL     1      23.998  -5.165 -30.811  1.00  0.00     0.041 C 
ATOM     15  O   UNL     1      23.942  -6.404 -30.583  1.00  0.00    -0.550 OA
ATOM     16  O   UNL     1      23.548  -4.268 -29.853  1.00  0.00    -0.550 OA
ENDBRANCH  13  14
ENDBRANCH  12  13
ENDBRANCH  11  12
ENDBRANCH  10  11
ENDBRANCH   9  10
ENDBRANCH   8   9
ENDBRANCH   7   8
ENDBRANCH   6   7
ENDBRANCH   5   6
ENDBRANCH   4   5
ENDBRANCH   3   4
ENDBRANCH   2   3
ENDBRANCH   1   2
BRANCH   1  17
ATOM     17  C   UNL     1      32.141  -0.096 -35.655  1.00  0.00     0.000 C 
BRANCH  17  18
ATOM     18  C   UNL     1      33.210  -0.813 -36.492  1.00  0.00     0.000 C 
BRANCH  18  19
ATOM     19  C   UNL     1      33.175  -0.390 -37.975  1.00  0.00     0.000 C 
BRANCH  19  20
ATOM     20  C   UNL     1      32.639  -1.491 -38.909  1.00  0.00     0.000 C 
BRANCH  20  21
ATOM     21  C   UNL     1      32.742  -2.898 -38.282  1.00  0.00     0.000 C 
BRANCH  21  22
ATOM     22  C   UNL     1      32.366  -4.018 -39.270  1.00  0.00    -0.000 C 
BRANCH  22  23
ATOM     23  C   UNL     1      30.954  -3.854 -39.873  1.00  0.00    -0.000 C 
BRANCH  23  24
ATOM     24  C   UNL     1      29.914  -4.817 -39.271  1.00  0.00    -0.000 C 
BRANCH  24  25
ATOM     25  C   UNL     1      28.767  -4.076 -38.561  1.00  0.00    -0.000 C 
BRANCH  25  26
ATOM     26  C   UNL     1      28.483  -2.685 -39.153  1.00  0.00    -0.000 C 
BRANCH  26  27
ATOM     27  C   UNL     1      28.205  -1.584 -38.106  1.00  0.00    -0.000 C 
BRANCH  27  28
ATOM     28  C   UNL     1      29.192  -0.397 -38.099  1.00  0.00    -0.000 C 
BRANCH  28  29
ATOM     29  C   UNL     1      29.509   0.216 -39.476  1.00  0.00    -0.003 C 
ATOM     30  C   UNL     1      30.154   1.598 -39.386  1.00  0.00     0.004 C 
ENDBRANCH  28  29
ENDBRANCH  27  28
ENDBRANCH  26  27
ENDBRANCH  25  26
ENDBRANCH  24  25
ENDBRANCH  23  24
ENDBRANCH  22  23
ENDBRANCH  21  22
ENDBRANCH  20  21
ENDBRANCH  19  20
ENDBRANCH  18  19
ENDBRANCH  17  18
ENDBRANCH   1  17
TORSDOF 26
ENDMDL
MODEL 2
REMARK VINA RESULT:    -3.332      6.039      8.881
REMARK INTER + INTRA:         -13.398
REMARK INTER:                  -9.061
REMARK INTRA:                  -4.338
REMARK UNBOUND:                -5.003
REMARK SMILES CCCCCCCCCCCCCCCCCCCCCCCCCCCC(=O)[O-]
REMARK SMILES IDX 15 1 16 2 17 3 18 4 19 5 20 6 21 7 22 8 23 9 24 10 25 11
REMARK SMILES IDX 26 12 27 13 28 14 29 15 30 16 14 17 13 18 12 19 11 20 10 21
REMARK SMILES IDX 9 22 8 23 7 24 6 25 5 26 4 27 3 28 2 29 1 30
REMARK H PARENT
REMARK Flexibility Score: inf
ROOT
ATOM      1  C   UNL     1      35.348   5.466 -31.700  1.00  0.00     0.000 C 
ENDROOT
BRANCH   1   2
ATOM      2  C   UNL     1      35.308   6.889 -31.119  1.00  0.00     0.000 C 
BRANCH   2   3
ATOM      3  C   UNL     1      33.875   7.435 -31.002  1.00  0.00     0.000 C 
BRANCH   3   4
ATOM      4  C   UNL     1      33.163   6.958 -29.726  1.00  0.00     0.000 C 
BRANCH   4   5
ATOM      5  C   UNL     1      31.845   6.217 -30.016  1.00  0.00     0.000 C 
BRANCH   5   6
ATOM      6  C   UNL     1      31.001   6.921 -31.091  1.00  0.00     0.000 C 
BRANCH   6   7
ATOM      7  C   UNL     1      30.549   5.968 -32.210  1.00  0.00     0.000 C 
BRANCH   7   8
ATOM      8  C   UNL     1      29.894   4.688 -31.666  1.00  0.00     0.000 C 
BRANCH   8   9
ATOM      9  C   UNL     1      29.364   3.780 -32.788  1.00  0.00     0.000 C 
BRANCH   9  10
ATOM     10  C   UNL     1      30.114   3.980 -34.114  1.00  0.00     0.000 C 
BRANCH  10  11
ATOM     11  C   UNL     1      29.896   2.815 -35.097  1.00  0.00     0.000 C 
BRANCH  11  12
ATOM     12  C   UNL     1      29.026   3.211 -36.301  1.00  0.00     0.006 C 
BRANCH  12  13
ATOM     13  C   UNL     1      28.620   2.008 -37.161  1.00  0.00     0.053 C 
BRANCH  13  14
ATOM     14  C   UNL     1      28.607   2.381 -38.609  1.00  0.00     0.041 C 
ATOM     15  O   UNL     1      29.073   1.589 -39.471  1.00  0.00    -0.550 OA
ATOM     16  O   UNL     1      28.054   3.589 -39.013  1.00  0.00    -0.550 OA
ENDBRANCH  13  14
ENDBRANCH  12  13
ENDBRANCH  11  12
ENDBRANCH  10  11
ENDBRANCH   9  10
ENDBRANCH   8   9
ENDBRANCH   7   8
ENDBRANCH   6   7
ENDBRANCH   5   6
ENDBRANCH   4   5
ENDBRANCH   3   4
ENDBRANCH   2   3
ENDBRANCH   1   2
BRANCH   1  17
ATOM     17  C   UNL     1      34.801   5.406 -33.135  1.00  0.00     0.000 C 
BRANCH  17  18
ATOM     18  C   UNL     1      33.742   4.303 -33.273  1.00  0.00     0.000 C 
BRANCH  18  19
ATOM     19  C   UNL     1      33.454   3.594 -31.933  1.00  0.00     0.000 C 
BRANCH  19  20
ATOM     20  C   UNL     1      32.766   2.227 -32.103  1.00  0.00     0.000 C 
BRANCH  20  21
ATOM     21  C   UNL     1      33.091   1.568 -33.461  1.00  0.00     0.000 C 
BRANCH  21  22
ATOM     22  C   UNL     1      32.310   0.261 -33.690  1.00  0.00    -0.000 C 
BRANCH  22  23
ATOM     23  C   UNL     1      33.036  -0.731 -34.625  1.00  0.00    -0.000 C 
BRANCH  23  24
ATOM     24  C   UNL     1      33.272  -0.177 -36.042  1.00  0.00    -0.000 C 
BRANCH  24  25
ATOM     25  C   UNL     1      31.962   0.234 -36.738  1.00  0.00    -0.000 C 
BRANCH  25  26
ATOM     26  C   UNL     1      31.921  -0.144 -38.230  1.00  0.00    -0.000 C 
BRANCH  26  27
ATOM     27  C   UNL     1      32.896  -1.272 -38.635  1.00  0.00    -0.000 C 
BRANCH  27  28
ATOM     28  C   UNL     1      32.245  -2.622 -39.006  1.00  0.00    -0.000 C 
BRANCH  28  29
ATOM     29  C   UNL     1      32.377  -3.738 -37.952  1.00  0.00    -0.003 C 
ATOM     30  C   UNL     1      33.644  -3.621 -37.107  1.00  0.00     0.004 C 
ENDBRANCH  28  29
ENDBRANCH  27  28
ENDBRANCH  26  27
ENDBRANCH  25  26
ENDBRANCH  24  25
ENDBRANCH  23  24
ENDBRANCH  22  23
ENDBRANCH  21  22
ENDBRANCH  20  21
ENDBRANCH  19  20
ENDBRANCH  18  19
ENDBRANCH  17  18
ENDBRANCH   1  17
TORSDOF 26
ENDMDL
MODEL 3
REMARK VINA RESULT:    -3.322      1.798      4.218
REMARK INTER + INTRA:         -13.373
REMARK INTER:                  -7.912
REMARK INTRA:                  -5.460
REMARK UNBOUND:                -5.003
REMARK SMILES CCCCCCCCCCCCCCCCCCCCCCCCCCCC(=O)[O-]
REMARK SMILES IDX 15 1 16 2 17 3 18 4 19 5 20 6 21 7 22 8 23 9 24 10 25 11
REMARK SMILES IDX 26 12 27 13 28 14 29 15 30 16 14 17 13 18 12 19 11 20 10 21
REMARK SMILES IDX 9 22 8 23 7 24 6 25 5 26 4 27 3 28 2 29 1 30
REMARK H PARENT
REMARK Flexibility Score: inf
ROOT
ATOM      1  C   UNL     1      28.913   1.137 -39.575  1.00  0.00     0.000 C 
ENDROOT
BRANCH   1   2
ATOM      2  C   UNL     1      29.548   1.436 -38.208  1.00  0.00     0.000 C 
BRANCH   2   3
ATOM      3  C   UNL     1      28.558   1.243 -37.045  1.00  0.00     0.000 C 
BRANCH   3   4
ATOM      4  C   UNL     1      27.104   1.527 -37.454  1.00  0.00     0.000 C 
BRANCH   4   5
ATOM      5  C   UNL     1      26.081   0.754 -36.603  1.00  0.00     0.000 C 
BRANCH   5   6
ATOM      6  C   UNL     1      25.493  -0.456 -37.348  1.00  0.00     0.000 C 
BRANCH   6   7
ATOM      7  C   UNL     1      25.303  -1.680 -36.435  1.00  0.00     0.000 C 
BRANCH   7   8
ATOM      8  C   UNL     1      26.049  -1.540 -35.098  1.00  0.00     0.000 C 
BRANCH   8   9
ATOM      9  C   UNL     1      26.702  -2.859 -34.652  1.00  0.00     0.000 C 
BRANCH   9  10
ATOM     10  C   UNL     1      25.933  -4.095 -35.143  1.00  0.00     0.000 C 
BRANCH  10  11
ATOM     11  C   UNL     1      25.833  -5.193 -34.069  1.00  0.00     0.000 C 
BRANCH  11  12
ATOM     12  C   UNL     1      24.831  -4.842 -32.956  1.00  0.00     0.006 C 
BRANCH  12  13
ATOM     13  C   UNL     1      23.664  -3.983 -33.457  1.00  0.00     0.053 C 
BRANCH  13  14
ATOM     14  C   UNL     1      23.506  -2.765 -32.602  1.00  0.00     0.041 C 
ATOM     15  O   UNL     1      24.492  -2.307 -31.966  1.00  0.00    -0.550 OA
ATOM     16  O   UNL     1      22.279  -2.119 -32.530  1.00  0.00    -0.550 OA
ENDBRANCH  13  14
ENDBRANCH  12  13
ENDBRANCH  11  12
ENDBRANCH  10  11
ENDBRANCH   9  10
ENDBRANCH   8   9
ENDBRANCH   7   8
ENDBRANCH   6   7
ENDBRANCH   5   6
ENDBRANCH   4   5
ENDBRANCH   3   4
ENDBRANCH   2   3
ENDBRANCH   1   2
BRANCH   1  17
ATOM     17  C   UNL     1      29.226  -0.285 -40.066  1.00  0.00     0.000 C 
BRANCH  17  18
ATOM     18  C   UNL     1      28.018  -1.213 -39.869  1.00  0.00     0.000 C 
BRANCH  18  19
ATOM     19  C   UNL     1      28.407  -2.549 -39.203  1.00  0.00     0.000 C 
BRANCH  19  20
ATOM     20  C   UNL     1      28.745  -2.407 -37.707  1.00  0.00     0.000 C 
BRANCH  20  21
ATOM     21  C   UNL     1      29.200  -3.740 -37.075  1.00  0.00     0.000 C 
BRANCH  21  22
ATOM     22  C   UNL     1      30.170  -3.539 -35.896  1.00  0.00    -0.000 C 
BRANCH  22  23
ATOM     23  C   UNL     1      31.541  -4.216 -36.109  1.00  0.00    -0.000 C 
BRANCH  23  24
ATOM     24  C   UNL     1      31.809  -4.613 -37.573  1.00  0.00    -0.000 C 
BRANCH  24  25
ATOM     25  C   UNL     1      32.822  -3.679 -38.259  1.00  0.00    -0.000 C 
BRANCH  25  26
ATOM     26  C   UNL     1      32.158  -2.545 -39.060  1.00  0.00    -0.000 C 
BRANCH  26  27
ATOM     27  C   UNL     1      32.613  -1.124 -38.662  1.00  0.00    -0.000 C 
BRANCH  27  28
ATOM     28  C   UNL     1      32.211  -0.660 -37.246  1.00  0.00    -0.000 C 
BRANCH  28  29
ATOM     29  C   UNL     1      33.369  -0.501 -36.242  1.00  0.00    -0.003 C 
ATOM     30  C   UNL     1      33.045  -1.056 -34.856  1.00  0.00     0.004 C 
ENDBRANCH  28  29
ENDBRANCH  27  28
ENDBRANCH  26  27
ENDBRANCH  25  26
ENDBRANCH  24  25
ENDBRANCH  23  24
ENDBRANCH  22  23
ENDBRANCH  21  22
ENDBRANCH  20  21
ENDBRANCH  19  20
ENDBRANCH  18  19
ENDBRANCH  17  18
ENDBRANCH   1  17
TORSDOF 26
ENDMDL
MODEL 4
REMARK VINA RESULT:    -3.314      1.528      3.745
REMARK INTER + INTRA:         -13.355
REMARK INTER:                  -7.609
REMARK INTRA:                  -5.746
REMARK UNBOUND:                -5.003
REMARK SMILES CCCCCCCCCCCCCCCCCCCCCCCCCCCC(=O)[O-]
REMARK SMILES IDX 15 1 16 2 17 3 18 4 19 5 20 6 21 7 22 8 23 9 24 10 25 11
REMARK SMILES IDX 26 12 27 13 28 14 29 15 30 16 14 17 13 18 12 19 11 20 10 21
REMARK SMILES IDX 9 22 8 23 7 24 6 25 5 26 4 27 3 28 2 29 1 30
REMARK H PARENT
REMARK Flexibility Score: inf
ROOT
ATOM      1  C   UNL     1      27.425  -2.208 -32.303  1.00  0.00     0.000 C 
ENDROOT
BRANCH   1   2
ATOM      2  C   UNL     1      27.123  -3.710 -32.174  1.00  0.00     0.000 C 
BRANCH   2   3
ATOM      3  C   UNL     1      27.496  -4.496 -33.443  1.00  0.00     0.000 C 
BRANCH   3   4
ATOM      4  C   UNL     1      26.264  -4.927 -34.255  1.00  0.00     0.000 C 
BRANCH   4   5
ATOM      5  C   UNL     1      26.416  -4.658 -35.763  1.00  0.00     0.000 C 
BRANCH   5   6
ATOM      6  C   UNL     1      25.359  -3.674 -36.292  1.00  0.00     0.000 C 
BRANCH   6   7
ATOM      7  C   UNL     1      24.355  -3.243 -35.210  1.00  0.00     0.000 C 
BRANCH   7   8
ATOM      8  C   UNL     1      24.378  -1.727 -34.954  1.00  0.00     0.000 C 
BRANCH   8   9
ATOM      9  C   UNL     1      24.073  -1.377 -33.488  1.00  0.00     0.000 C 
BRANCH   9  10
ATOM     10  C   UNL     1      23.601  -2.593 -32.675  1.00  0.00     0.000 C 
BRANCH  10  11
ATOM     11  C   UNL     1      23.849  -2.426 -31.165  1.00  0.00     0.000 C 
BRANCH  11  12
ATOM     12  C   UNL     1      23.393  -3.648 -30.351  1.00  0.00     0.006 C 
BRANCH  12  13
ATOM     13  C   UNL     1      23.971  -4.965 -30.885  1.00  0.00     0.053 C 
BRANCH  13  14
ATOM     14  C   UNL     1      24.741  -5.670 -29.814  1.00  0.00     0.041 C 
ATOM     15  O   UNL     1      25.510  -5.020 -29.055  1.00  0.00    -0.550 OA
ATOM     16  O   UNL     1      24.591  -7.038 -29.632  1.00  0.00    -0.550 OA
ENDBRANCH  13  14
ENDBRANCH  12  13
ENDBRANCH  11  12
ENDBRANCH  10  11
ENDBRANCH   9  10
ENDBRANCH   8   9
ENDBRANCH   7   8
ENDBRANCH   6   7
ENDBRANCH   5   6
ENDBRANCH   4   5
ENDBRANCH   3   4
ENDBRANCH   2   3
ENDBRANCH   1   2
BRANCH   1  17
ATOM     17  C   UNL     1      28.510  -1.920 -33.353  1.00  0.00     0.000 C 
BRANCH  17  18
ATOM     18  C   UNL     1      27.966  -1.018 -34.471  1.00  0.00     0.000 C 
BRANCH  18  19
ATOM     19  C   UNL     1      28.323  -1.544 -35.876  1.00  0.00     0.000 C 
BRANCH  19  20
ATOM     20  C   UNL     1      29.501  -2.535 -35.873  1.00  0.00     0.000 C 
BRANCH  20  21
ATOM     21  C   UNL     1      29.722  -3.194 -37.252  1.00  0.00     0.000 C 
BRANCH  21  22
ATOM     22  C   UNL     1      29.170  -2.346 -38.412  1.00  0.00    -0.000 C 
BRANCH  22  23
ATOM     23  C   UNL     1      30.266  -1.831 -39.370  1.00  0.00    -0.000 C 
BRANCH  23  24
ATOM     24  C   UNL     1      31.666  -2.389 -39.057  1.00  0.00    -0.000 C 
BRANCH  24  25
ATOM     25  C   UNL     1      32.678  -1.281 -38.718  1.00  0.00    -0.000 C 
BRANCH  25  26
ATOM     26  C   UNL     1      32.015   0.035 -38.275  1.00  0.00    -0.000 C 
BRANCH  26  27
ATOM     27  C   UNL     1      31.856   0.193 -36.747  1.00  0.00    -0.000 C 
BRANCH  27  28
ATOM     28  C   UNL     1      30.762   1.178 -36.282  1.00  0.00    -0.000 C 
BRANCH  28  29
ATOM     29  C   UNL     1      30.697   1.436 -34.764  1.00  0.00    -0.003 C 
ATOM     30  C   UNL     1      31.458   0.396 -33.944  1.00  0.00     0.004 C 
ENDBRANCH  28  29
ENDBRANCH  27  28
ENDBRANCH  26  27
ENDBRANCH  25  26
ENDBRANCH  24  25
ENDBRANCH  23  24
ENDBRANCH  22  23
ENDBRANCH  21  22
ENDBRANCH  20  21
ENDBRANCH  19  20
ENDBRANCH  18  19
ENDBRANCH  17  18
ENDBRANCH   1  17
TORSDOF 26
ENDMDL
MODEL 5
REMARK VINA RESULT:    -3.310      4.418      7.562
REMARK INTER + INTRA:         -13.345
REMARK INTER:                  -8.644
REMARK INTRA:                  -4.700
REMARK UNBOUND:                -5.003
REMARK SMILES CCCCCCCCCCCCCCCCCCCCCCCCCCCC(=O)[O-]
REMARK SMILES IDX 15 1 16 2 17 3 18 4 19 5 20 6 21 7 22 8 23 9 24 10 25 11
REMARK SMILES IDX 26 12 27 13 28 14 29 15 30 16 14 17 13 18 12 19 11 20 10 21
REMARK SMILES IDX 9 22 8 23 7 24 6 25 5 26 4 27 3 28 2 29 1 30
REMARK H PARENT
REMARK Flexibility Score: inf
ROOT
ATOM      1  C   UNL     1      31.483  -1.978 -35.723  1.00  0.00     0.000 C 
ENDROOT
BRANCH   1   2
ATOM      2  C   UNL     1      32.982  -1.745 -35.972  1.00  0.00     0.000 C 
BRANCH   2   3
ATOM      3  C   UNL     1      33.241  -0.575 -36.938  1.00  0.00     0.000 C 
BRANCH   3   4
ATOM      4  C   UNL     1      32.270  -0.565 -38.129  1.00  0.00     0.000 C 
BRANCH   4   5
ATOM      5  C   UNL     1      31.594   0.802 -38.340  1.00  0.00     0.000 C 
BRANCH   5   6
ATOM      6  C   UNL     1      30.062   0.694 -38.411  1.00  0.00     0.000 C 
BRANCH   6   7
ATOM      7  C   UNL     1      29.404   0.678 -37.021  1.00  0.00     0.000 C 
BRANCH   7   8
ATOM      8  C   UNL     1      29.923   1.803 -36.110  1.00  0.00     0.000 C 
BRANCH   8   9
ATOM      9  C   UNL     1      30.167   1.322 -34.670  1.00  0.00     0.000 C 
BRANCH   9  10
ATOM     10  C   UNL     1      31.642   1.433 -34.251  1.00  0.00     0.000 C 
BRANCH  10  11
ATOM     11  C   UNL     1      31.986   2.813 -33.662  1.00  0.00     0.000 C 
BRANCH  11  12
ATOM     12  C   UNL     1      33.470   2.940 -33.279  1.00  0.00     0.006 C 
BRANCH  12  13
ATOM     13  C   UNL     1      33.957   4.394 -33.267  1.00  0.00     0.053 C 
BRANCH  13  14
ATOM     14  C   UNL     1      34.417   4.780 -31.897  1.00  0.00     0.041 C 
ATOM     15  O   UNL     1      33.958   4.186 -30.885  1.00  0.00    -0.550 OA
ATOM     16  O   UNL     1      35.372   5.775 -31.737  1.00  0.00    -0.550 OA
ENDBRANCH  13  14
ENDBRANCH  12  13
ENDBRANCH  11  12
ENDBRANCH  10  11
ENDBRANCH   9  10
ENDBRANCH   8   9
ENDBRANCH   7   8
ENDBRANCH   6   7
ENDBRANCH   5   6
ENDBRANCH   4   5
ENDBRANCH   3   4
ENDBRANCH   2   3
ENDBRANCH   1   2
BRANCH   1  17
ATOM     17  C   UNL     1      31.124  -3.472 -35.679  1.00  0.00     0.000 C 
BRANCH  17  18
ATOM     18  C   UNL     1      32.274  -4.329 -36.227  1.00  0.00     0.000 C 
BRANCH  18  19
ATOM     19  C   UNL     1      31.852  -5.166 -37.453  1.00  0.00     0.000 C 
BRANCH  19  20
ATOM     20  C   UNL     1      31.715  -4.332 -38.740  1.00  0.00     0.000 C 
BRANCH  20  21
ATOM     21  C   UNL     1      30.268  -4.304 -39.275  1.00  0.00     0.000 C 
BRANCH  21  22
ATOM     22  C   UNL     1      29.607  -2.921 -39.134  1.00  0.00    -0.000 C 
BRANCH  22  23
ATOM     23  C   UNL     1      28.271  -2.956 -38.361  1.00  0.00    -0.000 C 
BRANCH  23  24
ATOM     24  C   UNL     1      28.083  -4.231 -37.518  1.00  0.00    -0.000 C 
BRANCH  24  25
ATOM     25  C   UNL     1      27.338  -3.959 -36.199  1.00  0.00    -0.000 C 
BRANCH  25  26
ATOM     26  C   UNL     1      27.558  -2.536 -35.658  1.00  0.00    -0.000 C 
BRANCH  26  27
ATOM     27  C   UNL     1      26.355  -1.946 -34.890  1.00  0.00    -0.000 C 
BRANCH  27  28
ATOM     28  C   UNL     1      25.305  -2.965 -34.398  1.00  0.00    -0.000 C 
BRANCH  28  29
ATOM     29  C   UNL     1      23.872  -2.752 -34.920  1.00  0.00    -0.003 C 
ATOM     30  C   UNL     1      23.734  -3.002 -36.421  1.00  0.00     0.004 C 
ENDBRANCH  28  29
ENDBRANCH  27  28
ENDBRANCH  26  27
ENDBRANCH  25  26
ENDBRANCH  24  25
ENDBRANCH  23  24
ENDBRANCH  22  23
ENDBRANCH  21  22
ENDBRANCH  20  21
ENDBRANCH  19  20
ENDBRANCH  18  19
ENDBRANCH  17  18
ENDBRANCH   1  17
TORSDOF 26
ENDMDL
MODEL 6
REMARK VINA RESULT:    -3.302      3.588      6.892
REMARK INTER + INTRA:         -13.324
REMARK INTER:                  -7.980
REMARK INTRA:                  -5.344
REMARK UNBOUND:                -5.003
REMARK SMILES CCCCCCCCCCCCCCCCCCCCCCCCCCCC(=O)[O-]
REMARK SMILES IDX 15 1 16 2 17 3 18 4 19 5 20 6 21 7 22 8 23 9 24 10 25 11
REMARK SMILES IDX 26 12 27 13 28 14 29 15 30 16 14 17 13 18 12 19 11 20 10 21
REMARK SMILES IDX 9 22 8 23 7 24 6 25 5 26 4 27 3 28 2 29 1 30
REMARK H PARENT
REMARK Flexibility Score: inf
ROOT
ATOM      1  C   UNL     1      24.209  -1.528 -33.240  1.00  0.00     0.000 C 
ENDROOT
BRANCH   1   2
ATOM      2  C   UNL     1      23.345  -2.633 -32.611  1.00  0.00     0.000 C 
BRANCH   2   3
ATOM      3  C   UNL     1      23.533  -3.993 -33.307  1.00  0.00     0.000 C 
BRANCH   3   4
ATOM      4  C   UNL     1      24.576  -4.877 -32.605  1.00  0.00     0.000 C 
BRANCH   4   5
ATOM      5  C   UNL     1      25.930  -4.902 -33.338  1.00  0.00     0.000 C 
BRANCH   5   6
ATOM      6  C   UNL     1      27.016  -4.110 -32.591  1.00  0.00     0.000 C 
BRANCH   6   7
ATOM      7  C   UNL     1      27.729  -3.087 -33.492  1.00  0.00     0.000 C 
BRANCH   7   8
ATOM      8  C   UNL     1      29.109  -3.575 -33.962  1.00  0.00     0.000 C 
BRANCH   8   9
ATOM      9  C   UNL     1      29.916  -2.465 -34.656  1.00  0.00     0.000 C 
BRANCH   9  10
ATOM     10  C   UNL     1      29.083  -1.200 -34.913  1.00  0.00     0.000 C 
BRANCH  10  11
ATOM     11  C   UNL     1      29.881  -0.107 -35.647  1.00  0.00     0.000 C 
BRANCH  11  12
ATOM     12  C   UNL     1      29.310   0.210 -37.039  1.00  0.00     0.006 C 
BRANCH  12  13
ATOM     13  C   UNL     1      28.803   1.652 -37.158  1.00  0.00     0.053 C 
BRANCH  13  14
ATOM     14  C   UNL     1      28.904   2.128 -38.572  1.00  0.00     0.041 C 
ATOM     15  O   UNL     1      28.615   3.320 -38.861  1.00  0.00    -0.550 OA
ATOM     16  O   UNL     1      29.345   1.266 -39.567  1.00  0.00    -0.550 OA
ENDBRANCH  13  14
ENDBRANCH  12  13
ENDBRANCH  11  12
ENDBRANCH  10  11
ENDBRANCH   9  10
ENDBRANCH   8   9
ENDBRANCH   7   8
ENDBRANCH   6   7
ENDBRANCH   5   6
ENDBRANCH   4   5
ENDBRANCH   3   4
ENDBRANCH   2   3
ENDBRANCH   1   2
BRANCH   1  17
ATOM     17  C   UNL     1      24.099  -1.503 -34.773  1.00  0.00     0.000 C 
BRANCH  17  18
ATOM     18  C   UNL     1      25.389  -0.961 -35.406  1.00  0.00     0.000 C 
BRANCH  18  19
ATOM     19  C   UNL     1      25.890  -1.846 -36.566  1.00  0.00     0.000 C 
BRANCH  19  20
ATOM     20  C   UNL     1      25.310  -3.272 -36.538  1.00  0.00     0.000 C 
BRANCH  20  21
ATOM     21  C   UNL     1      26.402  -4.356 -36.665  1.00  0.00     0.000 C 
BRANCH  21  22
ATOM     22  C   UNL     1      27.688  -3.829 -37.328  1.00  0.00    -0.000 C 
BRANCH  22  23
ATOM     23  C   UNL     1      28.586  -4.949 -37.898  1.00  0.00    -0.000 C 
BRANCH  23  24
ATOM     24  C   UNL     1      29.876  -4.426 -38.556  1.00  0.00    -0.000 C 
BRANCH  24  25
ATOM     25  C   UNL     1      30.121  -2.935 -38.265  1.00  0.00    -0.000 C 
BRANCH  25  26
ATOM     26  C   UNL     1      31.087  -2.271 -39.263  1.00  0.00    -0.000 C 
BRANCH  26  27
ATOM     27  C   UNL     1      32.429  -1.812 -38.652  1.00  0.00    -0.000 C 
BRANCH  27  28
ATOM     28  C   UNL     1      32.857  -2.529 -37.353  1.00  0.00    -0.000 C 
BRANCH  28  29
ATOM     29  C   UNL     1      33.443  -1.623 -36.253  1.00  0.00    -0.003 C 
ATOM     30  C   UNL     1      33.370  -0.136 -36.595  1.00  0.00     0.004 C 
ENDBRANCH  28  29
ENDBRANCH  27  28
ENDBRANCH  26  27
ENDBRANCH  25  26
ENDBRANCH  24  25
ENDBRANCH  23  24
ENDBRANCH  22  23
ENDBRANCH  21  22
ENDBRANCH  20  21
ENDBRANCH  19  20
ENDBRANCH  18  19
ENDBRANCH  17  18
ENDBRANCH   1  17
TORSDOF 26
ENDMDL
MODEL 7
REMARK VINA RESULT:    -3.280      2.292      5.351
REMARK INTER + INTRA:         -13.268
REMARK INTER:                  -7.633
REMARK INTRA:                  -5.635
REMARK UNBOUND:                -5.003
REMARK SMILES CCCCCCCCCCCCCCCCCCCCCCCCCCCC(=O)[O-]
REMARK SMILES IDX 15 1 16 2 17 3 18 4 19 5 20 6 21 7 22 8 23 9 24 10 25 11
REMARK SMILES IDX 26 12 27 13 28 14 29 15 30 16 14 17 13 18 12 19 11 20 10 21
REMARK SMILES IDX 9 22 8 23 7 24 6 25 5 26 4 27 3 28 2 29 1 30
REMARK H PARENT
REMARK Flexibility Score: inf
ROOT
ATOM      1  C   UNL     1      29.486  -0.467 -39.797  1.00  0.00     0.000 C 
ENDROOT
BRANCH   1   2
ATOM      2  C   UNL     1      29.347   1.062 -39.735  1.00  0.00     0.000 C 
BRANCH   2   3
ATOM      3  C   UNL     1      29.650   1.624 -38.334  1.00  0.00     0.000 C 
BRANCH   3   4
ATOM      4  C   UNL     1      28.442   2.341 -37.711  1.00  0.00     0.000 C 
BRANCH   4   5
ATOM      5  C   UNL     1      27.868   3.445 -38.618  1.00  0.00     0.000 C 
BRANCH   5   6
ATOM      6  C   UNL     1      26.506   3.059 -39.220  1.00  0.00     0.000 C 
BRANCH   6   7
ATOM      7  C   UNL     1      25.593   2.342 -38.211  1.00  0.00     0.000 C 
BRANCH   7   8
ATOM      8  C   UNL     1      24.952   1.072 -38.795  1.00  0.00     0.000 C 
BRANCH   8   9
ATOM      9  C   UNL     1      25.934  -0.111 -38.838  1.00  0.00     0.000 C 
BRANCH   9  10
ATOM     10  C   UNL     1      26.182  -0.724 -37.451  1.00  0.00     0.000 C 
BRANCH  10  11
ATOM     11  C   UNL     1      27.031  -2.007 -37.517  1.00  0.00     0.000 C 
BRANCH  11  12
ATOM     12  C   UNL     1      26.482  -3.127 -36.618  1.00  0.00     0.006 C 
BRANCH  12  13
ATOM     13  C   UNL     1      25.245  -2.695 -35.820  1.00  0.00     0.053 C 
BRANCH  13  14
ATOM     14  C   UNL     1      24.924  -3.705 -34.765  1.00  0.00     0.041 C 
ATOM     15  O   UNL     1      23.851  -3.615 -34.109  1.00  0.00    -0.550 OA
ATOM     16  O   UNL     1      25.792  -4.761 -34.524  1.00  0.00    -0.550 OA
ENDBRANCH  13  14
ENDBRANCH  12  13
ENDBRANCH  11  12
ENDBRANCH  10  11
ENDBRANCH   9  10
ENDBRANCH   8   9
ENDBRANCH   7   8
ENDBRANCH   6   7
ENDBRANCH   5   6
ENDBRANCH   4   5
ENDBRANCH   3   4
ENDBRANCH   2   3
ENDBRANCH   1   2
BRANCH   1  17
ATOM     17  C   UNL     1      30.245  -1.034 -38.586  1.00  0.00     0.000 C 
BRANCH  17  18
ATOM     18  C   UNL     1      31.383  -1.962 -39.037  1.00  0.00     0.000 C 
BRANCH  18  19
ATOM     19  C   UNL     1      32.771  -1.432 -38.624  1.00  0.00     0.000 C 
BRANCH  19  20
ATOM     20  C   UNL     1      32.702  -0.223 -37.671  1.00  0.00     0.000 C 
BRANCH  20  21
ATOM     21  C   UNL     1      33.636  -0.378 -36.452  1.00  0.00     0.000 C 
BRANCH  21  22
ATOM     22  C   UNL     1      32.988   0.103 -35.141  1.00  0.00    -0.000 C 
BRANCH  22  23
ATOM     23  C   UNL     1      31.625   0.799 -35.351  1.00  0.00    -0.000 C 
BRANCH  23  24
ATOM     24  C   UNL     1      30.513   0.258 -34.434  1.00  0.00    -0.000 C 
BRANCH  24  25
ATOM     25  C   UNL     1      29.528  -0.659 -35.181  1.00  0.00    -0.000 C 
BRANCH  25  26
ATOM     26  C   UNL     1      29.535  -2.109 -34.665  1.00  0.00    -0.000 C 
BRANCH  26  27
ATOM     27  C   UNL     1      30.209  -3.125 -35.613  1.00  0.00    -0.000 C 
BRANCH  27  28
ATOM     28  C   UNL     1      31.721  -3.346 -35.399  1.00  0.00    -0.000 C 
BRANCH  28  29
ATOM     29  C   UNL     1      32.323  -4.577 -36.103  1.00  0.00    -0.003 C 
ATOM     30  C   UNL     1      31.428  -5.136 -37.208  1.00  0.00     0.004 C 
ENDBRANCH  28  29
ENDBRANCH  27  28
ENDBRANCH  26  27
ENDBRANCH  25  26
ENDBRANCH  24  25
ENDBRANCH  23  24
ENDBRANCH  22  23
ENDBRANCH  21  22
ENDBRANCH  20  21
ENDBRANCH  19  20
ENDBRANCH  18  19
ENDBRANCH  17  18
ENDBRANCH   1  17
TORSDOF 26
ENDMDL
MODEL 8
REMARK VINA RESULT:    -3.272      3.964      6.487
REMARK INTER + INTRA:         -13.247
REMARK INTER:                  -7.461
REMARK INTRA:                  -5.786
REMARK UNBOUND:                -5.003
REMARK SMILES CCCCCCCCCCCCCCCCCCCCCCCCCCCC(=O)[O-]
REMARK SMILES IDX 15 1 16 2 17 3 18 4 19 5 20 6 21 7 22 8 23 9 24 10 25 11
REMARK SMILES IDX 26 12 27 13 28 14 29 15 30 16 14 17 13 18 12 19 11 20 10 21
REMARK SMILES IDX 9 22 8 23 7 24 6 25 5 26 4 27 3 28 2 29 1 30
REMARK H PARENT
REMARK Flexibility Score: inf
ROOT
ATOM      1  C   UNL     1      28.743  -0.615 -39.064  1.00  0.00     0.000 C 
ENDROOT
BRANCH   1   2
ATOM      2  C   UNL     1      27.987  -1.953 -39.104  1.00  0.00     0.000 C 
BRANCH   2   3
ATOM      3  C   UNL     1      28.826  -3.118 -38.548  1.00  0.00     0.000 C 
BRANCH   3   4
ATOM      4  C   UNL     1      28.447  -3.481 -37.104  1.00  0.00     0.000 C 
BRANCH   4   5
ATOM      5  C   UNL     1      27.157  -4.316 -37.014  1.00  0.00     0.000 C 
BRANCH   5   6
ATOM      6  C   UNL     1      26.013  -3.556 -36.322  1.00  0.00     0.000 C 
BRANCH   6   7
ATOM      7  C   UNL     1      26.472  -2.223 -35.709  1.00  0.00     0.000 C 
BRANCH   7   8
ATOM      8  C   UNL     1      25.390  -1.133 -35.787  1.00  0.00     0.000 C 
BRANCH   8   9
ATOM      9  C   UNL     1      24.902  -0.897 -37.226  1.00  0.00     0.000 C 
BRANCH   9  10
ATOM     10  C   UNL     1      25.086   0.559 -37.682  1.00  0.00     0.000 C 
BRANCH  10  11
ATOM     11  C   UNL     1      25.254   0.683 -39.207  1.00  0.00     0.000 C 
BRANCH  11  12
ATOM     12  C   UNL     1      26.082   1.913 -39.613  1.00  0.00     0.006 C 
BRANCH  12  13
ATOM     13  C   UNL     1      26.310   2.885 -38.450  1.00  0.00     0.053 C 
BRANCH  13  14
ATOM     14  C   UNL     1      27.682   3.477 -38.523  1.00  0.00     0.041 C 
ATOM     15  O   UNL     1      28.202   3.998 -37.500  1.00  0.00    -0.550 OA
ATOM     16  O   UNL     1      28.400   3.427 -39.710  1.00  0.00    -0.550 OA
ENDBRANCH  13  14
ENDBRANCH  12  13
ENDBRANCH  11  12
ENDBRANCH  10  11
ENDBRANCH   9  10
ENDBRANCH   8   9
ENDBRANCH   7   8
ENDBRANCH   6   7
ENDBRANCH   5   6
ENDBRANCH   4   5
ENDBRANCH   3   4
ENDBRANCH   2   3
ENDBRANCH   1   2
BRANCH   1  17
ATOM     17  C   UNL     1      28.768  -0.001 -37.655  1.00  0.00     0.000 C 
BRANCH  17  18
ATOM     18  C   UNL     1      29.981   0.926 -37.482  1.00  0.00     0.000 C 
BRANCH  18  19
ATOM     19  C   UNL     1      30.946   0.860 -38.683  1.00  0.00     0.000 C 
BRANCH  19  20
ATOM     20  C   UNL     1      32.325   0.275 -38.323  1.00  0.00     0.000 C 
BRANCH  20  21
ATOM     21  C   UNL     1      32.265  -1.240 -38.031  1.00  0.00     0.000 C 
BRANCH  21  22
ATOM     22  C   UNL     1      33.047  -1.632 -36.764  1.00  0.00    -0.000 C 
BRANCH  22  23
ATOM     23  C   UNL     1      33.571  -0.417 -35.967  1.00  0.00    -0.000 C 
BRANCH  23  24
ATOM     24  C   UNL     1      33.049  -0.361 -34.520  1.00  0.00    -0.000 C 
BRANCH  24  25
ATOM     25  C   UNL     1      31.620   0.204 -34.432  1.00  0.00    -0.000 C 
BRANCH  25  26
ATOM     26  C   UNL     1      30.706  -0.596 -33.487  1.00  0.00    -0.000 C 
BRANCH  26  27
ATOM     27  C   UNL     1      29.733  -1.562 -34.198  1.00  0.00    -0.000 C 
BRANCH  27  28
ATOM     28  C   UNL     1      29.902  -3.058 -33.859  1.00  0.00    -0.000 C 
BRANCH  28  29
ATOM     29  C   UNL     1      31.123  -3.753 -34.492  1.00  0.00    -0.003 C 
ATOM     30  C   UNL     1      32.225  -4.071 -33.484  1.00  0.00     0.004 C 
ENDBRANCH  28  29
ENDBRANCH  27  28
ENDBRANCH  26  27
ENDBRANCH  25  26
ENDBRANCH  24  25
ENDBRANCH  23  24
ENDBRANCH  22  23
ENDBRANCH  21  22
ENDBRANCH  20  21
ENDBRANCH  19  20
ENDBRANCH  18  19
ENDBRANCH  17  18
ENDBRANCH   1  17
TORSDOF 26
ENDMDL
MODEL 9
REMARK VINA RESULT:    -3.226      1.653      3.808
REMARK INTER + INTRA:         -13.131
REMARK INTER:                  -7.584
REMARK INTRA:                  -5.547
REMARK UNBOUND:                -5.003
REMARK SMILES CCCCCCCCCCCCCCCCCCCCCCCCCCCC(=O)[O-]
REMARK SMILES IDX 15 1 16 2 17 3 18 4 19 5 20 6 21 7 22 8 23 9 24 10 25 11
REMARK SMILES IDX 26 12 27 13 28 14 29 15 30 16 14 17 13 18 12 19 11 20 10 21
REMARK SMILES IDX 9 22 8 23 7 24 6 25 5 26 4 27 3 28 2 29 1 30
REMARK H PARENT
REMARK Flexibility Score: inf
ROOT
ATOM      1  C   UNL     1      32.550  -0.876 -35.832  1.00  0.00     0.000 C 
ENDROOT
BRANCH   1   2
ATOM      2  C   UNL     1      32.616   0.155 -34.694  1.00  0.00     0.000 C 
BRANCH   2   3
ATOM      3  C   UNL     1      31.283   0.279 -33.934  1.00  0.00     0.000 C 
BRANCH   3   4
ATOM      4  C   UNL     1      30.079   0.433 -34.877  1.00  0.00     0.000 C 
BRANCH   4   5
ATOM      5  C   UNL     1      29.025  -0.673 -34.687  1.00  0.00     0.000 C 
BRANCH   5   6
ATOM      6  C   UNL     1      29.511  -1.792 -33.750  1.00  0.00     0.000 C 
BRANCH   6   7
ATOM      7  C   UNL     1      29.645  -3.147 -34.464  1.00  0.00     0.000 C 
BRANCH   7   8
ATOM      8  C   UNL     1      29.233  -3.078 -35.944  1.00  0.00     0.000 C 
BRANCH   8   9
ATOM      9  C   UNL     1      28.051  -4.007 -36.266  1.00  0.00     0.000 C 
BRANCH   9  10
ATOM     10  C   UNL     1      26.957  -3.310 -37.090  1.00  0.00     0.000 C 
BRANCH  10  11
ATOM     11  C   UNL     1      25.590  -3.318 -36.382  1.00  0.00     0.000 C 
BRANCH  11  12
ATOM     12  C   UNL     1      25.706  -3.079 -34.867  1.00  0.00     0.006 C 
BRANCH  12  13
ATOM     13  C   UNL     1      24.750  -3.959 -34.052  1.00  0.00     0.053 C 
BRANCH  13  14
ATOM     14  C   UNL     1      25.498  -4.695 -32.986  1.00  0.00     0.041 C 
ATOM     15  O   UNL     1      26.755  -4.770 -33.031  1.00  0.00    -0.550 OA
ATOM     16  O   UNL     1      24.811  -5.275 -31.928  1.00  0.00    -0.550 OA
ENDBRANCH  13  14
ENDBRANCH  12  13
ENDBRANCH  11  12
ENDBRANCH  10  11
ENDBRANCH   9  10
ENDBRANCH   8   9
ENDBRANCH   7   8
ENDBRANCH   6   7
ENDBRANCH   5   6
ENDBRANCH   4   5
ENDBRANCH   3   4
ENDBRANCH   2   3
ENDBRANCH   1   2
BRANCH   1  17
ATOM     17  C   UNL     1      33.345  -0.432 -37.069  1.00  0.00     0.000 C 
BRANCH  17  18
ATOM     18  C   UNL     1      32.435  -0.338 -38.303  1.00  0.00     0.000 C 
BRANCH  18  19
ATOM     19  C   UNL     1      31.485   0.875 -38.241  1.00  0.00     0.000 C 
BRANCH  19  20
ATOM     20  C   UNL     1      30.177   0.665 -39.026  1.00  0.00     0.000 C 
BRANCH  20  21
ATOM     21  C   UNL     1      29.287  -0.434 -38.406  1.00  0.00     0.000 C 
BRANCH  21  22
ATOM     22  C   UNL     1      28.676  -1.371 -39.463  1.00  0.00    -0.000 C 
BRANCH  22  23
ATOM     23  C   UNL     1      29.708  -2.322 -40.108  1.00  0.00    -0.000 C 
BRANCH  23  24
ATOM     24  C   UNL     1      29.424  -3.811 -39.837  1.00  0.00    -0.000 C 
BRANCH  24  25
ATOM     25  C   UNL     1      30.686  -4.584 -39.414  1.00  0.00    -0.000 C 
BRANCH  25  26
ATOM     26  C   UNL     1      31.555  -3.821 -38.398  1.00  0.00    -0.000 C 
BRANCH  26  27
ATOM     27  C   UNL     1      32.447  -4.718 -37.513  1.00  0.00    -0.000 C 
BRANCH  27  28
ATOM     28  C   UNL     1      33.834  -4.143 -37.153  1.00  0.00    -0.000 C 
BRANCH  28  29
ATOM     29  C   UNL     1      34.263  -4.306 -35.683  1.00  0.00    -0.003 C 
ATOM     30  C   UNL     1      33.084  -4.373 -34.715  1.00  0.00     0.004 C 
ENDBRANCH  28  29
ENDBRANCH  27  28
ENDBRANCH  26  27
ENDBRANCH  25  26
ENDBRANCH  24  25
ENDBRANCH  23  24
ENDBRANCH  22  23
ENDBRANCH  21  22
ENDBRANCH  20  21
ENDBRANCH  19  20
ENDBRANCH  18  19
ENDBRANCH  17  18
ENDBRANCH   1  17
TORSDOF 26
ENDMDL
