MODEL 1
REMARK VINA RESULT:    -6.118      0.000      0.000
REMARK INTER + INTRA:          -7.199
REMARK INTER:                  -6.655
REMARK INTRA:                  -0.544
REMARK UNBOUND:                -0.544
REMARK SMILES C=C(C)[C@H]1CC[C@]2(C)CC[C@]3(C)[C@@H](CC[C@@H]4[C@@]5(C)CC[C@H](O)C(C)(C)[C@@H]5CC[C@@]43C)[C@H]12
REMARK SMILES IDX 4 1 5 2 6 3 7 4 31 5 13 6 14 7 15 8 16 9 17 10 19 11 20 12
REMARK SMILES IDX 21 13 23 14 26 15 27 16 28 17 29 18 11 19 10 20 9 21 12 22
REMARK SMILES IDX 30 23 24 24 25 25 18 26 8 27 2 28 3 29 1 30 22 31
REMARK H PARENT 22 32
REMARK Flexibility Score: inf
ROOT
ATOM      1  C   UNL     1      63.961  45.031  12.833  1.00  0.00     0.018 C 
ATOM      2  C   UNL     1      64.238  43.870  11.884  1.00  0.00     0.009 C 
ATOM      3  C   UNL     1      62.997  42.999  11.979  1.00  0.00     0.008 C 
ATOM      4  C   UNL     1      62.585  43.056  13.457  1.00  0.00    -0.029 C 
ATOM      5  C   UNL     1      62.961  44.503  13.912  1.00  0.00     0.006 C 
ATOM      6  C   UNL     1      61.718  45.473  14.066  1.00  0.00    -0.000 C 
ATOM      7  C   UNL     1      62.193  46.871  14.532  1.00  0.00     0.005 C 
ATOM      8  C   UNL     1      61.031  47.728  15.012  1.00  0.00     0.005 C 
ATOM      9  C   UNL     1      60.444  47.190  16.352  1.00  0.00     0.002 C 
ATOM     10  C   UNL     1      60.996  47.998  17.648  1.00  0.00    -0.026 C 
ATOM     11  C   UNL     1      60.070  49.268  17.910  1.00  0.00     0.010 C 
ATOM     12  C   UNL     1      59.561  49.426  19.353  1.00  0.00     0.033 C 
ATOM     13  C   UNL     1      60.677  49.186  20.384  1.00  0.00     0.120 C 
ATOM     14  C   UNL     1      61.206  47.708  20.333  1.00  0.00    -0.006 C 
ATOM     15  C   UNL     1      60.969  47.055  18.895  1.00  0.00     0.003 C 
ATOM     16  C   UNL     1      61.818  45.784  18.652  1.00  0.00     0.005 C 
ATOM     17  C   UNL     1      61.520  45.022  17.335  1.00  0.00     0.008 C 
ATOM     18  C   UNL     1      60.390  45.576  16.407  1.00  0.00    -0.024 C 
ATOM     19  C   UNL     1      60.487  44.914  14.920  1.00  0.00    -0.024 C 
ATOM     20  C   UNL     1      60.571  43.341  14.961  1.00  0.00     0.008 C 
ATOM     21  C   UNL     1      61.083  42.752  13.640  1.00  0.00     0.007 C 
ATOM     22  C   UNL     1      59.157  45.225  14.122  1.00  0.00     0.012 C 
ATOM     23  C   UNL     1      59.021  45.099  17.030  1.00  0.00     0.012 C 
ATOM     24  C   UNL     1      62.689  47.650  20.801  1.00  0.00     0.014 C 
ATOM     25  C   UNL     1      60.406  46.893  21.394  1.00  0.00     0.014 C 
ATOM     26  C   UNL     1      62.465  48.530  17.453  1.00  0.00     0.012 C 
ATOM     27  C   UNL     1      63.400  41.985  14.236  1.00  0.00     0.011 C 
ENDROOT
BRANCH   1  28
ATOM     28  C   UNL     1      65.232  45.660  13.408  1.00  0.00    -0.077 C 
ATOM     29  C   UNL     1      66.086  44.946  14.427  1.00  0.00     0.039 C 
ATOM     30  C   UNL     1      65.629  46.871  12.991  1.00  0.00     0.008 C 
ENDBRANCH   1  28
BRANCH  13  31
ATOM     31  O   UNL     1      61.715  50.125  20.192  1.00  0.00    -0.393 OA
ATOM     32  H   UNL     1      62.548  49.694  20.519  1.00  0.00     0.210 HD
ENDBRANCH  13  31
TORSDOF 2
ENDMDL
MODEL 2
REMARK VINA RESULT:    -6.078      3.160      5.980
REMARK INTER + INTRA:          -7.154
REMARK INTER:                  -6.892
REMARK INTRA:                  -0.262
REMARK UNBOUND:                -0.544
REMARK SMILES C=C(C)[C@H]1CC[C@]2(C)CC[C@]3(C)[C@@H](CC[C@@H]4[C@@]5(C)CC[C@H](O)C(C)(C)[C@@H]5CC[C@@]43C)[C@H]12
REMARK SMILES IDX 4 1 5 2 6 3 7 4 31 5 13 6 14 7 15 8 16 9 17 10 19 11 20 12
REMARK SMILES IDX 21 13 23 14 26 15 27 16 28 17 29 18 11 19 10 20 9 21 12 22
REMARK SMILES IDX 30 23 24 24 25 25 18 26 8 27 2 28 3 29 1 30 22 31
REMARK H PARENT 22 32
REMARK Flexibility Score: inf
ROOT
ATOM      1  C   UNL     1      60.959  43.569  13.589  1.00  0.00     0.018 C 
ATOM      2  C   UNL     1      59.672  42.946  14.122  1.00  0.00     0.009 C 
ATOM      3  C   UNL     1      58.875  44.123  14.659  1.00  0.00     0.008 C 
ATOM      4  C   UNL     1      59.919  45.052  15.294  1.00  0.00    -0.029 C 
ATOM      5  C   UNL     1      61.186  44.890  14.394  1.00  0.00     0.006 C 
ATOM      6  C   UNL     1      61.448  46.115  13.424  1.00  0.00    -0.000 C 
ATOM      7  C   UNL     1      62.728  45.864  12.590  1.00  0.00     0.005 C 
ATOM      8  C   UNL     1      63.205  47.133  11.898  1.00  0.00     0.005 C 
ATOM      9  C   UNL     1      63.759  48.166  12.925  1.00  0.00     0.002 C 
ATOM     10  C   UNL     1      65.380  48.142  13.027  1.00  0.00    -0.026 C 
ATOM     11  C   UNL     1      65.990  49.117  11.924  1.00  0.00     0.010 C 
ATOM     12  C   UNL     1      67.032  50.125  12.438  1.00  0.00     0.033 C 
ATOM     13  C   UNL     1      68.048  49.465  13.386  1.00  0.00     0.120 C 
ATOM     14  C   UNL     1      67.361  48.935  14.695  1.00  0.00    -0.006 C 
ATOM     15  C   UNL     1      65.815  48.616  14.452  1.00  0.00     0.003 C 
ATOM     16  C   UNL     1      65.195  47.719  15.551  1.00  0.00     0.005 C 
ATOM     17  C   UNL     1      63.664  47.500  15.450  1.00  0.00     0.008 C 
ATOM     18  C   UNL     1      62.896  48.215  14.290  1.00  0.00    -0.024 C 
ATOM     19  C   UNL     1      61.412  47.567  14.094  1.00  0.00    -0.024 C 
ATOM     20  C   UNL     1      60.604  47.482  15.444  1.00  0.00     0.008 C 
ATOM     21  C   UNL     1      59.420  46.511  15.353  1.00  0.00     0.007 C 
ATOM     22  C   UNL     1      60.548  48.512  13.166  1.00  0.00     0.012 C 
ATOM     23  C   UNL     1      62.683  49.711  14.745  1.00  0.00     0.012 C 
ATOM     24  C   UNL     1      68.158  47.728  15.272  1.00  0.00     0.014 C 
ATOM     25  C   UNL     1      67.480  50.059  15.768  1.00  0.00     0.014 C 
ATOM     26  C   UNL     1      65.985  46.712  12.765  1.00  0.00     0.012 C 
ATOM     27  C   UNL     1      60.188  44.568  16.747  1.00  0.00     0.011 C 
ENDROOT
BRANCH   1  28
ATOM     28  C   UNL     1      62.149  42.609  13.607  1.00  0.00    -0.077 C 
ATOM     29  C   UNL     1      62.349  41.604  14.715  1.00  0.00     0.039 C 
ATOM     30  C   UNL     1      63.042  42.629  12.606  1.00  0.00     0.008 C 
ENDBRANCH   1  28
BRANCH  13  31
ATOM     31  O   UNL     1      68.744  48.442  12.704  1.00  0.00    -0.393 OA
ATOM     32  H   UNL     1      68.056  47.801  12.382  1.00  0.00     0.210 HD
ENDBRANCH  13  31
TORSDOF 2
ENDMDL
MODEL 3
REMARK VINA RESULT:    -6.035      2.456      7.400
REMARK INTER + INTRA:          -7.108
REMARK INTER:                  -6.659
REMARK INTRA:                  -0.448
REMARK UNBOUND:                -0.544
REMARK SMILES C=C(C)[C@H]1CC[C@]2(C)CC[C@]3(C)[C@@H](CC[C@@H]4[C@@]5(C)CC[C@H](O)C(C)(C)[C@@H]5CC[C@@]43C)[C@H]12
REMARK SMILES IDX 4 1 5 2 6 3 7 4 31 5 13 6 14 7 15 8 16 9 17 10 19 11 20 12
REMARK SMILES IDX 21 13 23 14 26 15 27 16 28 17 29 18 11 19 10 20 9 21 12 22
REMARK SMILES IDX 30 23 24 24 25 25 18 26 8 27 2 28 3 29 1 30 22 31
REMARK H PARENT 22 32
REMARK Flexibility Score: inf
ROOT
ATOM      1  C   UNL     1      60.860  46.536  20.612  1.00  0.00     0.018 C 
ATOM      2  C   UNL     1      60.567  47.257  21.924  1.00  0.00     0.009 C 
ATOM      3  C   UNL     1      60.409  48.715  21.528  1.00  0.00     0.008 C 
ATOM      4  C   UNL     1      61.457  48.943  20.429  1.00  0.00    -0.029 C 
ATOM      5  C   UNL     1      61.516  47.586  19.657  1.00  0.00     0.006 C 
ATOM      6  C   UNL     1      60.792  47.613  18.248  1.00  0.00    -0.000 C 
ATOM      7  C   UNL     1      60.919  46.231  17.562  1.00  0.00     0.005 C 
ATOM      8  C   UNL     1      60.541  46.298  16.090  1.00  0.00     0.005 C 
ATOM      9  C   UNL     1      61.596  47.099  15.268  1.00  0.00     0.002 C 
ATOM     10  C   UNL     1      62.651  46.136  14.495  1.00  0.00    -0.026 C 
ATOM     11  C   UNL     1      62.052  45.732  13.075  1.00  0.00     0.010 C 
ATOM     12  C   UNL     1      62.995  45.942  11.878  1.00  0.00     0.033 C 
ATOM     13  C   UNL     1      64.418  45.438  12.174  1.00  0.00     0.120 C 
ATOM     14  C   UNL     1      65.094  46.255  13.331  1.00  0.00    -0.006 C 
ATOM     15  C   UNL     1      64.002  46.899  14.304  1.00  0.00     0.003 C 
ATOM     16  C   UNL     1      64.585  47.352  15.664  1.00  0.00     0.005 C 
ATOM     17  C   UNL     1      63.606  48.120  16.589  1.00  0.00     0.008 C 
ATOM     18  C   UNL     1      62.158  48.389  16.062  1.00  0.00    -0.024 C 
ATOM     19  C   UNL     1      61.171  48.829  17.282  1.00  0.00    -0.024 C 
ATOM     20  C   UNL     1      61.766  50.000  18.152  1.00  0.00     0.008 C 
ATOM     21  C   UNL     1      61.071  50.125  19.514  1.00  0.00     0.007 C 
ATOM     22  C   UNL     1      59.829  49.415  16.684  1.00  0.00     0.012 C 
ATOM     23  C   UNL     1      62.257  49.626  15.087  1.00  0.00     0.012 C 
ATOM     24  C   UNL     1      66.140  45.374  14.075  1.00  0.00     0.014 C 
ATOM     25  C   UNL     1      65.917  47.403  12.670  1.00  0.00     0.014 C 
ATOM     26  C   UNL     1      62.936  44.797  15.274  1.00  0.00     0.012 C 
ATOM     27  C   UNL     1      62.817  49.272  21.106  1.00  0.00     0.011 C 
ENDROOT
BRANCH   1  28
ATOM     28  C   UNL     1      61.675  45.255  20.793  1.00  0.00    -0.077 C 
ATOM     29  C   UNL     1      62.979  45.027  20.067  1.00  0.00     0.039 C 
ATOM     30  C   UNL     1      61.248  44.301  21.634  1.00  0.00     0.008 C 
ENDBRANCH   1  28
BRANCH  13  31
ATOM     31  O   UNL     1      64.386  44.054  12.454  1.00  0.00    -0.393 OA
ATOM     32  H   UNL     1      64.109  43.966  13.404  1.00  0.00     0.210 HD
ENDBRANCH  13  31
TORSDOF 2
ENDMDL
MODEL 4
REMARK VINA RESULT:    -5.985      2.487      7.378
REMARK INTER + INTRA:          -7.053
REMARK INTER:                  -6.673
REMARK INTRA:                  -0.381
REMARK UNBOUND:                -0.544
REMARK SMILES C=C(C)[C@H]1CC[C@]2(C)CC[C@]3(C)[C@@H](CC[C@@H]4[C@@]5(C)CC[C@H](O)C(C)(C)[C@@H]5CC[C@@]43C)[C@H]12
REMARK SMILES IDX 4 1 5 2 6 3 7 4 31 5 13 6 14 7 15 8 16 9 17 10 19 11 20 12
REMARK SMILES IDX 21 13 23 14 26 15 27 16 28 17 29 18 11 19 10 20 9 21 12 22
REMARK SMILES IDX 30 23 24 24 25 25 18 26 8 27 2 28 3 29 1 30 22 31
REMARK H PARENT 22 32
REMARK Flexibility Score: inf
ROOT
ATOM      1  C   UNL     1      60.745  47.556  20.696  1.00  0.00     0.018 C 
ATOM      2  C   UNL     1      61.000  48.759  21.599  1.00  0.00     0.009 C 
ATOM      3  C   UNL     1      61.223  49.914  20.637  1.00  0.00     0.008 C 
ATOM      4  C   UNL     1      62.010  49.308  19.466  1.00  0.00    -0.029 C 
ATOM      5  C   UNL     1      61.462  47.850  19.339  1.00  0.00     0.006 C 
ATOM      6  C   UNL     1      60.483  47.634  18.113  1.00  0.00    -0.000 C 
ATOM      7  C   UNL     1      60.010  46.161  18.068  1.00  0.00     0.005 C 
ATOM      8  C   UNL     1      59.347  45.824  16.740  1.00  0.00     0.005 C 
ATOM      9  C   UNL     1      60.384  45.803  15.577  1.00  0.00     0.002 C 
ATOM     10  C   UNL     1      60.879  44.302  15.204  1.00  0.00    -0.026 C 
ATOM     11  C   UNL     1      59.876  43.668  14.140  1.00  0.00     0.010 C 
ATOM     12  C   UNL     1      60.539  43.051  12.896  1.00  0.00     0.033 C 
ATOM     13  C   UNL     1      61.759  42.190  13.265  1.00  0.00     0.120 C 
ATOM     14  C   UNL     1      62.903  43.050  13.911  1.00  0.00    -0.006 C 
ATOM     15  C   UNL     1      62.320  44.367  14.602  1.00  0.00     0.003 C 
ATOM     16  C   UNL     1      63.309  45.027  15.593  1.00  0.00     0.005 C 
ATOM     17  C   UNL     1      62.858  46.390  16.180  1.00  0.00     0.008 C 
ATOM     18  C   UNL     1      61.489  46.976  15.703  1.00  0.00    -0.024 C 
ATOM     19  C   UNL     1      60.995  48.171  16.697  1.00  0.00    -0.024 C 
ATOM     20  C   UNL     1      62.110  49.258  16.939  1.00  0.00     0.008 C 
ATOM     21  C   UNL     1      61.818  50.125  18.171  1.00  0.00     0.007 C 
ATOM     22  C   UNL     1      59.806  48.960  16.014  1.00  0.00     0.012 C 
ATOM     23  C   UNL     1      61.747  47.634  14.292  1.00  0.00     0.012 C 
ATOM     24  C   UNL     1      63.759  42.175  14.873  1.00  0.00     0.014 C 
ATOM     25  C   UNL     1      63.871  43.471  12.764  1.00  0.00     0.014 C 
ATOM     26  C   UNL     1      60.897  43.340  16.451  1.00  0.00     0.012 C 
ATOM     27  C   UNL     1      63.521  49.319  19.832  1.00  0.00     0.011 C 
ENDROOT
BRANCH   1  28
ATOM     28  C   UNL     1      61.134  46.223  21.338  1.00  0.00    -0.077 C 
ATOM     29  C   UNL     1      61.974  45.201  20.610  1.00  0.00     0.039 C 
ATOM     30  C   UNL     1      60.748  45.944  22.592  1.00  0.00     0.008 C 
ENDBRANCH   1  28
BRANCH  13  31
ATOM     31  O   UNL     1      61.358  41.128  14.106  1.00  0.00    -0.393 OA
ATOM     32  H   UNL     1      61.297  41.504  15.023  1.00  0.00     0.210 HD
ENDBRANCH  13  31
TORSDOF 2
ENDMDL
MODEL 5
REMARK VINA RESULT:    -4.228      1.981      3.521
REMARK INTER + INTRA:          -5.143
REMARK INTER:                  -4.598
REMARK INTRA:                  -0.545
REMARK UNBOUND:                -0.544
REMARK SMILES C=C(C)[C@H]1CC[C@]2(C)CC[C@]3(C)[C@@H](CC[C@@H]4[C@@]5(C)CC[C@H](O)C(C)(C)[C@@H]5CC[C@@]43C)[C@H]12
REMARK SMILES IDX 4 1 5 2 6 3 7 4 31 5 13 6 14 7 15 8 16 9 17 10 19 11 20 12
REMARK SMILES IDX 21 13 23 14 26 15 27 16 28 17 29 18 11 19 10 20 9 21 12 22
REMARK SMILES IDX 30 23 24 24 25 25 18 26 8 27 2 28 3 29 1 30 22 31
REMARK H PARENT 22 32
REMARK Flexibility Score: inf
ROOT
ATOM      1  C   UNL     1      62.024  42.990  15.047  1.00  0.00     0.018 C 
ATOM      2  C   UNL     1      61.498  42.241  13.826  1.00  0.00     0.009 C 
ATOM      3  C   UNL     1      60.975  43.334  12.909  1.00  0.00     0.008 C 
ATOM      4  C   UNL     1      60.336  44.368  13.847  1.00  0.00    -0.029 C 
ATOM      5  C   UNL     1      61.226  44.331  15.131  1.00  0.00     0.006 C 
ATOM      6  C   UNL     1      62.200  45.572  15.276  1.00  0.00    -0.000 C 
ATOM      7  C   UNL     1      63.023  45.448  16.582  1.00  0.00     0.005 C 
ATOM      8  C   UNL     1      63.718  46.755  16.933  1.00  0.00     0.005 C 
ATOM      9  C   UNL     1      62.693  47.845  17.370  1.00  0.00     0.002 C 
ATOM     10  C   UNL     1      62.578  47.987  18.984  1.00  0.00    -0.026 C 
ATOM     11  C   UNL     1      63.682  49.013  19.501  1.00  0.00     0.010 C 
ATOM     12  C   UNL     1      63.166  50.125  20.430  1.00  0.00     0.033 C 
ATOM     13  C   UNL     1      62.205  49.577  21.500  1.00  0.00     0.120 C 
ATOM     14  C   UNL     1      60.899  48.987  20.859  1.00  0.00    -0.006 C 
ATOM     15  C   UNL     1      61.152  48.510  19.356  1.00  0.00     0.003 C 
ATOM     16  C   UNL     1      60.053  47.561  18.821  1.00  0.00     0.005 C 
ATOM     17  C   UNL     1      60.165  47.186  17.321  1.00  0.00     0.008 C 
ATOM     18  C   UNL     1      61.335  47.812  16.494  1.00  0.00    -0.024 C 
ATOM     19  C   UNL     1      61.540  47.015  15.086  1.00  0.00    -0.024 C 
ATOM     20  C   UNL     1      60.196  46.856  14.279  1.00  0.00     0.008 C 
ATOM     21  C   UNL     1      60.291  45.768  13.201  1.00  0.00     0.007 C 
ATOM     22  C   UNL     1      62.481  47.863  14.138  1.00  0.00     0.012 C 
ATOM     23  C   UNL     1      60.891  49.281  16.125  1.00  0.00     0.012 C 
ATOM     24  C   UNL     1      60.308  47.871  21.769  1.00  0.00     0.014 C 
ATOM     25  C   UNL     1      59.831  50.123  20.853  1.00  0.00     0.014 C 
ATOM     26  C   UNL     1      62.826  46.625  19.734  1.00  0.00     0.012 C 
ATOM     27  C   UNL     1      58.879  43.922  14.151  1.00  0.00     0.011 C 
ENDROOT
BRANCH   1  28
ATOM     28  C   UNL     1      61.991  42.157  16.329  1.00  0.00    -0.077 C 
ATOM     29  C   UNL     1      61.010  42.440  17.442  1.00  0.00     0.039 C 
ATOM     30  C   UNL     1      62.834  41.125  16.481  1.00  0.00     0.008 C 
ENDBRANCH   1  28
BRANCH  13  31
ATOM     31  O   UNL     1      62.875  48.627  22.302  1.00  0.00    -0.393 OA
ATOM     32  H   UNL     1      63.539  49.133  22.842  1.00  0.00     0.210 HD
ENDBRANCH  13  31
TORSDOF 2
ENDMDL
MODEL 6
REMARK VINA RESULT:    -4.100      2.773      5.809
REMARK INTER + INTRA:          -5.003
REMARK INTER:                  -4.580
REMARK INTRA:                  -0.423
REMARK UNBOUND:                -0.544
REMARK SMILES C=C(C)[C@H]1CC[C@]2(C)CC[C@]3(C)[C@@H](CC[C@@H]4[C@@]5(C)CC[C@H](O)C(C)(C)[C@@H]5CC[C@@]43C)[C@H]12
REMARK SMILES IDX 4 1 5 2 6 3 7 4 31 5 13 6 14 7 15 8 16 9 17 10 19 11 20 12
REMARK SMILES IDX 21 13 23 14 26 15 27 16 28 17 29 18 11 19 10 20 9 21 12 22
REMARK SMILES IDX 30 23 24 24 25 25 18 26 8 27 2 28 3 29 1 30 22 31
REMARK H PARENT 22 32
REMARK Flexibility Score: inf
ROOT
ATOM      1  C   UNL     1      67.640  48.315  15.219  1.00  0.00     0.018 C 
ATOM      2  C   UNL     1      68.630  49.208  14.478  1.00  0.00     0.009 C 
ATOM      3  C   UNL     1      67.757  50.125  13.637  1.00  0.00     0.008 C 
ATOM      4  C   UNL     1      66.598  49.240  13.159  1.00  0.00    -0.029 C 
ATOM      5  C   UNL     1      66.347  48.251  14.343  1.00  0.00     0.006 C 
ATOM      6  C   UNL     1      65.055  48.582  15.198  1.00  0.00    -0.000 C 
ATOM      7  C   UNL     1      64.890  47.540  16.330  1.00  0.00     0.005 C 
ATOM      8  C   UNL     1      63.508  47.612  16.963  1.00  0.00     0.005 C 
ATOM      9  C   UNL     1      62.406  47.111  15.980  1.00  0.00     0.002 C 
ATOM     10  C   UNL     1      61.968  45.573  16.262  1.00  0.00    -0.026 C 
ATOM     11  C   UNL     1      60.810  45.548  17.357  1.00  0.00     0.010 C 
ATOM     12  C   UNL     1      59.570  44.718  16.986  1.00  0.00     0.033 C 
ATOM     13  C   UNL     1      59.952  43.355  16.383  1.00  0.00     0.120 C 
ATOM     14  C   UNL     1      60.716  43.516  15.021  1.00  0.00    -0.006 C 
ATOM     15  C   UNL     1      61.455  44.930  14.932  1.00  0.00     0.003 C 
ATOM     16  C   UNL     1      62.541  44.985  13.831  1.00  0.00     0.005 C 
ATOM     17  C   UNL     1      63.186  46.375  13.597  1.00  0.00     0.008 C 
ATOM     18  C   UNL     1      62.670  47.577  14.455  1.00  0.00    -0.024 C 
ATOM     19  C   UNL     1      63.708  48.832  14.375  1.00  0.00    -0.024 C 
ATOM     20  C   UNL     1      64.082  49.215  12.893  1.00  0.00     0.008 C 
ATOM     21  C   UNL     1      65.348  50.079  12.818  1.00  0.00     0.007 C 
ATOM     22  C   UNL     1      63.010  50.125  14.960  1.00  0.00     0.012 C 
ATOM     23  C   UNL     1      61.321  48.057  13.793  1.00  0.00     0.012 C 
ATOM     24  C   UNL     1      61.668  42.307  14.789  1.00  0.00     0.014 C 
ATOM     25  C   UNL     1      59.655  43.432  13.882  1.00  0.00     0.014 C 
ATOM     26  C   UNL     1      63.150  44.696  16.821  1.00  0.00     0.012 C 
ATOM     27  C   UNL     1      67.049  48.490  11.875  1.00  0.00     0.011 C 
ENDROOT
BRANCH   1  28
ATOM     28  C   UNL     1      68.216  46.948  15.591  1.00  0.00    -0.077 C 
ATOM     29  C   UNL     1      67.517  45.660  15.228  1.00  0.00     0.039 C 
ATOM     30  C   UNL     1      69.388  46.868  16.239  1.00  0.00     0.008 C 
ENDBRANCH   1  28
BRANCH  13  31
ATOM     31  O   UNL     1      60.700  42.610  17.322  1.00  0.00    -0.393 OA
ATOM     32  H   UNL     1      61.485  42.249  16.833  1.00  0.00     0.210 HD
ENDBRANCH  13  31
TORSDOF 2
ENDMDL
MODEL 7
REMARK VINA RESULT:    -3.667      2.748      4.542
REMARK INTER + INTRA:          -4.533
REMARK INTER:                  -3.986
REMARK INTRA:                  -0.547
REMARK UNBOUND:                -0.544
REMARK SMILES C=C(C)[C@H]1CC[C@]2(C)CC[C@]3(C)[C@@H](CC[C@@H]4[C@@]5(C)CC[C@H](O)C(C)(C)[C@@H]5CC[C@@]43C)[C@H]12
REMARK SMILES IDX 4 1 5 2 6 3 7 4 31 5 13 6 14 7 15 8 16 9 17 10 19 11 20 12
REMARK SMILES IDX 21 13 23 14 26 15 27 16 28 17 29 18 11 19 10 20 9 21 12 22
REMARK SMILES IDX 30 23 24 24 25 25 18 26 8 27 2 28 3 29 1 30 22 31
REMARK H PARENT 22 32
REMARK Flexibility Score: inf
ROOT
ATOM      1  C   UNL     1      67.338  49.635  14.263  1.00  0.00     0.018 C 
ATOM      2  C   UNL     1      68.072  49.727  12.929  1.00  0.00     0.009 C 
ATOM      3  C   UNL     1      66.980  49.575  11.884  1.00  0.00     0.008 C 
ATOM      4  C   UNL     1      66.014  48.534  12.469  1.00  0.00    -0.029 C 
ATOM      5  C   UNL     1      66.046  48.793  14.009  1.00  0.00     0.006 C 
ATOM      6  C   UNL     1      64.760  49.533  14.565  1.00  0.00    -0.000 C 
ATOM      7  C   UNL     1      64.882  49.728  16.095  1.00  0.00     0.005 C 
ATOM      8  C   UNL     1      63.552  50.124  16.720  1.00  0.00     0.005 C 
ATOM      9  C   UNL     1      62.535  48.943  16.686  1.00  0.00     0.002 C 
ATOM     10  C   UNL     1      62.454  48.145  18.097  1.00  0.00    -0.026 C 
ATOM     11  C   UNL     1      61.388  48.857  19.044  1.00  0.00     0.010 C 
ATOM     12  C   UNL     1      60.338  47.925  19.672  1.00  0.00     0.033 C 
ATOM     13  C   UNL     1      60.973  46.637  20.226  1.00  0.00     0.120 C 
ATOM     14  C   UNL     1      61.611  45.768  19.085  1.00  0.00    -0.006 C 
ATOM     15  C   UNL     1      62.022  46.666  17.830  1.00  0.00     0.003 C 
ATOM     16  C   UNL     1      63.011  45.961  16.871  1.00  0.00     0.005 C 
ATOM     17  C   UNL     1      63.329  46.724  15.559  1.00  0.00     0.008 C 
ATOM     18  C   UNL     1      62.612  48.092  15.314  1.00  0.00    -0.024 C 
ATOM     19  C   UNL     1      63.348  48.925  14.122  1.00  0.00    -0.024 C 
ATOM     20  C   UNL     1      63.553  48.066  12.818  1.00  0.00     0.008 C 
ATOM     21  C   UNL     1      64.597  48.679  11.875  1.00  0.00     0.007 C 
ATOM     22  C   UNL     1      62.420  50.124  13.672  1.00  0.00     0.012 C 
ATOM     23  C   UNL     1      61.158  47.754  14.803  1.00  0.00     0.012 C 
ATOM     24  C   UNL     1      62.788  44.919  19.649  1.00  0.00     0.014 C 
ATOM     25  C   UNL     1      60.535  44.734  18.633  1.00  0.00     0.014 C 
ATOM     26  C   UNL     1      63.825  48.136  18.871  1.00  0.00     0.012 C 
ATOM     27  C   UNL     1      66.549  47.117  12.119  1.00  0.00     0.011 C 
ENDROOT
BRANCH   1  28
ATOM     28  C   UNL     1      68.215  49.113  15.403  1.00  0.00    -0.077 C 
ATOM     29  C   UNL     1      68.530  47.645  15.561  1.00  0.00     0.039 C 
ATOM     30  C   UNL     1      68.748  49.971  16.286  1.00  0.00     0.008 C 
ENDBRANCH   1  28
BRANCH  13  31
ATOM     31  O   UNL     1      61.912  46.962  21.231  1.00  0.00    -0.393 OA
ATOM     32  H   UNL     1      62.338  46.107  21.503  1.00  0.00     0.210 HD
ENDBRANCH  13  31
TORSDOF 2
ENDMDL
