MODEL 1
REMARK VINA RESULT:    -3.635      0.000      0.000
REMARK INTER + INTRA:          -6.004
REMARK INTER:                  -6.929
REMARK INTRA:                   0.925
REMARK UNBOUND:                 0.925
REMARK SMILES C[C@@H]1O[C@H](O[C@H]2[C@H](O)[C@H](OCCc3ccc(O)c(O)c3)O[C@H](CO)[C@@H]2OC(=O)C=Cc2ccc(O)c(O)c2)[C@H](O)[C@H](O)[C@H]1O
REMARK SMILES IDX 6 1 7 2 9 3 21 4 22 5 25 6 5 7 4 8 1 9 2 10 43 11 3 12 41 13
REMARK SMILES IDX 39 14 44 15 42 17 40 19 8 21 26 23 27 24 28 25 29 26 30 27
REMARK SMILES IDX 31 28 38 29 32 30 36 31 33 32 34 33 37 34 35 36 10 38 11 39
REMARK SMILES IDX 12 40 13 41 20 42 14 43 18 44 15 45 16 46 19 47 17 49 23 51
REMARK SMILES IDX 24 52
REMARK H PARENT 44 16 42 18 40 20 8 22 37 35 35 37 19 48 17 50 24 53
REMARK Flexibility Score: inf
ROOT
ATOM      1  C   UNL     1      16.159  -8.018   6.233  1.00  0.00     0.199 C 
ATOM      2  C   UNL     1      17.261  -9.008   6.639  1.00  0.00     0.203 C 
ATOM      3  C   UNL     1      17.162  -9.310   8.159  1.00  0.00     0.282 C 
ATOM      4  O   UNL     1      15.844  -9.728   8.545  1.00  0.00    -0.340 OA
ATOM      5  C   UNL     1      14.901  -8.709   8.285  1.00  0.00     0.190 C 
ATOM      6  C   UNL     1      14.811  -8.476   6.757  1.00  0.00     0.240 C 
ENDROOT
BRANCH   1   7
ATOM      7  O   UNL     1      16.426  -6.761   6.868  1.00  0.00    -0.340 OA
BRANCH   7   8
ATOM      8  C   UNL     1      15.262  -6.134   7.432  1.00  0.00     0.282 C 
ATOM      9  C   UNL     1      17.826  -5.681   9.150  1.00  0.00     0.041 C 
ATOM     10  C   UNL     1      16.382  -5.152   9.322  1.00  0.00     0.150 C 
ATOM     11  C   UNL     1      16.203  -3.719   8.748  1.00  0.00     0.174 C 
ATOM     12  O   UNL     1      15.375  -6.066   8.857  1.00  0.00    -0.344 OA
ATOM     13  C   UNL     1      14.939  -3.654   7.879  1.00  0.00     0.179 C 
ATOM     14  C   UNL     1      15.026  -4.737   6.779  1.00  0.00     0.202 C 
BRANCH  11  15
ATOM     15  O   UNL     1      16.098  -2.782   9.779  1.00  0.00    -0.388 OA
ATOM     16  H   UNL     1      16.129  -1.892   9.368  1.00  0.00     0.211 HD
ENDBRANCH  11  15
BRANCH  13  17
ATOM     17  O   UNL     1      14.780  -2.381   7.326  1.00  0.00    -0.387 OA
ATOM     18  H   UNL     1      15.263  -2.347   6.441  1.00  0.00     0.211 HD
ENDBRANCH  13  17
BRANCH  14  19
ATOM     19  O   UNL     1      16.062  -4.445   5.875  1.00  0.00    -0.385 OA
ATOM     20  H   UNL     1      16.099  -3.459   5.753  1.00  0.00     0.211 HD
ENDBRANCH  14  19
ENDBRANCH   7   8
ENDBRANCH   1   7
BRANCH   2  21
ATOM     21  O   UNL     1      17.135 -10.187   5.877  1.00  0.00    -0.385 OA
ATOM     22  H   UNL     1      16.498 -10.771   6.347  1.00  0.00     0.211 HD
ENDBRANCH   2  21
BRANCH   6  23
ATOM     23  O   UNL     1      14.439  -9.737   6.163  1.00  0.00    -0.453 OA
BRANCH  23  24
ATOM     24  C   UNL     1      13.117 -10.179   6.021  1.00  0.00     0.331 C 
ATOM     25  O   UNL     1      12.162  -9.356   5.879  1.00  0.00    -0.247 OA
BRANCH  24  26
ATOM     26  C   UNL     1      12.809 -11.619   6.038  1.00  0.00     0.094 C 
ATOM     27  C   UNL     1      13.301 -12.428   6.975  1.00  0.00     0.016 C 
BRANCH  27  28
ATOM     28  C   UNL     1      13.142 -13.899   6.960  1.00  0.00    -0.021 A 
ATOM     29  C   UNL     1      14.307 -14.681   7.012  1.00  0.00     0.058 A 
ATOM     30  C   UNL     1      11.913 -14.553   6.702  1.00  0.00     0.012 A 
ATOM     31  C   UNL     1      14.265 -16.067   6.778  1.00  0.00     0.157 A 
ATOM     32  C   UNL     1      11.876 -15.923   6.462  1.00  0.00     0.051 A 
ATOM     33  C   UNL     1      13.047 -16.700   6.488  1.00  0.00     0.157 A 
BRANCH  31  34
ATOM     34  O   UNL     1      15.449 -16.800   6.843  1.00  0.00    -0.504 OA
ATOM     35  H   UNL     1      16.021 -17.025   6.028  1.00  0.00     0.293 HD
ENDBRANCH  31  34
BRANCH  33  36
ATOM     36  O   UNL     1      13.008 -18.063   6.212  1.00  0.00    -0.504 OA
ATOM     37  H   UNL     1      13.801 -18.525   5.767  1.00  0.00     0.293 HD
ENDBRANCH  33  36
ENDBRANCH  27  28
ENDBRANCH  24  26
ENDBRANCH  23  24
ENDBRANCH   6  23
BRANCH   3  38
ATOM     38  O   UNL     1      18.161 -10.235   8.555  1.00  0.00    -0.350 OA
BRANCH  38  39
ATOM     39  C   UNL     1      17.935 -11.549   8.070  1.00  0.00     0.168 C 
BRANCH  39  40
ATOM     40  C   UNL     1      18.881 -11.862   6.895  1.00  0.00     0.064 C 
BRANCH  40  41
ATOM     41  C   UNL     1      19.320 -13.321   6.846  1.00  0.00    -0.042 A 
ATOM     42  C   UNL     1      18.443 -14.355   6.446  1.00  0.00     0.054 A 
ATOM     43  C   UNL     1      20.669 -13.632   7.120  1.00  0.00     0.008 A 
ATOM     44  C   UNL     1      18.883 -15.686   6.415  1.00  0.00     0.157 A 
ATOM     45  C   UNL     1      21.106 -14.970   7.094  1.00  0.00     0.050 A 
ATOM     46  C   UNL     1      20.220 -15.998   6.754  1.00  0.00     0.157 A 
BRANCH  44  47
ATOM     47  O   UNL     1      17.988 -16.709   6.090  1.00  0.00    -0.504 OA
ATOM     48  H   UNL     1      18.205 -17.420   5.417  1.00  0.00     0.293 HD
ENDBRANCH  44  47
BRANCH  46  49
ATOM     49  O   UNL     1      20.653 -17.317   6.769  1.00  0.00    -0.504 OA
ATOM     50  H   UNL     1      20.951 -17.770   5.925  1.00  0.00     0.293 HD
ENDBRANCH  46  49
ENDBRANCH  40  41
ENDBRANCH  39  40
ENDBRANCH  38  39
ENDBRANCH   3  38
BRANCH   5  51
ATOM     51  C   UNL     1      13.521  -9.126   8.865  1.00  0.00     0.192 C 
BRANCH  51  52
ATOM     52  O   UNL     1      12.561  -8.148   8.602  1.00  0.00    -0.394 OA
ATOM     53  H   UNL     1      12.982  -7.259   8.737  1.00  0.00     0.210 HD
ENDBRANCH  51  52
ENDBRANCH   5  51
TORSDOF 20
ENDMDL
MODEL 2
REMARK VINA RESULT:    -2.676      2.351      5.063
REMARK INTER + INTRA:          -4.176
REMARK INTER:                  -3.717
REMARK INTRA:                  -0.459
REMARK UNBOUND:                 0.925
REMARK SMILES C[C@@H]1O[C@H](O[C@H]2[C@H](O)[C@H](OCCc3ccc(O)c(O)c3)O[C@H](CO)[C@@H]2OC(=O)C=Cc2ccc(O)c(O)c2)[C@H](O)[C@H](O)[C@H]1O
REMARK SMILES IDX 6 1 7 2 9 3 21 4 22 5 25 6 5 7 4 8 1 9 2 10 43 11 3 12 41 13
REMARK SMILES IDX 39 14 44 15 42 17 40 19 8 21 26 23 27 24 28 25 29 26 30 27
REMARK SMILES IDX 31 28 38 29 32 30 36 31 33 32 34 33 37 34 35 36 10 38 11 39
REMARK SMILES IDX 12 40 13 41 20 42 14 43 18 44 15 45 16 46 19 47 17 49 23 51
REMARK SMILES IDX 24 52
REMARK H PARENT 44 16 42 18 40 20 8 22 37 35 35 37 19 48 17 50 24 53
REMARK Flexibility Score: inf
ROOT
ATOM      1  C   UNL     1      15.201  -7.827   6.389  1.00  0.00     0.199 C 
ATOM      2  C   UNL     1      16.599  -8.025   6.993  1.00  0.00     0.203 C 
ATOM      3  C   UNL     1      16.474  -8.424   8.489  1.00  0.00     0.282 C 
ATOM      4  O   UNL     1      15.602  -9.548   8.680  1.00  0.00    -0.340 OA
ATOM      5  C   UNL     1      14.294  -9.245   8.243  1.00  0.00     0.190 C 
ATOM      6  C   UNL     1      14.308  -9.011   6.713  1.00  0.00     0.240 C 
ENDROOT
BRANCH   1   7
ATOM      7  O   UNL     1      14.595  -6.690   7.016  1.00  0.00    -0.340 OA
BRANCH   7   8
ATOM      8  C   UNL     1      15.293  -5.455   6.786  1.00  0.00     0.282 C 
ATOM      9  C   UNL     1      12.200  -5.159   6.507  1.00  0.00     0.041 C 
ATOM     10  C   UNL     1      13.334  -4.109   6.415  1.00  0.00     0.150 C 
ATOM     11  C   UNL     1      13.544  -3.344   7.752  1.00  0.00     0.174 C 
ATOM     12  O   UNL     1      14.559  -4.631   5.875  1.00  0.00    -0.344 OA
ATOM     13  C   UNL     1      15.037  -3.297   8.102  1.00  0.00     0.179 C 
ATOM     14  C   UNL     1      15.593  -4.739   8.139  1.00  0.00     0.202 C 
BRANCH  11  15
ATOM     15  O   UNL     1      13.053  -2.040   7.658  1.00  0.00    -0.388 OA
ATOM     16  H   UNL     1      13.581  -1.579   6.971  1.00  0.00     0.211 HD
ENDBRANCH  11  15
BRANCH  13  17
ATOM     17  O   UNL     1      15.243  -2.643   9.319  1.00  0.00    -0.387 OA
ATOM     18  H   UNL     1      16.215  -2.382   9.389  1.00  0.00     0.211 HD
ENDBRANCH  13  17
BRANCH  14  19
ATOM     19  O   UNL     1      15.029  -5.462   9.204  1.00  0.00    -0.385 OA
ATOM     20  H   UNL     1      14.763  -4.816   9.911  1.00  0.00     0.211 HD
ENDBRANCH  14  19
ENDBRANCH   7   8
ENDBRANCH   1   7
BRANCH   2  21
ATOM     21  O   UNL     1      17.291  -9.010   6.260  1.00  0.00    -0.385 OA
ATOM     22  H   UNL     1      17.833  -8.543   5.585  1.00  0.00     0.211 HD
ENDBRANCH   2  21
BRANCH   6  23
ATOM     23  O   UNL     1      14.826 -10.215   6.110  1.00  0.00    -0.453 OA
BRANCH  23  24
ATOM     24  C   UNL     1      14.096 -11.404   5.978  1.00  0.00     0.331 C 
ATOM     25  O   UNL     1      12.831 -11.390   5.887  1.00  0.00    -0.247 OA
BRANCH  24  26
ATOM     26  C   UNL     1      14.790 -12.702   5.949  1.00  0.00     0.094 C 
ATOM     27  C   UNL     1      14.728 -13.552   6.974  1.00  0.00     0.016 C 
BRANCH  27  28
ATOM     28  C   UNL     1      15.518 -14.801   7.057  1.00  0.00    -0.021 A 
ATOM     29  C   UNL     1      16.907 -14.706   6.878  1.00  0.00     0.058 A 
ATOM     30  C   UNL     1      14.941 -16.093   7.112  1.00  0.00     0.012 A 
ATOM     31  C   UNL     1      17.701 -15.855   6.719  1.00  0.00     0.157 A 
ATOM     32  C   UNL     1      15.727 -17.227   6.945  1.00  0.00     0.051 A 
ATOM     33  C   UNL     1      17.114 -17.130   6.738  1.00  0.00     0.157 A 
BRANCH  31  34
ATOM     34  O   UNL     1      19.076 -15.709   6.546  1.00  0.00    -0.504 OA
ATOM     35  H   UNL     1      19.773 -16.225   7.084  1.00  0.00     0.293 HD
ENDBRANCH  31  34
BRANCH  33  36
ATOM     36  O   UNL     1      17.891 -18.267   6.537  1.00  0.00    -0.504 OA
ATOM     37  H   UNL     1      17.560 -19.021   5.935  1.00  0.00     0.293 HD
ENDBRANCH  33  36
ENDBRANCH  27  28
ENDBRANCH  24  26
ENDBRANCH  23  24
ENDBRANCH   6  23
BRANCH   3  38
ATOM     38  O   UNL     1      17.753  -8.627   9.065  1.00  0.00    -0.350 OA
BRANCH  38  39
ATOM     39  C   UNL     1      18.261  -7.478   9.725  1.00  0.00     0.168 C 
BRANCH  39  40
ATOM     40  C   UNL     1      18.163  -6.241   8.811  1.00  0.00     0.064 C 
BRANCH  40  41
ATOM     41  C   UNL     1      19.454  -5.944   8.057  1.00  0.00    -0.042 A 
ATOM     42  C   UNL     1      20.721  -6.292   8.577  1.00  0.00     0.054 A 
ATOM     43  C   UNL     1      19.370  -5.389   6.763  1.00  0.00     0.008 A 
ATOM     44  C   UNL     1      21.888  -6.000   7.855  1.00  0.00     0.157 A 
ATOM     45  C   UNL     1      20.542  -5.092   6.043  1.00  0.00     0.050 A 
ATOM     46  C   UNL     1      21.799  -5.385   6.584  1.00  0.00     0.157 A 
BRANCH  44  47
ATOM     47  O   UNL     1      23.140  -6.281   8.410  1.00  0.00    -0.504 OA
ATOM     48  H   UNL     1      23.299  -7.075   9.001  1.00  0.00     0.293 HD
ENDBRANCH  44  47
BRANCH  46  49
ATOM     49  O   UNL     1      22.950  -5.052   5.881  1.00  0.00    -0.504 OA
ATOM     50  H   UNL     1      22.948  -5.021   4.879  1.00  0.00     0.293 HD
ENDBRANCH  46  49
ENDBRANCH  40  41
ENDBRANCH  39  40
ENDBRANCH  38  39
ENDBRANCH   3  38
BRANCH   5  51
ATOM     51  C   UNL     1      13.343 -10.417   8.615  1.00  0.00     0.192 C 
BRANCH  51  52
ATOM     52  O   UNL     1      12.012 -10.057   8.401  1.00  0.00    -0.394 OA
ATOM     53  H   UNL     1      11.995  -9.122   8.068  1.00  0.00     0.210 HD
ENDBRANCH  51  52
ENDBRANCH   5  51
TORSDOF 20
ENDMDL
MODEL 3
REMARK VINA RESULT:    -2.166      2.766      7.096
REMARK INTER + INTRA:          -3.203
REMARK INTER:                  -4.782
REMARK INTRA:                   1.579
REMARK UNBOUND:                 0.925
REMARK SMILES C[C@@H]1O[C@H](O[C@H]2[C@H](O)[C@H](OCCc3ccc(O)c(O)c3)O[C@H](CO)[C@@H]2OC(=O)C=Cc2ccc(O)c(O)c2)[C@H](O)[C@H](O)[C@H]1O
REMARK SMILES IDX 6 1 7 2 9 3 21 4 22 5 25 6 5 7 4 8 1 9 2 10 43 11 3 12 41 13
REMARK SMILES IDX 39 14 44 15 42 17 40 19 8 21 26 23 27 24 28 25 29 26 30 27
REMARK SMILES IDX 31 28 38 29 32 30 36 31 33 32 34 33 37 34 35 36 10 38 11 39
REMARK SMILES IDX 12 40 13 41 20 42 14 43 18 44 15 45 16 46 19 47 17 49 23 51
REMARK SMILES IDX 24 52
REMARK H PARENT 44 16 42 18 40 20 8 22 37 35 35 37 19 48 17 50 24 53
REMARK Flexibility Score: inf
ROOT
ATOM      1  C   UNL     1      15.046  -8.922   8.668  1.00  0.00     0.199 C 
ATOM      2  C   UNL     1      13.984  -8.013   8.033  1.00  0.00     0.203 C 
ATOM      3  C   UNL     1      14.061  -8.115   6.484  1.00  0.00     0.282 C 
ATOM      4  O   UNL     1      14.002  -9.473   6.026  1.00  0.00    -0.340 OA
ATOM      5  C   UNL     1      15.095 -10.217   6.525  1.00  0.00     0.190 C 
ATOM      6  C   UNL     1      14.985 -10.314   8.066  1.00  0.00     0.240 C 
ENDROOT
BRANCH   1   7
ATOM      7  O   UNL     1      16.340  -8.403   8.338  1.00  0.00    -0.340 OA
BRANCH   7   8
ATOM      8  C   UNL     1      16.420  -6.969   8.372  1.00  0.00     0.282 C 
ATOM      9  C   UNL     1      18.636  -8.339  10.086  1.00  0.00     0.041 C 
ATOM     10  C   UNL     1      18.371  -6.846   9.774  1.00  0.00     0.150 C 
ATOM     11  C   UNL     1      19.245  -6.321   8.601  1.00  0.00     0.174 C 
ATOM     12  O   UNL     1      16.978  -6.530   9.614  1.00  0.00    -0.344 OA
ATOM     13  C   UNL     1      18.375  -5.537   7.607  1.00  0.00     0.179 C 
ATOM     14  C   UNL     1      17.211  -6.438   7.136  1.00  0.00     0.202 C 
BRANCH  11  15
ATOM     15  O   UNL     1      20.262  -5.489   9.075  1.00  0.00    -0.388 OA
ATOM     16  H   UNL     1      20.106  -5.357  10.034  1.00  0.00     0.211 HD
ENDBRANCH  11  15
BRANCH  13  17
ATOM     17  O   UNL     1      19.138  -5.087   6.527  1.00  0.00    -0.387 OA
ATOM     18  H   UNL     1      18.550  -5.045   5.708  1.00  0.00     0.211 HD
ENDBRANCH  13  17
BRANCH  14  19
ATOM     19  O   UNL     1      17.693  -7.515   6.372  1.00  0.00    -0.385 OA
ATOM     20  H   UNL     1      17.620  -7.271   5.411  1.00  0.00     0.211 HD
ENDBRANCH  14  19
ENDBRANCH   7   8
ENDBRANCH   1   7
BRANCH   2  21
ATOM     21  O   UNL     1      12.707  -8.384   8.503  1.00  0.00    -0.385 OA
ATOM     22  H   UNL     1      12.153  -7.571   8.513  1.00  0.00     0.211 HD
ENDBRANCH   2  21
BRANCH   6  23
ATOM     23  O   UNL     1      13.716 -10.936   8.357  1.00  0.00    -0.453 OA
BRANCH  23  24
ATOM     24  C   UNL     1      13.079 -11.854   7.511  1.00  0.00     0.331 C 
ATOM     25  O   UNL     1      12.129 -11.495   6.750  1.00  0.00    -0.247 OA
BRANCH  24  26
ATOM     26  C   UNL     1      13.501 -13.264   7.493  1.00  0.00     0.094 C 
ATOM     27  C   UNL     1      12.760 -14.209   6.915  1.00  0.00     0.016 C 
BRANCH  27  28
ATOM     28  C   UNL     1      13.064 -15.655   6.992  1.00  0.00    -0.021 A 
ATOM     29  C   UNL     1      14.314 -16.032   7.508  1.00  0.00     0.058 A 
ATOM     30  C   UNL     1      12.257 -16.659   6.403  1.00  0.00     0.012 A 
ATOM     31  C   UNL     1      14.772 -17.357   7.412  1.00  0.00     0.157 A 
ATOM     32  C   UNL     1      12.718 -17.968   6.301  1.00  0.00     0.051 A 
ATOM     33  C   UNL     1      13.981 -18.338   6.793  1.00  0.00     0.157 A 
BRANCH  31  34
ATOM     34  O   UNL     1      16.020 -17.682   7.941  1.00  0.00    -0.504 OA
ATOM     35  H   UNL     1      16.434 -17.213   8.747  1.00  0.00     0.293 HD
ENDBRANCH  31  34
BRANCH  33  36
ATOM     36  O   UNL     1      14.451 -19.640   6.656  1.00  0.00    -0.504 OA
ATOM     37  H   UNL     1      13.814 -20.433   6.740  1.00  0.00     0.293 HD
ENDBRANCH  33  36
ENDBRANCH  27  28
ENDBRANCH  24  26
ENDBRANCH  23  24
ENDBRANCH   6  23
BRANCH   3  38
ATOM     38  O   UNL     1      13.079  -7.295   5.875  1.00  0.00    -0.350 OA
BRANCH  38  39
ATOM     39  C   UNL     1      12.881  -6.061   6.547  1.00  0.00     0.168 C 
BRANCH  39  40
ATOM     40  C   UNL     1      13.893  -5.007   6.055  1.00  0.00     0.064 C 
BRANCH  40  41
ATOM     41  C   UNL     1      13.958  -3.771   6.945  1.00  0.00    -0.042 A 
ATOM     42  C   UNL     1      12.898  -2.838   7.008  1.00  0.00     0.054 A 
ATOM     43  C   UNL     1      15.070  -3.608   7.797  1.00  0.00     0.008 A 
ATOM     44  C   UNL     1      12.994  -1.710   7.838  1.00  0.00     0.157 A 
ATOM     45  C   UNL     1      15.167  -2.472   8.623  1.00  0.00     0.050 A 
ATOM     46  C   UNL     1      14.143  -1.520   8.642  1.00  0.00     0.157 A 
BRANCH  44  47
ATOM     47  O   UNL     1      11.974  -0.756   7.838  1.00  0.00    -0.504 OA
ATOM     48  H   UNL     1      11.821  -0.133   7.067  1.00  0.00     0.293 HD
ENDBRANCH  44  47
BRANCH  46  49
ATOM     49  O   UNL     1      14.267  -0.385   9.433  1.00  0.00    -0.504 OA
ATOM     50  H   UNL     1      14.843   0.383   9.141  1.00  0.00     0.293 HD
ENDBRANCH  46  49
ENDBRANCH  40  41
ENDBRANCH  39  40
ENDBRANCH  38  39
ENDBRANCH   3  38
BRANCH   5  51
ATOM     51  C   UNL     1      15.093 -11.631   5.879  1.00  0.00     0.192 C 
BRANCH  51  52
ATOM     52  O   UNL     1      16.109 -12.419   6.418  1.00  0.00    -0.394 OA
ATOM     53  H   UNL     1      16.850 -11.819   6.698  1.00  0.00     0.210 HD
ENDBRANCH  51  52
ENDBRANCH   5  51
TORSDOF 20
ENDMDL
MODEL 4
REMARK VINA RESULT:    -1.928      2.537      7.014
REMARK INTER + INTRA:          -2.750
REMARK INTER:                  -5.095
REMARK INTRA:                   2.345
REMARK UNBOUND:                 0.925
REMARK SMILES C[C@@H]1O[C@H](O[C@H]2[C@H](O)[C@H](OCCc3ccc(O)c(O)c3)O[C@H](CO)[C@@H]2OC(=O)C=Cc2ccc(O)c(O)c2)[C@H](O)[C@H](O)[C@H]1O
REMARK SMILES IDX 6 1 7 2 9 3 21 4 22 5 25 6 5 7 4 8 1 9 2 10 43 11 3 12 41 13
REMARK SMILES IDX 39 14 44 15 42 17 40 19 8 21 26 23 27 24 28 25 29 26 30 27
REMARK SMILES IDX 31 28 38 29 32 30 36 31 33 32 34 33 37 34 35 36 10 38 11 39
REMARK SMILES IDX 12 40 13 41 20 42 14 43 18 44 15 45 16 46 19 47 17 49 23 51
REMARK SMILES IDX 24 52
REMARK H PARENT 44 16 42 18 40 20 8 22 37 35 35 37 19 48 17 50 24 53
REMARK Flexibility Score: inf
ROOT
ATOM      1  C   UNL     1      15.798  -9.653   8.455  1.00  0.00     0.199 C 
ATOM      2  C   UNL     1      14.381  -9.301   7.981  1.00  0.00     0.203 C 
ATOM      3  C   UNL     1      14.255  -9.565   6.455  1.00  0.00     0.282 C 
ATOM      4  O   UNL     1      14.665 -10.894   6.099  1.00  0.00    -0.340 OA
ATOM      5  C   UNL     1      16.024 -11.100   6.424  1.00  0.00     0.190 C 
ATOM      6  C   UNL     1      16.198 -11.031   7.960  1.00  0.00     0.240 C 
ENDROOT
BRANCH   1   7
ATOM      7  O   UNL     1      16.717  -8.732   7.852  1.00  0.00    -0.340 OA
BRANCH   7   8
ATOM      8  C   UNL     1      16.536  -7.370   8.270  1.00  0.00     0.282 C 
ATOM      9  C   UNL     1      18.731  -8.853   9.917  1.00  0.00     0.041 C 
ATOM     10  C   UNL     1      18.246  -7.384   9.962  1.00  0.00     0.150 C 
ATOM     11  C   UNL     1      19.151  -6.434   9.129  1.00  0.00     0.174 C 
ATOM     12  O   UNL     1      16.850  -7.229   9.659  1.00  0.00    -0.344 OA
ATOM     13  C   UNL     1      18.287  -5.528   8.242  1.00  0.00     0.179 C 
ATOM     14  C   UNL     1      17.367  -6.408   7.365  1.00  0.00     0.202 C 
BRANCH  11  15
ATOM     15  O   UNL     1      19.938  -5.640   9.966  1.00  0.00    -0.388 OA
ATOM     16  H   UNL     1      20.427  -6.244  10.565  1.00  0.00     0.211 HD
ENDBRANCH  11  15
BRANCH  13  17
ATOM     17  O   UNL     1      19.085  -4.690   7.459  1.00  0.00    -0.387 OA
ATOM     18  H   UNL     1      18.980  -4.952   6.490  1.00  0.00     0.211 HD
ENDBRANCH  13  17
BRANCH  14  19
ATOM     19  O   UNL     1      18.123  -7.149   6.440  1.00  0.00    -0.385 OA
ATOM     20  H   UNL     1      18.022  -8.114   6.658  1.00  0.00     0.211 HD
ENDBRANCH  14  19
ENDBRANCH   7   8
ENDBRANCH   1   7
BRANCH   2  21
ATOM     21  O   UNL     1      13.441 -10.060   8.707  1.00  0.00    -0.385 OA
ATOM     22  H   UNL     1      12.631  -9.509   8.801  1.00  0.00     0.211 HD
ENDBRANCH   2  21
BRANCH   6  23
ATOM     23  O   UNL     1      15.337 -12.041   8.525  1.00  0.00    -0.453 OA
BRANCH  23  24
ATOM     24  C   UNL     1      14.647 -12.998   7.768  1.00  0.00     0.331 C 
ATOM     25  O   UNL     1      13.413 -12.862   7.508  1.00  0.00    -0.247 OA
BRANCH  24  26
ATOM     26  C   UNL     1      15.347 -14.190   7.261  1.00  0.00     0.094 C 
ATOM     27  C   UNL     1      15.459 -15.298   7.992  1.00  0.00     0.016 C 
BRANCH  27  28
ATOM     28  C   UNL     1      16.271 -16.469   7.591  1.00  0.00    -0.021 A 
ATOM     29  C   UNL     1      16.337 -17.551   8.483  1.00  0.00     0.058 A 
ATOM     30  C   UNL     1      17.129 -16.482   6.465  1.00  0.00     0.012 A 
ATOM     31  C   UNL     1      17.252 -18.600   8.290  1.00  0.00     0.157 A 
ATOM     32  C   UNL     1      18.040 -17.517   6.281  1.00  0.00     0.051 A 
ATOM     33  C   UNL     1      18.124 -18.586   7.190  1.00  0.00     0.157 A 
BRANCH  31  34
ATOM     34  O   UNL     1      17.279 -19.653   9.202  1.00  0.00    -0.504 OA
ATOM     35  H   UNL     1      17.684 -19.584  10.137  1.00  0.00     0.293 HD
ENDBRANCH  31  34
BRANCH  33  36
ATOM     36  O   UNL     1      19.062 -19.599   7.020  1.00  0.00    -0.504 OA
ATOM     37  H   UNL     1      18.775 -20.522   6.693  1.00  0.00     0.293 HD
ENDBRANCH  33  36
ENDBRANCH  27  28
ENDBRANCH  24  26
ENDBRANCH  23  24
ENDBRANCH   6  23
BRANCH   3  38
ATOM     38  O   UNL     1      12.949  -9.262   5.996  1.00  0.00    -0.350 OA
BRANCH  38  39
ATOM     39  C   UNL     1      12.704  -7.869   5.877  1.00  0.00     0.168 C 
BRANCH  39  40
ATOM     40  C   UNL     1      14.003  -7.070   6.102  1.00  0.00     0.064 C 
BRANCH  40  41
ATOM     41  C   UNL     1      13.780  -5.565   6.183  1.00  0.00    -0.042 A 
ATOM     42  C   UNL     1      14.826  -4.639   5.967  1.00  0.00     0.054 A 
ATOM     43  C   UNL     1      12.469  -5.085   6.389  1.00  0.00     0.008 A 
ATOM     44  C   UNL     1      14.583  -3.260   6.051  1.00  0.00     0.157 A 
ATOM     45  C   UNL     1      12.229  -3.701   6.480  1.00  0.00     0.050 A 
ATOM     46  C   UNL     1      13.277  -2.788   6.322  1.00  0.00     0.157 A 
BRANCH  44  47
ATOM     47  O   UNL     1      15.638  -2.356   5.909  1.00  0.00    -0.504 OA
ATOM     48  H   UNL     1      16.244  -2.113   6.671  1.00  0.00     0.293 HD
ENDBRANCH  44  47
BRANCH  46  49
ATOM     49  O   UNL     1      13.035  -1.426   6.452  1.00  0.00    -0.504 OA
ATOM     50  H   UNL     1      12.239  -1.093   6.965  1.00  0.00     0.293 HD
ENDBRANCH  46  49
ENDBRANCH  40  41
ENDBRANCH  39  40
ENDBRANCH  38  39
ENDBRANCH   3  38
BRANCH   5  51
ATOM     51  C   UNL     1      16.480 -12.482   5.876  1.00  0.00     0.192 C 
BRANCH  51  52
ATOM     52  O   UNL     1      17.869 -12.596   5.925  1.00  0.00    -0.394 OA
ATOM     53  H   UNL     1      18.242 -12.189   5.099  1.00  0.00     0.210 HD
ENDBRANCH  51  52
ENDBRANCH   5  51
TORSDOF 20
ENDMDL
MODEL 5
REMARK VINA RESULT:    -1.593      1.665      2.316
REMARK INTER + INTRA:          -2.110
REMARK INTER:                  -4.208
REMARK INTRA:                   2.097
REMARK UNBOUND:                 0.925
REMARK SMILES C[C@@H]1O[C@H](O[C@H]2[C@H](O)[C@H](OCCc3ccc(O)c(O)c3)O[C@H](CO)[C@@H]2OC(=O)C=Cc2ccc(O)c(O)c2)[C@H](O)[C@H](O)[C@H]1O
REMARK SMILES IDX 6 1 7 2 9 3 21 4 22 5 25 6 5 7 4 8 1 9 2 10 43 11 3 12 41 13
REMARK SMILES IDX 39 14 44 15 42 17 40 19 8 21 26 23 27 24 28 25 29 26 30 27
REMARK SMILES IDX 31 28 38 29 32 30 36 31 33 32 34 33 37 34 35 36 10 38 11 39
REMARK SMILES IDX 12 40 13 41 20 42 14 43 18 44 15 45 16 46 19 47 17 49 23 51
REMARK SMILES IDX 24 52
REMARK H PARENT 44 16 42 18 40 20 8 22 37 35 35 37 19 48 17 50 24 53
REMARK Flexibility Score: inf
ROOT
ATOM      1  C   UNL     1      15.510  -6.331   5.968  1.00  0.00     0.199 C 
ATOM      2  C   UNL     1      16.793  -6.979   6.509  1.00  0.00     0.203 C 
ATOM      3  C   UNL     1      16.689  -7.146   8.050  1.00  0.00     0.282 C 
ATOM      4  O   UNL     1      15.490  -7.831   8.442  1.00  0.00    -0.340 OA
ATOM      5  C   UNL     1      14.346  -7.103   8.047  1.00  0.00     0.190 C 
ATOM      6  C   UNL     1      14.284  -7.050   6.501  1.00  0.00     0.240 C 
ENDROOT
BRANCH   1   7
ATOM      7  O   UNL     1      15.434  -4.991   6.471  1.00  0.00    -0.340 OA
BRANCH   7   8
ATOM      8  C   UNL     1      14.479  -4.819   7.531  1.00  0.00     0.282 C 
ATOM      9  C   UNL     1      17.211  -3.439   8.135  1.00  0.00     0.041 C 
ATOM     10  C   UNL     1      15.887  -3.467   8.937  1.00  0.00     0.150 C 
ATOM     11  C   UNL     1      15.015  -2.205   8.685  1.00  0.00     0.174 C 
ATOM     12  O   UNL     1      15.149  -4.691   8.788  1.00  0.00    -0.344 OA
ATOM     13  C   UNL     1      13.562  -2.617   8.406  1.00  0.00     0.179 C 
ATOM     14  C   UNL     1      13.538  -3.613   7.224  1.00  0.00     0.202 C 
BRANCH  11  15
ATOM     15  O   UNL     1      15.045  -1.353   9.791  1.00  0.00    -0.388 OA
ATOM     16  H   UNL     1      15.877  -0.835   9.736  1.00  0.00     0.211 HD
ENDBRANCH  11  15
BRANCH  13  17
ATOM     17  O   UNL     1      12.770  -1.497   8.143  1.00  0.00    -0.387 OA
ATOM     18  H   UNL     1      12.904  -1.222   7.182  1.00  0.00     0.211 HD
ENDBRANCH  13  17
BRANCH  14  19
ATOM     19  O   UNL     1      13.935  -2.981   6.033  1.00  0.00    -0.385 OA
ATOM     20  H   UNL     1      14.027  -2.008   6.214  1.00  0.00     0.211 HD
ENDBRANCH  14  19
ENDBRANCH   7   8
ENDBRANCH   1   7
BRANCH   2  21
ATOM     21  O   UNL     1      16.993  -8.222   5.876  1.00  0.00    -0.385 OA
ATOM     22  H   UNL     1      16.579  -8.166   4.985  1.00  0.00     0.211 HD
ENDBRANCH   2  21
BRANCH   6  23
ATOM     23  O   UNL     1      14.256  -8.416   6.036  1.00  0.00    -0.453 OA
BRANCH  23  24
ATOM     24  C   UNL     1      13.095  -9.196   5.959  1.00  0.00     0.331 C 
ATOM     25  O   UNL     1      11.944  -8.661   5.962  1.00  0.00    -0.247 OA
BRANCH  24  26
ATOM     26  C   UNL     1      13.189 -10.662   5.875  1.00  0.00     0.094 C 
ATOM     27  C   UNL     1      13.069 -11.433   6.955  1.00  0.00     0.016 C 
BRANCH  27  28
ATOM     28  C   UNL     1      13.296 -12.896   6.952  1.00  0.00    -0.021 A 
ATOM     29  C   UNL     1      14.555 -13.360   7.366  1.00  0.00     0.058 A 
ATOM     30  C   UNL     1      12.398 -13.829   6.380  1.00  0.00     0.012 A 
ATOM     31  C   UNL     1      14.932 -14.702   7.185  1.00  0.00     0.157 A 
ATOM     32  C   UNL     1      12.777 -15.154   6.194  1.00  0.00     0.051 A 
ATOM     33  C   UNL     1      14.048 -15.611   6.583  1.00  0.00     0.157 A 
BRANCH  31  34
ATOM     34  O   UNL     1      16.192 -15.115   7.614  1.00  0.00    -0.504 OA
ATOM     35  H   UNL     1      16.823 -14.532   8.166  1.00  0.00     0.293 HD
ENDBRANCH  31  34
BRANCH  33  36
ATOM     36  O   UNL     1      14.435 -16.929   6.362  1.00  0.00    -0.504 OA
ATOM     37  H   UNL     1      15.307 -17.287   6.752  1.00  0.00     0.293 HD
ENDBRANCH  33  36
ENDBRANCH  27  28
ENDBRANCH  24  26
ENDBRANCH  23  24
ENDBRANCH   6  23
BRANCH   3  38
ATOM     38  O   UNL     1      17.857  -7.756   8.571  1.00  0.00    -0.350 OA
BRANCH  38  39
ATOM     39  C   UNL     1      17.593  -8.945   9.299  1.00  0.00     0.168 C 
BRANCH  39  40
ATOM     40  C   UNL     1      16.765  -9.929   8.449  1.00  0.00     0.064 C 
BRANCH  40  41
ATOM     41  C   UNL     1      17.607 -11.018   7.796  1.00  0.00    -0.042 A 
ATOM     42  C   UNL     1      18.718 -11.599   8.449  1.00  0.00     0.054 A 
ATOM     43  C   UNL     1      17.206 -11.524   6.541  1.00  0.00     0.008 A 
ATOM     44  C   UNL     1      19.471 -12.599   7.816  1.00  0.00     0.157 A 
ATOM     45  C   UNL     1      17.967 -12.523   5.905  1.00  0.00     0.050 A 
ATOM     46  C   UNL     1      19.100 -13.055   6.529  1.00  0.00     0.157 A 
BRANCH  44  47
ATOM     47  O   UNL     1      20.610 -13.114   8.439  1.00  0.00    -0.504 OA
ATOM     48  H   UNL     1      20.587 -13.511   9.360  1.00  0.00     0.293 HD
ENDBRANCH  44  47
BRANCH  46  49
ATOM     49  O   UNL     1      19.864 -14.013   5.875  1.00  0.00    -0.504 OA
ATOM     50  H   UNL     1      19.826 -14.977   6.152  1.00  0.00     0.293 HD
ENDBRANCH  46  49
ENDBRANCH  40  41
ENDBRANCH  39  40
ENDBRANCH  38  39
ENDBRANCH   3  38
BRANCH   5  51
ATOM     51  C   UNL     1      13.077  -7.784   8.630  1.00  0.00     0.192 C 
BRANCH  51  52
ATOM     52  O   UNL     1      13.398  -9.015   9.203  1.00  0.00    -0.394 OA
ATOM     53  H   UNL     1      14.244  -8.907   9.712  1.00  0.00     0.210 HD
ENDBRANCH  51  52
ENDBRANCH   5  51
TORSDOF 20
ENDMDL
MODEL 6
REMARK VINA RESULT:    -1.272      7.263     11.597
REMARK INTER + INTRA:          -1.500
REMARK INTER:                  -4.979
REMARK INTRA:                   3.479
REMARK UNBOUND:                 0.925
REMARK SMILES C[C@@H]1O[C@H](O[C@H]2[C@H](O)[C@H](OCCc3ccc(O)c(O)c3)O[C@H](CO)[C@@H]2OC(=O)C=Cc2ccc(O)c(O)c2)[C@H](O)[C@H](O)[C@H]1O
REMARK SMILES IDX 6 1 7 2 9 3 21 4 22 5 25 6 5 7 4 8 1 9 2 10 43 11 3 12 41 13
REMARK SMILES IDX 39 14 44 15 42 17 40 19 8 21 26 23 27 24 28 25 29 26 30 27
REMARK SMILES IDX 31 28 38 29 32 30 36 31 33 32 34 33 37 34 35 36 10 38 11 39
REMARK SMILES IDX 12 40 13 41 20 42 14 43 18 44 15 45 16 46 19 47 17 49 23 51
REMARK SMILES IDX 24 52
REMARK H PARENT 44 16 42 18 40 20 8 22 37 35 35 37 19 48 17 50 24 53
REMARK Flexibility Score: inf
ROOT
ATOM      1  C   UNL     1      13.553 -19.245  11.989  1.00  0.00     0.199 C 
ATOM      2  C   UNL     1      15.034 -18.896  11.785  1.00  0.00     0.203 C 
ATOM      3  C   UNL     1      15.195 -17.359  11.619  1.00  0.00     0.282 C 
ATOM      4  O   UNL     1      14.576 -16.630  12.689  1.00  0.00    -0.340 OA
ATOM      5  C   UNL     1      13.186 -16.879  12.724  1.00  0.00     0.190 C 
ATOM      6  C   UNL     1      12.943 -18.369  13.068  1.00  0.00     0.240 C 
ENDROOT
BRANCH   1   7
ATOM      7  O   UNL     1      12.846 -18.938  10.781  1.00  0.00    -0.340 OA
BRANCH   7   8
ATOM      8  C   UNL     1      12.880 -19.988   9.802  1.00  0.00     0.282 C 
ATOM      9  C   UNL     1      11.875 -17.279   8.627  1.00  0.00     0.041 C 
ATOM     10  C   UNL     1      12.137 -18.646   7.949  1.00  0.00     0.150 C 
ATOM     11  C   UNL     1      13.534 -18.715   7.272  1.00  0.00     0.174 C 
ATOM     12  O   UNL     1      11.878 -19.772   8.804  1.00  0.00    -0.344 OA
ATOM     13  C   UNL     1      14.241 -20.021   7.657  1.00  0.00     0.179 C 
ATOM     14  C   UNL     1      14.312 -20.123   9.198  1.00  0.00     0.202 C 
BRANCH  11  15
ATOM     15  O   UNL     1      13.414 -18.650   5.882  1.00  0.00    -0.388 OA
ATOM     16  H   UNL     1      12.458 -18.703   5.670  1.00  0.00     0.211 HD
ENDBRANCH  11  15
BRANCH  13  17
ATOM     17  O   UNL     1      15.514 -20.085   7.085  1.00  0.00    -0.387 OA
ATOM     18  H   UNL     1      15.551 -20.875   6.459  1.00  0.00     0.211 HD
ENDBRANCH  13  17
BRANCH  14  19
ATOM     19  O   UNL     1      15.153 -19.127   9.723  1.00  0.00    -0.385 OA
ATOM     20  H   UNL     1      15.022 -19.098  10.709  1.00  0.00     0.211 HD
ENDBRANCH  14  19
ENDBRANCH   7   8
ENDBRANCH   1   7
BRANCH   2  21
ATOM     21  O   UNL     1      15.784 -19.369  12.881  1.00  0.00    -0.385 OA
ATOM     22  H   UNL     1      16.705 -19.510  12.565  1.00  0.00     0.211 HD
ENDBRANCH   2  21
BRANCH   6  23
ATOM     23  O   UNL     1      13.580 -18.614  14.339  1.00  0.00    -0.453 OA
BRANCH  23  24
ATOM     24  C   UNL     1      12.889 -18.934  15.515  1.00  0.00     0.331 C 
ATOM     25  O   UNL     1      12.523 -20.125  15.757  1.00  0.00    -0.247 OA
BRANCH  24  26
ATOM     26  C   UNL     1      12.568 -17.886  16.498  1.00  0.00     0.094 C 
ATOM     27  C   UNL     1      13.501 -17.062  16.972  1.00  0.00     0.016 C 
BRANCH  27  28
ATOM     28  C   UNL     1      13.264 -16.089  18.061  1.00  0.00    -0.021 A 
ATOM     29  C   UNL     1      13.630 -16.467  19.363  1.00  0.00     0.058 A 
ATOM     30  C   UNL     1      12.523 -14.894  17.899  1.00  0.00     0.012 A 
ATOM     31  C   UNL     1      13.241 -15.705  20.479  1.00  0.00     0.157 A 
ATOM     32  C   UNL     1      12.131 -14.147  19.006  1.00  0.00     0.051 A 
ATOM     33  C   UNL     1      12.475 -14.542  20.310  1.00  0.00     0.157 A 
BRANCH  31  34
ATOM     34  O   UNL     1      13.630 -16.120  21.752  1.00  0.00    -0.504 OA
ATOM     35  H   UNL     1      13.585 -17.089  22.070  1.00  0.00     0.293 HD
ENDBRANCH  31  34
BRANCH  33  36
ATOM     36  O   UNL     1      12.050 -13.810  21.415  1.00  0.00    -0.504 OA
ATOM     37  H   UNL     1      11.589 -14.273  22.198  1.00  0.00     0.293 HD
ENDBRANCH  33  36
ENDBRANCH  27  28
ENDBRANCH  24  26
ENDBRANCH  23  24
ENDBRANCH   6  23
BRANCH   3  38
ATOM     38  O   UNL     1      16.557 -17.011  11.443  1.00  0.00    -0.350 OA
BRANCH  38  39
ATOM     39  C   UNL     1      17.170 -17.669  10.345  1.00  0.00     0.168 C 
BRANCH  39  40
ATOM     40  C   UNL     1      16.616 -17.129   9.012  1.00  0.00     0.064 C 
BRANCH  40  41
ATOM     41  C   UNL     1      17.654 -16.373   8.190  1.00  0.00    -0.042 A 
ATOM     42  C   UNL     1      19.033 -16.673   8.267  1.00  0.00     0.054 A 
ATOM     43  C   UNL     1      17.210 -15.410   7.259  1.00  0.00     0.008 A 
ATOM     44  C   UNL     1      19.960 -15.954   7.497  1.00  0.00     0.157 A 
ATOM     45  C   UNL     1      18.143 -14.686   6.492  1.00  0.00     0.050 A 
ATOM     46  C   UNL     1      19.512 -14.945   6.612  1.00  0.00     0.157 A 
BRANCH  44  47
ATOM     47  O   UNL     1      21.327 -16.208   7.635  1.00  0.00    -0.504 OA
ATOM     48  H   UNL     1      21.963 -16.157   6.861  1.00  0.00     0.293 HD
ENDBRANCH  44  47
BRANCH  46  49
ATOM     49  O   UNL     1      20.425 -14.198   5.878  1.00  0.00    -0.504 OA
ATOM     50  H   UNL     1      20.976 -14.626   5.156  1.00  0.00     0.293 HD
ENDBRANCH  46  49
ENDBRANCH  40  41
ENDBRANCH  39  40
ENDBRANCH  38  39
ENDBRANCH   3  38
BRANCH   5  51
ATOM     51  C   UNL     1      12.524 -15.951  13.781  1.00  0.00     0.192 C 
BRANCH  51  52
ATOM     52  O   UNL     1      13.432 -14.990  14.228  1.00  0.00    -0.394 OA
ATOM     53  H   UNL     1      13.345 -14.189  13.647  1.00  0.00     0.210 HD
ENDBRANCH  51  52
ENDBRANCH   5  51
TORSDOF 20
ENDMDL
MODEL 7
REMARK VINA RESULT:    -0.924      2.685      4.944
REMARK INTER + INTRA:          -0.835
REMARK INTER:                  -4.234
REMARK INTRA:                   3.399
REMARK UNBOUND:                 0.925
REMARK SMILES C[C@@H]1O[C@H](O[C@H]2[C@H](O)[C@H](OCCc3ccc(O)c(O)c3)O[C@H](CO)[C@@H]2OC(=O)C=Cc2ccc(O)c(O)c2)[C@H](O)[C@H](O)[C@H]1O
REMARK SMILES IDX 6 1 7 2 9 3 21 4 22 5 25 6 5 7 4 8 1 9 2 10 43 11 3 12 41 13
REMARK SMILES IDX 39 14 44 15 42 17 40 19 8 21 26 23 27 24 28 25 29 26 30 27
REMARK SMILES IDX 31 28 38 29 32 30 36 31 33 32 34 33 37 34 35 36 10 38 11 39
REMARK SMILES IDX 12 40 13 41 20 42 14 43 18 44 15 45 16 46 19 47 17 49 23 51
REMARK SMILES IDX 24 52
REMARK H PARENT 44 16 42 18 40 20 8 22 37 35 35 37 19 48 17 50 24 53
REMARK Flexibility Score: inf
ROOT
ATOM      1  C   UNL     1      15.240  -6.935   6.750  1.00  0.00     0.199 C 
ATOM      2  C   UNL     1      16.600  -7.404   7.286  1.00  0.00     0.203 C 
ATOM      3  C   UNL     1      16.473  -7.783   8.787  1.00  0.00     0.282 C 
ATOM      4  O   UNL     1      15.411  -8.719   9.022  1.00  0.00    -0.340 OA
ATOM      5  C   UNL     1      14.166  -8.167   8.649  1.00  0.00     0.190 C 
ATOM      6  C   UNL     1      14.152  -7.928   7.120  1.00  0.00     0.240 C 
ENDROOT
BRANCH   1   7
ATOM      7  O   UNL     1      14.895  -5.707   7.405  1.00  0.00    -0.340 OA
BRANCH   7   8
ATOM      8  C   UNL     1      15.755  -4.606   7.069  1.00  0.00     0.282 C 
ATOM      9  C   UNL     1      12.795  -4.127   6.209  1.00  0.00     0.041 C 
ATOM     10  C   UNL     1      14.041  -3.213   6.117  1.00  0.00     0.150 C 
ATOM     11  C   UNL     1      14.128  -2.209   7.301  1.00  0.00     0.174 C 
ATOM     12  O   UNL     1      15.268  -3.930   5.906  1.00  0.00    -0.344 OA
ATOM     13  C   UNL     1      15.546  -2.211   7.889  1.00  0.00     0.179 C 
ATOM     14  C   UNL     1      15.923  -3.655   8.293  1.00  0.00     0.202 C 
BRANCH  11  15
ATOM     15  O   UNL     1      13.809  -0.917   6.878  1.00  0.00    -0.388 OA
ATOM     16  H   UNL     1      14.366  -0.720   6.095  1.00  0.00     0.211 HD
ENDBRANCH  11  15
BRANCH  13  17
ATOM     17  O   UNL     1      15.634  -1.339   8.977  1.00  0.00    -0.387 OA
ATOM     18  H   UNL     1      15.445  -1.854   9.823  1.00  0.00     0.211 HD
ENDBRANCH  13  17
BRANCH  14  19
ATOM     19  O   UNL     1      15.124  -4.096   9.362  1.00  0.00    -0.385 OA
ATOM     20  H   UNL     1      15.597  -3.886  10.211  1.00  0.00     0.211 HD
ENDBRANCH  14  19
ENDBRANCH   7   8
ENDBRANCH   1   7
BRANCH   2  21
ATOM     21  O   UNL     1      17.054  -8.498   6.522  1.00  0.00    -0.385 OA
ATOM     22  H   UNL     1      16.301  -9.126   6.437  1.00  0.00     0.211 HD
ENDBRANCH   2  21
BRANCH   6  23
ATOM     23  O   UNL     1      14.398  -9.204   6.495  1.00  0.00    -0.453 OA
BRANCH  23  24
ATOM     24  C   UNL     1      14.804 -10.353   7.187  1.00  0.00     0.331 C 
ATOM     25  O   UNL     1      15.858 -10.354   7.893  1.00  0.00    -0.247 OA
BRANCH  24  26
ATOM     26  C   UNL     1      14.011 -11.590   7.103  1.00  0.00     0.094 C 
ATOM     27  C   UNL     1      14.572 -12.791   7.241  1.00  0.00     0.016 C 
BRANCH  27  28
ATOM     28  C   UNL     1      13.852 -14.066   7.025  1.00  0.00    -0.021 A 
ATOM     29  C   UNL     1      14.495 -15.251   7.416  1.00  0.00     0.058 A 
ATOM     30  C   UNL     1      12.653 -14.174   6.280  1.00  0.00     0.012 A 
ATOM     31  C   UNL     1      13.988 -16.510   7.049  1.00  0.00     0.157 A 
ATOM     32  C   UNL     1      12.159 -15.421   5.911  1.00  0.00     0.051 A 
ATOM     33  C   UNL     1      12.819 -16.606   6.279  1.00  0.00     0.157 A 
BRANCH  31  34
ATOM     34  O   UNL     1      14.661 -17.658   7.463  1.00  0.00    -0.504 OA
ATOM     35  H   UNL     1      15.678 -17.736   7.501  1.00  0.00     0.293 HD
ENDBRANCH  31  34
BRANCH  33  36
ATOM     36  O   UNL     1      12.339 -17.848   5.876  1.00  0.00    -0.504 OA
ATOM     37  H   UNL     1      12.004 -18.523   6.563  1.00  0.00     0.293 HD
ENDBRANCH  33  36
ENDBRANCH  27  28
ENDBRANCH  24  26
ENDBRANCH  23  24
ENDBRANCH   6  23
BRANCH   3  38
ATOM     38  O   UNL     1      17.715  -8.233   9.301  1.00  0.00    -0.350 OA
BRANCH  38  39
ATOM     39  C   UNL     1      18.496  -7.196   9.874  1.00  0.00     0.168 C 
BRANCH  39  40
ATOM     40  C   UNL     1      18.478  -5.944   8.974  1.00  0.00     0.064 C 
BRANCH  40  41
ATOM     41  C   UNL     1      19.764  -5.755   8.178  1.00  0.00    -0.042 A 
ATOM     42  C   UNL     1      21.027  -6.116   8.699  1.00  0.00     0.054 A 
ATOM     43  C   UNL     1      19.675  -5.292   6.848  1.00  0.00     0.008 A 
ATOM     44  C   UNL     1      22.190  -5.926   7.937  1.00  0.00     0.157 A 
ATOM     45  C   UNL     1      20.843  -5.096   6.088  1.00  0.00     0.050 A 
ATOM     46  C   UNL     1      22.098  -5.400   6.627  1.00  0.00     0.157 A 
BRANCH  44  47
ATOM     47  O   UNL     1      23.440  -6.216   8.488  1.00  0.00    -0.504 OA
ATOM     48  H   UNL     1      24.285  -5.790   8.158  1.00  0.00     0.293 HD
ENDBRANCH  44  47
BRANCH  46  49
ATOM     49  O   UNL     1      23.246  -5.167   5.881  1.00  0.00    -0.504 OA
ATOM     50  H   UNL     1      24.132  -5.538   6.172  1.00  0.00     0.293 HD
ENDBRANCH  46  49
ENDBRANCH  40  41
ENDBRANCH  39  40
ENDBRANCH  38  39
ENDBRANCH   3  38
BRANCH   5  51
ATOM     51  C   UNL     1      13.026  -9.136   9.070  1.00  0.00     0.192 C 
BRANCH  51  52
ATOM     52  O   UNL     1      11.876  -8.899   8.316  1.00  0.00    -0.394 OA
ATOM     53  H   UNL     1      11.513  -8.012   8.578  1.00  0.00     0.210 HD
ENDBRANCH  51  52
ENDBRANCH   5  51
TORSDOF 20
ENDMDL
