MODEL 1
REMARK VINA RESULT:    -5.009      0.000      0.000
REMARK INTER + INTRA:          -5.009
REMARK INTER:                  -5.009
REMARK INTRA:                   0.000
REMARK UNBOUND:                 0.000
REMARK SMILES C=C1CCCC(C)(C)[C@]12CC=C(C)CC2
REMARK SMILES IDX 13 1 12 2 11 3 10 4 9 5 15 6 14 7 2 8 1 9 3 10 4 11 5 12
REMARK SMILES IDX 6 13 7 14 8 15
REMARK H PARENT
REMARK Flexibility Score: inf
ROOT
ATOM      1  C   UNL     1      -1.125  12.744  19.949  1.00  0.00     0.039 C 
ATOM      2  C   UNL     1      -0.250  12.892  18.735  1.00  0.00    -0.077 C 
ATOM      3  C   UNL     1       0.950  13.478  18.840  1.00  0.00    -0.027 C 
ATOM      4  C   UNL     1       1.760  13.710  17.601  1.00  0.00     0.039 C 
ATOM      5  C   UNL     1       0.893  14.312  16.436  1.00  0.00    -0.000 C 
ATOM      6  C   UNL     1      -0.367  13.367  16.231  1.00  0.00     0.017 C 
ATOM      7  C   UNL     1      -0.695  12.386  17.386  1.00  0.00     0.031 C 
ATOM      8  C   UNL     1       1.684  14.314  15.100  1.00  0.00    -0.070 C 
ATOM      9  C   UNL     1       2.966  13.907  14.968  1.00  0.00     0.008 C 
ATOM     10  C   UNL     1       0.995  14.904  13.889  1.00  0.00     0.031 C 
ATOM     11  C   UNL     1       0.626  16.355  14.171  1.00  0.00     0.005 C 
ATOM     12  C   UNL     1      -0.214  16.472  15.449  1.00  0.00     0.008 C 
ATOM     13  C   UNL     1       0.464  15.842  16.714  1.00  0.00    -0.026 C 
ATOM     14  C   UNL     1      -0.548  16.006  17.881  1.00  0.00     0.012 C 
ATOM     15  C   UNL     1       1.703  16.712  17.075  1.00  0.00     0.012 C 
ENDROOT
TORSDOF 0
ENDMDL
MODEL 2
REMARK VINA RESULT:    -4.919      1.569      3.832
REMARK INTER + INTRA:          -4.919
REMARK INTER:                  -4.919
REMARK INTRA:                   0.000
REMARK UNBOUND:                 0.000
REMARK SMILES C=C1CCCC(C)(C)[C@]12CC=C(C)CC2
REMARK SMILES IDX 13 1 12 2 11 3 10 4 9 5 15 6 14 7 2 8 1 9 3 10 4 11 5 12
REMARK SMILES IDX 6 13 7 14 8 15
REMARK H PARENT
REMARK Flexibility Score: inf
ROOT
ATOM      1  C   UNL     1      -0.197  12.095  12.493  1.00  0.00     0.039 C 
ATOM      2  C   UNL     1       0.088  12.234  13.963  1.00  0.00    -0.077 C 
ATOM      3  C   UNL     1      -0.907  12.503  14.819  1.00  0.00    -0.027 C 
ATOM      4  C   UNL     1      -0.584  12.740  16.263  1.00  0.00     0.039 C 
ATOM      5  C   UNL     1       0.643  13.706  16.439  1.00  0.00    -0.000 C 
ATOM      6  C   UNL     1       1.847  13.123  15.584  1.00  0.00     0.017 C 
ATOM      7  C   UNL     1       1.486  12.070  14.504  1.00  0.00     0.031 C 
ATOM      8  C   UNL     1       1.110  13.744  17.919  1.00  0.00    -0.070 C 
ATOM      9  C   UNL     1       0.508  13.080  18.930  1.00  0.00     0.008 C 
ATOM     10  C   UNL     1       2.262  14.666  18.258  1.00  0.00     0.031 C 
ATOM     11  C   UNL     1       1.893  16.097  17.889  1.00  0.00     0.005 C 
ATOM     12  C   UNL     1       1.465  16.195  16.419  1.00  0.00     0.008 C 
ATOM     13  C   UNL     1       0.292  15.228  16.034  1.00  0.00    -0.026 C 
ATOM     14  C   UNL     1       0.042  15.429  14.514  1.00  0.00     0.012 C 
ATOM     15  C   UNL     1      -0.991  15.720  16.764  1.00  0.00     0.012 C 
ENDROOT
TORSDOF 0
ENDMDL
MODEL 3
REMARK VINA RESULT:    -4.896      1.325      4.619
REMARK INTER + INTRA:          -4.896
REMARK INTER:                  -4.896
REMARK INTRA:                   0.000
REMARK UNBOUND:                 0.000
REMARK SMILES C=C1CCCC(C)(C)[C@]12CC=C(C)CC2
REMARK SMILES IDX 13 1 12 2 11 3 10 4 9 5 15 6 14 7 2 8 1 9 3 10 4 11 5 12
REMARK SMILES IDX 6 13 7 14 8 15
REMARK H PARENT
REMARK Flexibility Score: inf
ROOT
ATOM      1  C   UNL     1      -0.834  18.178  12.999  1.00  0.00     0.039 C 
ATOM      2  C   UNL     1      -0.249  17.669  14.287  1.00  0.00    -0.077 C 
ATOM      3  C   UNL     1       1.072  17.471  14.394  1.00  0.00    -0.027 C 
ATOM      4  C   UNL     1       1.620  16.865  15.649  1.00  0.00     0.039 C 
ATOM      5  C   UNL     1       0.782  15.619  16.115  1.00  0.00    -0.000 C 
ATOM      6  C   UNL     1      -0.739  16.065  16.210  1.00  0.00     0.017 C 
ATOM      7  C   UNL     1      -1.125  17.377  15.479  1.00  0.00     0.031 C 
ATOM      8  C   UNL     1       1.214  15.161  17.534  1.00  0.00    -0.070 C 
ATOM      9  C   UNL     1       2.214  15.721  18.250  1.00  0.00     0.008 C 
ATOM     10  C   UNL     1       0.524  13.941  18.107  1.00  0.00     0.031 C 
ATOM     11  C   UNL     1       0.751  12.750  17.184  1.00  0.00     0.005 C 
ATOM     12  C   UNL     1       0.304  13.068  15.752  1.00  0.00     0.008 C 
ATOM     13  C   UNL     1       0.982  14.345  15.145  1.00  0.00    -0.026 C 
ATOM     14  C   UNL     1       0.370  14.535  13.730  1.00  0.00     0.012 C 
ATOM     15  C   UNL     1       2.492  14.032  14.937  1.00  0.00     0.012 C 
ENDROOT
TORSDOF 0
ENDMDL
MODEL 4
REMARK VINA RESULT:    -4.848      1.365      3.467
REMARK INTER + INTRA:          -4.848
REMARK INTER:                  -4.848
REMARK INTRA:                   0.000
REMARK UNBOUND:                 0.000
REMARK SMILES C=C1CCCC(C)(C)[C@]12CC=C(C)CC2
REMARK SMILES IDX 13 1 12 2 11 3 10 4 9 5 15 6 14 7 2 8 1 9 3 10 4 11 5 12
REMARK SMILES IDX 6 13 7 14 8 15
REMARK H PARENT
REMARK Flexibility Score: inf
ROOT
ATOM      1  C   UNL     1       0.750  13.144  18.512  1.00  0.00     0.039 C 
ATOM      2  C   UNL     1       0.432  14.412  17.768  1.00  0.00    -0.077 C 
ATOM      3  C   UNL     1      -0.671  14.488  17.012  1.00  0.00    -0.027 C 
ATOM      4  C   UNL     1      -0.914  15.722  16.197  1.00  0.00     0.039 C 
ATOM      5  C   UNL     1       0.378  16.182  15.429  1.00  0.00    -0.000 C 
ATOM      6  C   UNL     1       1.552  16.315  16.490  1.00  0.00     0.017 C 
ATOM      7  C   UNL     1       1.336  15.615  17.857  1.00  0.00     0.031 C 
ATOM      8  C   UNL     1       0.175  17.584  14.794  1.00  0.00    -0.070 C 
ATOM      9  C   UNL     1      -0.976  18.290  14.845  1.00  0.00     0.008 C 
ATOM     10  C   UNL     1       1.321  18.148  13.982  1.00  0.00     0.031 C 
ATOM     11  C   UNL     1       1.646  17.200  12.834  1.00  0.00     0.005 C 
ATOM     12  C   UNL     1       1.924  15.783  13.350  1.00  0.00     0.008 C 
ATOM     13  C   UNL     1       0.764  15.186  14.220  1.00  0.00    -0.026 C 
ATOM     14  C   UNL     1       1.247  13.787  14.692  1.00  0.00     0.012 C 
ATOM     15  C   UNL     1      -0.457  14.942  13.286  1.00  0.00     0.012 C 
ENDROOT
TORSDOF 0
ENDMDL
MODEL 5
REMARK VINA RESULT:    -4.697      1.974      3.599
REMARK INTER + INTRA:          -4.697
REMARK INTER:                  -4.697
REMARK INTRA:                   0.000
REMARK UNBOUND:                 0.000
REMARK SMILES C=C1CCCC(C)(C)[C@]12CC=C(C)CC2
REMARK SMILES IDX 13 1 12 2 11 3 10 4 9 5 15 6 14 7 2 8 1 9 3 10 4 11 5 12
REMARK SMILES IDX 6 13 7 14 8 15
REMARK H PARENT
REMARK Flexibility Score: inf
ROOT
ATOM      1  C   UNL     1       1.105  11.603  14.462  1.00  0.00     0.039 C 
ATOM      2  C   UNL     1       1.224  13.038  14.031  1.00  0.00    -0.077 C 
ATOM      3  C   UNL     1       2.174  13.822  14.559  1.00  0.00    -0.027 C 
ATOM      4  C   UNL     1       2.208  15.274  14.194  1.00  0.00     0.039 C 
ATOM      5  C   UNL     1       0.781  15.929  14.255  1.00  0.00    -0.000 C 
ATOM      6  C   UNL     1      -0.196  15.050  13.363  1.00  0.00     0.017 C 
ATOM      7  C   UNL     1       0.290  13.623  13.002  1.00  0.00     0.031 C 
ATOM      8  C   UNL     1       0.799  17.356  13.642  1.00  0.00    -0.070 C 
ATOM      9  C   UNL     1       1.905  17.974  13.172  1.00  0.00     0.008 C 
ATOM     10  C   UNL     1      -0.498  18.136  13.666  1.00  0.00     0.031 C 
ATOM     11  C   UNL     1      -0.969  18.294  15.106  1.00  0.00     0.005 C 
ATOM     12  C   UNL     1      -1.081  16.933  15.803  1.00  0.00     0.008 C 
ATOM     13  C   UNL     1       0.241  16.090  15.767  1.00  0.00    -0.026 C 
ATOM     14  C   UNL     1      -0.081  14.740  16.463  1.00  0.00     0.012 C 
ATOM     15  C   UNL     1       1.291  16.812  16.662  1.00  0.00     0.012 C 
ENDROOT
TORSDOF 0
ENDMDL
MODEL 6
REMARK VINA RESULT:    -4.635      1.689      3.804
REMARK INTER + INTRA:          -4.635
REMARK INTER:                  -4.635
REMARK INTRA:                   0.000
REMARK UNBOUND:                 0.000
REMARK SMILES C=C1CCCC(C)(C)[C@]12CC=C(C)CC2
REMARK SMILES IDX 13 1 12 2 11 3 10 4 9 5 15 6 14 7 2 8 1 9 3 10 4 11 5 12
REMARK SMILES IDX 6 13 7 14 8 15
REMARK H PARENT
REMARK Flexibility Score: inf
ROOT
ATOM      1  C   UNL     1       0.919  11.035  13.284  1.00  0.00     0.039 C 
ATOM      2  C   UNL     1       0.726  12.006  14.416  1.00  0.00    -0.077 C 
ATOM      3  C   UNL     1      -0.484  12.529  14.653  1.00  0.00    -0.027 C 
ATOM      4  C   UNL     1      -0.633  13.573  15.718  1.00  0.00     0.039 C 
ATOM      5  C   UNL     1       0.492  14.667  15.628  1.00  0.00    -0.000 C 
ATOM      6  C   UNL     1       1.895  13.923  15.628  1.00  0.00     0.017 C 
ATOM      7  C   UNL     1       1.876  12.407  15.304  1.00  0.00     0.031 C 
ATOM      8  C   UNL     1       0.465  15.592  16.875  1.00  0.00    -0.070 C 
ATOM      9  C   UNL     1      -0.439  15.505  17.875  1.00  0.00     0.008 C 
ATOM     10  C   UNL     1       1.466  16.727  16.916  1.00  0.00     0.031 C 
ATOM     11  C   UNL     1       1.259  17.631  15.707  1.00  0.00     0.005 C 
ATOM     12  C   UNL     1       1.322  16.829  14.401  1.00  0.00     0.008 C 
ATOM     13  C   UNL     1       0.315  15.628  14.344  1.00  0.00    -0.026 C 
ATOM     14  C   UNL     1       0.563  14.913  12.988  1.00  0.00     0.012 C 
ATOM     15  C   UNL     1      -1.125  16.215  14.279  1.00  0.00     0.012 C 
ENDROOT
TORSDOF 0
ENDMDL
MODEL 7
REMARK VINA RESULT:    -4.462      2.124      4.231
REMARK INTER + INTRA:          -4.462
REMARK INTER:                  -4.462
REMARK INTRA:                   0.000
REMARK UNBOUND:                 0.000
REMARK SMILES C=C1CCCC(C)(C)[C@]12CC=C(C)CC2
REMARK SMILES IDX 13 1 12 2 11 3 10 4 9 5 15 6 14 7 2 8 1 9 3 10 4 11 5 12
REMARK SMILES IDX 6 13 7 14 8 15
REMARK H PARENT
REMARK Flexibility Score: inf
ROOT
ATOM      1  C   UNL     1      -0.182  14.897  17.400  1.00  0.00     0.039 C 
ATOM      2  C   UNL     1       0.870  15.031  16.334  1.00  0.00    -0.077 C 
ATOM      3  C   UNL     1       0.588  15.666  15.189  1.00  0.00    -0.027 C 
ATOM      4  C   UNL     1       1.616  15.696  14.099  1.00  0.00     0.039 C 
ATOM      5  C   UNL     1       2.264  14.283  13.864  1.00  0.00    -0.000 C 
ATOM      6  C   UNL     1       2.804  13.757  15.262  1.00  0.00     0.017 C 
ATOM      7  C   UNL     1       2.253  14.463  16.528  1.00  0.00     0.031 C 
ATOM      8  C   UNL     1       3.487  14.386  12.912  1.00  0.00    -0.070 C 
ATOM      9  C   UNL     1       3.904  15.527  12.320  1.00  0.00     0.008 C 
ATOM     10  C   UNL     1       4.195  13.097  12.554  1.00  0.00     0.031 C 
ATOM     11  C   UNL     1       3.212  12.145  11.887  1.00  0.00     0.005 C 
ATOM     12  C   UNL     1       1.977  11.920  12.768  1.00  0.00     0.008 C 
ATOM     13  C   UNL     1       1.240  13.242  13.178  1.00  0.00    -0.026 C 
ATOM     14  C   UNL     1       0.065  12.820  14.102  1.00  0.00     0.012 C 
ATOM     15  C   UNL     1       0.600  13.849  11.896  1.00  0.00     0.012 C 
ENDROOT
TORSDOF 0
ENDMDL
MODEL 8
REMARK VINA RESULT:    -4.447      1.356      4.597
REMARK INTER + INTRA:          -4.447
REMARK INTER:                  -4.447
REMARK INTRA:                   0.000
REMARK UNBOUND:                 0.000
REMARK SMILES C=C1CCCC(C)(C)[C@]12CC=C(C)CC2
REMARK SMILES IDX 13 1 12 2 11 3 10 4 9 5 15 6 14 7 2 8 1 9 3 10 4 11 5 12
REMARK SMILES IDX 6 13 7 14 8 15
REMARK H PARENT
REMARK Flexibility Score: inf
ROOT
ATOM      1  C   UNL     1       3.961  15.461  12.251  1.00  0.00     0.039 C 
ATOM      2  C   UNL     1       2.954  14.689  13.059  1.00  0.00    -0.077 C 
ATOM      3  C   UNL     1       1.657  14.724  12.727  1.00  0.00    -0.027 C 
ATOM      4  C   UNL     1       0.660  14.034  13.607  1.00  0.00     0.039 C 
ATOM      5  C   UNL     1       0.904  14.344  15.128  1.00  0.00    -0.000 C 
ATOM      6  C   UNL     1       2.419  14.000  15.457  1.00  0.00     0.017 C 
ATOM      7  C   UNL     1       3.378  13.862  14.246  1.00  0.00     0.031 C 
ATOM      8  C   UNL     1       0.024  13.434  16.027  1.00  0.00    -0.070 C 
ATOM      9  C   UNL     1      -0.873  12.536  15.564  1.00  0.00     0.008 C 
ATOM     10  C   UNL     1       0.116  13.643  17.524  1.00  0.00     0.031 C 
ATOM     11  C   UNL     1      -0.268  15.078  17.861  1.00  0.00     0.005 C 
ATOM     12  C   UNL     1       0.583  16.078  17.067  1.00  0.00     0.008 C 
ATOM     13  C   UNL     1       0.529  15.865  15.515  1.00  0.00    -0.026 C 
ATOM     14  C   UNL     1       1.484  16.921  14.895  1.00  0.00     0.012 C 
ATOM     15  C   UNL     1      -0.906  16.227  15.033  1.00  0.00     0.012 C 
ENDROOT
TORSDOF 0
ENDMDL
MODEL 9
REMARK VINA RESULT:    -4.404      1.335      4.721
REMARK INTER + INTRA:          -4.404
REMARK INTER:                  -4.404
REMARK INTRA:                   0.000
REMARK UNBOUND:                 0.000
REMARK SMILES C=C1CCCC(C)(C)[C@]12CC=C(C)CC2
REMARK SMILES IDX 13 1 12 2 11 3 10 4 9 5 15 6 14 7 2 8 1 9 3 10 4 11 5 12
REMARK SMILES IDX 6 13 7 14 8 15
REMARK H PARENT
REMARK Flexibility Score: inf
ROOT
ATOM      1  C   UNL     1       1.514  17.046  12.288  1.00  0.00     0.039 C 
ATOM      2  C   UNL     1       0.775  16.711  13.554  1.00  0.00    -0.077 C 
ATOM      3  C   UNL     1       1.247  17.125  14.737  1.00  0.00    -0.027 C 
ATOM      4  C   UNL     1       0.553  16.691  15.993  1.00  0.00     0.039 C 
ATOM      5  C   UNL     1       0.220  15.155  15.978  1.00  0.00    -0.000 C 
ATOM      6  C   UNL     1      -0.582  14.845  14.643  1.00  0.00     0.017 C 
ATOM      7  C   UNL     1      -0.504  15.913  13.522  1.00  0.00     0.031 C 
ATOM      8  C   UNL     1      -0.707  14.779  17.165  1.00  0.00    -0.070 C 
ATOM      9  C   UNL     1      -1.125  15.643  18.117  1.00  0.00     0.008 C 
ATOM     10  C   UNL     1      -1.085  13.320  17.313  1.00  0.00     0.031 C 
ATOM     11  C   UNL     1       0.176  12.482  17.472  1.00  0.00     0.005 C 
ATOM     12  C   UNL     1       1.153  12.729  16.315  1.00  0.00     0.008 C 
ATOM     13  C   UNL     1       1.539  14.237  16.122  1.00  0.00    -0.026 C 
ATOM     14  C   UNL     1       2.477  14.293  14.885  1.00  0.00     0.012 C 
ATOM     15  C   UNL     1       2.392  14.672  17.348  1.00  0.00     0.012 C 
ENDROOT
TORSDOF 0
ENDMDL
