MODEL 1
REMARK VINA RESULT:    -3.958      0.000      0.000
REMARK INTER + INTRA:         -13.196
REMARK INTER:                  -9.047
REMARK INTRA:                  -4.149
REMARK UNBOUND:                -4.149
REMARK SMILES CCCCCCCCCCCCCCCCCCCCCCCC(=O)[O-]
REMARK SMILES IDX 13 1 14 2 15 3 16 4 17 5 18 6 19 7 20 8 21 9 22 10 23 11
REMARK SMILES IDX 24 12 25 13 26 14 12 15 11 16 10 17 9 18 8 19 7 20 6 21 5 22
REMARK SMILES IDX 4 23 3 24 2 25 1 26
REMARK H PARENT
REMARK Flexibility Score: inf
ROOT
ATOM      1  C   UNL     1      -6.976   6.114  56.698  1.00  0.00     0.000 C 
ENDROOT
BRANCH   1   2
ATOM      2  C   UNL     1      -5.646   5.752  57.382  1.00  0.00     0.000 C 
BRANCH   2   3
ATOM      3  C   UNL     1      -5.651   5.832  58.923  1.00  0.00     0.000 C 
BRANCH   3   4
ATOM      4  C   UNL     1      -5.287   4.523  59.651  1.00  0.00     0.000 C 
BRANCH   4   5
ATOM      5  C   UNL     1      -4.917   3.358  58.715  1.00  0.00     0.000 C 
BRANCH   5   6
ATOM      6  C   UNL     1      -6.028   2.286  58.602  1.00  0.00     0.000 C 
BRANCH   6   7
ATOM      7  C   UNL     1      -7.166   2.478  59.619  1.00  0.00     0.000 C 
BRANCH   7   8
ATOM      8  C   UNL     1      -8.495   2.839  58.932  1.00  0.00     0.000 C 
BRANCH   8   9
ATOM      9  C   UNL     1      -8.960   4.269  59.252  1.00  0.00     0.000 C 
BRANCH   9  10
ATOM     10  C   UNL     1      -9.680   4.371  60.605  1.00  0.00     0.006 C 
BRANCH  10  11
ATOM     11  C   UNL     1      -8.789   5.050  61.649  1.00  0.00     0.053 C 
BRANCH  11  12
ATOM     12  C   UNL     1      -8.880   6.540  61.531  1.00  0.00     0.041 C 
ATOM     13  O   UNL     1     -10.004   7.111  61.534  1.00  0.00    -0.550 OA
ATOM     14  O   UNL     1      -7.723   7.302  61.445  1.00  0.00    -0.550 OA
ENDBRANCH  11  12
ENDBRANCH  10  11
ENDBRANCH   9  10
ENDBRANCH   8   9
ENDBRANCH   7   8
ENDBRANCH   6   7
ENDBRANCH   5   6
ENDBRANCH   4   5
ENDBRANCH   3   4
ENDBRANCH   2   3
ENDBRANCH   1   2
BRANCH   1  15
ATOM     15  C   UNL     1      -7.181   5.385  55.358  1.00  0.00     0.000 C 
BRANCH  15  16
ATOM     16  C   UNL     1      -7.187   3.855  55.523  1.00  0.00     0.000 C 
BRANCH  16  17
ATOM     17  C   UNL     1      -5.990   3.185  54.824  1.00  0.00     0.000 C 
BRANCH  17  18
ATOM     18  C   UNL     1      -5.933   3.509  53.316  1.00  0.00    -0.000 C 
BRANCH  18  19
ATOM     19  C   UNL     1      -6.972   2.744  52.472  1.00  0.00    -0.000 C 
BRANCH  19  20
ATOM     20  C   UNL     1      -7.557   3.530  51.286  1.00  0.00    -0.000 C 
BRANCH  20  21
ATOM     21  C   UNL     1      -7.271   5.045  51.307  1.00  0.00    -0.000 C 
BRANCH  21  22
ATOM     22  C   UNL     1      -8.425   5.888  51.892  1.00  0.00    -0.000 C 
BRANCH  22  23
ATOM     23  C   UNL     1      -9.775   5.152  51.830  1.00  0.00    -0.000 C 
BRANCH  23  24
ATOM     24  C   UNL     1     -10.454   5.046  53.205  1.00  0.00    -0.000 C 
BRANCH  24  25
ATOM     25  C   UNL     1     -10.342   3.639  53.811  1.00  0.00    -0.003 C 
ATOM     26  C   UNL     1     -10.806   2.574  52.822  1.00  0.00     0.004 C 
ENDBRANCH  24  25
ENDBRANCH  23  24
ENDBRANCH  22  23
ENDBRANCH  21  22
ENDBRANCH  20  21
ENDBRANCH  19  20
ENDBRANCH  18  19
ENDBRANCH  17  18
ENDBRANCH  16  17
ENDBRANCH  15  16
ENDBRANCH   1  15
TORSDOF 22
ENDMDL
MODEL 2
REMARK VINA RESULT:    -3.890      9.537     11.729
REMARK INTER + INTRA:         -13.043
REMARK INTER:                  -9.729
REMARK INTRA:                  -3.314
REMARK UNBOUND:                -4.149
REMARK SMILES CCCCCCCCCCCCCCCCCCCCCCCC(=O)[O-]
REMARK SMILES IDX 13 1 14 2 15 3 16 4 17 5 18 6 19 7 20 8 21 9 22 10 23 11
REMARK SMILES IDX 24 12 25 13 26 14 12 15 11 16 10 17 9 18 8 19 7 20 6 21 5 22
REMARK SMILES IDX 4 23 3 24 2 25 1 26
REMARK H PARENT
REMARK Flexibility Score: inf
ROOT
ATOM      1  C   UNL     1       0.902   2.329  59.133  1.00  0.00     0.000 C 
ENDROOT
BRANCH   1   2
ATOM      2  C   UNL     1       1.879   1.520  60.005  1.00  0.00     0.000 C 
BRANCH   2   3
ATOM      3  C   UNL     1       2.343   0.177  59.404  1.00  0.00     0.000 C 
BRANCH   3   4
ATOM      4  C   UNL     1       2.752  -0.897  60.431  1.00  0.00     0.000 C 
BRANCH   4   5
ATOM      5  C   UNL     1       1.642  -1.909  60.768  1.00  0.00     0.000 C 
BRANCH   5   6
ATOM      6  C   UNL     1       0.310  -1.239  61.186  1.00  0.00     0.000 C 
BRANCH   6   7
ATOM      7  C   UNL     1      -0.933  -2.047  60.773  1.00  0.00     0.000 C 
BRANCH   7   8
ATOM      8  C   UNL     1      -0.997  -3.408  61.486  1.00  0.00     0.000 C 
BRANCH   8   9
ATOM      9  C   UNL     1      -1.079  -3.274  63.016  1.00  0.00     0.000 C 
BRANCH   9  10
ATOM     10  C   UNL     1      -0.242  -4.332  63.751  1.00  0.00     0.006 C 
BRANCH  10  11
ATOM     11  C   UNL     1       0.788  -3.672  64.672  1.00  0.00     0.053 C 
BRANCH  11  12
ATOM     12  C   UNL     1       2.170  -3.840  64.124  1.00  0.00     0.041 C 
ATOM     13  O   UNL     1       3.154  -3.306  64.704  1.00  0.00    -0.550 OA
ATOM     14  O   UNL     1       2.379  -4.611  62.988  1.00  0.00    -0.550 OA
ENDBRANCH  11  12
ENDBRANCH  10  11
ENDBRANCH   9  10
ENDBRANCH   8   9
ENDBRANCH   7   8
ENDBRANCH   6   7
ENDBRANCH   5   6
ENDBRANCH   4   5
ENDBRANCH   3   4
ENDBRANCH   2   3
ENDBRANCH   1   2
BRANCH   1  15
ATOM     15  C   UNL     1      -0.344   1.524  58.722  1.00  0.00     0.000 C 
BRANCH  15  16
ATOM     16  C   UNL     1      -0.419   1.306  57.201  1.00  0.00     0.000 C 
BRANCH  16  17
ATOM     17  C   UNL     1       0.776   1.930  56.458  1.00  0.00     0.000 C 
BRANCH  17  18
ATOM     18  C   UNL     1       1.640   0.872  55.740  1.00  0.00    -0.000 C 
BRANCH  18  19
ATOM     19  C   UNL     1       2.366   1.402  54.487  1.00  0.00    -0.000 C 
BRANCH  19  20
ATOM     20  C   UNL     1       3.036   0.325  53.617  1.00  0.00    -0.000 C 
BRANCH  20  21
ATOM     21  C   UNL     1       2.152  -0.897  53.298  1.00  0.00    -0.000 C 
BRANCH  21  22
ATOM     22  C   UNL     1       2.695  -2.223  53.872  1.00  0.00    -0.000 C 
BRANCH  22  23
ATOM     23  C   UNL     1       3.726  -1.997  54.992  1.00  0.00    -0.000 C 
BRANCH  23  24
ATOM     24  C   UNL     1       3.217  -2.458  56.367  1.00  0.00    -0.000 C 
BRANCH  24  25
ATOM     25  C   UNL     1       1.830  -3.112  56.293  1.00  0.00    -0.003 C 
ATOM     26  C   UNL     1       0.830  -2.385  57.187  1.00  0.00     0.004 C 
ENDBRANCH  24  25
ENDBRANCH  23  24
ENDBRANCH  22  23
ENDBRANCH  21  22
ENDBRANCH  20  21
ENDBRANCH  19  20
ENDBRANCH  18  19
ENDBRANCH  17  18
ENDBRANCH  16  17
ENDBRANCH  15  16
ENDBRANCH   1  15
TORSDOF 22
ENDMDL
MODEL 3
REMARK VINA RESULT:    -3.885      8.832     10.923
REMARK INTER + INTRA:         -13.030
REMARK INTER:                  -8.732
REMARK INTRA:                  -4.297
REMARK UNBOUND:                -4.149
REMARK SMILES CCCCCCCCCCCCCCCCCCCCCCCC(=O)[O-]
REMARK SMILES IDX 13 1 14 2 15 3 16 4 17 5 18 6 19 7 20 8 21 9 22 10 23 11
REMARK SMILES IDX 24 12 25 13 26 14 12 15 11 16 10 17 9 18 8 19 7 20 6 21 5 22
REMARK SMILES IDX 4 23 3 24 2 25 1 26
REMARK H PARENT
REMARK Flexibility Score: inf
ROOT
ATOM      1  C   UNL     1      -0.293  -3.167  55.489  1.00  0.00     0.000 C 
ENDROOT
BRANCH   1   2
ATOM      2  C   UNL     1       1.227  -2.995  55.664  1.00  0.00     0.000 C 
BRANCH   2   3
ATOM      3  C   UNL     1       2.081  -3.385  54.440  1.00  0.00     0.000 C 
BRANCH   3   4
ATOM      4  C   UNL     1       3.144  -2.350  54.023  1.00  0.00     0.000 C 
BRANCH   4   5
ATOM      5  C   UNL     1       2.577  -1.113  53.303  1.00  0.00     0.000 C 
BRANCH   5   6
ATOM      6  C   UNL     1       3.157   0.222  53.829  1.00  0.00     0.000 C 
BRANCH   6   7
ATOM      7  C   UNL     1       2.759   0.529  55.282  1.00  0.00     0.000 C 
BRANCH   7   8
ATOM      8  C   UNL     1       1.445   1.326  55.362  1.00  0.00     0.000 C 
BRANCH   8   9
ATOM      9  C   UNL     1       0.918   1.461  56.800  1.00  0.00     0.000 C 
BRANCH   9  10
ATOM     10  C   UNL     1       1.118   0.183  57.629  1.00  0.00     0.006 C 
BRANCH  10  11
ATOM     11  C   UNL     1       1.548   0.521  59.059  1.00  0.00     0.053 C 
BRANCH  11  12
ATOM     12  C   UNL     1       0.590  -0.063  60.050  1.00  0.00     0.041 C 
ATOM     13  O   UNL     1       0.352   0.535  61.133  1.00  0.00    -0.550 OA
ATOM     14  O   UNL     1      -0.062  -1.256  59.766  1.00  0.00    -0.550 OA
ENDBRANCH  11  12
ENDBRANCH  10  11
ENDBRANCH   9  10
ENDBRANCH   8   9
ENDBRANCH   7   8
ENDBRANCH   6   7
ENDBRANCH   5   6
ENDBRANCH   4   5
ENDBRANCH   3   4
ENDBRANCH   2   3
ENDBRANCH   1   2
BRANCH   1  15
ATOM     15  C   UNL     1      -1.030  -1.829  55.304  1.00  0.00     0.000 C 
BRANCH  15  16
ATOM     16  C   UNL     1      -2.550  -2.018  55.150  1.00  0.00     0.000 C 
BRANCH  16  17
ATOM     17  C   UNL     1      -2.944  -3.499  54.998  1.00  0.00     0.000 C 
BRANCH  17  18
ATOM     18  C   UNL     1      -3.858  -3.743  53.779  1.00  0.00    -0.000 C 
BRANCH  18  19
ATOM     19  C   UNL     1      -3.977  -2.530  52.835  1.00  0.00    -0.000 C 
BRANCH  19  20
ATOM     20  C   UNL     1      -3.194  -2.650  51.516  1.00  0.00    -0.000 C 
BRANCH  20  21
ATOM     21  C   UNL     1      -1.852  -1.889  51.485  1.00  0.00    -0.000 C 
BRANCH  21  22
ATOM     22  C   UNL     1      -0.633  -2.766  51.844  1.00  0.00    -0.000 C 
BRANCH  22  23
ATOM     23  C   UNL     1      -0.814  -4.228  51.402  1.00  0.00    -0.000 C 
BRANCH  23  24
ATOM     24  C   UNL     1      -0.464  -5.230  52.514  1.00  0.00    -0.000 C 
BRANCH  24  25
ATOM     25  C   UNL     1      -1.586  -6.249  52.765  1.00  0.00    -0.003 C 
ATOM     26  C   UNL     1      -2.450  -6.434  51.521  1.00  0.00     0.004 C 
ENDBRANCH  24  25
ENDBRANCH  23  24
ENDBRANCH  22  23
ENDBRANCH  21  22
ENDBRANCH  20  21
ENDBRANCH  19  20
ENDBRANCH  18  19
ENDBRANCH  17  18
ENDBRANCH  16  17
ENDBRANCH  15  16
ENDBRANCH   1  15
TORSDOF 22
ENDMDL
MODEL 4
REMARK VINA RESULT:    -3.880      9.565     12.873
REMARK INTER + INTRA:         -13.019
REMARK INTER:                  -8.834
REMARK INTRA:                  -4.185
REMARK UNBOUND:                -4.149
REMARK SMILES CCCCCCCCCCCCCCCCCCCCCCCC(=O)[O-]
REMARK SMILES IDX 13 1 14 2 15 3 16 4 17 5 18 6 19 7 20 8 21 9 22 10 23 11
REMARK SMILES IDX 24 12 25 13 26 14 12 15 11 16 10 17 9 18 8 19 7 20 6 21 5 22
REMARK SMILES IDX 4 23 3 24 2 25 1 26
REMARK H PARENT
REMARK Flexibility Score: inf
ROOT
ATOM      1  C   UNL     1       2.168   1.395  54.559  1.00  0.00     0.000 C 
ENDROOT
BRANCH   1   2
ATOM      2  C   UNL     1       2.841   0.380  53.618  1.00  0.00     0.000 C 
BRANCH   2   3
ATOM      3  C   UNL     1       2.190  -1.019  53.581  1.00  0.00     0.000 C 
BRANCH   3   4
ATOM      4  C   UNL     1       3.144  -2.196  53.867  1.00  0.00     0.000 C 
BRANCH   4   5
ATOM      5  C   UNL     1       3.944  -2.061  55.175  1.00  0.00     0.000 C 
BRANCH   5   6
ATOM      6  C   UNL     1       4.311  -3.424  55.813  1.00  0.00     0.000 C 
BRANCH   6   7
ATOM      7  C   UNL     1       3.691  -4.625  55.080  1.00  0.00     0.000 C 
BRANCH   7   8
ATOM      8  C   UNL     1       2.564  -5.278  55.898  1.00  0.00     0.000 C 
BRANCH   8   9
ATOM      9  C   UNL     1       1.513  -5.971  55.015  1.00  0.00     0.000 C 
BRANCH   9  10
ATOM     10  C   UNL     1       1.072  -5.105  53.826  1.00  0.00     0.006 C 
BRANCH  10  11
ATOM     11  C   UNL     1      -0.014  -4.111  54.246  1.00  0.00     0.053 C 
BRANCH  11  12
ATOM     12  C   UNL     1      -0.671  -3.506  53.045  1.00  0.00     0.041 C 
ATOM     13  O   UNL     1      -1.346  -2.448  53.154  1.00  0.00    -0.550 OA
ATOM     14  O   UNL     1      -0.515  -4.096  51.797  1.00  0.00    -0.550 OA
ENDBRANCH  11  12
ENDBRANCH  10  11
ENDBRANCH   9  10
ENDBRANCH   8   9
ENDBRANCH   7   8
ENDBRANCH   6   7
ENDBRANCH   5   6
ENDBRANCH   4   5
ENDBRANCH   3   4
ENDBRANCH   2   3
ENDBRANCH   1   2
BRANCH   1  15
ATOM     15  C   UNL     1       1.193   0.738  55.551  1.00  0.00     0.000 C 
BRANCH  15  16
ATOM     16  C   UNL     1       0.843   1.668  56.726  1.00  0.00     0.000 C 
BRANCH  16  17
ATOM     17  C   UNL     1      -0.656   1.633  57.076  1.00  0.00     0.000 C 
BRANCH  17  18
ATOM     18  C   UNL     1      -1.092   0.273  57.660  1.00  0.00    -0.000 C 
BRANCH  18  19
ATOM     19  C   UNL     1      -1.253   0.274  59.193  1.00  0.00    -0.000 C 
BRANCH  19  20
ATOM     20  C   UNL     1      -0.723   1.531  59.905  1.00  0.00    -0.000 C 
BRANCH  20  21
ATOM     21  C   UNL     1       0.605   1.337  60.664  1.00  0.00    -0.000 C 
BRANCH  21  22
ATOM     22  C   UNL     1       1.306  -0.004  60.358  1.00  0.00    -0.000 C 
BRANCH  22  23
ATOM     23  C   UNL     1       2.564   0.180  59.490  1.00  0.00    -0.000 C 
BRANCH  23  24
ATOM     24  C   UNL     1       2.786  -0.987  58.515  1.00  0.00    -0.000 C 
BRANCH  24  25
ATOM     25  C   UNL     1       1.769  -2.121  58.711  1.00  0.00    -0.003 C 
ATOM     26  C   UNL     1       1.050  -2.449  57.405  1.00  0.00     0.004 C 
ENDBRANCH  24  25
ENDBRANCH  23  24
ENDBRANCH  22  23
ENDBRANCH  21  22
ENDBRANCH  20  21
ENDBRANCH  19  20
ENDBRANCH  18  19
ENDBRANCH  17  18
ENDBRANCH  16  17
ENDBRANCH  15  16
ENDBRANCH   1  15
TORSDOF 22
ENDMDL
MODEL 5
REMARK VINA RESULT:    -3.850      2.828      4.109
REMARK INTER + INTRA:         -12.951
REMARK INTER:                  -8.915
REMARK INTRA:                  -4.036
REMARK UNBOUND:                -4.149
REMARK SMILES CCCCCCCCCCCCCCCCCCCCCCCC(=O)[O-]
REMARK SMILES IDX 13 1 14 2 15 3 16 4 17 5 18 6 19 7 20 8 21 9 22 10 23 11
REMARK SMILES IDX 24 12 25 13 26 14 12 15 11 16 10 17 9 18 8 19 7 20 6 21 5 22
REMARK SMILES IDX 4 23 3 24 2 25 1 26
REMARK H PARENT
REMARK Flexibility Score: inf
ROOT
ATOM      1  C   UNL     1      -6.137   5.109  56.283  1.00  0.00     0.000 C 
ENDROOT
BRANCH   1   2
ATOM      2  C   UNL     1      -6.221   5.809  57.651  1.00  0.00     0.000 C 
BRANCH   2   3
ATOM      3  C   UNL     1      -7.645   6.182  58.116  1.00  0.00     0.000 C 
BRANCH   3   4
ATOM      4  C   UNL     1      -8.198   5.340  59.282  1.00  0.00     0.000 C 
BRANCH   4   5
ATOM      5  C   UNL     1      -7.119   4.779  60.227  1.00  0.00     0.000 C 
BRANCH   5   6
ATOM      6  C   UNL     1      -7.097   3.232  60.281  1.00  0.00     0.000 C 
BRANCH   6   7
ATOM      7  C   UNL     1      -7.489   2.570  58.950  1.00  0.00     0.000 C 
BRANCH   7   8
ATOM      8  C   UNL     1      -6.321   1.781  58.334  1.00  0.00     0.000 C 
BRANCH   8   9
ATOM      9  C   UNL     1      -4.962   2.154  58.950  1.00  0.00     0.000 C 
BRANCH   9  10
ATOM     10  C   UNL     1      -3.986   2.745  57.921  1.00  0.00     0.006 C 
BRANCH  10  11
ATOM     11  C   UNL     1      -2.819   1.787  57.663  1.00  0.00     0.053 C 
BRANCH  11  12
ATOM     12  C   UNL     1      -2.246   1.293  58.955  1.00  0.00     0.041 C 
ATOM     13  O   UNL     1      -1.561   2.060  59.682  1.00  0.00    -0.550 OA
ATOM     14  O   UNL     1      -2.493  -0.009  59.372  1.00  0.00    -0.550 OA
ENDBRANCH  11  12
ENDBRANCH  10  11
ENDBRANCH   9  10
ENDBRANCH   8   9
ENDBRANCH   7   8
ENDBRANCH   6   7
ENDBRANCH   5   6
ENDBRANCH   4   5
ENDBRANCH   3   4
ENDBRANCH   2   3
ENDBRANCH   1   2
BRANCH   1  15
ATOM     15  C   UNL     1      -7.511   4.937  55.612  1.00  0.00     0.000 C 
BRANCH  15  16
ATOM     16  C   UNL     1      -7.736   3.501  55.106  1.00  0.00     0.000 C 
BRANCH  16  17
ATOM     17  C   UNL     1      -6.425   2.817  54.680  1.00  0.00     0.000 C 
BRANCH  17  18
ATOM     18  C   UNL     1      -6.295   2.696  53.147  1.00  0.00    -0.000 C 
BRANCH  18  19
ATOM     19  C   UNL     1      -7.640   2.490  52.420  1.00  0.00    -0.000 C 
BRANCH  19  20
ATOM     20  C   UNL     1      -7.838   3.348  51.158  1.00  0.00    -0.000 C 
BRANCH  20  21
ATOM     21  C   UNL     1      -7.078   4.689  51.158  1.00  0.00    -0.000 C 
BRANCH  21  22
ATOM     22  C   UNL     1      -7.798   5.811  51.938  1.00  0.00    -0.000 C 
BRANCH  22  23
ATOM     23  C   UNL     1      -9.314   5.824  51.676  1.00  0.00    -0.000 C 
BRANCH  23  24
ATOM     24  C   UNL     1     -10.139   5.843  52.973  1.00  0.00    -0.000 C 
BRANCH  24  25
ATOM     25  C   UNL     1     -10.751   4.474  53.303  1.00  0.00    -0.003 C 
ATOM     26  C   UNL     1     -11.340   4.458  54.711  1.00  0.00     0.004 C 
ENDBRANCH  24  25
ENDBRANCH  23  24
ENDBRANCH  22  23
ENDBRANCH  21  22
ENDBRANCH  20  21
ENDBRANCH  19  20
ENDBRANCH  18  19
ENDBRANCH  17  18
ENDBRANCH  16  17
ENDBRANCH  15  16
ENDBRANCH   1  15
TORSDOF 22
ENDMDL
MODEL 6
REMARK VINA RESULT:    -3.848      2.216      3.849
REMARK INTER + INTRA:         -12.946
REMARK INTER:                  -8.643
REMARK INTRA:                  -4.303
REMARK UNBOUND:                -4.149
REMARK SMILES CCCCCCCCCCCCCCCCCCCCCCCC(=O)[O-]
REMARK SMILES IDX 13 1 14 2 15 3 16 4 17 5 18 6 19 7 20 8 21 9 22 10 23 11
REMARK SMILES IDX 24 12 25 13 26 14 12 15 11 16 10 17 9 18 8 19 7 20 6 21 5 22
REMARK SMILES IDX 4 23 3 24 2 25 1 26
REMARK H PARENT
REMARK Flexibility Score: inf
ROOT
ATOM      1  C   UNL     1      -6.961   5.582  55.140  1.00  0.00     0.000 C 
ENDROOT
BRANCH   1   2
ATOM      2  C   UNL     1      -7.823   6.523  56.001  1.00  0.00     0.000 C 
BRANCH   2   3
ATOM      3  C   UNL     1      -9.271   6.726  55.510  1.00  0.00     0.000 C 
BRANCH   3   4
ATOM      4  C   UNL     1     -10.367   6.431  56.554  1.00  0.00     0.000 C 
BRANCH   4   5
ATOM      5  C   UNL     1      -9.858   6.356  58.004  1.00  0.00     0.000 C 
BRANCH   5   6
ATOM      6  C   UNL     1      -9.673   4.905  58.514  1.00  0.00     0.000 C 
BRANCH   6   7
ATOM      7  C   UNL     1      -8.587   4.774  59.595  1.00  0.00     0.000 C 
BRANCH   7   8
ATOM      8  C   UNL     1      -8.011   6.142  60.001  1.00  0.00     0.000 C 
BRANCH   8   9
ATOM      9  C   UNL     1      -6.491   6.104  60.228  1.00  0.00     0.000 C 
BRANCH   9  10
ATOM     10  C   UNL     1      -5.717   5.625  58.991  1.00  0.00     0.006 C 
BRANCH  10  11
ATOM     11  C   UNL     1      -4.584   4.675  59.389  1.00  0.00     0.053 C 
BRANCH  11  12
ATOM     12  C   UNL     1      -4.735   3.355  58.700  1.00  0.00     0.041 C 
ATOM     13  O   UNL     1      -4.045   3.087  57.680  1.00  0.00    -0.550 OA
ATOM     14  O   UNL     1      -5.618   2.407  59.201  1.00  0.00    -0.550 OA
ENDBRANCH  11  12
ENDBRANCH  10  11
ENDBRANCH   9  10
ENDBRANCH   8   9
ENDBRANCH   7   8
ENDBRANCH   6   7
ENDBRANCH   5   6
ENDBRANCH   4   5
ENDBRANCH   3   4
ENDBRANCH   2   3
ENDBRANCH   1   2
BRANCH   1  15
ATOM     15  C   UNL     1      -6.842   4.167  55.732  1.00  0.00     0.000 C 
BRANCH  15  16
ATOM     16  C   UNL     1      -6.384   3.135  54.686  1.00  0.00     0.000 C 
BRANCH  16  17
ATOM     17  C   UNL     1      -6.000   3.789  53.346  1.00  0.00     0.000 C 
BRANCH  17  18
ATOM     18  C   UNL     1      -7.006   3.461  52.222  1.00  0.00    -0.000 C 
BRANCH  18  19
ATOM     19  C   UNL     1      -7.223   4.613  51.221  1.00  0.00    -0.000 C 
BRANCH  19  20
ATOM     20  C   UNL     1      -8.131   5.751  51.722  1.00  0.00    -0.000 C 
BRANCH  20  21
ATOM     21  C   UNL     1      -9.557   5.749  51.137  1.00  0.00    -0.000 C 
BRANCH  21  22
ATOM     22  C   UNL     1     -10.655   5.434  52.177  1.00  0.00    -0.000 C 
BRANCH  22  23
ATOM     23  C   UNL     1     -10.663   3.951  52.587  1.00  0.00    -0.000 C 
BRANCH  23  24
ATOM     24  C   UNL     1     -10.249   3.740  54.052  1.00  0.00    -0.000 C 
BRANCH  24  25
ATOM     25  C   UNL     1     -10.071   2.257  54.406  1.00  0.00    -0.003 C 
ATOM     26  C   UNL     1      -9.815   2.074  55.900  1.00  0.00     0.004 C 
ENDBRANCH  24  25
ENDBRANCH  23  24
ENDBRANCH  22  23
ENDBRANCH  21  22
ENDBRANCH  20  21
ENDBRANCH  19  20
ENDBRANCH  18  19
ENDBRANCH  17  18
ENDBRANCH  16  17
ENDBRANCH  15  16
ENDBRANCH   1  15
TORSDOF 22
ENDMDL
MODEL 7
REMARK VINA RESULT:    -3.833      6.794      9.691
REMARK INTER + INTRA:         -12.911
REMARK INTER:                  -9.745
REMARK INTRA:                  -3.165
REMARK UNBOUND:                -4.149
REMARK SMILES CCCCCCCCCCCCCCCCCCCCCCCC(=O)[O-]
REMARK SMILES IDX 13 1 14 2 15 3 16 4 17 5 18 6 19 7 20 8 21 9 22 10 23 11
REMARK SMILES IDX 24 12 25 13 26 14 12 15 11 16 10 17 9 18 8 19 7 20 6 21 5 22
REMARK SMILES IDX 4 23 3 24 2 25 1 26
REMARK H PARENT
REMARK Flexibility Score: inf
ROOT
ATOM      1  C   UNL     1       0.587   1.480  56.227  1.00  0.00     0.000 C 
ENDROOT
BRANCH   1   2
ATOM      2  C   UNL     1      -0.201   0.158  56.276  1.00  0.00     0.000 C 
BRANCH   2   3
ATOM      3  C   UNL     1      -1.580   0.236  56.964  1.00  0.00     0.000 C 
BRANCH   3   4
ATOM      4  C   UNL     1      -1.989   1.637  57.461  1.00  0.00     0.000 C 
BRANCH   4   5
ATOM      5  C   UNL     1      -3.385   1.699  58.105  1.00  0.00     0.000 C 
BRANCH   5   6
ATOM      6  C   UNL     1      -3.396   2.420  59.475  1.00  0.00     0.000 C 
BRANCH   6   7
ATOM      7  C   UNL     1      -4.607   3.350  59.665  1.00  0.00     0.000 C 
BRANCH   7   8
ATOM      8  C   UNL     1      -4.781   4.314  58.478  1.00  0.00     0.000 C 
BRANCH   8   9
ATOM      9  C   UNL     1      -6.213   4.315  57.918  1.00  0.00     0.000 C 
BRANCH   9  10
ATOM     10  C   UNL     1      -6.289   4.851  56.481  1.00  0.00     0.006 C 
BRANCH  10  11
ATOM     11  C   UNL     1      -5.651   3.866  55.496  1.00  0.00     0.053 C 
BRANCH  11  12
ATOM     12  C   UNL     1      -6.417   3.836  54.210  1.00  0.00     0.041 C 
ATOM     13  O   UNL     1      -7.433   4.566  54.058  1.00  0.00    -0.550 OA
ATOM     14  O   UNL     1      -5.993   3.021  53.168  1.00  0.00    -0.550 OA
ENDBRANCH  11  12
ENDBRANCH  10  11
ENDBRANCH   9  10
ENDBRANCH   8   9
ENDBRANCH   7   8
ENDBRANCH   6   7
ENDBRANCH   5   6
ENDBRANCH   4   5
ENDBRANCH   3   4
ENDBRANCH   2   3
ENDBRANCH   1   2
BRANCH   1  15
ATOM     15  C   UNL     1       2.029   1.301  55.719  1.00  0.00     0.000 C 
BRANCH  15  16
ATOM     16  C   UNL     1       2.113   1.336  54.183  1.00  0.00     0.000 C 
BRANCH  16  17
ATOM     17  C   UNL     1       2.938   0.168  53.613  1.00  0.00     0.000 C 
BRANCH  17  18
ATOM     18  C   UNL     1       2.108  -1.125  53.471  1.00  0.00    -0.000 C 
BRANCH  18  19
ATOM     19  C   UNL     1       2.793  -2.376  54.056  1.00  0.00    -0.000 C 
BRANCH  19  20
ATOM     20  C   UNL     1       3.563  -2.145  55.368  1.00  0.00    -0.000 C 
BRANCH  20  21
ATOM     21  C   UNL     1       2.719  -2.289  56.651  1.00  0.00    -0.000 C 
BRANCH  21  22
ATOM     22  C   UNL     1       3.169  -1.360  57.799  1.00  0.00    -0.000 C 
BRANCH  22  23
ATOM     23  C   UNL     1       2.022  -1.035  58.771  1.00  0.00    -0.000 C 
BRANCH  23  24
ATOM     24  C   UNL     1       2.140   0.374  59.375  1.00  0.00    -0.000 C 
BRANCH  24  25
ATOM     25  C   UNL     1       0.862   0.811  60.106  1.00  0.00    -0.003 C 
ATOM     26  C   UNL     1       0.699   2.328  60.070  1.00  0.00     0.004 C 
ENDBRANCH  24  25
ENDBRANCH  23  24
ENDBRANCH  22  23
ENDBRANCH  21  22
ENDBRANCH  20  21
ENDBRANCH  19  20
ENDBRANCH  18  19
ENDBRANCH  17  18
ENDBRANCH  16  17
ENDBRANCH  15  16
ENDBRANCH   1  15
TORSDOF 22
ENDMDL
MODEL 8
REMARK VINA RESULT:    -3.830      2.000      3.820
REMARK INTER + INTRA:         -12.905
REMARK INTER:                  -8.170
REMARK INTRA:                  -4.735
REMARK UNBOUND:                -4.149
REMARK SMILES CCCCCCCCCCCCCCCCCCCCCCCC(=O)[O-]
REMARK SMILES IDX 13 1 14 2 15 3 16 4 17 5 18 6 19 7 20 8 21 9 22 10 23 11
REMARK SMILES IDX 24 12 25 13 26 14 12 15 11 16 10 17 9 18 8 19 7 20 6 21 5 22
REMARK SMILES IDX 4 23 3 24 2 25 1 26
REMARK H PARENT
REMARK Flexibility Score: inf
ROOT
ATOM      1  C   UNL     1      -6.072   3.300  54.654  1.00  0.00     0.000 C 
ENDROOT
BRANCH   1   2
ATOM      2  C   UNL     1      -6.386   4.172  55.883  1.00  0.00     0.000 C 
BRANCH   2   3
ATOM      3  C   UNL     1      -6.634   5.666  55.587  1.00  0.00     0.000 C 
BRANCH   3   4
ATOM      4  C   UNL     1      -7.519   6.402  56.612  1.00  0.00     0.000 C 
BRANCH   4   5
ATOM      5  C   UNL     1      -7.595   5.721  57.990  1.00  0.00     0.000 C 
BRANCH   5   6
ATOM      6  C   UNL     1      -8.993   5.139  58.311  1.00  0.00     0.000 C 
BRANCH   6   7
ATOM      7  C   UNL     1      -8.962   4.033  59.379  1.00  0.00     0.000 C 
BRANCH   7   8
ATOM      8  C   UNL     1      -9.082   2.630  58.759  1.00  0.00     0.000 C 
BRANCH   8   9
ATOM      9  C   UNL     1      -7.715   1.984  58.482  1.00  0.00     0.000 C 
BRANCH   9  10
ATOM     10  C   UNL     1      -6.648   2.387  59.511  1.00  0.00     0.006 C 
BRANCH  10  11
ATOM     11  C   UNL     1      -5.252   2.385  58.881  1.00  0.00     0.053 C 
BRANCH  11  12
ATOM     12  C   UNL     1      -4.415   3.489  59.449  1.00  0.00     0.041 C 
ATOM     13  O   UNL     1      -3.537   3.238  60.317  1.00  0.00    -0.550 OA
ATOM     14  O   UNL     1      -4.585   4.792  59.000  1.00  0.00    -0.550 OA
ENDBRANCH  11  12
ENDBRANCH  10  11
ENDBRANCH   9  10
ENDBRANCH   8   9
ENDBRANCH   7   8
ENDBRANCH   6   7
ENDBRANCH   5   6
ENDBRANCH   4   5
ENDBRANCH   3   4
ENDBRANCH   2   3
ENDBRANCH   1   2
BRANCH   1  15
ATOM     15  C   UNL     1      -6.431   3.986  53.324  1.00  0.00     0.000 C 
BRANCH  15  16
ATOM     16  C   UNL     1      -7.046   3.005  52.311  1.00  0.00     0.000 C 
BRANCH  16  17
ATOM     17  C   UNL     1      -7.725   3.727  51.133  1.00  0.00     0.000 C 
BRANCH  17  18
ATOM     18  C   UNL     1      -7.986   5.219  51.429  1.00  0.00    -0.000 C 
BRANCH  18  19
ATOM     19  C   UNL     1      -9.389   5.704  51.012  1.00  0.00    -0.000 C 
BRANCH  19  20
ATOM     20  C   UNL     1     -10.328   6.063  52.176  1.00  0.00    -0.000 C 
BRANCH  20  21
ATOM     21  C   UNL     1      -9.675   6.029  53.572  1.00  0.00    -0.000 C 
BRANCH  21  22
ATOM     22  C   UNL     1     -10.456   5.186  54.603  1.00  0.00    -0.000 C 
BRANCH  22  23
ATOM     23  C   UNL     1      -9.901   3.756  54.730  1.00  0.00    -0.000 C 
BRANCH  23  24
ATOM     24  C   UNL     1     -10.572   2.772  53.759  1.00  0.00    -0.000 C 
BRANCH  24  25
ATOM     25  C   UNL     1      -9.962   1.365  53.829  1.00  0.00    -0.003 C 
ATOM     26  C   UNL     1      -9.120   1.192  55.090  1.00  0.00     0.004 C 
ENDBRANCH  24  25
ENDBRANCH  23  24
ENDBRANCH  22  23
ENDBRANCH  21  22
ENDBRANCH  20  21
ENDBRANCH  19  20
ENDBRANCH  18  19
ENDBRANCH  17  18
ENDBRANCH  16  17
ENDBRANCH  15  16
ENDBRANCH   1  15
TORSDOF 22
ENDMDL
MODEL 9
REMARK VINA RESULT:    -3.813      2.433      4.083
REMARK INTER + INTRA:         -12.867
REMARK INTER:                  -8.530
REMARK INTRA:                  -4.336
REMARK UNBOUND:                -4.149
REMARK SMILES CCCCCCCCCCCCCCCCCCCCCCCC(=O)[O-]
REMARK SMILES IDX 13 1 14 2 15 3 16 4 17 5 18 6 19 7 20 8 21 9 22 10 23 11
REMARK SMILES IDX 24 12 25 13 26 14 12 15 11 16 10 17 9 18 8 19 7 20 6 21 5 22
REMARK SMILES IDX 4 23 3 24 2 25 1 26
REMARK H PARENT
REMARK Flexibility Score: inf
ROOT
ATOM      1  C   UNL     1      -5.854   3.967  54.661  1.00  0.00     0.000 C 
ENDROOT
BRANCH   1   2
ATOM      2  C   UNL     1      -7.261   4.349  55.152  1.00  0.00     0.000 C 
BRANCH   2   3
ATOM      3  C   UNL     1      -7.560   5.862  55.191  1.00  0.00     0.000 C 
BRANCH   3   4
ATOM      4  C   UNL     1      -7.319   6.546  56.551  1.00  0.00     0.000 C 
BRANCH   4   5
ATOM      5  C   UNL     1      -7.857   5.760  57.760  1.00  0.00     0.000 C 
BRANCH   5   6
ATOM      6  C   UNL     1      -6.932   5.833  59.000  1.00  0.00     0.000 C 
BRANCH   6   7
ATOM      7  C   UNL     1      -5.436   5.857  58.643  1.00  0.00     0.000 C 
BRANCH   7   8
ATOM      8  C   UNL     1      -4.717   4.574  59.094  1.00  0.00     0.000 C 
BRANCH   8   9
ATOM      9  C   UNL     1      -4.843   3.431  58.074  1.00  0.00     0.000 C 
BRANCH   9  10
ATOM     10  C   UNL     1      -5.561   2.200  58.647  1.00  0.00     0.006 C 
BRANCH  10  11
ATOM     11  C   UNL     1      -7.005   2.125  58.144  1.00  0.00     0.053 C 
BRANCH  11  12
ATOM     12  C   UNL     1      -7.780   1.102  58.914  1.00  0.00     0.041 C 
ATOM     13  O   UNL     1      -9.002   0.914  58.670  1.00  0.00    -0.550 OA
ATOM     14  O   UNL     1      -7.146   0.334  59.882  1.00  0.00    -0.550 OA
ENDBRANCH  11  12
ENDBRANCH  10  11
ENDBRANCH   9  10
ENDBRANCH   8   9
ENDBRANCH   7   8
ENDBRANCH   6   7
ENDBRANCH   5   6
ENDBRANCH   4   5
ENDBRANCH   3   4
ENDBRANCH   2   3
ENDBRANCH   1   2
BRANCH   1  15
ATOM     15  C   UNL     1      -5.852   3.394  53.232  1.00  0.00     0.000 C 
BRANCH  15  16
ATOM     16  C   UNL     1      -7.129   2.593  52.925  1.00  0.00     0.000 C 
BRANCH  16  17
ATOM     17  C   UNL     1      -7.834   3.081  51.646  1.00  0.00     0.000 C 
BRANCH  17  18
ATOM     18  C   UNL     1      -7.165   4.335  51.047  1.00  0.00    -0.000 C 
BRANCH  18  19
ATOM     19  C   UNL     1      -7.906   5.650  51.361  1.00  0.00    -0.000 C 
BRANCH  19  20
ATOM     20  C   UNL     1      -9.441   5.551  51.360  1.00  0.00    -0.000 C 
BRANCH  20  21
ATOM     21  C   UNL     1     -10.130   6.114  52.619  1.00  0.00    -0.000 C 
BRANCH  21  22
ATOM     22  C   UNL     1     -11.411   5.352  53.020  1.00  0.00    -0.000 C 
BRANCH  22  23
ATOM     23  C   UNL     1     -11.241   4.578  54.339  1.00  0.00    -0.000 C 
BRANCH  23  24
ATOM     24  C   UNL     1     -10.657   3.172  54.129  1.00  0.00    -0.000 C 
BRANCH  24  25
ATOM     25  C   UNL     1     -10.304   2.476  55.451  1.00  0.00    -0.003 C 
ATOM     26  C   UNL     1     -10.534   3.404  56.641  1.00  0.00     0.004 C 
ENDBRANCH  24  25
ENDBRANCH  23  24
ENDBRANCH  22  23
ENDBRANCH  21  22
ENDBRANCH  20  21
ENDBRANCH  19  20
ENDBRANCH  18  19
ENDBRANCH  17  18
ENDBRANCH  16  17
ENDBRANCH  15  16
ENDBRANCH   1  15
TORSDOF 22
ENDMDL
