MODEL 1
REMARK VINA RESULT:    -4.337      0.000      0.000
REMARK INTER + INTRA:          -6.969
REMARK INTER:                  -6.618
REMARK INTRA:                  -0.350
REMARK UNBOUND:                -0.350
REMARK SMILES O=C([O-])CCCCCCCCC(=O)[O-]
REMARK SMILES IDX 7 1 6 2 5 3 4 4 2 5 1 6 3 7 8 8 9 9 10 10 11 11 12 12 13 13
REMARK SMILES IDX 14 14
REMARK H PARENT
REMARK Flexibility Score: inf
ROOT
ATOM      1  C   UNL     1       0.936   2.520   8.285  1.00  0.00     0.000 C 
ENDROOT
BRANCH   1   2
ATOM      2  C   UNL     1       0.437   3.967   8.167  1.00  0.00     0.000 C 
BRANCH   2   3
ATOM      3  C   UNL     1       0.565   4.477   6.724  1.00  0.00     0.006 C 
BRANCH   3   4
ATOM      4  C   UNL     1      -0.375   5.654   6.438  1.00  0.00     0.053 C 
BRANCH   4   5
ATOM      5  C   UNL     1      -0.484   5.933   4.971  1.00  0.00     0.041 C 
ATOM      6  O   UNL     1       0.047   5.156   4.135  1.00  0.00    -0.550 OA
ATOM      7  O   UNL     1      -1.146   7.072   4.527  1.00  0.00    -0.550 OA
ENDBRANCH   4   5
ENDBRANCH   3   4
ENDBRANCH   2   3
ENDBRANCH   1   2
BRANCH   1   8
ATOM      8  C   UNL     1       1.524   1.981   6.969  1.00  0.00     0.000 C 
BRANCH   8   9
ATOM      9  C   UNL     1       2.192   0.595   7.070  1.00  0.00     0.000 C 
BRANCH   9  10
ATOM     10  C   UNL     1       1.244  -0.605   6.869  1.00  0.00     0.006 C 
BRANCH  10  11
ATOM     11  C   UNL     1       1.354  -1.277   5.491  1.00  0.00     0.053 C 
BRANCH  11  12
ATOM     12  C   UNL     1       2.510  -2.226   5.420  1.00  0.00     0.041 C 
ATOM     13  O   UNL     1       3.295  -2.196   4.436  1.00  0.00    -0.550 OA
ATOM     14  O   UNL     1       2.701  -3.168   6.424  1.00  0.00    -0.550 OA
ENDBRANCH  11  12
ENDBRANCH  10  11
ENDBRANCH   9  10
ENDBRANCH   8   9
ENDBRANCH   1   8
TORSDOF 9
ENDMDL
MODEL 2
REMARK VINA RESULT:    -4.230      0.966      1.227
REMARK INTER + INTRA:          -6.806
REMARK INTER:                  -6.429
REMARK INTRA:                  -0.376
REMARK UNBOUND:                -0.350
REMARK SMILES O=C([O-])CCCCCCCCC(=O)[O-]
REMARK SMILES IDX 7 1 6 2 5 3 4 4 2 5 1 6 3 7 8 8 9 9 10 10 11 11 12 12 13 13
REMARK SMILES IDX 14 14
REMARK H PARENT
REMARK Flexibility Score: inf
ROOT
ATOM      1  C   UNL     1       0.728   2.808   8.629  1.00  0.00     0.000 C 
ENDROOT
BRANCH   1   2
ATOM      2  C   UNL     1       0.136   4.189   8.310  1.00  0.00     0.000 C 
BRANCH   2   3
ATOM      3  C   UNL     1       0.413   4.582   6.851  1.00  0.00     0.006 C 
BRANCH   3   4
ATOM      4  C   UNL     1      -0.211   5.934   6.486  1.00  0.00     0.053 C 
BRANCH   4   5
ATOM      5  C   UNL     1      -0.496   6.035   5.019  1.00  0.00     0.041 C 
ATOM      6  O   UNL     1      -0.015   5.190   4.219  1.00  0.00    -0.550 OA
ATOM      7  O   UNL     1      -1.267   7.083   4.531  1.00  0.00    -0.550 OA
ENDBRANCH   4   5
ENDBRANCH   3   4
ENDBRANCH   2   3
ENDBRANCH   1   2
BRANCH   1   8
ATOM      8  C   UNL     1       1.422   2.161   7.417  1.00  0.00     0.000 C 
BRANCH   8   9
ATOM      9  C   UNL     1       2.519   1.133   7.763  1.00  0.00     0.000 C 
BRANCH   9  10
ATOM     10  C   UNL     1       2.479  -0.169   6.938  1.00  0.00     0.006 C 
BRANCH  10  11
ATOM     11  C   UNL     1       1.274  -0.285   5.992  1.00  0.00     0.053 C 
BRANCH  11  12
ATOM     12  C   UNL     1       1.244  -1.602   5.280  1.00  0.00     0.041 C 
ATOM     13  O   UNL     1       0.170  -2.256   5.202  1.00  0.00    -0.550 OA
ATOM     14  O   UNL     1       2.409  -2.125   4.732  1.00  0.00    -0.550 OA
ENDBRANCH  11  12
ENDBRANCH  10  11
ENDBRANCH   9  10
ENDBRANCH   8   9
ENDBRANCH   1   8
TORSDOF 9
ENDMDL
MODEL 3
REMARK VINA RESULT:    -4.165      1.210      6.787
REMARK INTER + INTRA:          -6.707
REMARK INTER:                  -6.252
REMARK INTRA:                  -0.455
REMARK UNBOUND:                -0.350
REMARK SMILES O=C([O-])CCCCCCCCC(=O)[O-]
REMARK SMILES IDX 7 1 6 2 5 3 4 4 2 5 1 6 3 7 8 8 9 9 10 10 11 11 12 12 13 13
REMARK SMILES IDX 14 14
REMARK H PARENT
REMARK Flexibility Score: inf
ROOT
ATOM      1  C   UNL     1       1.684   0.716   8.186  1.00  0.00     0.000 C 
ENDROOT
BRANCH   1   2
ATOM      2  C   UNL     1       1.094  -0.514   7.481  1.00  0.00     0.000 C 
BRANCH   2   3
ATOM      3  C   UNL     1       1.386  -0.476   5.973  1.00  0.00     0.006 C 
BRANCH   3   4
ATOM      4  C   UNL     1       1.841  -1.838   5.435  1.00  0.00     0.053 C 
BRANCH   4   5
ATOM      5  C   UNL     1       3.329  -1.898   5.267  1.00  0.00     0.041 C 
ATOM      6  O   UNL     1       4.088  -1.441   6.162  1.00  0.00    -0.550 OA
ATOM      7  O   UNL     1       3.876  -2.430   4.106  1.00  0.00    -0.550 OA
ENDBRANCH   4   5
ENDBRANCH   3   4
ENDBRANCH   2   3
ENDBRANCH   1   2
BRANCH   1   8
ATOM      8  C   UNL     1       1.738   1.957   7.277  1.00  0.00     0.000 C 
BRANCH   8   9
ATOM      9  C   UNL     1       0.817   3.119   7.701  1.00  0.00     0.000 C 
BRANCH   9  10
ATOM     10  C   UNL     1       0.879   4.367   6.797  1.00  0.00     0.006 C 
BRANCH  10  11
ATOM     11  C   UNL     1       1.399   4.096   5.376  1.00  0.00     0.053 C 
BRANCH  11  12
ATOM     12  C   UNL     1       0.812   5.042   4.374  1.00  0.00     0.041 C 
ATOM     13  O   UNL     1      -0.388   5.409   4.477  1.00  0.00    -0.550 OA
ATOM     14  O   UNL     1       1.581   5.489   3.305  1.00  0.00    -0.550 OA
ENDBRANCH  11  12
ENDBRANCH  10  11
ENDBRANCH   9  10
ENDBRANCH   8   9
ENDBRANCH   1   8
TORSDOF 9
ENDMDL
MODEL 4
REMARK VINA RESULT:    -3.946      0.879      7.022
REMARK INTER + INTRA:          -6.373
REMARK INTER:                  -6.187
REMARK INTRA:                  -0.186
REMARK UNBOUND:                -0.350
REMARK SMILES O=C([O-])CCCCCCCCC(=O)[O-]
REMARK SMILES IDX 7 1 6 2 5 3 4 4 2 5 1 6 3 7 8 8 9 9 10 10 11 11 12 12 13 13
REMARK SMILES IDX 14 14
REMARK H PARENT
REMARK Flexibility Score: inf
ROOT
ATOM      1  C   UNL     1       1.292   2.210   8.442  1.00  0.00     0.000 C 
ENDROOT
BRANCH   1   2
ATOM      2  C   UNL     1       1.804   1.748   7.070  1.00  0.00     0.000 C 
BRANCH   2   3
ATOM      3  C   UNL     1       1.784   0.215   6.963  1.00  0.00     0.006 C 
BRANCH   3   4
ATOM      4  C   UNL     1       1.074  -0.269   5.693  1.00  0.00     0.053 C 
BRANCH   4   5
ATOM      5  C   UNL     1       1.347  -1.717   5.423  1.00  0.00     0.041 C 
ATOM      6  O   UNL     1       0.546  -2.600   5.829  1.00  0.00    -0.550 OA
ATOM      7  O   UNL     1       2.503  -2.093   4.751  1.00  0.00    -0.550 OA
ENDBRANCH   4   5
ENDBRANCH   3   4
ENDBRANCH   2   3
ENDBRANCH   1   2
BRANCH   1   8
ATOM      8  C   UNL     1       0.325   3.403   8.348  1.00  0.00     0.000 C 
BRANCH   8   9
ATOM      9  C   UNL     1       0.566   4.348   7.153  1.00  0.00     0.000 C 
BRANCH   9  10
ATOM     10  C   UNL     1      -0.107   5.732   7.266  1.00  0.00     0.006 C 
BRANCH  10  11
ATOM     11  C   UNL     1      -1.211   5.987   6.228  1.00  0.00     0.053 C 
BRANCH  11  12
ATOM     12  C   UNL     1      -0.648   6.311   4.878  1.00  0.00     0.041 C 
ATOM     13  O   UNL     1      -0.775   7.469   4.400  1.00  0.00    -0.550 OA
ATOM     14  O   UNL     1      -0.013   5.324   4.133  1.00  0.00    -0.550 OA
ENDBRANCH  11  12
ENDBRANCH  10  11
ENDBRANCH   9  10
ENDBRANCH   8   9
ENDBRANCH   1   8
TORSDOF 9
ENDMDL
MODEL 5
REMARK VINA RESULT:    -3.944      4.860      7.526
REMARK INTER + INTRA:          -6.369
REMARK INTER:                  -5.859
REMARK INTRA:                  -0.510
REMARK UNBOUND:                -0.350
REMARK SMILES O=C([O-])CCCCCCCCC(=O)[O-]
REMARK SMILES IDX 7 1 6 2 5 3 4 4 2 5 1 6 3 7 8 8 9 9 10 10 11 11 12 12 13 13
REMARK SMILES IDX 14 14
REMARK H PARENT
REMARK Flexibility Score: inf
ROOT
ATOM      1  C   UNL     1      -1.587  -2.673   5.645  1.00  0.00     0.000 C 
ENDROOT
BRANCH   1   2
ATOM      2  C   UNL     1      -0.144  -2.448   6.117  1.00  0.00     0.000 C 
BRANCH   2   3
ATOM      3  C   UNL     1       0.558  -1.387   5.256  1.00  0.00     0.006 C 
BRANCH   3   4
ATOM      4  C   UNL     1       1.828  -0.845   5.923  1.00  0.00     0.053 C 
BRANCH   4   5
ATOM      5  C   UNL     1       3.033  -1.659   5.562  1.00  0.00     0.041 C 
ATOM      6  O   UNL     1       3.065  -2.302   4.480  1.00  0.00    -0.550 OA
ATOM      7  O   UNL     1       4.109  -1.733   6.438  1.00  0.00    -0.550 OA
ENDBRANCH   4   5
ENDBRANCH   3   4
ENDBRANCH   2   3
ENDBRANCH   1   2
BRANCH   1   8
ATOM      8  C   UNL     1      -1.707  -2.767   4.113  1.00  0.00     0.000 C 
BRANCH   8   9
ATOM      9  C   UNL     1      -3.101  -2.430   3.544  1.00  0.00     0.000 C 
BRANCH   9  10
ATOM     10  C   UNL     1      -3.773  -1.183   4.153  1.00  0.00     0.006 C 
BRANCH  10  11
ATOM     11  C   UNL     1      -5.116  -1.462   4.847  1.00  0.00     0.053 C 
BRANCH  11  12
ATOM     12  C   UNL     1      -5.119  -0.994   6.270  1.00  0.00     0.041 C 
ATOM     13  O   UNL     1      -4.679  -1.741   7.184  1.00  0.00    -0.550 OA
ATOM     14  O   UNL     1      -5.641   0.253   6.592  1.00  0.00    -0.550 OA
ENDBRANCH  11  12
ENDBRANCH  10  11
ENDBRANCH   9  10
ENDBRANCH   8   9
ENDBRANCH   1   8
TORSDOF 9
ENDMDL
MODEL 6
REMARK VINA RESULT:    -3.876      5.262      6.367
REMARK INTER + INTRA:          -6.265
REMARK INTER:                  -5.824
REMARK INTRA:                  -0.441
REMARK UNBOUND:                -0.350
REMARK SMILES O=C([O-])CCCCCCCCC(=O)[O-]
REMARK SMILES IDX 7 1 6 2 5 3 4 4 2 5 1 6 3 7 8 8 9 9 10 10 11 11 12 12 13 13
REMARK SMILES IDX 14 14
REMARK H PARENT
REMARK Flexibility Score: inf
ROOT
ATOM      1  C   UNL     1      -1.979  -3.108   3.892  1.00  0.00     0.000 C 
ENDROOT
BRANCH   1   2
ATOM      2  C   UNL     1      -3.425  -2.831   3.456  1.00  0.00     0.000 C 
BRANCH   2   3
ATOM      3  C   UNL     1      -3.860  -1.414   3.861  1.00  0.00     0.006 C 
BRANCH   3   4
ATOM      4  C   UNL     1      -5.180  -1.412   4.641  1.00  0.00     0.053 C 
BRANCH   4   5
ATOM      5  C   UNL     1      -4.973  -1.054   6.080  1.00  0.00     0.041 C 
ATOM      6  O   UNL     1      -5.450   0.016   6.543  1.00  0.00    -0.550 OA
ATOM      7  O   UNL     1      -4.225  -1.886   6.903  1.00  0.00    -0.550 OA
ENDBRANCH   4   5
ENDBRANCH   3   4
ENDBRANCH   2   3
ENDBRANCH   1   2
BRANCH   1   8
ATOM      8  C   UNL     1      -1.315  -1.893   4.564  1.00  0.00     0.000 C 
BRANCH   8   9
ATOM      9  C   UNL     1      -0.306  -2.233   5.680  1.00  0.00     0.000 C 
BRANCH   9  10
ATOM     10  C   UNL     1       1.100  -1.626   5.500  1.00  0.00     0.006 C 
BRANCH  10  11
ATOM     11  C   UNL     1       2.248  -2.531   5.975  1.00  0.00     0.053 C 
BRANCH  11  12
ATOM     12  C   UNL     1       3.560  -2.137   5.370  1.00  0.00     0.041 C 
ATOM     13  O   UNL     1       3.786  -2.356   4.151  1.00  0.00    -0.550 OA
ATOM     14  O   UNL     1       4.547  -1.561   6.161  1.00  0.00    -0.550 OA
ENDBRANCH  11  12
ENDBRANCH  10  11
ENDBRANCH   9  10
ENDBRANCH   8   9
ENDBRANCH   1   8
TORSDOF 9
ENDMDL
MODEL 7
REMARK VINA RESULT:    -3.746      7.049      8.970
REMARK INTER + INTRA:          -6.067
REMARK INTER:                  -5.638
REMARK INTRA:                  -0.429
REMARK UNBOUND:                -0.350
REMARK SMILES O=C([O-])CCCCCCCCC(=O)[O-]
REMARK SMILES IDX 7 1 6 2 5 3 4 4 2 5 1 6 3 7 8 8 9 9 10 10 11 11 12 12 13 13
REMARK SMILES IDX 14 14
REMARK H PARENT
REMARK Flexibility Score: inf
ROOT
ATOM      1  C   UNL     1      -3.405  -3.901   2.555  1.00  0.00     0.000 C 
ENDROOT
BRANCH   1   2
ATOM      2  C   UNL     1      -2.237  -3.284   3.337  1.00  0.00     0.000 C 
BRANCH   2   3
ATOM      3  C   UNL     1      -2.555  -1.839   3.750  1.00  0.00     0.006 C 
BRANCH   3   4
ATOM      4  C   UNL     1      -4.054  -1.619   3.989  1.00  0.00     0.053 C 
BRANCH   4   5
ATOM      5  C   UNL     1      -4.362  -1.428   5.443  1.00  0.00     0.041 C 
ATOM      6  O   UNL     1      -5.197  -0.558   5.806  1.00  0.00    -0.550 OA
ATOM      7  O   UNL     1      -3.702  -2.190   6.399  1.00  0.00    -0.550 OA
ENDBRANCH   4   5
ENDBRANCH   3   4
ENDBRANCH   2   3
ENDBRANCH   1   2
BRANCH   1   8
ATOM      8  C   UNL     1      -2.967  -5.062   1.644  1.00  0.00     0.000 C 
BRANCH   8   9
ATOM      9  C   UNL     1      -3.672  -5.121   0.274  1.00  0.00     0.000 C 
BRANCH   9  10
ATOM     10  C   UNL     1      -2.730  -5.157  -0.947  1.00  0.00     0.006 C 
BRANCH  10  11
ATOM     11  C   UNL     1      -1.417  -4.382  -0.757  1.00  0.00     0.053 C 
BRANCH  11  12
ATOM     12  C   UNL     1      -0.600  -4.346  -2.013  1.00  0.00     0.041 C 
ATOM     13  O   UNL     1      -1.097  -3.897  -3.079  1.00  0.00    -0.550 OA
ATOM     14  O   UNL     1       0.698  -4.842  -2.014  1.00  0.00    -0.550 OA
ENDBRANCH  11  12
ENDBRANCH  10  11
ENDBRANCH   9  10
ENDBRANCH   8   9
ENDBRANCH   1   8
TORSDOF 9
ENDMDL
MODEL 8
REMARK VINA RESULT:    -3.711      5.438      8.197
REMARK INTER + INTRA:          -6.015
REMARK INTER:                  -5.606
REMARK INTRA:                  -0.409
REMARK UNBOUND:                -0.350
REMARK SMILES O=C([O-])CCCCCCCCC(=O)[O-]
REMARK SMILES IDX 7 1 6 2 5 3 4 4 2 5 1 6 3 7 8 8 9 9 10 10 11 11 12 12 13 13
REMARK SMILES IDX 14 14
REMARK H PARENT
REMARK Flexibility Score: inf
ROOT
ATOM      1  C   UNL     1      -2.418  -2.519   5.518  1.00  0.00     0.000 C 
ENDROOT
BRANCH   1   2
ATOM      2  C   UNL     1      -0.921  -2.698   5.814  1.00  0.00     0.000 C 
BRANCH   2   3
ATOM      3  C   UNL     1      -0.074  -1.744   4.958  1.00  0.00     0.006 C 
BRANCH   3   4
ATOM      4  C   UNL     1       1.132  -1.190   5.726  1.00  0.00     0.053 C 
BRANCH   4   5
ATOM      5  C   UNL     1       2.304  -2.120   5.663  1.00  0.00     0.041 C 
ATOM      6  O   UNL     1       2.626  -2.806   6.669  1.00  0.00    -0.550 OA
ATOM      7  O   UNL     1       3.062  -2.206   4.502  1.00  0.00    -0.550 OA
ENDBRANCH   4   5
ENDBRANCH   3   4
ENDBRANCH   2   3
ENDBRANCH   1   2
BRANCH   1   8
ATOM      8  C   UNL     1      -2.681  -1.716   4.232  1.00  0.00     0.000 C 
BRANCH   8   9
ATOM      9  C   UNL     1      -4.049  -1.007   4.172  1.00  0.00     0.000 C 
BRANCH   9  10
ATOM     10  C   UNL     1      -5.083  -1.489   5.210  1.00  0.00     0.006 C 
BRANCH  10  11
ATOM     11  C   UNL     1      -5.398  -0.466   6.313  1.00  0.00     0.053 C 
BRANCH  11  12
ATOM     12  C   UNL     1      -6.764  -0.671   6.894  1.00  0.00     0.041 C 
ATOM     13  O   UNL     1      -7.608   0.264   6.872  1.00  0.00    -0.550 OA
ATOM     14  O   UNL     1      -7.093  -1.882   7.492  1.00  0.00    -0.550 OA
ENDBRANCH  11  12
ENDBRANCH  10  11
ENDBRANCH   9  10
ENDBRANCH   8   9
ENDBRANCH   1   8
TORSDOF 9
ENDMDL
MODEL 9
REMARK VINA RESULT:    -3.687      5.118      7.612
REMARK INTER + INTRA:          -5.977
REMARK INTER:                  -5.421
REMARK INTRA:                  -0.556
REMARK UNBOUND:                -0.350
REMARK SMILES O=C([O-])CCCCCCCCC(=O)[O-]
REMARK SMILES IDX 7 1 6 2 5 3 4 4 2 5 1 6 3 7 8 8 9 9 10 10 11 11 12 12 13 13
REMARK SMILES IDX 14 14
REMARK H PARENT
REMARK Flexibility Score: inf
ROOT
ATOM      1  C   UNL     1      -1.982  -2.280   5.695  1.00  0.00     0.000 C 
ENDROOT
BRANCH   1   2
ATOM      2  C   UNL     1      -0.516  -2.656   5.955  1.00  0.00     0.000 C 
BRANCH   2   3
ATOM      3  C   UNL     1       0.432  -1.777   5.124  1.00  0.00     0.006 C 
BRANCH   3   4
ATOM      4  C   UNL     1       1.488  -1.081   5.992  1.00  0.00     0.053 C 
BRANCH   4   5
ATOM      5  C   UNL     1       2.871  -1.560   5.673  1.00  0.00     0.041 C 
ATOM      6  O   UNL     1       3.827  -1.302   6.450  1.00  0.00    -0.550 OA
ATOM      7  O   UNL     1       3.109  -2.264   4.499  1.00  0.00    -0.550 OA
ENDBRANCH   4   5
ENDBRANCH   3   4
ENDBRANCH   2   3
ENDBRANCH   1   2
BRANCH   1   8
ATOM      8  C   UNL     1      -2.268  -1.977   4.214  1.00  0.00     0.000 C 
BRANCH   8   9
ATOM      9  C   UNL     1      -3.668  -1.400   3.923  1.00  0.00     0.000 C 
BRANCH   9  10
ATOM     10  C   UNL     1      -4.514  -1.073   5.171  1.00  0.00     0.006 C 
BRANCH  10  11
ATOM     11  C   UNL     1      -5.866  -1.802   5.230  1.00  0.00     0.053 C 
BRANCH  11  12
ATOM     12  C   UNL     1      -5.716  -3.278   5.024  1.00  0.00     0.041 C 
ATOM     13  O   UNL     1      -6.241  -3.835   4.024  1.00  0.00    -0.550 OA
ATOM     14  O   UNL     1      -5.025  -4.045   5.954  1.00  0.00    -0.550 OA
ENDBRANCH  11  12
ENDBRANCH  10  11
ENDBRANCH   9  10
ENDBRANCH   8   9
ENDBRANCH   1   8
TORSDOF 9
ENDMDL
