MODEL 1
REMARK VINA RESULT:    -4.386      0.000      0.000
REMARK INTER + INTRA:          -9.329
REMARK INTER:                  -7.463
REMARK INTRA:                  -1.865
REMARK UNBOUND:                -1.865
REMARK SMILES CCCCCCCCCCCCCC(=O)[O-]
REMARK SMILES IDX 8 1 9 2 10 3 11 4 12 5 13 6 14 7 15 8 16 9 7 10 6 11 5 12
REMARK SMILES IDX 4 13 3 14 2 15 1 16
REMARK H PARENT
REMARK Flexibility Score: inf
ROOT
ATOM      1  C   UNL     1     -10.012 -25.657  31.317  1.00  0.00     0.000 C 
ENDROOT
BRANCH   1   2
ATOM      2  C   UNL     1      -9.642 -26.864  32.196  1.00  0.00     0.000 C 
BRANCH   2   3
ATOM      3  C   UNL     1      -8.773 -27.891  31.451  1.00  0.00     0.000 C 
BRANCH   3   4
ATOM      4  C   UNL     1      -7.280 -27.771  31.802  1.00  0.00     0.000 C 
BRANCH   4   5
ATOM      5  C   UNL     1      -6.456 -27.116  30.679  1.00  0.00     0.006 C 
BRANCH   5   6
ATOM      6  C   UNL     1      -6.453 -25.580  30.713  1.00  0.00     0.053 C 
BRANCH   6   7
ATOM      7  C   UNL     1      -6.080 -25.048  32.062  1.00  0.00     0.041 C 
ATOM      8  O   UNL     1      -4.910 -25.200  32.502  1.00  0.00    -0.550 OA
ATOM      9  O   UNL     1      -7.035 -24.417  32.851  1.00  0.00    -0.550 OA
ENDBRANCH   6   7
ENDBRANCH   5   6
ENDBRANCH   4   5
ENDBRANCH   3   4
ENDBRANCH   2   3
ENDBRANCH   1   2
BRANCH   1  10
ATOM     10  C   UNL     1     -10.573 -26.076  29.947  1.00  0.00     0.000 C 
BRANCH  10  11
ATOM     11  C   UNL     1     -10.141 -25.125  28.818  1.00  0.00    -0.000 C 
BRANCH  11  12
ATOM     12  C   UNL     1      -9.126 -25.770  27.860  1.00  0.00    -0.000 C 
BRANCH  12  13
ATOM     13  C   UNL     1      -9.040 -27.299  28.022  1.00  0.00    -0.000 C 
BRANCH  13  14
ATOM     14  C   UNL     1      -9.692 -28.048  26.842  1.00  0.00    -0.000 C 
BRANCH  14  15
ATOM     15  C   UNL     1     -11.061 -28.661  27.183  1.00  0.00    -0.003 C 
ATOM     16  C   UNL     1     -12.220 -27.683  26.997  1.00  0.00     0.004 C 
ENDBRANCH  14  15
ENDBRANCH  13  14
ENDBRANCH  12  13
ENDBRANCH  11  12
ENDBRANCH  10  11
ENDBRANCH   1  10
TORSDOF 12
ENDMDL
MODEL 2
REMARK VINA RESULT:    -4.323      3.223      5.689
REMARK INTER + INTRA:          -9.222
REMARK INTER:                  -7.461
REMARK INTRA:                  -1.761
REMARK UNBOUND:                -1.865
REMARK SMILES CCCCCCCCCCCCCC(=O)[O-]
REMARK SMILES IDX 8 1 9 2 10 3 11 4 12 5 13 6 14 7 15 8 16 9 7 10 6 11 5 12
REMARK SMILES IDX 4 13 3 14 2 15 1 16
REMARK H PARENT
REMARK Flexibility Score: inf
ROOT
ATOM      1  C   UNL     1      -6.705 -27.576  30.472  1.00  0.00     0.000 C 
ENDROOT
BRANCH   1   2
ATOM      2  C   UNL     1      -6.843 -27.254  28.974  1.00  0.00     0.000 C 
BRANCH   2   3
ATOM      3  C   UNL     1      -8.101 -26.425  28.664  1.00  0.00     0.000 C 
BRANCH   3   4
ATOM      4  C   UNL     1      -9.202 -27.252  27.978  1.00  0.00     0.000 C 
BRANCH   4   5
ATOM      5  C   UNL     1     -10.544 -26.501  27.895  1.00  0.00     0.006 C 
BRANCH   5   6
ATOM      6  C   UNL     1     -10.409 -24.970  27.876  1.00  0.00     0.053 C 
BRANCH   6   7
ATOM      7  C   UNL     1     -10.707 -24.397  26.525  1.00  0.00     0.041 C 
ATOM      8  O   UNL     1     -10.905 -23.161  26.391  1.00  0.00    -0.550 OA
ATOM      9  O   UNL     1     -10.804 -25.233  25.419  1.00  0.00    -0.550 OA
ENDBRANCH   6   7
ENDBRANCH   5   6
ENDBRANCH   4   5
ENDBRANCH   3   4
ENDBRANCH   2   3
ENDBRANCH   1   2
BRANCH   1  10
ATOM     10  C   UNL     1      -5.442 -26.955  31.094  1.00  0.00     0.000 C 
BRANCH  10  11
ATOM     11  C   UNL     1      -5.537 -25.424  31.213  1.00  0.00    -0.000 C 
BRANCH  11  12
ATOM     12  C   UNL     1      -6.595 -24.976  32.234  1.00  0.00    -0.000 C 
BRANCH  12  13
ATOM     13  C   UNL     1      -7.531 -23.885  31.683  1.00  0.00    -0.000 C 
BRANCH  13  14
ATOM     14  C   UNL     1      -8.919 -24.445  31.305  1.00  0.00    -0.000 C 
BRANCH  14  15
ATOM     15  C   UNL     1      -9.383 -25.598  32.210  1.00  0.00    -0.003 C 
ATOM     16  C   UNL     1     -10.613 -26.326  31.671  1.00  0.00     0.004 C 
ENDBRANCH  14  15
ENDBRANCH  13  14
ENDBRANCH  12  13
ENDBRANCH  11  12
ENDBRANCH  10  11
ENDBRANCH   1  10
TORSDOF 12
ENDMDL
MODEL 3
REMARK VINA RESULT:    -4.323      2.999      5.461
REMARK INTER + INTRA:          -9.221
REMARK INTER:                  -7.290
REMARK INTRA:                  -1.931
REMARK UNBOUND:                -1.865
REMARK SMILES CCCCCCCCCCCCCC(=O)[O-]
REMARK SMILES IDX 8 1 9 2 10 3 11 4 12 5 13 6 14 7 15 8 16 9 7 10 6 11 5 12
REMARK SMILES IDX 4 13 3 14 2 15 1 16
REMARK H PARENT
REMARK Flexibility Score: inf
ROOT
ATOM      1  C   UNL     1      -6.205 -27.392  32.282  1.00  0.00     0.000 C 
ENDROOT
BRANCH   1   2
ATOM      2  C   UNL     1      -6.850 -27.888  30.976  1.00  0.00     0.000 C 
BRANCH   2   3
ATOM      3  C   UNL     1      -6.265 -27.199  29.732  1.00  0.00     0.000 C 
BRANCH   3   4
ATOM      4  C   UNL     1      -7.187 -27.307  28.505  1.00  0.00     0.000 C 
BRANCH   4   5
ATOM      5  C   UNL     1      -8.671 -27.101  28.857  1.00  0.00     0.006 C 
BRANCH   5   6
ATOM      6  C   UNL     1      -9.353 -25.967  28.076  1.00  0.00     0.053 C 
BRANCH   6   7
ATOM      7  C   UNL     1     -10.725 -26.349  27.612  1.00  0.00     0.041 C 
ATOM      8  O   UNL     1     -11.504 -26.969  28.382  1.00  0.00    -0.550 OA
ATOM      9  O   UNL     1     -11.128 -26.053  26.315  1.00  0.00    -0.550 OA
ENDBRANCH   6   7
ENDBRANCH   5   6
ENDBRANCH   4   5
ENDBRANCH   3   4
ENDBRANCH   2   3
ENDBRANCH   1   2
BRANCH   1  10
ATOM     10  C   UNL     1      -5.055 -26.401  32.031  1.00  0.00     0.000 C 
BRANCH  10  11
ATOM     11  C   UNL     1      -5.295 -25.038  32.703  1.00  0.00    -0.000 C 
BRANCH  11  12
ATOM     12  C   UNL     1      -6.789 -24.697  32.829  1.00  0.00    -0.000 C 
BRANCH  12  13
ATOM     13  C   UNL     1      -7.395 -24.177  31.512  1.00  0.00    -0.000 C 
BRANCH  13  14
ATOM     14  C   UNL     1      -8.910 -24.456  31.418  1.00  0.00    -0.000 C 
BRANCH  14  15
ATOM     15  C   UNL     1      -9.428 -25.409  32.508  1.00  0.00    -0.003 C 
ATOM     16  C   UNL     1     -10.366 -26.486  31.966  1.00  0.00     0.004 C 
ENDBRANCH  14  15
ENDBRANCH  13  14
ENDBRANCH  12  13
ENDBRANCH  11  12
ENDBRANCH  10  11
ENDBRANCH   1  10
TORSDOF 12
ENDMDL
MODEL 4
REMARK VINA RESULT:    -4.208      1.263      2.626
REMARK INTER + INTRA:          -9.026
REMARK INTER:                  -7.372
REMARK INTRA:                  -1.653
REMARK UNBOUND:                -1.865
REMARK SMILES CCCCCCCCCCCCCC(=O)[O-]
REMARK SMILES IDX 8 1 9 2 10 3 11 4 12 5 13 6 14 7 15 8 16 9 7 10 6 11 5 12
REMARK SMILES IDX 4 13 3 14 2 15 1 16
REMARK H PARENT
REMARK Flexibility Score: inf
ROOT
ATOM      1  C   UNL     1      -8.582 -27.864  31.617  1.00  0.00     0.000 C 
ENDROOT
BRANCH   1   2
ATOM      2  C   UNL     1      -7.066 -27.953  31.372  1.00  0.00     0.000 C 
BRANCH   2   3
ATOM      3  C   UNL     1      -6.522 -26.739  30.600  1.00  0.00     0.000 C 
BRANCH   3   4
ATOM      4  C   UNL     1      -5.045 -26.449  30.915  1.00  0.00     0.000 C 
BRANCH   4   5
ATOM      5  C   UNL     1      -4.763 -26.376  32.427  1.00  0.00     0.006 C 
BRANCH   5   6
ATOM      6  C   UNL     1      -4.911 -24.970  33.028  1.00  0.00     0.053 C 
BRANCH   6   7
ATOM      7  C   UNL     1      -6.068 -24.883  33.976  1.00  0.00     0.041 C 
ATOM      8  O   UNL     1      -6.488 -23.760  34.362  1.00  0.00    -0.550 OA
ATOM      9  O   UNL     1      -6.658 -26.043  34.463  1.00  0.00    -0.550 OA
ENDBRANCH   6   7
ENDBRANCH   5   6
ENDBRANCH   4   5
ENDBRANCH   3   4
ENDBRANCH   2   3
ENDBRANCH   1   2
BRANCH   1  10
ATOM     10  C   UNL     1      -9.048 -26.426  31.906  1.00  0.00     0.000 C 
BRANCH  10  11
ATOM     11  C   UNL     1     -10.523 -26.200  31.533  1.00  0.00    -0.000 C 
BRANCH  11  12
ATOM     12  C   UNL     1     -10.756 -26.200  30.014  1.00  0.00    -0.000 C 
BRANCH  12  13
ATOM     13  C   UNL     1      -9.827 -25.223  29.269  1.00  0.00    -0.000 C 
BRANCH  13  14
ATOM     14  C   UNL     1      -9.336 -25.797  27.924  1.00  0.00    -0.000 C 
BRANCH  14  15
ATOM     15  C   UNL     1      -9.044 -27.306  27.970  1.00  0.00    -0.003 C 
ATOM     16  C   UNL     1      -9.673 -28.075  26.810  1.00  0.00     0.004 C 
ENDBRANCH  14  15
ENDBRANCH  13  14
ENDBRANCH  12  13
ENDBRANCH  11  12
ENDBRANCH  10  11
ENDBRANCH   1  10
TORSDOF 12
ENDMDL
MODEL 5
REMARK VINA RESULT:    -4.186      2.833      5.917
REMARK INTER + INTRA:          -8.988
REMARK INTER:                  -7.282
REMARK INTRA:                  -1.707
REMARK UNBOUND:                -1.865
REMARK SMILES CCCCCCCCCCCCCC(=O)[O-]
REMARK SMILES IDX 8 1 9 2 10 3 11 4 12 5 13 6 14 7 15 8 16 9 7 10 6 11 5 12
REMARK SMILES IDX 4 13 3 14 2 15 1 16
REMARK H PARENT
REMARK Flexibility Score: inf
ROOT
ATOM      1  C   UNL     1      -8.719 -27.586  31.385  1.00  0.00     0.000 C 
ENDROOT
BRANCH   1   2
ATOM      2  C   UNL     1      -8.992 -26.249  32.096  1.00  0.00     0.000 C 
BRANCH   2   3
ATOM      3  C   UNL     1      -9.230 -25.095  31.108  1.00  0.00     0.000 C 
BRANCH   3   4
ATOM      4  C   UNL     1     -10.004 -25.537  29.854  1.00  0.00     0.000 C 
BRANCH   4   5
ATOM      5  C   UNL     1      -9.187 -25.362  28.560  1.00  0.00     0.006 C 
BRANCH   5   6
ATOM      6  C   UNL     1      -9.774 -26.090  27.341  1.00  0.00     0.053 C 
BRANCH   6   7
ATOM      7  C   UNL     1      -9.475 -27.557  27.365  1.00  0.00     0.041 C 
ATOM      8  O   UNL     1      -8.288 -27.964  27.257  1.00  0.00    -0.550 OA
ATOM      9  O   UNL     1     -10.512 -28.478  27.470  1.00  0.00    -0.550 OA
ENDBRANCH   6   7
ENDBRANCH   5   6
ENDBRANCH   4   5
ENDBRANCH   3   4
ENDBRANCH   2   3
ENDBRANCH   1   2
BRANCH   1  10
ATOM     10  C   UNL     1      -7.227 -27.957  31.382  1.00  0.00     0.000 C 
BRANCH  10  11
ATOM     11  C   UNL     1      -6.458 -27.297  30.225  1.00  0.00    -0.000 C 
BRANCH  11  12
ATOM     12  C   UNL     1      -5.183 -26.579  30.696  1.00  0.00    -0.000 C 
BRANCH  12  13
ATOM     13  C   UNL     1      -5.462 -25.168  31.247  1.00  0.00    -0.000 C 
BRANCH  13  14
ATOM     14  C   UNL     1      -5.180 -25.067  32.760  1.00  0.00    -0.000 C 
BRANCH  14  15
ATOM     15  C   UNL     1      -4.587 -26.352  33.362  1.00  0.00    -0.003 C 
ATOM     16  C   UNL     1      -5.219 -26.735  34.699  1.00  0.00     0.004 C 
ENDBRANCH  14  15
ENDBRANCH  13  14
ENDBRANCH  12  13
ENDBRANCH  11  12
ENDBRANCH  10  11
ENDBRANCH   1  10
TORSDOF 12
ENDMDL
MODEL 6
REMARK VINA RESULT:    -4.176      3.214      5.859
REMARK INTER + INTRA:          -8.972
REMARK INTER:                  -7.364
REMARK INTRA:                  -1.608
REMARK UNBOUND:                -1.865
REMARK SMILES CCCCCCCCCCCCCC(=O)[O-]
REMARK SMILES IDX 8 1 9 2 10 3 11 4 12 5 13 6 14 7 15 8 16 9 7 10 6 11 5 12
REMARK SMILES IDX 4 13 3 14 2 15 1 16
REMARK H PARENT
REMARK Flexibility Score: inf
ROOT
ATOM      1  C   UNL     1      -9.918 -25.180  29.767  1.00  0.00     0.000 C 
ENDROOT
BRANCH   1   2
ATOM      2  C   UNL     1      -8.777 -25.720  28.887  1.00  0.00     0.000 C 
BRANCH   2   3
ATOM      3  C   UNL     1      -8.778 -27.255  28.799  1.00  0.00     0.000 C 
BRANCH   3   4
ATOM      4  C   UNL     1      -8.423 -27.769  27.393  1.00  0.00     0.000 C 
BRANCH   4   5
ATOM      5  C   UNL     1      -9.613 -28.451  26.692  1.00  0.00     0.006 C 
BRANCH   5   6
ATOM      6  C   UNL     1     -10.951 -28.298  27.431  1.00  0.00     0.053 C 
BRANCH   6   7
ATOM      7  C   UNL     1     -11.840 -27.283  26.781  1.00  0.00     0.041 C 
ATOM      8  O   UNL     1     -13.027 -27.577  26.483  1.00  0.00    -0.550 OA
ATOM      9  O   UNL     1     -11.344 -26.021  26.469  1.00  0.00    -0.550 OA
ENDBRANCH   6   7
ENDBRANCH   5   6
ENDBRANCH   4   5
ENDBRANCH   3   4
ENDBRANCH   2   3
ENDBRANCH   1   2
BRANCH   1  10
ATOM     10  C   UNL     1      -9.508 -25.042  31.243  1.00  0.00     0.000 C 
BRANCH  10  11
ATOM     11  C   UNL     1      -8.127 -24.385  31.413  1.00  0.00    -0.000 C 
BRANCH  11  12
ATOM     12  C   UNL     1      -7.355 -24.937  32.621  1.00  0.00    -0.000 C 
BRANCH  12  13
ATOM     13  C   UNL     1      -6.189 -25.857  32.214  1.00  0.00    -0.000 C 
BRANCH  13  14
ATOM     14  C   UNL     1      -6.666 -27.278  31.851  1.00  0.00    -0.000 C 
BRANCH  14  15
ATOM     15  C   UNL     1      -5.732 -28.009  30.873  1.00  0.00    -0.003 C 
ATOM     16  C   UNL     1      -5.218 -27.111  29.749  1.00  0.00     0.004 C 
ENDBRANCH  14  15
ENDBRANCH  13  14
ENDBRANCH  12  13
ENDBRANCH  11  12
ENDBRANCH  10  11
ENDBRANCH   1  10
TORSDOF 12
ENDMDL
MODEL 7
REMARK VINA RESULT:    -4.165     12.985     15.844
REMARK INTER + INTRA:          -8.953
REMARK INTER:                  -7.285
REMARK INTRA:                  -1.668
REMARK UNBOUND:                -1.865
REMARK SMILES CCCCCCCCCCCCCC(=O)[O-]
REMARK SMILES IDX 8 1 9 2 10 3 11 4 12 5 13 6 14 7 15 8 16 9 7 10 6 11 5 12
REMARK SMILES IDX 4 13 3 14 2 15 1 16
REMARK H PARENT
REMARK Flexibility Score: inf
ROOT
ATOM      1  C   UNL     1     -19.149 -22.590  18.002  1.00  0.00     0.000 C 
ENDROOT
BRANCH   1   2
ATOM      2  C   UNL     1     -19.605 -21.143  17.742  1.00  0.00     0.000 C 
BRANCH   2   3
ATOM      3  C   UNL     1     -18.423 -20.177  17.556  1.00  0.00     0.000 C 
BRANCH   3   4
ATOM      4  C   UNL     1     -17.614 -19.974  18.849  1.00  0.00     0.000 C 
BRANCH   4   5
ATOM      5  C   UNL     1     -16.992 -18.568  18.945  1.00  0.00     0.006 C 
BRANCH   5   6
ATOM      6  C   UNL     1     -15.464 -18.564  19.105  1.00  0.00     0.053 C 
BRANCH   6   7
ATOM      7  C   UNL     1     -14.909 -17.174  19.171  1.00  0.00     0.041 C 
ATOM      8  O   UNL     1     -14.860 -16.462  18.134  1.00  0.00    -0.550 OA
ATOM      9  O   UNL     1     -14.412 -16.679  20.371  1.00  0.00    -0.550 OA
ENDBRANCH   6   7
ENDBRANCH   5   6
ENDBRANCH   4   5
ENDBRANCH   3   4
ENDBRANCH   2   3
ENDBRANCH   1   2
BRANCH   1  10
ATOM     10  C   UNL     1     -19.190 -23.457  16.732  1.00  0.00     0.000 C 
BRANCH  10  11
ATOM     11  C   UNL     1     -17.787 -23.865  16.252  1.00  0.00    -0.000 C 
BRANCH  11  12
ATOM     12  C   UNL     1     -16.692 -23.535  17.279  1.00  0.00    -0.000 C 
BRANCH  12  13
ATOM     13  C   UNL     1     -15.659 -22.526  16.746  1.00  0.00    -0.000 C 
BRANCH  13  14
ATOM     14  C   UNL     1     -14.694 -22.042  17.848  1.00  0.00    -0.000 C 
BRANCH  14  15
ATOM     15  C   UNL     1     -14.926 -22.720  19.209  1.00  0.00    -0.003 C 
ATOM     16  C   UNL     1     -14.434 -21.883  20.388  1.00  0.00     0.004 C 
ENDBRANCH  14  15
ENDBRANCH  13  14
ENDBRANCH  12  13
ENDBRANCH  11  12
ENDBRANCH  10  11
ENDBRANCH   1  10
TORSDOF 12
ENDMDL
MODEL 8
REMARK VINA RESULT:    -4.161      1.990      2.779
REMARK INTER + INTRA:          -8.946
REMARK INTER:                  -7.409
REMARK INTRA:                  -1.536
REMARK UNBOUND:                -1.865
REMARK SMILES CCCCCCCCCCCCCC(=O)[O-]
REMARK SMILES IDX 8 1 9 2 10 3 11 4 12 5 13 6 14 7 15 8 16 9 7 10 6 11 5 12
REMARK SMILES IDX 4 13 3 14 2 15 1 16
REMARK H PARENT
REMARK Flexibility Score: inf
ROOT
ATOM      1  C   UNL     1      -9.690 -25.507  30.277  1.00  0.00     0.000 C 
ENDROOT
BRANCH   1   2
ATOM      2  C   UNL     1      -9.249 -24.934  31.635  1.00  0.00     0.000 C 
BRANCH   2   3
ATOM      3  C   UNL     1      -7.859 -24.279  31.574  1.00  0.00     0.000 C 
BRANCH   3   4
ATOM      4  C   UNL     1      -6.981 -24.635  32.787  1.00  0.00     0.000 C 
BRANCH   4   5
ATOM      5  C   UNL     1      -5.996 -25.781  32.490  1.00  0.00     0.006 C 
BRANCH   5   6
ATOM      6  C   UNL     1      -5.223 -25.623  31.172  1.00  0.00     0.053 C 
BRANCH   6   7
ATOM      7  C   UNL     1      -5.098 -26.921  30.435  1.00  0.00     0.041 C 
ATOM      8  O   UNL     1      -4.815 -26.928  29.208  1.00  0.00    -0.550 OA
ATOM      9  O   UNL     1      -5.331 -28.122  31.095  1.00  0.00    -0.550 OA
ENDBRANCH   6   7
ENDBRANCH   5   6
ENDBRANCH   4   5
ENDBRANCH   3   4
ENDBRANCH   2   3
ENDBRANCH   1   2
BRANCH   1  10
ATOM     10  C   UNL     1      -8.501 -25.780  29.339  1.00  0.00     0.000 C 
BRANCH  10  11
ATOM     11  C   UNL     1      -8.413 -27.255  28.912  1.00  0.00    -0.000 C 
BRANCH  11  12
ATOM     12  C   UNL     1      -8.936 -27.489  27.486  1.00  0.00    -0.000 C 
BRANCH  12  13
ATOM     13  C   UNL     1     -10.410 -27.936  27.457  1.00  0.00    -0.000 C 
BRANCH  13  14
ATOM     14  C   UNL     1     -11.368 -26.767  27.147  1.00  0.00    -0.000 C 
BRANCH  14  15
ATOM     15  C   UNL     1     -10.808 -25.771  26.117  1.00  0.00    -0.003 C 
ATOM     16  C   UNL     1     -10.650 -24.358  26.675  1.00  0.00     0.004 C 
ENDBRANCH  14  15
ENDBRANCH  13  14
ENDBRANCH  12  13
ENDBRANCH  11  12
ENDBRANCH  10  11
ENDBRANCH   1  10
TORSDOF 12
ENDMDL
MODEL 9
REMARK VINA RESULT:    -4.115      2.360      3.247
REMARK INTER + INTRA:          -8.867
REMARK INTER:                  -7.076
REMARK INTRA:                  -1.791
REMARK UNBOUND:                -1.865
REMARK SMILES CCCCCCCCCCCCCC(=O)[O-]
REMARK SMILES IDX 8 1 9 2 10 3 11 4 12 5 13 6 14 7 15 8 16 9 7 10 6 11 5 12
REMARK SMILES IDX 4 13 3 14 2 15 1 16
REMARK H PARENT
REMARK Flexibility Score: inf
ROOT
ATOM      1  C   UNL     1      -7.370 -24.352  31.414  1.00  0.00     0.000 C 
ENDROOT
BRANCH   1   2
ATOM      2  C   UNL     1      -6.999 -24.728  32.860  1.00  0.00     0.000 C 
BRANCH   2   3
ATOM      3  C   UNL     1      -5.891 -25.791  32.926  1.00  0.00     0.000 C 
BRANCH   3   4
ATOM      4  C   UNL     1      -6.412 -27.211  32.644  1.00  0.00     0.000 C 
BRANCH   4   5
ATOM      5  C   UNL     1      -5.547 -27.969  31.621  1.00  0.00     0.006 C 
BRANCH   5   6
ATOM      6  C   UNL     1      -4.735 -27.060  30.685  1.00  0.00     0.053 C 
BRANCH   6   7
ATOM      7  C   UNL     1      -4.095 -27.829  29.570  1.00  0.00     0.041 C 
ATOM      8  O   UNL     1      -2.841 -27.881  29.475  1.00  0.00    -0.550 OA
ATOM      9  O   UNL     1      -4.885 -28.458  28.614  1.00  0.00    -0.550 OA
ENDBRANCH   6   7
ENDBRANCH   5   6
ENDBRANCH   4   5
ENDBRANCH   3   4
ENDBRANCH   2   3
ENDBRANCH   1   2
BRANCH   1  10
ATOM     10  C   UNL     1      -8.877 -24.099  31.240  1.00  0.00     0.000 C 
BRANCH  10  11
ATOM     11  C   UNL     1      -9.535 -25.100  30.276  1.00  0.00    -0.000 C 
BRANCH  11  12
ATOM     12  C   UNL     1      -9.701 -26.496  30.898  1.00  0.00    -0.000 C 
BRANCH  12  13
ATOM     13  C   UNL     1      -9.006 -27.600  30.079  1.00  0.00    -0.000 C 
BRANCH  13  14
ATOM     14  C   UNL     1      -8.159 -27.024  28.926  1.00  0.00    -0.000 C 
BRANCH  14  15
ATOM     15  C   UNL     1      -8.446 -27.680  27.565  1.00  0.00    -0.003 C 
ATOM     16  C   UNL     1      -9.937 -27.760  27.241  1.00  0.00     0.004 C 
ENDBRANCH  14  15
ENDBRANCH  13  14
ENDBRANCH  12  13
ENDBRANCH  11  12
ENDBRANCH  10  11
ENDBRANCH   1  10
TORSDOF 12
ENDMDL
