MODEL 1
REMARK VINA RESULT:    -5.557      0.000      0.000
REMARK INTER + INTRA:          -8.261
REMARK INTER:                  -6.857
REMARK INTRA:                  -1.404
REMARK UNBOUND:                -1.404
REMARK SMILES CC(C)=CCC[C@@H](C)[C@@H]1C=CC(C)=CC1
REMARK SMILES IDX 6 1 7 2 8 3 9 4 13 5 12 6 14 7 11 8 15 9 10 10 5 11 4 12
REMARK SMILES IDX 2 13 1 14 3 15
REMARK H PARENT
REMARK Flexibility Score: inf
ROOT
ATOM      1  C   UNL     1     -43.815 -48.625  27.630  1.00  0.00     0.008 C 
ENDROOT
BRANCH   1   2
ATOM      2  C   UNL     1     -42.620 -49.041  26.730  1.00  0.00    -0.007 C 
ATOM      3  C   UNL     1     -43.001 -48.867  25.245  1.00  0.00     0.008 C 
BRANCH   2   4
ATOM      4  C   UNL     1     -41.305 -48.249  27.036  1.00  0.00     0.018 C 
ATOM      5  C   UNL     1     -37.883 -46.600  29.186  1.00  0.00     0.044 C 
ATOM      6  C   UNL     1     -39.133 -47.168  28.580  1.00  0.00    -0.055 C 
ATOM      7  C   UNL     1     -40.194 -46.381  28.340  1.00  0.00    -0.023 C 
ATOM      8  C   UNL     1     -39.244 -48.631  28.375  1.00  0.00    -0.001 C 
ATOM      9  C   UNL     1     -41.509 -46.976  27.901  1.00  0.00     0.035 C 
ATOM     10  C   UNL     1     -40.287 -49.152  27.718  1.00  0.00    -0.023 C 
ENDBRANCH   2   4
ENDBRANCH   1   2
BRANCH   1  11
ATOM     11  C   UNL     1     -44.197 -49.711  28.659  1.00  0.00     0.027 C 
BRANCH  11  12
ATOM     12  C   UNL     1     -43.343 -49.603  29.898  1.00  0.00    -0.028 C 
ATOM     13  C   UNL     1     -42.393 -50.499  30.251  1.00  0.00    -0.080 C 
ATOM     14  C   UNL     1     -42.141 -51.760  29.457  1.00  0.00     0.039 C 
ATOM     15  C   UNL     1     -41.586 -50.236  31.496  1.00  0.00     0.039 C 
ENDBRANCH  11  12
ENDBRANCH   1  11
TORSDOF 4
ENDMDL
MODEL 2
REMARK VINA RESULT:    -5.491     11.955     14.146
REMARK INTER + INTRA:          -8.179
REMARK INTER:                  -7.098
REMARK INTRA:                  -1.081
REMARK UNBOUND:                -1.404
REMARK SMILES CC(C)=CCC[C@@H](C)[C@@H]1C=CC(C)=CC1
REMARK SMILES IDX 6 1 7 2 8 3 9 4 13 5 12 6 14 7 11 8 15 9 10 10 5 11 4 12
REMARK SMILES IDX 2 13 1 14 3 15
REMARK H PARENT
REMARK Flexibility Score: inf
ROOT
ATOM      1  C   UNL     1     -48.654 -50.463  15.610  1.00  0.00     0.008 C 
ENDROOT
BRANCH   1   2
ATOM      2  C   UNL     1     -49.164 -51.232  16.857  1.00  0.00    -0.007 C 
ATOM      3  C   UNL     1     -47.963 -51.757  17.674  1.00  0.00     0.008 C 
BRANCH   2   4
ATOM      4  C   UNL     1     -50.097 -50.377  17.778  1.00  0.00     0.018 C 
ATOM      5  C   UNL     1     -52.831 -49.263  20.993  1.00  0.00     0.044 C 
ATOM      6  C   UNL     1     -51.950 -49.785  19.896  1.00  0.00    -0.055 C 
ATOM      7  C   UNL     1     -52.439 -49.977  18.661  1.00  0.00    -0.023 C 
ATOM      8  C   UNL     1     -50.571 -50.223  20.215  1.00  0.00    -0.001 C 
ATOM      9  C   UNL     1     -51.611 -50.668  17.604  1.00  0.00     0.035 C 
ATOM     10  C   UNL     1     -49.720 -50.568  19.241  1.00  0.00    -0.023 C 
ENDBRANCH   2   4
ENDBRANCH   1   2
BRANCH   1  11
ATOM     11  C   UNL     1     -47.406 -49.603  15.905  1.00  0.00     0.027 C 
BRANCH  11  12
ATOM     12  C   UNL     1     -47.754 -48.135  15.915  1.00  0.00    -0.028 C 
ATOM     13  C   UNL     1     -47.775 -47.364  17.026  1.00  0.00    -0.080 C 
ATOM     14  C   UNL     1     -47.514 -47.929  18.404  1.00  0.00     0.039 C 
ATOM     15  C   UNL     1     -48.100 -45.900  16.877  1.00  0.00     0.039 C 
ENDBRANCH  11  12
ENDBRANCH   1  11
TORSDOF 4
ENDMDL
MODEL 3
REMARK VINA RESULT:    -5.475     12.246     13.888
REMARK INTER + INTRA:          -8.159
REMARK INTER:                  -7.378
REMARK INTRA:                  -0.781
REMARK UNBOUND:                -1.404
REMARK SMILES CC(C)=CCC[C@@H](C)[C@@H]1C=CC(C)=CC1
REMARK SMILES IDX 6 1 7 2 8 3 9 4 13 5 12 6 14 7 11 8 15 9 10 10 5 11 4 12
REMARK SMILES IDX 2 13 1 14 3 15
REMARK H PARENT
REMARK Flexibility Score: inf
ROOT
ATOM      1  C   UNL     1     -49.048 -51.148  18.837  1.00  0.00     0.008 C 
ENDROOT
BRANCH   1   2
ATOM      2  C   UNL     1     -50.201 -50.135  18.605  1.00  0.00    -0.007 C 
ATOM      3  C   UNL     1     -51.271 -50.765  17.689  1.00  0.00     0.008 C 
BRANCH   2   4
ATOM      4  C   UNL     1     -50.866 -49.634  19.931  1.00  0.00     0.018 C 
ATOM      5  C   UNL     1     -53.408 -47.399  22.687  1.00  0.00     0.044 C 
ATOM      6  C   UNL     1     -52.539 -48.046  21.648  1.00  0.00    -0.055 C 
ATOM      7  C   UNL     1     -51.246 -47.706  21.531  1.00  0.00    -0.023 C 
ATOM      8  C   UNL     1     -53.149 -48.963  20.657  1.00  0.00    -0.001 C 
ATOM      9  C   UNL     1     -50.417 -48.218  20.378  1.00  0.00     0.035 C 
ATOM     10  C   UNL     1     -52.383 -49.656  19.804  1.00  0.00    -0.023 C 
ENDBRANCH   2   4
ENDBRANCH   1   2
BRANCH   1  11
ATOM     11  C   UNL     1     -48.186 -51.374  17.576  1.00  0.00     0.027 C 
BRANCH  11  12
ATOM     12  C   UNL     1     -47.550 -50.084  17.121  1.00  0.00    -0.028 C 
ATOM     13  C   UNL     1     -47.834 -49.464  15.953  1.00  0.00    -0.080 C 
ATOM     14  C   UNL     1     -48.786 -50.055  14.938  1.00  0.00     0.039 C 
ATOM     15  C   UNL     1     -47.151 -48.155  15.651  1.00  0.00     0.039 C 
ENDBRANCH  11  12
ENDBRANCH   1  11
TORSDOF 4
ENDMDL
MODEL 4
REMARK VINA RESULT:    -5.425     11.269     14.432
REMARK INTER + INTRA:          -8.098
REMARK INTER:                  -6.928
REMARK INTRA:                  -1.169
REMARK UNBOUND:                -1.404
REMARK SMILES CC(C)=CCC[C@@H](C)[C@@H]1C=CC(C)=CC1
REMARK SMILES IDX 6 1 7 2 8 3 9 4 13 5 12 6 14 7 11 8 15 9 10 10 5 11 4 12
REMARK SMILES IDX 2 13 1 14 3 15
REMARK H PARENT
REMARK Flexibility Score: inf
ROOT
ATOM      1  C   UNL     1     -50.940 -48.045  21.775  1.00  0.00     0.008 C 
ENDROOT
BRANCH   1   2
ATOM      2  C   UNL     1     -51.999 -48.744  22.669  1.00  0.00    -0.007 C 
ATOM      3  C   UNL     1     -51.580 -48.643  24.151  1.00  0.00     0.008 C 
BRANCH   2   4
ATOM      4  C   UNL     1     -53.444 -48.169  22.487  1.00  0.00     0.018 C 
ATOM      5  C   UNL     1     -56.992 -46.425  20.636  1.00  0.00     0.044 C 
ATOM      6  C   UNL     1     -55.691 -46.952  21.167  1.00  0.00    -0.055 C 
ATOM      7  C   UNL     1     -54.887 -46.168  21.903  1.00  0.00    -0.023 C 
ATOM      8  C   UNL     1     -55.228 -48.299  20.759  1.00  0.00    -0.001 C 
ATOM      9  C   UNL     1     -53.502 -46.631  22.287  1.00  0.00     0.035 C 
ATOM     10  C   UNL     1     -54.142 -48.848  21.317  1.00  0.00    -0.023 C 
ENDBRANCH   2   4
ENDBRANCH   1   2
BRANCH   1  11
ATOM     11  C   UNL     1     -50.156 -49.037  20.888  1.00  0.00     0.027 C 
BRANCH  11  12
ATOM     12  C   UNL     1     -50.839 -49.223  19.557  1.00  0.00    -0.028 C 
ATOM     13  C   UNL     1     -51.599 -50.294  19.232  1.00  0.00    -0.080 C 
ATOM     14  C   UNL     1     -51.781 -51.466  20.169  1.00  0.00     0.039 C 
ATOM     15  C   UNL     1     -52.256 -50.323  17.876  1.00  0.00     0.039 C 
ENDBRANCH  11  12
ENDBRANCH   1  11
TORSDOF 4
ENDMDL
MODEL 5
REMARK VINA RESULT:    -5.386      2.390      3.132
REMARK INTER + INTRA:          -8.050
REMARK INTER:                  -7.322
REMARK INTRA:                  -0.728
REMARK UNBOUND:                -1.404
REMARK SMILES CC(C)=CCC[C@@H](C)[C@@H]1C=CC(C)=CC1
REMARK SMILES IDX 6 1 7 2 8 3 9 4 13 5 12 6 14 7 11 8 15 9 10 10 5 11 4 12
REMARK SMILES IDX 2 13 1 14 3 15
REMARK H PARENT
REMARK Flexibility Score: inf
ROOT
ATOM      1  C   UNL     1     -43.183 -50.567  30.362  1.00  0.00     0.008 C 
ENDROOT
BRANCH   1   2
ATOM      2  C   UNL     1     -43.163 -49.549  29.190  1.00  0.00    -0.007 C 
ATOM      3  C   UNL     1     -44.018 -48.317  29.555  1.00  0.00     0.008 C 
BRANCH   2   4
ATOM      4  C   UNL     1     -41.722 -49.093  28.786  1.00  0.00     0.018 C 
ATOM      5  C   UNL     1     -37.872 -47.036  28.849  1.00  0.00     0.044 C 
ATOM      6  C   UNL     1     -39.252 -47.623  28.901  1.00  0.00    -0.055 C 
ATOM      7  C   UNL     1     -40.210 -47.190  28.065  1.00  0.00    -0.023 C 
ATOM      8  C   UNL     1     -39.596 -48.586  29.974  1.00  0.00    -0.001 C 
ATOM      9  C   UNL     1     -41.639 -47.646  28.231  1.00  0.00     0.035 C 
ATOM     10  C   UNL     1     -40.772 -49.225  29.969  1.00  0.00    -0.023 C 
ENDBRANCH   2   4
ENDBRANCH   1   2
BRANCH   1  11
ATOM     11  C   UNL     1     -44.549 -51.272  30.520  1.00  0.00     0.027 C 
BRANCH  11  12
ATOM     12  C   UNL     1     -45.028 -51.200  31.949  1.00  0.00    -0.028 C 
ATOM     13  C   UNL     1     -46.137 -50.538  32.349  1.00  0.00    -0.080 C 
ATOM     14  C   UNL     1     -46.982 -49.729  31.391  1.00  0.00     0.039 C 
ATOM     15  C   UNL     1     -46.517 -50.590  33.807  1.00  0.00     0.039 C 
ENDBRANCH  11  12
ENDBRANCH   1  11
TORSDOF 4
ENDMDL
MODEL 6
REMARK VINA RESULT:    -5.279      2.225      6.015
REMARK INTER + INTRA:          -7.918
REMARK INTER:                  -7.461
REMARK INTRA:                  -0.457
REMARK UNBOUND:                -1.404
REMARK SMILES CC(C)=CCC[C@@H](C)[C@@H]1C=CC(C)=CC1
REMARK SMILES IDX 6 1 7 2 8 3 9 4 13 5 12 6 14 7 11 8 15 9 10 10 5 11 4 12
REMARK SMILES IDX 2 13 1 14 3 15
REMARK H PARENT
REMARK Flexibility Score: inf
ROOT
ATOM      1  C   UNL     1     -41.132 -49.402  29.768  1.00  0.00     0.008 C 
ENDROOT
BRANCH   1   2
ATOM      2  C   UNL     1     -42.432 -50.198  29.475  1.00  0.00    -0.007 C 
ATOM      3  C   UNL     1     -42.087 -51.680  29.212  1.00  0.00     0.008 C 
BRANCH   2   4
ATOM      4  C   UNL     1     -43.495 -50.097  30.619  1.00  0.00     0.018 C 
ATOM      5  C   UNL     1     -46.473 -51.233  33.601  1.00  0.00     0.044 C 
ATOM      6  C   UNL     1     -45.492 -50.965  32.498  1.00  0.00    -0.055 C 
ATOM      7  C   UNL     1     -45.903 -50.445  31.330  1.00  0.00    -0.023 C 
ATOM      8  C   UNL     1     -44.086 -51.408  32.648  1.00  0.00    -0.001 C 
ATOM      9  C   UNL     1     -44.957 -50.341  30.158  1.00  0.00     0.035 C 
ATOM     10  C   UNL     1     -43.161 -51.067  31.743  1.00  0.00    -0.023 C 
ENDBRANCH   2   4
ENDBRANCH   1   2
BRANCH   1  11
ATOM     11  C   UNL     1     -40.550 -48.720  28.510  1.00  0.00     0.027 C 
BRANCH  11  12
ATOM     12  C   UNL     1     -39.834 -47.443  28.873  1.00  0.00    -0.028 C 
ATOM     13  C   UNL     1     -38.493 -47.334  29.014  1.00  0.00    -0.080 C 
ATOM     14  C   UNL     1     -37.571 -48.526  28.889  1.00  0.00     0.039 C 
ATOM     15  C   UNL     1     -37.913 -45.981  29.338  1.00  0.00     0.039 C 
ENDBRANCH  11  12
ENDBRANCH   1  11
TORSDOF 4
ENDMDL
MODEL 7
REMARK VINA RESULT:    -5.278     11.787     14.357
REMARK INTER + INTRA:          -7.917
REMARK INTER:                  -7.324
REMARK INTRA:                  -0.592
REMARK UNBOUND:                -1.404
REMARK SMILES CC(C)=CCC[C@@H](C)[C@@H]1C=CC(C)=CC1
REMARK SMILES IDX 6 1 7 2 8 3 9 4 13 5 12 6 14 7 11 8 15 9 10 10 5 11 4 12
REMARK SMILES IDX 2 13 1 14 3 15
REMARK H PARENT
REMARK Flexibility Score: inf
ROOT
ATOM      1  C   UNL     1     -51.186 -50.011  20.123  1.00  0.00     0.008 C 
ENDROOT
BRANCH   1   2
ATOM      2  C   UNL     1     -51.453 -49.137  21.378  1.00  0.00    -0.007 C 
ATOM      3  C   UNL     1     -50.578 -47.866  21.323  1.00  0.00     0.008 C 
BRANCH   2   4
ATOM      4  C   UNL     1     -52.957 -48.737  21.550  1.00  0.00     0.018 C 
ATOM      5  C   UNL     1     -56.820 -46.813  20.896  1.00  0.00     0.044 C 
ATOM      6  C   UNL     1     -55.428 -47.352  21.059  1.00  0.00    -0.055 C 
ATOM      7  C   UNL     1     -54.634 -46.902  22.043  1.00  0.00    -0.023 C 
ATOM      8  C   UNL     1     -54.882 -48.281  20.043  1.00  0.00    -0.001 C 
ATOM      9  C   UNL     1     -53.180 -47.305  22.104  1.00  0.00     0.035 C 
ATOM     10  C   UNL     1     -53.699 -48.880  20.229  1.00  0.00    -0.023 C 
ENDBRANCH   2   4
ENDBRANCH   1   2
BRANCH   1  11
ATOM     11  C   UNL     1     -50.119 -49.405  19.186  1.00  0.00     0.027 C 
BRANCH  11  12
ATOM     12  C   UNL     1     -49.646 -50.423  18.180  1.00  0.00    -0.028 C 
ATOM     13  C   UNL     1     -48.372 -50.523  17.736  1.00  0.00    -0.080 C 
ATOM     14  C   UNL     1     -47.292 -49.555  18.163  1.00  0.00     0.039 C 
ATOM     15  C   UNL     1     -48.036 -51.622  16.760  1.00  0.00     0.039 C 
ENDBRANCH  11  12
ENDBRANCH   1  11
TORSDOF 4
ENDMDL
MODEL 8
REMARK VINA RESULT:    -5.258      2.746      4.452
REMARK INTER + INTRA:          -7.892
REMARK INTER:                  -7.021
REMARK INTRA:                  -0.871
REMARK UNBOUND:                -1.404
REMARK SMILES CC(C)=CCC[C@@H](C)[C@@H]1C=CC(C)=CC1
REMARK SMILES IDX 6 1 7 2 8 3 9 4 13 5 12 6 14 7 11 8 15 9 10 10 5 11 4 12
REMARK SMILES IDX 2 13 1 14 3 15
REMARK H PARENT
REMARK Flexibility Score: inf
ROOT
ATOM      1  C   UNL     1     -44.324 -51.350  30.311  1.00  0.00     0.008 C 
ENDROOT
BRANCH   1   2
ATOM      2  C   UNL     1     -43.419 -50.330  31.053  1.00  0.00    -0.007 C 
ATOM      3  C   UNL     1     -42.449 -51.081  31.991  1.00  0.00     0.008 C 
BRANCH   2   4
ATOM      4  C   UNL     1     -42.611 -49.399  30.090  1.00  0.00     0.018 C 
ATOM      5  C   UNL     1     -41.272 -47.376  26.461  1.00  0.00     0.044 C 
ATOM      6  C   UNL     1     -41.777 -48.185  27.620  1.00  0.00    -0.055 C 
ATOM      7  C   UNL     1     -41.069 -49.226  28.085  1.00  0.00    -0.023 C 
ATOM      8  C   UNL     1     -43.131 -47.920  28.159  1.00  0.00    -0.001 C 
ATOM      9  C   UNL     1     -41.653 -50.150  29.127  1.00  0.00     0.035 C 
ATOM     10  C   UNL     1     -43.557 -48.532  29.271  1.00  0.00    -0.023 C 
ENDBRANCH   2   4
ENDBRANCH   1   2
BRANCH   1  11
ATOM     11  C   UNL     1     -45.525 -51.817  31.163  1.00  0.00     0.027 C 
BRANCH  11  12
ATOM     12  C   UNL     1     -46.249 -50.637  31.764  1.00  0.00    -0.028 C 
ATOM     13  C   UNL     1     -46.359 -50.405  33.092  1.00  0.00    -0.080 C 
ATOM     14  C   UNL     1     -45.815 -51.366  34.125  1.00  0.00     0.039 C 
ATOM     15  C   UNL     1     -47.075 -49.160  33.546  1.00  0.00     0.039 C 
ENDBRANCH  11  12
ENDBRANCH   1  11
TORSDOF 4
ENDMDL
MODEL 9
REMARK VINA RESULT:    -5.244     11.413     13.854
REMARK INTER + INTRA:          -7.874
REMARK INTER:                  -7.310
REMARK INTRA:                  -0.565
REMARK UNBOUND:                -1.404
REMARK SMILES CC(C)=CCC[C@@H](C)[C@@H]1C=CC(C)=CC1
REMARK SMILES IDX 6 1 7 2 8 3 9 4 13 5 12 6 14 7 11 8 15 9 10 10 5 11 4 12
REMARK SMILES IDX 2 13 1 14 3 15
REMARK H PARENT
REMARK Flexibility Score: inf
ROOT
ATOM      1  C   UNL     1     -52.713 -49.352  20.587  1.00  0.00     0.008 C 
ENDROOT
BRANCH   1   2
ATOM      2  C   UNL     1     -51.268 -48.824  20.790  1.00  0.00    -0.007 C 
ATOM      3  C   UNL     1     -50.597 -49.577  21.958  1.00  0.00     0.008 C 
BRANCH   2   4
ATOM      4  C   UNL     1     -50.378 -48.936  19.507  1.00  0.00     0.018 C 
ATOM      5  C   UNL     1     -47.724 -50.573  16.452  1.00  0.00     0.044 C 
ATOM      6  C   UNL     1     -48.573 -50.108  17.599  1.00  0.00    -0.055 C 
ATOM      7  C   UNL     1     -48.063 -49.298  18.541  1.00  0.00    -0.023 C 
ATOM      8  C   UNL     1     -49.938 -50.658  17.767  1.00  0.00    -0.001 C 
ATOM      9  C   UNL     1     -48.852 -48.974  19.786  1.00  0.00     0.035 C 
ATOM     10  C   UNL     1     -50.764 -50.167  18.698  1.00  0.00    -0.023 C 
ENDBRANCH   2   4
ENDBRANCH   1   2
BRANCH   1  11
ATOM     11  C   UNL     1     -53.663 -48.955  21.738  1.00  0.00     0.027 C 
BRANCH  11  12
ATOM     12  C   UNL     1     -54.267 -47.594  21.492  1.00  0.00    -0.028 C 
ATOM     13  C   UNL     1     -55.566 -47.380  21.184  1.00  0.00    -0.080 C 
ATOM     14  C   UNL     1     -56.544 -48.516  20.983  1.00  0.00     0.039 C 
ATOM     15  C   UNL     1     -56.037 -45.959  21.008  1.00  0.00     0.039 C 
ENDBRANCH  11  12
ENDBRANCH   1  11
TORSDOF 4
ENDMDL
