MODEL 1
REMARK VINA RESULT:    -5.064      0.000      0.000
REMARK INTER + INTRA:         -11.583
REMARK INTER:                  -9.505
REMARK INTRA:                  -2.078
REMARK UNBOUND:                -2.078
REMARK SMILES O=C([O-])CCCCCCCCCCCCCCC(=O)[O-]
REMARK SMILES IDX 10 1 9 2 8 3 7 4 6 5 5 6 4 7 2 8 1 9 3 10 11 11 12 12 13 13
REMARK SMILES IDX 14 14 15 15 16 16 17 17 18 18 19 19 20 20
REMARK H PARENT
REMARK Flexibility Score: inf
ROOT
ATOM      1  C   UNL     1      17.706  22.212   6.549  1.00  0.00     0.000 C 
ENDROOT
BRANCH   1   2
ATOM      2  C   UNL     1      19.141  22.624   6.178  1.00  0.00     0.000 C 
BRANCH   2   3
ATOM      3  C   UNL     1      19.631  21.974   4.876  1.00  0.00     0.000 C 
BRANCH   3   4
ATOM      4  C   UNL     1      20.865  21.096   5.132  1.00  0.00     0.000 C 
BRANCH   4   5
ATOM      5  C   UNL     1      21.701  21.582   6.327  1.00  0.00     0.000 C 
BRANCH   5   6
ATOM      6  C   UNL     1      21.878  20.502   7.404  1.00  0.00     0.006 C 
BRANCH   6   7
ATOM      7  C   UNL     1      23.300  19.934   7.382  1.00  0.00     0.053 C 
BRANCH   7   8
ATOM      8  C   UNL     1      23.429  18.882   6.325  1.00  0.00     0.041 C 
ATOM      9  O   UNL     1      22.578  17.957   6.244  1.00  0.00    -0.550 OA
ATOM     10  O   UNL     1      24.462  18.950   5.398  1.00  0.00    -0.550 OA
ENDBRANCH   7   8
ENDBRANCH   6   7
ENDBRANCH   5   6
ENDBRANCH   4   5
ENDBRANCH   3   4
ENDBRANCH   2   3
ENDBRANCH   1   2
BRANCH   1  11
ATOM     11  C   UNL     1      16.875  23.299   7.262  1.00  0.00     0.000 C 
BRANCH  11  12
ATOM     12  C   UNL     1      17.566  24.667   7.403  1.00  0.00     0.000 C 
BRANCH  12  13
ATOM     13  C   UNL     1      17.545  25.200   8.845  1.00  0.00     0.000 C 
BRANCH  13  14
ATOM     14  C   UNL     1      18.953  25.507   9.391  1.00  0.00     0.000 C 
BRANCH  14  15
ATOM     15  C   UNL     1      20.007  24.406   9.155  1.00  0.00     0.000 C 
BRANCH  15  16
ATOM     16  C   UNL     1      20.095  23.338  10.259  1.00  0.00     0.006 C 
BRANCH  16  17
ATOM     17  C   UNL     1      19.482  21.996   9.840  1.00  0.00     0.053 C 
BRANCH  17  18
ATOM     18  C   UNL     1      18.164  21.791  10.516  1.00  0.00     0.041 C 
ATOM     19  O   UNL     1      17.465  20.778  10.249  1.00  0.00    -0.550 OA
ATOM     20  O   UNL     1      17.684  22.743  11.406  1.00  0.00    -0.550 OA
ENDBRANCH  17  18
ENDBRANCH  16  17
ENDBRANCH  15  16
ENDBRANCH  14  15
ENDBRANCH  13  14
ENDBRANCH  12  13
ENDBRANCH  11  12
ENDBRANCH   1  11
TORSDOF 15
ENDMDL
MODEL 2
REMARK VINA RESULT:    -5.016      1.473      2.839
REMARK INTER + INTRA:         -11.493
REMARK INTER:                  -9.083
REMARK INTRA:                  -2.410
REMARK UNBOUND:                -2.078
REMARK SMILES O=C([O-])CCCCCCCCCCCCCCC(=O)[O-]
REMARK SMILES IDX 10 1 9 2 8 3 7 4 6 5 5 6 4 7 2 8 1 9 3 10 11 11 12 12 13 13
REMARK SMILES IDX 14 14 15 15 16 16 17 17 18 18 19 19 20 20
REMARK H PARENT
REMARK Flexibility Score: inf
ROOT
ATOM      1  C   UNL     1      19.642  20.467   7.552  1.00  0.00     0.000 C 
ENDROOT
BRANCH   1   2
ATOM      2  C   UNL     1      20.961  21.119   8.003  1.00  0.00     0.000 C 
BRANCH   2   3
ATOM      3  C   UNL     1      21.577  22.026   6.929  1.00  0.00     0.000 C 
BRANCH   3   4
ATOM      4  C   UNL     1      21.087  21.627   5.529  1.00  0.00     0.000 C 
BRANCH   4   5
ATOM      5  C   UNL     1      22.193  20.985   4.674  1.00  0.00     0.000 C 
BRANCH   5   6
ATOM      6  C   UNL     1      21.897  19.519   4.326  1.00  0.00     0.006 C 
BRANCH   6   7
ATOM      7  C   UNL     1      22.325  18.588   5.465  1.00  0.00     0.053 C 
BRANCH   7   8
ATOM      8  C   UNL     1      23.722  18.900   5.901  1.00  0.00     0.041 C 
ATOM      9  O   UNL     1      24.689  18.705   5.117  1.00  0.00    -0.550 OA
ATOM     10  O   UNL     1      23.954  19.452   7.154  1.00  0.00    -0.550 OA
ENDBRANCH   7   8
ENDBRANCH   6   7
ENDBRANCH   5   6
ENDBRANCH   4   5
ENDBRANCH   3   4
ENDBRANCH   2   3
ENDBRANCH   1   2
BRANCH   1  11
ATOM     11  C   UNL     1      18.451  20.665   8.512  1.00  0.00     0.000 C 
BRANCH  11  12
ATOM     12  C   UNL     1      17.303  21.531   7.965  1.00  0.00     0.000 C 
BRANCH  12  13
ATOM     13  C   UNL     1      17.561  22.031   6.534  1.00  0.00     0.000 C 
BRANCH  13  14
ATOM     14  C   UNL     1      17.982  23.512   6.484  1.00  0.00     0.000 C 
BRANCH  14  15
ATOM     15  C   UNL     1      17.279  24.433   7.502  1.00  0.00     0.000 C 
BRANCH  15  16
ATOM     16  C   UNL     1      18.220  25.276   8.382  1.00  0.00     0.006 C 
BRANCH  16  17
ATOM     17  C   UNL     1      19.552  24.573   8.671  1.00  0.00     0.053 C 
BRANCH  17  18
ATOM     18  C   UNL     1      19.509  23.904  10.008  1.00  0.00     0.041 C 
ATOM     19  O   UNL     1      18.413  23.772  10.615  1.00  0.00    -0.550 OA
ATOM     20  O   UNL     1      20.684  23.469  10.606  1.00  0.00    -0.550 OA
ENDBRANCH  17  18
ENDBRANCH  16  17
ENDBRANCH  15  16
ENDBRANCH  14  15
ENDBRANCH  13  14
ENDBRANCH  12  13
ENDBRANCH  11  12
ENDBRANCH   1  11
TORSDOF 15
ENDMDL
MODEL 3
REMARK VINA RESULT:    -4.967      2.253      6.386
REMARK INTER + INTRA:         -11.400
REMARK INTER:                  -9.188
REMARK INTRA:                  -2.212
REMARK UNBOUND:                -2.078
REMARK SMILES O=C([O-])CCCCCCCCCCCCCCC(=O)[O-]
REMARK SMILES IDX 10 1 9 2 8 3 7 4 6 5 5 6 4 7 2 8 1 9 3 10 11 11 12 12 13 13
REMARK SMILES IDX 14 14 15 15 16 16 17 17 18 18 19 19 20 20
REMARK H PARENT
REMARK Flexibility Score: inf
ROOT
ATOM      1  C   UNL     1      18.787  21.267  10.024  1.00  0.00     0.000 C 
ENDROOT
BRANCH   1   2
ATOM      2  C   UNL     1      17.542  21.332   9.120  1.00  0.00     0.000 C 
BRANCH   2   3
ATOM      3  C   UNL     1      17.872  21.131   7.634  1.00  0.00     0.000 C 
BRANCH   3   4
ATOM      4  C   UNL     1      17.235  22.235   6.778  1.00  0.00     0.000 C 
BRANCH   4   5
ATOM      5  C   UNL     1      18.028  23.551   6.819  1.00  0.00     0.000 C 
BRANCH   5   6
ATOM      6  C   UNL     1      17.260  24.685   7.514  1.00  0.00     0.006 C 
BRANCH   6   7
ATOM      7  C   UNL     1      17.931  25.070   8.836  1.00  0.00     0.053 C 
BRANCH   7   8
ATOM      8  C   UNL     1      18.069  26.556   8.942  1.00  0.00     0.041 C 
ATOM      9  O   UNL     1      17.044  27.282   9.034  1.00  0.00    -0.550 OA
ATOM     10  O   UNL     1      19.330  27.136   8.989  1.00  0.00    -0.550 OA
ENDBRANCH   7   8
ENDBRANCH   6   7
ENDBRANCH   5   6
ENDBRANCH   4   5
ENDBRANCH   3   4
ENDBRANCH   2   3
ENDBRANCH   1   2
BRANCH   1  11
ATOM     11  C   UNL     1      19.047  22.528  10.873  1.00  0.00     0.000 C 
BRANCH  11  12
ATOM     12  C   UNL     1      20.436  23.166  10.693  1.00  0.00     0.000 C 
BRANCH  12  13
ATOM     13  C   UNL     1      21.283  22.462   9.620  1.00  0.00     0.000 C 
BRANCH  13  14
ATOM     14  C   UNL     1      21.369  23.262   8.306  1.00  0.00     0.000 C 
BRANCH  14  15
ATOM     15  C   UNL     1      21.444  22.413   7.021  1.00  0.00     0.000 C 
BRANCH  15  16
ATOM     16  C   UNL     1      21.595  20.898   7.246  1.00  0.00     0.006 C 
BRANCH  16  17
ATOM     17  C   UNL     1      21.842  20.125   5.944  1.00  0.00     0.053 C 
BRANCH  17  18
ATOM     18  C   UNL     1      23.062  19.269   6.070  1.00  0.00     0.041 C 
ATOM     19  O   UNL     1      23.777  19.334   7.104  1.00  0.00    -0.550 OA
ATOM     20  O   UNL     1      23.436  18.435   5.025  1.00  0.00    -0.550 OA
ENDBRANCH  17  18
ENDBRANCH  16  17
ENDBRANCH  15  16
ENDBRANCH  14  15
ENDBRANCH  13  14
ENDBRANCH  12  13
ENDBRANCH  11  12
ENDBRANCH   1  11
TORSDOF 15
ENDMDL
MODEL 4
REMARK VINA RESULT:    -4.955      2.409      6.533
REMARK INTER + INTRA:         -11.379
REMARK INTER:                  -9.207
REMARK INTRA:                  -2.172
REMARK UNBOUND:                -2.078
REMARK SMILES O=C([O-])CCCCCCCCCCCCCCC(=O)[O-]
REMARK SMILES IDX 10 1 9 2 8 3 7 4 6 5 5 6 4 7 2 8 1 9 3 10 11 11 12 12 13 13
REMARK SMILES IDX 14 14 15 15 16 16 17 17 18 18 19 19 20 20
REMARK H PARENT
REMARK Flexibility Score: inf
ROOT
ATOM      1  C   UNL     1      21.451  23.229   9.048  1.00  0.00     0.000 C 
ENDROOT
BRANCH   1   2
ATOM      2  C   UNL     1      20.546  23.179  10.292  1.00  0.00     0.000 C 
BRANCH   2   3
ATOM      3  C   UNL     1      19.374  22.198  10.138  1.00  0.00     0.000 C 
BRANCH   3   4
ATOM      4  C   UNL     1      18.133  22.706  10.887  1.00  0.00     0.000 C 
BRANCH   4   5
ATOM      5  C   UNL     1      17.673  24.091  10.403  1.00  0.00     0.000 C 
BRANCH   5   6
ATOM      6  C   UNL     1      17.163  24.075   8.955  1.00  0.00     0.006 C 
BRANCH   6   7
ATOM      7  C   UNL     1      17.889  25.123   8.106  1.00  0.00     0.053 C 
BRANCH   7   8
ATOM      8  C   UNL     1      18.055  26.397   8.873  1.00  0.00     0.041 C 
ATOM      9  O   UNL     1      19.204  26.797   9.197  1.00  0.00    -0.550 OA
ATOM     10  O   UNL     1      16.943  27.169   9.188  1.00  0.00    -0.550 OA
ENDBRANCH   7   8
ENDBRANCH   6   7
ENDBRANCH   5   6
ENDBRANCH   4   5
ENDBRANCH   3   4
ENDBRANCH   2   3
ENDBRANCH   1   2
BRANCH   1  11
ATOM     11  C   UNL     1      21.721  21.866   8.378  1.00  0.00     0.000 C 
BRANCH  11  12
ATOM     12  C   UNL     1      21.318  21.771   6.896  1.00  0.00     0.000 C 
BRANCH  12  13
ATOM     13  C   UNL     1      20.212  22.767   6.512  1.00  0.00     0.000 C 
BRANCH  13  14
ATOM     14  C   UNL     1      19.141  22.148   5.594  1.00  0.00     0.000 C 
BRANCH  14  15
ATOM     15  C   UNL     1      17.899  21.584   6.314  1.00  0.00     0.000 C 
BRANCH  15  16
ATOM     16  C   UNL     1      17.723  20.058   6.217  1.00  0.00     0.006 C 
BRANCH  16  17
ATOM     17  C   UNL     1      18.535  19.297   7.274  1.00  0.00     0.053 C 
BRANCH  17  18
ATOM     18  C   UNL     1      19.370  18.239   6.626  1.00  0.00     0.041 C 
ATOM     19  O   UNL     1      20.329  18.560   5.875  1.00  0.00    -0.550 OA
ATOM     20  O   UNL     1      19.061  16.898   6.813  1.00  0.00    -0.550 OA
ENDBRANCH  17  18
ENDBRANCH  16  17
ENDBRANCH  15  16
ENDBRANCH  14  15
ENDBRANCH  13  14
ENDBRANCH  12  13
ENDBRANCH  11  12
ENDBRANCH   1  11
TORSDOF 15
ENDMDL
MODEL 5
REMARK VINA RESULT:    -4.941      2.206      3.808
REMARK INTER + INTRA:         -11.352
REMARK INTER:                  -8.522
REMARK INTRA:                  -2.831
REMARK UNBOUND:                -2.078
REMARK SMILES O=C([O-])CCCCCCCCCCCCCCC(=O)[O-]
REMARK SMILES IDX 10 1 9 2 8 3 7 4 6 5 5 6 4 7 2 8 1 9 3 10 11 11 12 12 13 13
REMARK SMILES IDX 14 14 15 15 16 16 17 17 18 18 19 19 20 20
REMARK H PARENT
REMARK Flexibility Score: inf
ROOT
ATOM      1  C   UNL     1      17.389  23.207  10.020  1.00  0.00     0.000 C 
ENDROOT
BRANCH   1   2
ATOM      2  C   UNL     1      18.519  22.505  10.795  1.00  0.00     0.000 C 
BRANCH   2   3
ATOM      3  C   UNL     1      19.892  23.153  10.567  1.00  0.00     0.000 C 
BRANCH   3   4
ATOM      4  C   UNL     1      20.727  22.333   9.573  1.00  0.00     0.000 C 
BRANCH   4   5
ATOM      5  C   UNL     1      21.297  23.187   8.429  1.00  0.00     0.000 C 
BRANCH   5   6
ATOM      6  C   UNL     1      21.753  22.344   7.230  1.00  0.00     0.006 C 
BRANCH   6   7
ATOM      7  C   UNL     1      22.209  20.952   7.681  1.00  0.00     0.053 C 
BRANCH   7   8
ATOM      8  C   UNL     1      22.377  20.047   6.501  1.00  0.00     0.041 C 
ATOM      9  O   UNL     1      23.136  19.045   6.575  1.00  0.00    -0.550 OA
ATOM     10  O   UNL     1      21.659  20.282   5.335  1.00  0.00    -0.550 OA
ENDBRANCH   7   8
ENDBRANCH   6   7
ENDBRANCH   5   6
ENDBRANCH   4   5
ENDBRANCH   3   4
ENDBRANCH   2   3
ENDBRANCH   1   2
BRANCH   1  11
ATOM     11  C   UNL     1      17.657  24.685   9.668  1.00  0.00     0.000 C 
BRANCH  11  12
ATOM     12  C   UNL     1      17.684  25.007   8.163  1.00  0.00     0.000 C 
BRANCH  12  13
ATOM     13  C   UNL     1      17.204  23.835   7.292  1.00  0.00     0.000 C 
BRANCH  13  14
ATOM     14  C   UNL     1      18.285  23.329   6.319  1.00  0.00     0.000 C 
BRANCH  14  15
ATOM     15  C   UNL     1      18.299  21.806   6.081  1.00  0.00     0.000 C 
BRANCH  15  16
ATOM     16  C   UNL     1      17.753  20.957   7.243  1.00  0.00     0.006 C 
BRANCH  16  17
ATOM     17  C   UNL     1      18.725  19.855   7.683  1.00  0.00     0.053 C 
BRANCH  17  18
ATOM     18  C   UNL     1      18.554  18.639   6.828  1.00  0.00     0.041 C 
ATOM     19  O   UNL     1      17.421  18.347   6.362  1.00  0.00    -0.550 OA
ATOM     20  O   UNL     1      19.635  17.802   6.587  1.00  0.00    -0.550 OA
ENDBRANCH  17  18
ENDBRANCH  16  17
ENDBRANCH  15  16
ENDBRANCH  14  15
ENDBRANCH  13  14
ENDBRANCH  12  13
ENDBRANCH  11  12
ENDBRANCH   1  11
TORSDOF 15
ENDMDL
MODEL 6
REMARK VINA RESULT:    -4.912      2.376      4.474
REMARK INTER + INTRA:         -11.298
REMARK INTER:                  -9.262
REMARK INTRA:                  -2.036
REMARK UNBOUND:                -2.078
REMARK SMILES O=C([O-])CCCCCCCCCCCCCCC(=O)[O-]
REMARK SMILES IDX 10 1 9 2 8 3 7 4 6 5 5 6 4 7 2 8 1 9 3 10 11 11 12 12 13 13
REMARK SMILES IDX 14 14 15 15 16 16 17 17 18 18 19 19 20 20
REMARK H PARENT
REMARK Flexibility Score: inf
ROOT
ATOM      1  C   UNL     1      22.153  21.565   8.442  1.00  0.00     0.000 C 
ENDROOT
BRANCH   1   2
ATOM      2  C   UNL     1      22.024  20.729   7.156  1.00  0.00     0.000 C 
BRANCH   2   3
ATOM      3  C   UNL     1      21.821  21.590   5.901  1.00  0.00     0.000 C 
BRANCH   3   4
ATOM      4  C   UNL     1      20.780  20.957   4.966  1.00  0.00     0.000 C 
BRANCH   4   5
ATOM      5  C   UNL     1      19.590  21.889   4.685  1.00  0.00     0.000 C 
BRANCH   5   6
ATOM      6  C   UNL     1      18.956  22.442   5.969  1.00  0.00     0.006 C 
BRANCH   6   7
ATOM      7  C   UNL     1      17.651  21.709   6.297  1.00  0.00     0.053 C 
BRANCH   7   8
ATOM      8  C   UNL     1      17.937  20.411   6.984  1.00  0.00     0.041 C 
ATOM      9  O   UNL     1      17.478  19.334   6.520  1.00  0.00    -0.550 OA
ATOM     10  O   UNL     1      18.751  20.384   8.109  1.00  0.00    -0.550 OA
ENDBRANCH   7   8
ENDBRANCH   6   7
ENDBRANCH   5   6
ENDBRANCH   4   5
ENDBRANCH   3   4
ENDBRANCH   2   3
ENDBRANCH   1   2
BRANCH   1  11
ATOM     11  C   UNL     1      21.816  23.063   8.285  1.00  0.00     0.000 C 
BRANCH  11  12
ATOM     12  C   UNL     1      20.488  23.508   8.923  1.00  0.00     0.000 C 
BRANCH  12  13
ATOM     13  C   UNL     1      20.316  22.998  10.363  1.00  0.00     0.000 C 
BRANCH  13  14
ATOM     14  C   UNL     1      18.843  22.956  10.812  1.00  0.00     0.000 C 
BRANCH  14  15
ATOM     15  C   UNL     1      17.807  23.203   9.698  1.00  0.00     0.000 C 
BRANCH  15  16
ATOM     16  C   UNL     1      17.154  24.597   9.709  1.00  0.00     0.006 C 
BRANCH  16  17
ATOM     17  C   UNL     1      17.413  25.385   8.418  1.00  0.00     0.053 C 
BRANCH  17  18
ATOM     18  C   UNL     1      18.045  26.704   8.731  1.00  0.00     0.041 C 
ATOM     19  O   UNL     1      19.298  26.805   8.801  1.00  0.00    -0.550 OA
ATOM     20  O   UNL     1      17.250  27.812   8.994  1.00  0.00    -0.550 OA
ENDBRANCH  17  18
ENDBRANCH  16  17
ENDBRANCH  15  16
ENDBRANCH  14  15
ENDBRANCH  13  14
ENDBRANCH  12  13
ENDBRANCH  11  12
ENDBRANCH   1  11
TORSDOF 15
ENDMDL
MODEL 7
REMARK VINA RESULT:    -4.891      1.707      2.213
REMARK INTER + INTRA:         -11.259
REMARK INTER:                  -9.414
REMARK INTRA:                  -1.844
REMARK UNBOUND:                -2.078
REMARK SMILES O=C([O-])CCCCCCCCCCCCCCC(=O)[O-]
REMARK SMILES IDX 10 1 9 2 8 3 7 4 6 5 5 6 4 7 2 8 1 9 3 10 11 11 12 12 13 13
REMARK SMILES IDX 14 14 15 15 16 16 17 17 18 18 19 19 20 20
REMARK H PARENT
REMARK Flexibility Score: inf
ROOT
ATOM      1  C   UNL     1      17.372  22.335   7.134  1.00  0.00     0.000 C 
ENDROOT
BRANCH   1   2
ATOM      2  C   UNL     1      18.093  21.527   6.040  1.00  0.00     0.000 C 
BRANCH   2   3
ATOM      3  C   UNL     1      19.316  22.258   5.466  1.00  0.00     0.000 C 
BRANCH   3   4
ATOM      4  C   UNL     1      19.838  21.548   4.208  1.00  0.00     0.000 C 
BRANCH   4   5
ATOM      5  C   UNL     1      21.328  21.182   4.308  1.00  0.00     0.000 C 
BRANCH   5   6
ATOM      6  C   UNL     1      21.846  21.198   5.754  1.00  0.00     0.006 C 
BRANCH   6   7
ATOM      7  C   UNL     1      22.002  19.773   6.295  1.00  0.00     0.053 C 
BRANCH   7   8
ATOM      8  C   UNL     1      23.327  19.610   6.970  1.00  0.00     0.041 C 
ATOM      9  O   UNL     1      24.248  18.958   6.409  1.00  0.00    -0.550 OA
ATOM     10  O   UNL     1      23.564  20.218   8.197  1.00  0.00    -0.550 OA
ENDBRANCH   7   8
ENDBRANCH   6   7
ENDBRANCH   5   6
ENDBRANCH   4   5
ENDBRANCH   3   4
ENDBRANCH   2   3
ENDBRANCH   1   2
BRANCH   1  11
ATOM     11  C   UNL     1      17.317  23.858   6.895  1.00  0.00     0.000 C 
BRANCH  11  12
ATOM     12  C   UNL     1      18.119  24.709   7.897  1.00  0.00     0.000 C 
BRANCH  12  13
ATOM     13  C   UNL     1      17.283  25.148   9.110  1.00  0.00     0.000 C 
BRANCH  13  14
ATOM     14  C   UNL     1      17.858  24.643  10.447  1.00  0.00     0.000 C 
BRANCH  14  15
ATOM     15  C   UNL     1      17.567  23.164  10.774  1.00  0.00     0.000 C 
BRANCH  15  16
ATOM     16  C   UNL     1      18.811  22.280  10.971  1.00  0.00     0.006 C 
BRANCH  16  17
ATOM     17  C   UNL     1      20.113  22.990  10.576  1.00  0.00     0.053 C 
BRANCH  17  18
ATOM     18  C   UNL     1      20.623  22.457   9.275  1.00  0.00     0.041 C 
ATOM     19  O   UNL     1      21.363  23.169   8.545  1.00  0.00    -0.550 OA
ATOM     20  O   UNL     1      20.243  21.193   8.845  1.00  0.00    -0.550 OA
ENDBRANCH  17  18
ENDBRANCH  16  17
ENDBRANCH  15  16
ENDBRANCH  14  15
ENDBRANCH  13  14
ENDBRANCH  12  13
ENDBRANCH  11  12
ENDBRANCH   1  11
TORSDOF 15
ENDMDL
MODEL 8
REMARK VINA RESULT:    -4.877      2.035      4.857
REMARK INTER + INTRA:         -11.233
REMARK INTER:                  -8.990
REMARK INTRA:                  -2.243
REMARK UNBOUND:                -2.078
REMARK SMILES O=C([O-])CCCCCCCCCCCCCCC(=O)[O-]
REMARK SMILES IDX 10 1 9 2 8 3 7 4 6 5 5 6 4 7 2 8 1 9 3 10 11 11 12 12 13 13
REMARK SMILES IDX 14 14 15 15 16 16 17 17 18 18 19 19 20 20
REMARK H PARENT
REMARK Flexibility Score: inf
ROOT
ATOM      1  C   UNL     1      18.828  25.190   9.863  1.00  0.00     0.000 C 
ENDROOT
BRANCH   1   2
ATOM      2  C   UNL     1      18.535  25.402   8.367  1.00  0.00     0.000 C 
BRANCH   2   3
ATOM      3  C   UNL     1      17.295  24.634   7.887  1.00  0.00     0.000 C 
BRANCH   3   4
ATOM      4  C   UNL     1      17.648  23.698   6.721  1.00  0.00     0.000 C 
BRANCH   4   5
ATOM      5  C   UNL     1      17.581  22.212   7.111  1.00  0.00     0.000 C 
BRANCH   5   6
ATOM      6  C   UNL     1      17.344  21.293   5.904  1.00  0.00     0.006 C 
BRANCH   6   7
ATOM      7  C   UNL     1      18.672  20.874   5.265  1.00  0.00     0.053 C 
BRANCH   7   8
ATOM      8  C   UNL     1      18.961  19.434   5.550  1.00  0.00     0.041 C 
ATOM      9  O   UNL     1      19.057  18.608   4.604  1.00  0.00    -0.550 OA
ATOM     10  O   UNL     1      19.173  19.012   6.856  1.00  0.00    -0.550 OA
ENDBRANCH   7   8
ENDBRANCH   6   7
ENDBRANCH   5   6
ENDBRANCH   4   5
ENDBRANCH   3   4
ENDBRANCH   2   3
ENDBRANCH   1   2
BRANCH   1  11
ATOM     11  C   UNL     1      18.397  23.821  10.428  1.00  0.00     0.000 C 
BRANCH  11  12
ATOM     12  C   UNL     1      19.507  22.757  10.493  1.00  0.00     0.000 C 
BRANCH  12  13
ATOM     13  C   UNL     1      20.919  23.361  10.402  1.00  0.00     0.000 C 
BRANCH  13  14
ATOM     14  C   UNL     1      21.750  22.768   9.248  1.00  0.00     0.000 C 
BRANCH  14  15
ATOM     15  C   UNL     1      21.164  22.977   7.837  1.00  0.00     0.000 C 
BRANCH  15  16
ATOM     16  C   UNL     1      21.692  22.013   6.760  1.00  0.00     0.006 C 
BRANCH  16  17
ATOM     17  C   UNL     1      22.217  20.696   7.347  1.00  0.00     0.053 C 
BRANCH  17  18
ATOM     18  C   UNL     1      22.574  19.743   6.250  1.00  0.00     0.041 C 
ATOM     19  O   UNL     1      22.858  18.546   6.519  1.00  0.00    -0.550 OA
ATOM     20  O   UNL     1      22.640  20.188   4.937  1.00  0.00    -0.550 OA
ENDBRANCH  17  18
ENDBRANCH  16  17
ENDBRANCH  15  16
ENDBRANCH  14  15
ENDBRANCH  13  14
ENDBRANCH  12  13
ENDBRANCH  11  12
ENDBRANCH   1  11
TORSDOF 15
ENDMDL
MODEL 9
REMARK VINA RESULT:    -4.829      1.825      2.844
REMARK INTER + INTRA:         -11.141
REMARK INTER:                  -8.844
REMARK INTRA:                  -2.297
REMARK UNBOUND:                -2.078
REMARK SMILES O=C([O-])CCCCCCCCCCCCCCC(=O)[O-]
REMARK SMILES IDX 10 1 9 2 8 3 7 4 6 5 5 6 4 7 2 8 1 9 3 10 11 11 12 12 13 13
REMARK SMILES IDX 14 14 15 15 16 16 17 17 18 18 19 19 20 20
REMARK H PARENT
REMARK Flexibility Score: inf
ROOT
ATOM      1  C   UNL     1      18.383  20.687   8.416  1.00  0.00     0.000 C 
ENDROOT
BRANCH   1   2
ATOM      2  C   UNL     1      18.041  20.535   6.923  1.00  0.00     0.000 C 
BRANCH   2   3
ATOM      3  C   UNL     1      17.917  21.883   6.198  1.00  0.00     0.000 C 
BRANCH   3   4
ATOM      4  C   UNL     1      19.296  22.396   5.757  1.00  0.00     0.000 C 
BRANCH   4   5
ATOM      5  C   UNL     1      19.859  21.623   4.553  1.00  0.00     0.000 C 
BRANCH   5   6
ATOM      6  C   UNL     1      21.346  21.274   4.716  1.00  0.00     0.006 C 
BRANCH   6   7
ATOM      7  C   UNL     1      21.712  21.115   6.195  1.00  0.00     0.053 C 
BRANCH   7   8
ATOM      8  C   UNL     1      22.208  19.730   6.468  1.00  0.00     0.041 C 
ATOM      9  O   UNL     1      21.493  18.733   6.181  1.00  0.00    -0.550 OA
ATOM     10  O   UNL     1      23.479  19.536   6.993  1.00  0.00    -0.550 OA
ENDBRANCH   7   8
ENDBRANCH   6   7
ENDBRANCH   5   6
ENDBRANCH   4   5
ENDBRANCH   3   4
ENDBRANCH   2   3
ENDBRANCH   1   2
BRANCH   1  11
ATOM     11  C   UNL     1      17.249  21.256   9.293  1.00  0.00     0.000 C 
BRANCH  11  12
ATOM     12  C   UNL     1      17.695  21.844  10.644  1.00  0.00     0.000 C 
BRANCH  12  13
ATOM     13  C   UNL     1      17.541  23.372  10.710  1.00  0.00     0.000 C 
BRANCH  13  14
ATOM     14  C   UNL     1      17.016  23.979   9.395  1.00  0.00     0.000 C 
BRANCH  14  15
ATOM     15  C   UNL     1      18.067  24.718   8.543  1.00  0.00     0.000 C 
BRANCH  15  16
ATOM     16  C   UNL     1      19.471  24.804   9.168  1.00  0.00     0.006 C 
BRANCH  16  17
ATOM     17  C   UNL     1      20.433  23.742   8.619  1.00  0.00     0.053 C 
BRANCH  17  18
ATOM     18  C   UNL     1      21.290  23.199   9.718  1.00  0.00     0.041 C 
ATOM     19  O   UNL     1      21.006  23.439  10.921  1.00  0.00    -0.550 OA
ATOM     20  O   UNL     1      22.430  22.468   9.413  1.00  0.00    -0.550 OA
ENDBRANCH  17  18
ENDBRANCH  16  17
ENDBRANCH  15  16
ENDBRANCH  14  15
ENDBRANCH  13  14
ENDBRANCH  12  13
ENDBRANCH  11  12
ENDBRANCH   1  11
TORSDOF 15
ENDMDL
