MODEL 1
REMARK VINA RESULT:    -4.320      0.000      0.000
REMARK INTER + INTRA:          -4.964
REMARK INTER:                  -5.330
REMARK INTRA:                   0.366
REMARK UNBOUND:                 0.366
REMARK SMILES C=C1CC[C@@H]2[C@H]1[C@@H]1[C@H](CC[C@@H]2C)C1(C)C
REMARK SMILES IDX 6 1 5 2 4 3 3 4 2 5 1 6 11 7 12 8 10 9 7 11 8 12 13 13 14 14
REMARK SMILES IDX 15 15 9 16
REMARK H PARENT
REMARK Flexibility Score: 80.00
ROOT
ATOM      1  C   UNL     1      30.952  10.251  30.094  1.00  0.00     0.022 C 
ATOM      2  C   UNL     1      31.229  11.741  29.778  1.00  0.00    -0.000 C 
ATOM      3  C   UNL     1      32.616  12.050  30.375  1.00  0.00     0.009 C 
ATOM      4  C   UNL     1      32.793  11.094  31.547  1.00  0.00     0.031 C 
ATOM      5  C   UNL     1      31.859   9.974  31.249  1.00  0.00    -0.074 C 
ATOM      6  C   UNL     1      31.807   8.855  31.982  1.00  0.00     0.008 C 
ENDROOT
BRANCH   2   7
ATOM      7  C   UNL     1      31.017  12.256  28.310  1.00  0.00    -0.011 C 
ATOM      8  C   UNL     1      32.201  12.029  27.340  1.00  0.00     0.008 C 
BRANCH   7   9
ATOM      9  C   UNL     1      29.651  11.858  27.679  1.00  0.00     0.004 CG0
ATOM     10  G   UNL     1      29.211  10.384  27.792  1.00  0.00     0.000 G0
ENDBRANCH   7   9
ENDBRANCH   2   7
BRANCH   1  11
ATOM     11  C   UNL     1      31.294   9.295  28.927  1.00  0.00     0.006 C 
ATOM     12  C   UNL     1      30.379   9.390  27.691  1.00  0.00    -0.001 C 
ATOM     13  C   UNL     1      30.385   8.110  28.545  1.00  0.00    -0.029 C 
ATOM     14  C   UNL     1      29.132   7.729  29.357  1.00  0.00     0.012 C 
ATOM     15  C   UNL     1      31.113   6.929  27.888  1.00  0.00     0.012 C 
BRANCH  12  16
ATOM     16  C   UNL     1      29.205  10.382  27.787  1.00  0.00     0.005 CG0
ATOM     17  G   UNL     1      29.640  11.858  27.685  1.00  0.00     0.000 G0
ENDBRANCH  12  16
ENDBRANCH   1  11
TORSDOF 0
ENDMDL
MODEL 2
REMARK VINA RESULT:    -4.177      2.373      4.074
REMARK INTER + INTRA:          -4.788
REMARK INTER:                  -5.140
REMARK INTRA:                   0.352
REMARK UNBOUND:                 0.366
REMARK SMILES C=C1CC[C@@H]2[C@H]1[C@@H]1[C@H](CC[C@@H]2C)C1(C)C
REMARK SMILES IDX 6 1 5 2 4 3 3 4 2 5 1 6 11 7 12 8 10 9 7 11 8 12 13 13 14 14
REMARK SMILES IDX 15 15 9 16
REMARK H PARENT
REMARK Flexibility Score: 80.00
ROOT
ATOM      1  C   UNL     1      31.974   9.997  30.429  1.00  0.00     0.022 C 
ATOM      2  C   UNL     1      32.290  10.470  31.869  1.00  0.00    -0.000 C 
ATOM      3  C   UNL     1      32.248  12.009  31.828  1.00  0.00     0.009 C 
ATOM      4  C   UNL     1      32.618  12.404  30.405  1.00  0.00     0.031 C 
ATOM      5  C   UNL     1      32.307  11.193  29.597  1.00  0.00    -0.074 C 
ATOM      6  C   UNL     1      32.372  11.172  28.260  1.00  0.00     0.008 C 
ENDROOT
BRANCH   2   7
ATOM      7  C   UNL     1      31.509   9.823  33.067  1.00  0.00    -0.011 C 
ATOM      8  C   UNL     1      30.126  10.440  33.379  1.00  0.00     0.008 C 
BRANCH   7   9
ATOM      9  C   UNL     1      31.473   8.267  33.046  1.00  0.00     0.004 CG0
ATOM     10  G   UNL     1      31.086   7.576  31.723  1.00  0.00     0.000 G0
ENDBRANCH   7   9
ENDBRANCH   2   7
BRANCH   1  11
ATOM     11  C   UNL     1      30.490   9.614  30.213  1.00  0.00     0.006 C 
ATOM     12  C   UNL     1      30.017   8.333  30.926  1.00  0.00    -0.001 C 
ATOM     13  C   UNL     1      30.073   8.380  29.389  1.00  0.00    -0.029 C 
ATOM     14  C   UNL     1      31.092   7.502  28.637  1.00  0.00     0.012 C 
ATOM     15  C   UNL     1      28.696   8.490  28.721  1.00  0.00     0.012 C 
BRANCH  12  16
ATOM     16  C   UNL     1      31.088   7.559  31.719  1.00  0.00     0.005 CG0
ATOM     17  G   UNL     1      31.474   8.238  33.049  1.00  0.00     0.000 G0
ENDBRANCH  12  16
ENDBRANCH   1  11
TORSDOF 0
ENDMDL
MODEL 3
REMARK VINA RESULT:    -4.171      2.107      4.273
REMARK INTER + INTRA:          -4.780
REMARK INTER:                  -5.151
REMARK INTRA:                   0.371
REMARK UNBOUND:                 0.366
REMARK SMILES C=C1CC[C@@H]2[C@H]1[C@@H]1[C@H](CC[C@@H]2C)C1(C)C
REMARK SMILES IDX 6 1 5 2 4 3 3 4 2 5 1 6 11 7 12 8 10 9 7 11 8 12 13 13 14 14
REMARK SMILES IDX 15 15 9 16
REMARK H PARENT
REMARK Flexibility Score: 80.00
ROOT
ATOM      1  C   UNL     1      31.977  10.046  31.429  1.00  0.00     0.022 C 
ATOM      2  C   UNL     1      31.981   9.152  32.693  1.00  0.00    -0.000 C 
ATOM      3  C   UNL     1      32.204  10.105  33.884  1.00  0.00     0.009 C 
ATOM      4  C   UNL     1      32.991  11.288  33.336  1.00  0.00     0.031 C 
ATOM      5  C   UNL     1      32.706  11.271  31.875  1.00  0.00    -0.074 C 
ATOM      6  C   UNL     1      33.114  12.237  31.042  1.00  0.00     0.008 C 
ENDROOT
BRANCH   2   7
ATOM      7  C   UNL     1      30.820   8.115  32.892  1.00  0.00    -0.011 C 
ATOM      8  C   UNL     1      29.521   8.671  33.522  1.00  0.00     0.008 C 
BRANCH   7   9
ATOM      9  C   UNL     1      30.539   7.218  31.651  1.00  0.00     0.004 CG0
ATOM     10  G   UNL     1      30.396   7.913  30.281  1.00  0.00     0.000 G0
ENDBRANCH   7   9
ENDBRANCH   2   7
BRANCH   1  11
ATOM     11  C   UNL     1      30.558  10.434  30.948  1.00  0.00     0.006 C 
ATOM     12  C   UNL     1      29.711   9.290  30.361  1.00  0.00    -0.001 C 
ATOM     13  C   UNL     1      30.172  10.446  29.456  1.00  0.00    -0.029 C 
ATOM     14  C   UNL     1      31.192  10.173  28.333  1.00  0.00     0.012 C 
ATOM     15  C   UNL     1      29.055  11.431  29.089  1.00  0.00     0.012 C 
BRANCH  12  16
ATOM     16  C   UNL     1      30.394   7.912  30.271  1.00  0.00     0.005 CG0
ATOM     17  G   UNL     1      30.535   7.208  31.637  1.00  0.00     0.000 G0
ENDBRANCH  12  16
ENDBRANCH   1  11
TORSDOF 0
ENDMDL
MODEL 4
REMARK VINA RESULT:    -4.109      1.373      3.706
REMARK INTER + INTRA:          -4.704
REMARK INTER:                  -5.060
REMARK INTRA:                   0.356
REMARK UNBOUND:                 0.366
REMARK SMILES C=C1CC[C@@H]2[C@H]1[C@@H]1[C@H](CC[C@@H]2C)C1(C)C
REMARK SMILES IDX 6 1 5 2 4 3 3 4 2 5 1 6 11 7 12 8 10 9 7 11 8 12 13 13 14 14
REMARK SMILES IDX 15 15 9 16
REMARK H PARENT
REMARK Flexibility Score: 80.00
ROOT
ATOM      1  C   UNL     1      31.637  10.071  29.039  1.00  0.00     0.022 C 
ATOM      2  C   UNL     1      31.210   8.615  29.349  1.00  0.00    -0.000 C 
ATOM      3  C   UNL     1      30.825   8.596  30.841  1.00  0.00     0.009 C 
ATOM      4  C   UNL     1      31.644   9.696  31.503  1.00  0.00     0.031 C 
ATOM      5  C   UNL     1      31.990  10.616  30.385  1.00  0.00    -0.074 C 
ATOM      6  C   UNL     1      32.604  11.791  30.571  1.00  0.00     0.008 C 
ENDROOT
BRANCH   2   7
ATOM      7  C   UNL     1      30.182   7.908  28.397  1.00  0.00    -0.011 C 
ATOM      8  C   UNL     1      28.689   8.198  28.685  1.00  0.00     0.008 C 
BRANCH   7   9
ATOM      9  C   UNL     1      30.525   8.020  26.883  1.00  0.00     0.004 CG0
ATOM     10  G   UNL     1      30.897   9.411  26.332  1.00  0.00     0.000 G0
ENDBRANCH   7   9
ENDBRANCH   2   7
BRANCH   1  11
ATOM     11  C   UNL     1      30.512  10.928  28.413  1.00  0.00     0.006 C 
ATOM     12  C   UNL     1      30.102  10.551  26.976  1.00  0.00    -0.001 C 
ATOM     13  C   UNL     1      30.776  11.907  27.252  1.00  0.00    -0.029 C 
ATOM     14  C   UNL     1      32.190  12.180  26.702  1.00  0.00     0.012 C 
ATOM     15  C   UNL     1      29.816  13.102  27.188  1.00  0.00     0.012 C 
BRANCH  12  16
ATOM     16  C   UNL     1      30.897   9.407  26.318  1.00  0.00     0.005 CG0
ATOM     17  G   UNL     1      30.537   8.014  26.871  1.00  0.00     0.000 G0
ENDBRANCH  12  16
ENDBRANCH   1  11
TORSDOF 0
ENDMDL
MODEL 5
REMARK VINA RESULT:    -4.087      1.627      3.229
REMARK INTER + INTRA:          -4.676
REMARK INTER:                  -5.056
REMARK INTRA:                   0.380
REMARK UNBOUND:                 0.366
REMARK SMILES C=C1CC[C@@H]2[C@H]1[C@@H]1[C@H](CC[C@@H]2C)C1(C)C
REMARK SMILES IDX 6 1 5 2 4 3 3 4 2 5 1 6 11 7 12 8 10 9 7 11 8 12 13 13 14 14
REMARK SMILES IDX 15 15 9 16
REMARK H PARENT
REMARK Flexibility Score: 80.00
ROOT
ATOM      1  C   UNL     1      31.096  10.242  30.385  1.00  0.00     0.022 C 
ATOM      2  C   UNL     1      30.965  10.280  28.842  1.00  0.00    -0.000 C 
ATOM      3  C   UNL     1      32.249  10.956  28.324  1.00  0.00     0.009 C 
ATOM      4  C   UNL     1      32.718  11.881  29.439  1.00  0.00     0.031 C 
ATOM      5  C   UNL     1      32.093  11.319  30.667  1.00  0.00    -0.074 C 
ATOM      6  C   UNL     1      32.364  11.775  31.897  1.00  0.00     0.008 C 
ENDROOT
BRANCH   2   7
ATOM      7  C   UNL     1      30.563   8.965  28.085  1.00  0.00    -0.011 C 
ATOM      8  C   UNL     1      31.722   7.989  27.770  1.00  0.00     0.008 C 
BRANCH   7   9
ATOM      9  C   UNL     1      29.320   8.237  28.673  1.00  0.00     0.004 CG0
ATOM     10  G   UNL     1      29.279   8.006  30.197  1.00  0.00     0.000 G0
ENDBRANCH   7   9
ENDBRANCH   2   7
BRANCH   1  11
ATOM     11  C   UNL     1      31.623   8.894  30.930  1.00  0.00     0.006 C 
ATOM     12  C   UNL     1      30.662   7.696  30.801  1.00  0.00    -0.001 C 
ATOM     13  C   UNL     1      31.035   8.235  32.194  1.00  0.00    -0.029 C 
ATOM     14  C   UNL     1      29.958   8.916  33.061  1.00  0.00     0.012 C 
ATOM     15  C   UNL     1      32.013   7.338  32.964  1.00  0.00     0.012 C 
BRANCH  12  16
ATOM     16  C   UNL     1      29.277   7.995  30.198  1.00  0.00     0.005 CG0
ATOM     17  G   UNL     1      29.311   8.234  28.674  1.00  0.00     0.000 G0
ENDBRANCH  12  16
ENDBRANCH   1  11
TORSDOF 0
ENDMDL
MODEL 6
REMARK VINA RESULT:    -4.072      3.339      5.684
REMARK INTER + INTRA:          -4.658
REMARK INTER:                  -5.018
REMARK INTRA:                   0.361
REMARK UNBOUND:                 0.366
REMARK SMILES C=C1CC[C@@H]2[C@H]1[C@@H]1[C@H](CC[C@@H]2C)C1(C)C
REMARK SMILES IDX 6 1 5 2 4 3 3 4 2 5 1 6 11 7 12 8 10 9 7 11 8 12 13 13 14 14
REMARK SMILES IDX 15 15 9 16
REMARK H PARENT
REMARK Flexibility Score: 80.00
ROOT
ATOM      1  C   UNL     1      31.506   8.912  33.387  1.00  0.00     0.022 C 
ATOM      2  C   UNL     1      31.938   9.070  31.909  1.00  0.00    -0.000 C 
ATOM      3  C   UNL     1      30.971   8.195  31.089  1.00  0.00     0.009 C 
ATOM      4  C   UNL     1      30.523   7.075  32.020  1.00  0.00     0.031 C 
ATOM      5  C   UNL     1      30.751   7.623  33.385  1.00  0.00    -0.074 C 
ATOM      6  C   UNL     1      30.360   6.990  34.499  1.00  0.00     0.008 C 
ENDROOT
BRANCH   2   7
ATOM      7  C   UNL     1      32.162  10.514  31.335  1.00  0.00    -0.011 C 
ATOM      8  C   UNL     1      30.893  11.245  30.837  1.00  0.00     0.008 C 
BRANCH   7   9
ATOM      9  C   UNL     1      33.061  11.426  32.221  1.00  0.00     0.004 CG0
ATOM     10  G   UNL     1      32.744  11.499  33.728  1.00  0.00     0.000 G0
ENDBRANCH   7   9
ENDBRANCH   2   7
BRANCH   1  11
ATOM     11  C   UNL     1      30.586  10.050  33.890  1.00  0.00     0.006 C 
ATOM     12  C   UNL     1      31.250  11.431  34.045  1.00  0.00    -0.001 C 
ATOM     13  C   UNL     1      30.747  10.677  35.288  1.00  0.00    -0.029 C 
ATOM     14  C   UNL     1      31.763  10.152  36.322  1.00  0.00     0.012 C 
ATOM     15  C   UNL     1      29.458  11.256  35.885  1.00  0.00     0.012 C 
BRANCH  12  16
ATOM     16  C   UNL     1      32.757  11.502  33.735  1.00  0.00     0.005 CG0
ATOM     17  G   UNL     1      33.078  11.425  32.228  1.00  0.00     0.000 G0
ENDBRANCH  12  16
ENDBRANCH   1  11
TORSDOF 0
ENDMDL
MODEL 7
REMARK VINA RESULT:    -4.044      1.977      4.296
REMARK INTER + INTRA:          -4.624
REMARK INTER:                  -4.990
REMARK INTRA:                   0.366
REMARK UNBOUND:                 0.366
REMARK SMILES C=C1CC[C@@H]2[C@H]1[C@@H]1[C@H](CC[C@@H]2C)C1(C)C
REMARK SMILES IDX 6 1 5 2 4 3 3 4 2 5 1 6 11 7 12 8 10 9 7 11 8 12 13 13 14 14
REMARK SMILES IDX 15 15 9 16
REMARK H PARENT
REMARK Flexibility Score: 80.00
ROOT
ATOM      1  C   UNL     1      31.597   9.342  31.316  1.00  0.00     0.022 C 
ATOM      2  C   UNL     1      31.069   9.345  29.861  1.00  0.00    -0.000 C 
ATOM      3  C   UNL     1      30.079   8.168  29.768  1.00  0.00     0.009 C 
ATOM      4  C   UNL     1      30.540   7.146  30.798  1.00  0.00     0.031 C 
ATOM      5  C   UNL     1      31.340   7.941  31.769  1.00  0.00    -0.074 C 
ATOM      6  C   UNL     1      31.822   7.430  32.908  1.00  0.00     0.008 C 
ENDROOT
BRANCH   2   7
ATOM      7  C   UNL     1      30.546  10.692  29.248  1.00  0.00    -0.011 C 
ATOM      8  C   UNL     1      29.079  11.057  29.578  1.00  0.00     0.008 C 
BRANCH   7   9
ATOM      9  C   UNL     1      31.512  11.900  29.430  1.00  0.00     0.004 CG0
ATOM     10  G   UNL     1      32.085  12.153  30.839  1.00  0.00     0.000 G0
ENDBRANCH   7   9
ENDBRANCH   2   7
BRANCH   1  11
ATOM     11  C   UNL     1      30.857  10.331  32.247  1.00  0.00     0.006 C 
ATOM     12  C   UNL     1      31.103  11.826  31.970  1.00  0.00    -0.001 C 
ATOM     13  C   UNL     1      31.603  11.197  33.282  1.00  0.00    -0.029 C 
ATOM     14  C   UNL     1      33.117  11.067  33.537  1.00  0.00     0.012 C 
ATOM     15  C   UNL     1      30.771  11.585  34.512  1.00  0.00     0.012 C 
BRANCH  12  16
ATOM     16  C   UNL     1      32.095  12.156  30.839  1.00  0.00     0.005 CG0
ATOM     17  G   UNL     1      31.523  11.904  29.429  1.00  0.00     0.000 G0
ENDBRANCH  12  16
ENDBRANCH   1  11
TORSDOF 0
ENDMDL
MODEL 8
REMARK VINA RESULT:    -3.887      2.174      4.250
REMARK INTER + INTRA:          -4.429
REMARK INTER:                  -4.817
REMARK INTRA:                   0.387
REMARK UNBOUND:                 0.366
REMARK SMILES C=C1CC[C@@H]2[C@H]1[C@@H]1[C@H](CC[C@@H]2C)C1(C)C
REMARK SMILES IDX 6 1 5 2 4 3 3 4 2 5 1 6 11 7 12 8 10 9 7 11 8 12 13 13 14 14
REMARK SMILES IDX 15 15 9 16
REMARK H PARENT
REMARK Flexibility Score: 80.00
ROOT
ATOM      1  C   UNL     1      31.458   9.962  27.010  1.00  0.00     0.022 C 
ATOM      2  C   UNL     1      31.462   9.153  28.331  1.00  0.00    -0.000 C 
ATOM      3  C   UNL     1      31.532  10.194  29.464  1.00  0.00     0.009 C 
ATOM      4  C   UNL     1      32.247  11.406  28.882  1.00  0.00     0.031 C 
ATOM      5  C   UNL     1      32.053  11.273  27.412  1.00  0.00    -0.074 C 
ATOM      6  C   UNL     1      32.426  12.217  26.539  1.00  0.00     0.008 C 
ENDROOT
BRANCH   2   7
ATOM      7  C   UNL     1      30.384   8.031  28.535  1.00  0.00    -0.011 C 
ATOM      8  C   UNL     1      29.006   8.509  29.051  1.00  0.00     0.008 C 
BRANCH   7   9
ATOM      9  C   UNL     1      30.258   7.035  27.345  1.00  0.00     0.004 CG0
ATOM     10  G   UNL     1      30.137   7.626  25.926  1.00  0.00     0.000 G0
ENDBRANCH   7   9
ENDBRANCH   2   7
BRANCH   1  11
ATOM     11  C   UNL     1      30.043  10.193  26.428  1.00  0.00     0.006 C 
ATOM     12  C   UNL     1      29.331   8.942  25.879  1.00  0.00    -0.001 C 
ATOM     13  C   UNL     1      29.747  10.071  24.920  1.00  0.00    -0.029 C 
ATOM     14  C   UNL     1      30.851   9.815  23.876  1.00  0.00     0.012 C 
ATOM     15  C   UNL     1      28.575  10.928  24.426  1.00  0.00     0.012 C 
BRANCH  12  16
ATOM     16  C   UNL     1      30.132   7.626  25.924  1.00  0.00     0.005 CG0
ATOM     17  G   UNL     1      30.249   7.029  27.341  1.00  0.00     0.000 G0
ENDBRANCH  12  16
ENDBRANCH   1  11
TORSDOF 0
ENDMDL
MODEL 9
REMARK VINA RESULT:    -3.835      1.553      2.938
REMARK INTER + INTRA:          -4.366
REMARK INTER:                  -4.725
REMARK INTRA:                   0.359
REMARK UNBOUND:                 0.366
REMARK SMILES C=C1CC[C@@H]2[C@H]1[C@@H]1[C@H](CC[C@@H]2C)C1(C)C
REMARK SMILES IDX 6 1 5 2 4 3 3 4 2 5 1 6 11 7 12 8 10 9 7 11 8 12 13 13 14 14
REMARK SMILES IDX 15 15 9 16
REMARK H PARENT
REMARK Flexibility Score: 80.00
ROOT
ATOM      1  C   UNL     1      30.350   9.326  30.676  1.00  0.00     0.022 C 
ATOM      2  C   UNL     1      30.700  10.080  31.983  1.00  0.00    -0.000 C 
ATOM      3  C   UNL     1      31.630   9.142  32.776  1.00  0.00     0.009 C 
ATOM      4  C   UNL     1      31.260   7.726  32.356  1.00  0.00     0.031 C 
ATOM      5  C   UNL     1      30.611   7.897  31.028  1.00  0.00    -0.074 C 
ATOM      6  C   UNL     1      30.252   6.865  30.253  1.00  0.00     0.008 C 
ENDROOT
BRANCH   2   7
ATOM      7  C   UNL     1      31.192  11.567  31.890  1.00  0.00    -0.011 C 
ATOM      8  C   UNL     1      32.701  11.761  31.609  1.00  0.00     0.008 C 
BRANCH   7   9
ATOM      9  C   UNL     1      30.301  12.485  31.003  1.00  0.00     0.004 CG0
ATOM     10  G   UNL     1      29.911  11.969  29.603  1.00  0.00     0.000 G0
ENDBRANCH   7   9
ENDBRANCH   2   7
BRANCH   1  11
ATOM     11  C   UNL     1      31.231   9.732  29.471  1.00  0.00     0.006 C 
ATOM     12  C   UNL     1      31.006  11.154  28.924  1.00  0.00    -0.001 C 
ATOM     13  C   UNL     1      30.645   9.933  28.059  1.00  0.00    -0.029 C 
ATOM     14  C   UNL     1      29.169   9.646  27.724  1.00  0.00     0.012 C 
ATOM     15  C   UNL     1      31.631   9.672  26.913  1.00  0.00     0.012 C 
BRANCH  12  16
ATOM     16  C   UNL     1      29.897  11.979  29.604  1.00  0.00     0.005 CG0
ATOM     17  G   UNL     1      30.288  12.495  31.004  1.00  0.00     0.000 G0
ENDBRANCH  12  16
ENDBRANCH   1  11
TORSDOF 0
ENDMDL
