MODEL 1
REMARK VINA RESULT:    -3.822      0.000      0.000
REMARK INTER + INTRA:         -14.784
REMARK INTER:                  -9.631
REMARK INTRA:                  -5.153
REMARK UNBOUND:                -5.153
REMARK SMILES CCCCCCCCCCCCCCCCCCCCCCCCCCCC(=O)[O-]
REMARK SMILES IDX 15 1 16 2 17 3 18 4 19 5 20 6 21 7 22 8 23 9 24 10 25 11
REMARK SMILES IDX 26 12 27 13 28 14 29 15 30 16 14 17 13 18 12 19 11 20 10 21
REMARK SMILES IDX 9 22 8 23 7 24 6 25 5 26 4 27 3 28 2 29 1 30
REMARK H PARENT
REMARK Flexibility Score: inf
ROOT
ATOM      1  C   UNL     1      24.622  -7.475  16.673  1.00  0.00     0.000 C 
ENDROOT
BRANCH   1   2
ATOM      2  C   UNL     1      24.957  -7.362  15.177  1.00  0.00     0.000 C 
BRANCH   2   3
ATOM      3  C   UNL     1      23.718  -7.512  14.280  1.00  0.00     0.000 C 
BRANCH   3   4
ATOM      4  C   UNL     1      22.779  -8.637  14.748  1.00  0.00     0.000 C 
BRANCH   4   5
ATOM      5  C   UNL     1      23.446 -10.021  14.685  1.00  0.00     0.000 C 
BRANCH   5   6
ATOM      6  C   UNL     1      23.182 -10.867  15.943  1.00  0.00     0.000 C 
BRANCH   6   7
ATOM      7  C   UNL     1      22.267 -10.157  16.954  1.00  0.00     0.000 C 
BRANCH   7   8
ATOM      8  C   UNL     1      20.912 -10.863  17.122  1.00  0.00     0.000 C 
BRANCH   8   9
ATOM      9  C   UNL     1      20.871 -12.171  16.317  1.00  0.00     0.000 C 
BRANCH   9  10
ATOM     10  C   UNL     1      19.762 -12.176  15.252  1.00  0.00     0.000 C 
BRANCH  10  11
ATOM     11  C   UNL     1      20.282 -11.824  13.851  1.00  0.00     0.000 C 
BRANCH  11  12
ATOM     12  C   UNL     1      19.517 -10.626  13.267  1.00  0.00     0.006 C 
BRANCH  12  13
ATOM     13  C   UNL     1      18.500 -10.045  14.259  1.00  0.00     0.053 C 
BRANCH  13  14
ATOM     14  C   UNL     1      18.878  -8.664  14.699  1.00  0.00     0.041 C 
ATOM     15  O   UNL     1      19.459  -7.882  13.901  1.00  0.00    -0.550 OA
ATOM     16  O   UNL     1      18.624  -8.255  16.001  1.00  0.00    -0.550 OA
ENDBRANCH  13  14
ENDBRANCH  12  13
ENDBRANCH  11  12
ENDBRANCH  10  11
ENDBRANCH   9  10
ENDBRANCH   8   9
ENDBRANCH   7   8
ENDBRANCH   6   7
ENDBRANCH   5   6
ENDBRANCH   4   5
ENDBRANCH   3   4
ENDBRANCH   2   3
ENDBRANCH   1   2
BRANCH   1  17
ATOM     17  C   UNL     1      25.374  -6.411  17.482  1.00  0.00     0.000 C 
BRANCH  17  18
ATOM     18  C   UNL     1      25.374  -5.058  16.753  1.00  0.00     0.000 C 
BRANCH  18  19
ATOM     19  C   UNL     1      25.438  -3.866  17.721  1.00  0.00     0.000 C 
BRANCH  19  20
ATOM     20  C   UNL     1      24.513  -2.713  17.301  1.00  0.00     0.000 C 
BRANCH  20  21
ATOM     21  C   UNL     1      24.584  -1.557  18.306  1.00  0.00     0.000 C 
BRANCH  21  22
ATOM     22  C   UNL     1      23.219  -1.327  18.972  1.00  0.00    -0.000 C 
BRANCH  22  23
ATOM     23  C   UNL     1      22.102  -2.193  18.363  1.00  0.00    -0.000 C 
BRANCH  23  24
ATOM     24  C   UNL     1      21.081  -2.748  19.377  1.00  0.00    -0.000 C 
BRANCH  24  25
ATOM     25  C   UNL     1      21.359  -4.185  19.863  1.00  0.00    -0.000 C 
BRANCH  25  26
ATOM     26  C   UNL     1      22.164  -5.061  18.883  1.00  0.00    -0.000 C 
BRANCH  26  27
ATOM     27  C   UNL     1      21.439  -6.328  18.394  1.00  0.00    -0.000 C 
BRANCH  27  28
ATOM     28  C   UNL     1      21.170  -6.317  16.880  1.00  0.00    -0.000 C 
BRANCH  28  29
ATOM     29  C   UNL     1      21.647  -5.021  16.206  1.00  0.00    -0.003 C 
ATOM     30  C   UNL     1      20.503  -4.219  15.587  1.00  0.00     0.004 C 
ENDBRANCH  28  29
ENDBRANCH  27  28
ENDBRANCH  26  27
ENDBRANCH  25  26
ENDBRANCH  24  25
ENDBRANCH  23  24
ENDBRANCH  22  23
ENDBRANCH  21  22
ENDBRANCH  20  21
ENDBRANCH  19  20
ENDBRANCH  18  19
ENDBRANCH  17  18
ENDBRANCH   1  17
TORSDOF 26
ENDMDL
MODEL 2
REMARK VINA RESULT:    -3.820      1.668      7.084
REMARK INTER + INTRA:         -14.779
REMARK INTER:                  -8.968
REMARK INTRA:                  -5.811
REMARK UNBOUND:                -5.153
REMARK SMILES CCCCCCCCCCCCCCCCCCCCCCCCCCCC(=O)[O-]
REMARK SMILES IDX 15 1 16 2 17 3 18 4 19 5 20 6 21 7 22 8 23 9 24 10 25 11
REMARK SMILES IDX 26 12 27 13 28 14 29 15 30 16 14 17 13 18 12 19 11 20 10 21
REMARK SMILES IDX 9 22 8 23 7 24 6 25 5 26 4 27 3 28 2 29 1 30
REMARK H PARENT
REMARK Flexibility Score: inf
ROOT
ATOM      1  C   UNL     1      23.539  -6.545  15.486  1.00  0.00     0.000 C 
ENDROOT
BRANCH   1   2
ATOM      2  C   UNL     1      25.000  -6.521  15.964  1.00  0.00     0.000 C 
BRANCH   2   3
ATOM      3  C   UNL     1      25.137  -6.811  17.467  1.00  0.00     0.000 C 
BRANCH   3   4
ATOM      4  C   UNL     1      25.579  -5.576  18.271  1.00  0.00     0.000 C 
BRANCH   4   5
ATOM      5  C   UNL     1      25.903  -4.374  17.369  1.00  0.00     0.000 C 
BRANCH   5   6
ATOM      6  C   UNL     1      25.220  -3.077  17.837  1.00  0.00     0.000 C 
BRANCH   6   7
ATOM      7  C   UNL     1      24.052  -2.660  16.928  1.00  0.00     0.000 C 
BRANCH   7   8
ATOM      8  C   UNL     1      22.707  -3.241  17.392  1.00  0.00     0.000 C 
BRANCH   8   9
ATOM      9  C   UNL     1      22.561  -3.140  18.918  1.00  0.00     0.000 C 
BRANCH   9  10
ATOM     10  C   UNL     1      21.878  -4.372  19.532  1.00  0.00     0.000 C 
BRANCH  10  11
ATOM     11  C   UNL     1      21.930  -5.600  18.610  1.00  0.00     0.000 C 
BRANCH  11  12
ATOM     12  C   UNL     1      20.551  -6.270  18.512  1.00  0.00     0.006 C 
BRANCH  12  13
ATOM     13  C   UNL     1      20.085  -6.434  17.058  1.00  0.00     0.053 C 
BRANCH  13  14
ATOM     14  C   UNL     1      19.849  -5.111  16.397  1.00  0.00     0.041 C 
ATOM     15  O   UNL     1      19.100  -4.256  16.940  1.00  0.00    -0.550 OA
ATOM     16  O   UNL     1      20.425  -4.837  15.163  1.00  0.00    -0.550 OA
ENDBRANCH  13  14
ENDBRANCH  12  13
ENDBRANCH  11  12
ENDBRANCH  10  11
ENDBRANCH   9  10
ENDBRANCH   8   9
ENDBRANCH   7   8
ENDBRANCH   6   7
ENDBRANCH   5   6
ENDBRANCH   4   5
ENDBRANCH   3   4
ENDBRANCH   2   3
ENDBRANCH   1   2
BRANCH   1  17
ATOM     17  C   UNL     1      23.358  -7.543  14.335  1.00  0.00     0.000 C 
BRANCH  17  18
ATOM     18  C   UNL     1      24.562  -8.491  14.230  1.00  0.00     0.000 C 
BRANCH  18  19
ATOM     19  C   UNL     1      24.166  -9.896  13.748  1.00  0.00     0.000 C 
BRANCH  19  20
ATOM     20  C   UNL     1      24.358 -10.969  14.832  1.00  0.00     0.000 C 
BRANCH  20  21
ATOM     21  C   UNL     1      24.580 -10.327  16.207  1.00  0.00     0.000 C 
BRANCH  21  22
ATOM     22  C   UNL     1      23.391 -10.608  17.139  1.00  0.00    -0.000 C 
BRANCH  22  23
ATOM     23  C   UNL     1      22.335  -9.489  17.118  1.00  0.00    -0.000 C 
BRANCH  23  24
ATOM     24  C   UNL     1      20.906  -9.947  16.766  1.00  0.00    -0.000 C 
BRANCH  24  25
ATOM     25  C   UNL     1      20.547  -9.872  15.268  1.00  0.00    -0.000 C 
BRANCH  25  26
ATOM     26  C   UNL     1      20.657 -11.206  14.503  1.00  0.00    -0.000 C 
BRANCH  26  27
ATOM     27  C   UNL     1      20.307 -12.460  15.323  1.00  0.00    -0.000 C 
BRANCH  27  28
ATOM     28  C   UNL     1      21.492 -13.428  15.474  1.00  0.00    -0.000 C 
BRANCH  28  29
ATOM     29  C   UNL     1      21.622 -14.390  14.282  1.00  0.00    -0.003 C 
ATOM     30  C   UNL     1      22.817 -14.066  13.386  1.00  0.00     0.004 C 
ENDBRANCH  28  29
ENDBRANCH  27  28
ENDBRANCH  26  27
ENDBRANCH  25  26
ENDBRANCH  24  25
ENDBRANCH  23  24
ENDBRANCH  22  23
ENDBRANCH  21  22
ENDBRANCH  20  21
ENDBRANCH  19  20
ENDBRANCH  18  19
ENDBRANCH  17  18
ENDBRANCH   1  17
TORSDOF 26
ENDMDL
MODEL 3
REMARK VINA RESULT:    -3.760     10.537     13.572
REMARK INTER + INTRA:         -14.629
REMARK INTER:                  -9.093
REMARK INTRA:                  -5.535
REMARK UNBOUND:                -5.153
REMARK SMILES CCCCCCCCCCCCCCCCCCCCCCCCCCCC(=O)[O-]
REMARK SMILES IDX 15 1 16 2 17 3 18 4 19 5 20 6 21 7 22 8 23 9 24 10 25 11
REMARK SMILES IDX 26 12 27 13 28 14 29 15 30 16 14 17 13 18 12 19 11 20 10 21
REMARK SMILES IDX 9 22 8 23 7 24 6 25 5 26 4 27 3 28 2 29 1 30
REMARK H PARENT
REMARK Flexibility Score: inf
ROOT
ATOM      1  C   UNL     1      22.021  -2.067   6.860  1.00  0.00     0.000 C 
ENDROOT
BRANCH   1   2
ATOM      2  C   UNL     1      22.252  -1.260   5.572  1.00  0.00     0.000 C 
BRANCH   2   3
ATOM      3  C   UNL     1      21.766   0.194   5.688  1.00  0.00     0.000 C 
BRANCH   3   4
ATOM      4  C   UNL     1      21.225   0.527   7.089  1.00  0.00     0.000 C 
BRANCH   4   5
ATOM      5  C   UNL     1      21.986   1.687   7.752  1.00  0.00     0.000 C 
BRANCH   5   6
ATOM      6  C   UNL     1      23.419   1.302   8.161  1.00  0.00     0.000 C 
BRANCH   6   7
ATOM      7  C   UNL     1      23.457   0.387   9.397  1.00  0.00     0.000 C 
BRANCH   7   8
ATOM      8  C   UNL     1      24.824  -0.288   9.589  1.00  0.00     0.000 C 
BRANCH   8   9
ATOM      9  C   UNL     1      25.880   0.335   8.663  1.00  0.00     0.000 C 
BRANCH   9  10
ATOM     10  C   UNL     1      27.287  -0.234   8.902  1.00  0.00     0.000 C 
BRANCH  10  11
ATOM     11  C   UNL     1      28.312   0.262   7.872  1.00  0.00     0.000 C 
BRANCH  11  12
ATOM     12  C   UNL     1      27.835  -0.029   6.440  1.00  0.00     0.006 C 
BRANCH  12  13
ATOM     13  C   UNL     1      27.930   1.204   5.532  1.00  0.00     0.053 C 
BRANCH  13  14
ATOM     14  C   UNL     1      26.643   1.971   5.498  1.00  0.00     0.041 C 
ATOM     15  O   UNL     1      26.473   2.956   6.263  1.00  0.00    -0.550 OA
ATOM     16  O   UNL     1      25.619   1.574   4.649  1.00  0.00    -0.550 OA
ENDBRANCH  13  14
ENDBRANCH  12  13
ENDBRANCH  11  12
ENDBRANCH  10  11
ENDBRANCH   9  10
ENDBRANCH   8   9
ENDBRANCH   7   8
ENDBRANCH   6   7
ENDBRANCH   5   6
ENDBRANCH   4   5
ENDBRANCH   3   4
ENDBRANCH   2   3
ENDBRANCH   1   2
BRANCH   1  17
ATOM     17  C   UNL     1      23.324  -2.720   7.335  1.00  0.00     0.000 C 
BRANCH  17  18
ATOM     18  C   UNL     1      24.517  -2.261   6.483  1.00  0.00     0.000 C 
BRANCH  18  19
ATOM     19  C   UNL     1      25.809  -3.023   6.817  1.00  0.00     0.000 C 
BRANCH  19  20
ATOM     20  C   UNL     1      26.718  -3.213   5.592  1.00  0.00     0.000 C 
BRANCH  20  21
ATOM     21  C   UNL     1      28.158  -3.524   6.018  1.00  0.00     0.000 C 
BRANCH  21  22
ATOM     22  C   UNL     1      28.284  -3.534   7.550  1.00  0.00    -0.000 C 
BRANCH  22  23
ATOM     23  C   UNL     1      28.817  -4.870   8.098  1.00  0.00    -0.000 C 
BRANCH  23  24
ATOM     24  C   UNL     1      28.728  -6.059   7.119  1.00  0.00    -0.000 C 
BRANCH  24  25
ATOM     25  C   UNL     1      27.557  -7.029   7.374  1.00  0.00    -0.000 C 
BRANCH  25  26
ATOM     26  C   UNL     1      26.291  -6.757   6.537  1.00  0.00    -0.000 C 
BRANCH  26  27
ATOM     27  C   UNL     1      26.478  -6.879   5.014  1.00  0.00    -0.000 C 
BRANCH  27  28
ATOM     28  C   UNL     1      25.281  -6.332   4.218  1.00  0.00    -0.000 C 
BRANCH  28  29
ATOM     29  C   UNL     1      24.140  -5.852   5.128  1.00  0.00    -0.003 C 
ATOM     30  C   UNL     1      23.113  -4.994   4.388  1.00  0.00     0.004 C 
ENDBRANCH  28  29
ENDBRANCH  27  28
ENDBRANCH  26  27
ENDBRANCH  25  26
ENDBRANCH  24  25
ENDBRANCH  23  24
ENDBRANCH  22  23
ENDBRANCH  21  22
ENDBRANCH  20  21
ENDBRANCH  19  20
ENDBRANCH  18  19
ENDBRANCH  17  18
ENDBRANCH   1  17
TORSDOF 26
ENDMDL
MODEL 4
REMARK VINA RESULT:    -3.753      1.504      7.193
REMARK INTER + INTRA:         -14.612
REMARK INTER:                  -9.151
REMARK INTRA:                  -5.460
REMARK UNBOUND:                -5.153
REMARK SMILES CCCCCCCCCCCCCCCCCCCCCCCCCCCC(=O)[O-]
REMARK SMILES IDX 15 1 16 2 17 3 18 4 19 5 20 6 21 7 22 8 23 9 24 10 25 11
REMARK SMILES IDX 26 12 27 13 28 14 29 15 30 16 14 17 13 18 12 19 11 20 10 21
REMARK SMILES IDX 9 22 8 23 7 24 6 25 5 26 4 27 3 28 2 29 1 30
REMARK H PARENT
REMARK Flexibility Score: inf
ROOT
ATOM      1  C   UNL     1      24.788  -7.213  15.697  1.00  0.00     0.000 C 
ENDROOT
BRANCH   1   2
ATOM      2  C   UNL     1      25.021  -5.827  16.320  1.00  0.00     0.000 C 
BRANCH   2   3
ATOM      3  C   UNL     1      25.439  -5.904  17.797  1.00  0.00     0.000 C 
BRANCH   3   4
ATOM      4  C   UNL     1      25.640  -4.515  18.429  1.00  0.00     0.000 C 
BRANCH   4   5
ATOM      5  C   UNL     1      25.398  -3.374  17.427  1.00  0.00     0.000 C 
BRANCH   5   6
ATOM      6  C   UNL     1      24.989  -2.058  18.112  1.00  0.00     0.000 C 
BRANCH   6   7
ATOM      7  C   UNL     1      23.471  -1.817  18.073  1.00  0.00     0.000 C 
BRANCH   7   8
ATOM      8  C   UNL     1      22.791  -2.525  16.890  1.00  0.00     0.000 C 
BRANCH   8   9
ATOM      9  C   UNL     1      21.629  -3.407  17.373  1.00  0.00     0.000 C 
BRANCH   9  10
ATOM     10  C   UNL     1      21.828  -3.917  18.809  1.00  0.00     0.000 C 
BRANCH  10  11
ATOM     11  C   UNL     1      22.018  -5.439  18.877  1.00  0.00     0.000 C 
BRANCH  11  12
ATOM     12  C   UNL     1      21.551  -6.109  17.575  1.00  0.00     0.006 C 
BRANCH  12  13
ATOM     13  C   UNL     1      20.465  -7.165  17.821  1.00  0.00     0.053 C 
BRANCH  13  14
ATOM     14  C   UNL     1      19.100  -6.649  17.479  1.00  0.00     0.041 C 
ATOM     15  O   UNL     1      18.500  -7.076  16.458  1.00  0.00    -0.550 OA
ATOM     16  O   UNL     1      18.509  -5.670  18.266  1.00  0.00    -0.550 OA
ENDBRANCH  13  14
ENDBRANCH  12  13
ENDBRANCH  11  12
ENDBRANCH  10  11
ENDBRANCH   9  10
ENDBRANCH   8   9
ENDBRANCH   7   8
ENDBRANCH   6   7
ENDBRANCH   5   6
ENDBRANCH   4   5
ENDBRANCH   3   4
ENDBRANCH   2   3
ENDBRANCH   1   2
BRANCH   1  17
ATOM     17  C   UNL     1      24.634  -8.281  16.787  1.00  0.00     0.000 C 
BRANCH  17  18
ATOM     18  C   UNL     1      23.399  -9.160  16.531  1.00  0.00     0.000 C 
BRANCH  18  19
ATOM     19  C   UNL     1      23.771 -10.586  16.095  1.00  0.00     0.000 C 
BRANCH  19  20
ATOM     20  C   UNL     1      23.758 -10.760  14.568  1.00  0.00     0.000 C 
BRANCH  20  21
ATOM     21  C   UNL     1      23.084 -12.079  14.170  1.00  0.00     0.000 C 
BRANCH  21  22
ATOM     22  C   UNL     1      22.757 -12.922  15.412  1.00  0.00    -0.000 C 
BRANCH  22  23
ATOM     23  C   UNL     1      21.273 -13.321  15.491  1.00  0.00    -0.000 C 
BRANCH  23  24
ATOM     24  C   UNL     1      20.484 -12.675  16.648  1.00  0.00    -0.000 C 
BRANCH  24  25
ATOM     25  C   UNL     1      20.212 -11.165  16.489  1.00  0.00    -0.000 C 
BRANCH  25  26
ATOM     26  C   UNL     1      19.664 -10.743  15.111  1.00  0.00    -0.000 C 
BRANCH  26  27
ATOM     27  C   UNL     1      20.261  -9.444  14.541  1.00  0.00    -0.000 C 
BRANCH  27  28
ATOM     28  C   UNL     1      20.569  -9.536  13.037  1.00  0.00    -0.000 C 
BRANCH  28  29
ATOM     29  C   UNL     1      21.186  -8.242  12.482  1.00  0.00    -0.003 C 
ATOM     30  C   UNL     1      21.933  -7.438  13.546  1.00  0.00     0.004 C 
ENDBRANCH  28  29
ENDBRANCH  27  28
ENDBRANCH  26  27
ENDBRANCH  25  26
ENDBRANCH  24  25
ENDBRANCH  23  24
ENDBRANCH  22  23
ENDBRANCH  21  22
ENDBRANCH  20  21
ENDBRANCH  19  20
ENDBRANCH  18  19
ENDBRANCH  17  18
ENDBRANCH   1  17
TORSDOF 26
ENDMDL
MODEL 5
REMARK VINA RESULT:    -3.753      2.959      4.156
REMARK INTER + INTRA:         -14.612
REMARK INTER:                  -9.268
REMARK INTRA:                  -5.344
REMARK UNBOUND:                -5.153
REMARK SMILES CCCCCCCCCCCCCCCCCCCCCCCCCCCC(=O)[O-]
REMARK SMILES IDX 15 1 16 2 17 3 18 4 19 5 20 6 21 7 22 8 23 9 24 10 25 11
REMARK SMILES IDX 26 12 27 13 28 14 29 15 30 16 14 17 13 18 12 19 11 20 10 21
REMARK SMILES IDX 9 22 8 23 7 24 6 25 5 26 4 27 3 28 2 29 1 30
REMARK H PARENT
REMARK Flexibility Score: inf
ROOT
ATOM      1  C   UNL     1      24.230  -6.358  16.436  1.00  0.00     0.000 C 
ENDROOT
BRANCH   1   2
ATOM      2  C   UNL     1      23.831  -7.784  16.024  1.00  0.00     0.000 C 
BRANCH   2   3
ATOM      3  C   UNL     1      24.602  -8.862  16.802  1.00  0.00     0.000 C 
BRANCH   3   4
ATOM      4  C   UNL     1      23.729 -10.080  17.152  1.00  0.00     0.000 C 
BRANCH   4   5
ATOM      5  C   UNL     1      22.284  -9.929  16.648  1.00  0.00     0.000 C 
BRANCH   5   6
ATOM      6  C   UNL     1      21.649 -11.274  16.250  1.00  0.00     0.000 C 
BRANCH   6   7
ATOM      7  C   UNL     1      20.981 -11.227  14.866  1.00  0.00     0.000 C 
BRANCH   7   8
ATOM      8  C   UNL     1      21.673 -10.242  13.910  1.00  0.00     0.000 C 
BRANCH   8   9
ATOM      9  C   UNL     1      22.145 -10.955  12.633  1.00  0.00     0.000 C 
BRANCH   9  10
ATOM     10  C   UNL     1      23.604 -11.429  12.725  1.00  0.00     0.000 C 
BRANCH  10  11
ATOM     11  C   UNL     1      24.519 -10.405  13.413  1.00  0.00     0.000 C 
BRANCH  11  12
ATOM     12  C   UNL     1      25.703 -11.102  14.101  1.00  0.00     0.006 C 
BRANCH  12  13
ATOM     13  C   UNL     1      25.306 -12.447  14.723  1.00  0.00     0.053 C 
BRANCH  13  14
ATOM     14  C   UNL     1      26.484 -13.155  15.320  1.00  0.00     0.041 C 
ATOM     15  O   UNL     1      27.474 -12.496  15.734  1.00  0.00    -0.550 OA
ATOM     16  O   UNL     1      26.505 -14.541  15.383  1.00  0.00    -0.550 OA
ENDBRANCH  13  14
ENDBRANCH  12  13
ENDBRANCH  11  12
ENDBRANCH  10  11
ENDBRANCH   9  10
ENDBRANCH   8   9
ENDBRANCH   7   8
ENDBRANCH   6   7
ENDBRANCH   5   6
ENDBRANCH   4   5
ENDBRANCH   3   4
ENDBRANCH   2   3
ENDBRANCH   1   2
BRANCH   1  17
ATOM     17  C   UNL     1      24.830  -6.345  17.847  1.00  0.00     0.000 C 
BRANCH  17  18
ATOM     18  C   UNL     1      25.745  -5.127  18.049  1.00  0.00     0.000 C 
BRANCH  18  19
ATOM     19  C   UNL     1      25.388  -3.961  17.114  1.00  0.00     0.000 C 
BRANCH  19  20
ATOM     20  C   UNL     1      25.280  -2.619  17.857  1.00  0.00     0.000 C 
BRANCH  20  21
ATOM     21  C   UNL     1      23.986  -1.886  17.483  1.00  0.00     0.000 C 
BRANCH  21  22
ATOM     22  C   UNL     1      22.842  -2.884  17.246  1.00  0.00    -0.000 C 
BRANCH  22  23
ATOM     23  C   UNL     1      21.917  -3.036  18.467  1.00  0.00    -0.000 C 
BRANCH  23  24
ATOM     24  C   UNL     1      22.236  -4.237  19.381  1.00  0.00    -0.000 C 
BRANCH  24  25
ATOM     25  C   UNL     1      21.114  -5.290  19.490  1.00  0.00    -0.000 C 
BRANCH  25  26
ATOM     26  C   UNL     1      21.111  -6.357  18.376  1.00  0.00    -0.000 C 
BRANCH  26  27
ATOM     27  C   UNL     1      20.006  -6.191  17.318  1.00  0.00    -0.000 C 
BRANCH  27  28
ATOM     28  C   UNL     1      20.552  -6.175  15.880  1.00  0.00    -0.000 C 
BRANCH  28  29
ATOM     29  C   UNL     1      19.967  -7.302  15.015  1.00  0.00    -0.003 C 
ATOM     30  C   UNL     1      19.003  -8.201  15.787  1.00  0.00     0.004 C 
ENDBRANCH  28  29
ENDBRANCH  27  28
ENDBRANCH  26  27
ENDBRANCH  25  26
ENDBRANCH  24  25
ENDBRANCH  23  24
ENDBRANCH  22  23
ENDBRANCH  21  22
ENDBRANCH  20  21
ENDBRANCH  19  20
ENDBRANCH  18  19
ENDBRANCH  17  18
ENDBRANCH   1  17
TORSDOF 26
ENDMDL
MODEL 6
REMARK VINA RESULT:    -3.700      9.730     12.055
REMARK INTER + INTRA:         -14.476
REMARK INTER:                  -9.124
REMARK INTRA:                  -5.352
REMARK UNBOUND:                -5.153
REMARK SMILES CCCCCCCCCCCCCCCCCCCCCCCCCCCC(=O)[O-]
REMARK SMILES IDX 15 1 16 2 17 3 18 4 19 5 20 6 21 7 22 8 23 9 24 10 25 11
REMARK SMILES IDX 26 12 27 13 28 14 29 15 30 16 14 17 13 18 12 19 11 20 10 21
REMARK SMILES IDX 9 22 8 23 7 24 6 25 5 26 4 27 3 28 2 29 1 30
REMARK H PARENT
REMARK Flexibility Score: inf
ROOT
ATOM      1  C   UNL     1      28.256  -4.622   7.680  1.00  0.00     0.000 C 
ENDROOT
BRANCH   1   2
ATOM      2  C   UNL     1      27.922  -5.423   6.412  1.00  0.00     0.000 C 
BRANCH   2   3
ATOM      3  C   UNL     1      27.625  -4.522   5.203  1.00  0.00     0.000 C 
BRANCH   3   4
ATOM      4  C   UNL     1      26.153  -4.081   5.140  1.00  0.00     0.000 C 
BRANCH   4   5
ATOM      5  C   UNL     1      25.204  -5.110   5.777  1.00  0.00     0.000 C 
BRANCH   5   6
ATOM      6  C   UNL     1      24.391  -4.526   6.945  1.00  0.00     0.000 C 
BRANCH   6   7
ATOM      7  C   UNL     1      24.717  -3.048   7.216  1.00  0.00     0.000 C 
BRANCH   7   8
ATOM      8  C   UNL     1      25.308  -2.821   8.616  1.00  0.00     0.000 C 
BRANCH   8   9
ATOM      9  C   UNL     1      24.697  -1.574   9.274  1.00  0.00     0.000 C 
BRANCH   9  10
ATOM     10  C   UNL     1      25.676  -0.867  10.226  1.00  0.00     0.000 C 
BRANCH  10  11
ATOM     11  C   UNL     1      24.969   0.073  11.213  1.00  0.00     0.000 C 
BRANCH  11  12
ATOM     12  C   UNL     1      23.549   0.408  10.731  1.00  0.00     0.006 C 
BRANCH  12  13
ATOM     13  C   UNL     1      22.779   1.267  11.743  1.00  0.00     0.053 C 
BRANCH  13  14
ATOM     14  C   UNL     1      22.639   2.684  11.278  1.00  0.00     0.041 C 
ATOM     15  O   UNL     1      23.664   3.384  11.063  1.00  0.00    -0.550 OA
ATOM     16  O   UNL     1      21.378   3.244  11.120  1.00  0.00    -0.550 OA
ENDBRANCH  13  14
ENDBRANCH  12  13
ENDBRANCH  11  12
ENDBRANCH  10  11
ENDBRANCH   9  10
ENDBRANCH   8   9
ENDBRANCH   7   8
ENDBRANCH   6   7
ENDBRANCH   5   6
ENDBRANCH   4   5
ENDBRANCH   3   4
ENDBRANCH   2   3
ENDBRANCH   1   2
BRANCH   1  17
ATOM     17  C   UNL     1      29.015  -3.336   7.329  1.00  0.00     0.000 C 
BRANCH  17  18
ATOM     18  C   UNL     1      28.695  -2.214   8.329  1.00  0.00     0.000 C 
BRANCH  18  19
ATOM     19  C   UNL     1      28.406  -0.872   7.637  1.00  0.00     0.000 C 
BRANCH  19  20
ATOM     20  C   UNL     1      27.652  -1.042   6.308  1.00  0.00     0.000 C 
BRANCH  20  21
ATOM     21  C   UNL     1      27.564   0.289   5.552  1.00  0.00     0.000 C 
BRANCH  21  22
ATOM     22  C   UNL     1      28.064   1.449   6.427  1.00  0.00    -0.000 C 
BRANCH  22  23
ATOM     23  C   UNL     1      26.983   2.513   6.684  1.00  0.00    -0.000 C 
BRANCH  23  24
ATOM     24  C   UNL     1      26.332   2.458   8.081  1.00  0.00    -0.000 C 
BRANCH  24  25
ATOM     25  C   UNL     1      24.826   2.123   8.087  1.00  0.00    -0.000 C 
BRANCH  25  26
ATOM     26  C   UNL     1      24.400   1.019   7.098  1.00  0.00    -0.000 C 
BRANCH  26  27
ATOM     27  C   UNL     1      22.882   0.783   6.998  1.00  0.00    -0.000 C 
BRANCH  27  28
ATOM     28  C   UNL     1      22.502  -0.203   5.880  1.00  0.00    -0.000 C 
BRANCH  28  29
ATOM     29  C   UNL     1      21.265  -1.043   6.233  1.00  0.00    -0.003 C 
ATOM     30  C   UNL     1      21.333  -1.638   7.639  1.00  0.00     0.004 C 
ENDBRANCH  28  29
ENDBRANCH  27  28
ENDBRANCH  26  27
ENDBRANCH  25  26
ENDBRANCH  24  25
ENDBRANCH  23  24
ENDBRANCH  22  23
ENDBRANCH  21  22
ENDBRANCH  20  21
ENDBRANCH  19  20
ENDBRANCH  18  19
ENDBRANCH  17  18
ENDBRANCH   1  17
TORSDOF 26
ENDMDL
MODEL 7
REMARK VINA RESULT:    -3.688      2.486      8.269
REMARK INTER + INTRA:         -14.446
REMARK INTER:                  -9.913
REMARK INTRA:                  -4.533
REMARK UNBOUND:                -5.153
REMARK SMILES CCCCCCCCCCCCCCCCCCCCCCCCCCCC(=O)[O-]
REMARK SMILES IDX 15 1 16 2 17 3 18 4 19 5 20 6 21 7 22 8 23 9 24 10 25 11
REMARK SMILES IDX 26 12 27 13 28 14 29 15 30 16 14 17 13 18 12 19 11 20 10 21
REMARK SMILES IDX 9 22 8 23 7 24 6 25 5 26 4 27 3 28 2 29 1 30
REMARK H PARENT
REMARK Flexibility Score: inf
ROOT
ATOM      1  C   UNL     1      21.971  -6.160  16.072  1.00  0.00     0.000 C 
ENDROOT
BRANCH   1   2
ATOM      2  C   UNL     1      21.873  -6.890  17.421  1.00  0.00     0.000 C 
BRANCH   2   3
ATOM      3  C   UNL     1      20.457  -7.412  17.710  1.00  0.00     0.000 C 
BRANCH   3   4
ATOM      4  C   UNL     1      19.557  -6.352  18.370  1.00  0.00     0.000 C 
BRANCH   4   5
ATOM      5  C   UNL     1      19.951  -6.075  19.830  1.00  0.00     0.000 C 
BRANCH   5   6
ATOM      6  C   UNL     1      20.241  -4.587  20.096  1.00  0.00     0.000 C 
BRANCH   6   7
ATOM      7  C   UNL     1      21.703  -4.207  19.810  1.00  0.00     0.000 C 
BRANCH   7   8
ATOM      8  C   UNL     1      21.845  -3.278  18.594  1.00  0.00     0.000 C 
BRANCH   8   9
ATOM      9  C   UNL     1      22.445  -1.925  19.003  1.00  0.00     0.000 C 
BRANCH   9  10
ATOM     10  C   UNL     1      23.894  -1.749  18.522  1.00  0.00     0.000 C 
BRANCH  10  11
ATOM     11  C   UNL     1      24.203  -2.565  17.258  1.00  0.00     0.000 C 
BRANCH  11  12
ATOM     12  C   UNL     1      25.502  -3.368  17.427  1.00  0.00     0.006 C 
BRANCH  12  13
ATOM     13  C   UNL     1      25.388  -4.786  16.852  1.00  0.00     0.053 C 
BRANCH  13  14
ATOM     14  C   UNL     1      25.218  -5.812  17.930  1.00  0.00     0.041 C 
ATOM     15  O   UNL     1      24.722  -5.487  19.041  1.00  0.00    -0.550 OA
ATOM     16  O   UNL     1      25.643  -7.117  17.722  1.00  0.00    -0.550 OA
ENDBRANCH  13  14
ENDBRANCH  12  13
ENDBRANCH  11  12
ENDBRANCH  10  11
ENDBRANCH   9  10
ENDBRANCH   8   9
ENDBRANCH   7   8
ENDBRANCH   6   7
ENDBRANCH   5   6
ENDBRANCH   4   5
ENDBRANCH   3   4
ENDBRANCH   2   3
ENDBRANCH   1   2
BRANCH   1  17
ATOM     17  C   UNL     1      21.668  -7.116  14.911  1.00  0.00     0.000 C 
BRANCH  17  18
ATOM     18  C   UNL     1      22.920  -7.358  14.053  1.00  0.00     0.000 C 
BRANCH  18  19
ATOM     19  C   UNL     1      23.769  -8.531  14.567  1.00  0.00     0.000 C 
BRANCH  19  20
ATOM     20  C   UNL     1      22.935  -9.795  14.832  1.00  0.00     0.000 C 
BRANCH  20  21
ATOM     21  C   UNL     1      23.014 -10.207  16.307  1.00  0.00     0.000 C 
BRANCH  21  22
ATOM     22  C   UNL     1      21.673 -10.784  16.786  1.00  0.00    -0.000 C 
BRANCH  22  23
ATOM     23  C   UNL     1      20.759 -11.217  15.626  1.00  0.00    -0.000 C 
BRANCH  23  24
ATOM     24  C   UNL     1      20.403 -12.717  15.601  1.00  0.00    -0.000 C 
BRANCH  24  25
ATOM     25  C   UNL     1      21.559 -13.656  15.199  1.00  0.00    -0.000 C 
BRANCH  25  26
ATOM     26  C   UNL     1      22.346 -13.222  13.946  1.00  0.00    -0.000 C 
BRANCH  26  27
ATOM     27  C   UNL     1      23.868 -13.433  14.025  1.00  0.00    -0.000 C 
BRANCH  27  28
ATOM     28  C   UNL     1      24.357 -13.732  15.453  1.00  0.00    -0.000 C 
BRANCH  28  29
ATOM     29  C   UNL     1      25.426 -12.736  15.929  1.00  0.00    -0.003 C 
ATOM     30  C   UNL     1      26.169 -12.066  14.774  1.00  0.00     0.004 C 
ENDBRANCH  28  29
ENDBRANCH  27  28
ENDBRANCH  26  27
ENDBRANCH  25  26
ENDBRANCH  24  25
ENDBRANCH  23  24
ENDBRANCH  22  23
ENDBRANCH  21  22
ENDBRANCH  20  21
ENDBRANCH  19  20
ENDBRANCH  18  19
ENDBRANCH  17  18
ENDBRANCH   1  17
TORSDOF 26
ENDMDL
MODEL 8
REMARK VINA RESULT:    -3.681      9.713     12.992
REMARK INTER + INTRA:         -14.430
REMARK INTER:                  -8.680
REMARK INTRA:                  -5.750
REMARK UNBOUND:                -5.153
REMARK SMILES CCCCCCCCCCCCCCCCCCCCCCCCCCCC(=O)[O-]
REMARK SMILES IDX 15 1 16 2 17 3 18 4 19 5 20 6 21 7 22 8 23 9 24 10 25 11
REMARK SMILES IDX 26 12 27 13 28 14 29 15 30 16 14 17 13 18 12 19 11 20 10 21
REMARK SMILES IDX 9 22 8 23 7 24 6 25 5 26 4 27 3 28 2 29 1 30
REMARK H PARENT
REMARK Flexibility Score: inf
ROOT
ATOM      1  C   UNL     1      25.364  -2.195   8.941  1.00  0.00     0.000 C 
ENDROOT
BRANCH   1   2
ATOM      2  C   UNL     1      26.065  -1.530  10.137  1.00  0.00     0.000 C 
BRANCH   2   3
ATOM      3  C   UNL     1      26.775  -0.221   9.756  1.00  0.00     0.000 C 
BRANCH   3   4
ATOM      4  C   UNL     1      28.289  -0.405   9.555  1.00  0.00     0.000 C 
BRANCH   4   5
ATOM      5  C   UNL     1      28.712  -0.230   8.088  1.00  0.00     0.000 C 
BRANCH   5   6
ATOM      6  C   UNL     1      27.943   0.897   7.376  1.00  0.00     0.000 C 
BRANCH   6   7
ATOM      7  C   UNL     1      27.576   0.542   5.926  1.00  0.00     0.000 C 
BRANCH   7   8
ATOM      8  C   UNL     1      26.138   0.946   5.566  1.00  0.00     0.000 C 
BRANCH   8   9
ATOM      9  C   UNL     1      25.117   0.073   6.312  1.00  0.00     0.000 C 
BRANCH   9  10
ATOM     10  C   UNL     1      23.911   0.878   6.824  1.00  0.00     0.000 C 
BRANCH  10  11
ATOM     11  C   UNL     1      24.128   1.436   8.238  1.00  0.00     0.000 C 
BRANCH  11  12
ATOM     12  C   UNL     1      22.827   1.382   9.054  1.00  0.00     0.006 C 
BRANCH  12  13
ATOM     13  C   UNL     1      22.981   0.559  10.340  1.00  0.00     0.053 C 
BRANCH  13  14
ATOM     14  C   UNL     1      23.590   1.364  11.447  1.00  0.00     0.041 C 
ATOM     15  O   UNL     1      23.285   2.578  11.588  1.00  0.00    -0.550 OA
ATOM     16  O   UNL     1      24.522   0.786  12.297  1.00  0.00    -0.550 OA
ENDBRANCH  13  14
ENDBRANCH  12  13
ENDBRANCH  11  12
ENDBRANCH  10  11
ENDBRANCH   9  10
ENDBRANCH   8   9
ENDBRANCH   7   8
ENDBRANCH   6   7
ENDBRANCH   5   6
ENDBRANCH   4   5
ENDBRANCH   3   4
ENDBRANCH   2   3
ENDBRANCH   1   2
BRANCH   1  17
ATOM     17  C   UNL     1      26.275  -3.244   8.290  1.00  0.00     0.000 C 
BRANCH  17  18
ATOM     18  C   UNL     1      26.455  -2.966   6.790  1.00  0.00     0.000 C 
BRANCH  18  19
ATOM     19  C   UNL     1      27.897  -3.205   6.315  1.00  0.00     0.000 C 
BRANCH  19  20
ATOM     20  C   UNL     1      28.039  -3.117   4.787  1.00  0.00     0.000 C 
BRANCH  20  21
ATOM     21  C   UNL     1      27.193  -4.192   4.094  1.00  0.00     0.000 C 
BRANCH  21  22
ATOM     22  C   UNL     1      27.611  -5.597   4.553  1.00  0.00    -0.000 C 
BRANCH  22  23
ATOM     23  C   UNL     1      26.440  -6.410   5.134  1.00  0.00    -0.000 C 
BRANCH  23  24
ATOM     24  C   UNL     1      25.194  -6.495   4.230  1.00  0.00    -0.000 C 
BRANCH  24  25
ATOM     25  C   UNL     1      23.859  -6.156   4.925  1.00  0.00    -0.000 C 
BRANCH  25  26
ATOM     26  C   UNL     1      23.967  -5.858   6.434  1.00  0.00    -0.000 C 
BRANCH  26  27
ATOM     27  C   UNL     1      23.161  -4.639   6.917  1.00  0.00    -0.000 C 
BRANCH  27  28
ATOM     28  C   UNL     1      23.123  -3.499   5.885  1.00  0.00    -0.000 C 
BRANCH  28  29
ATOM     29  C   UNL     1      21.995  -2.493   6.161  1.00  0.00    -0.003 C 
ATOM     30  C   UNL     1      21.882  -2.119   7.638  1.00  0.00     0.004 C 
ENDBRANCH  28  29
ENDBRANCH  27  28
ENDBRANCH  26  27
ENDBRANCH  25  26
ENDBRANCH  24  25
ENDBRANCH  23  24
ENDBRANCH  22  23
ENDBRANCH  21  22
ENDBRANCH  20  21
ENDBRANCH  19  20
ENDBRANCH  18  19
ENDBRANCH  17  18
ENDBRANCH   1  17
TORSDOF 26
ENDMDL
MODEL 9
REMARK VINA RESULT:    -3.638      3.153      8.305
REMARK INTER + INTRA:         -14.321
REMARK INTER:                  -9.544
REMARK INTRA:                  -4.777
REMARK UNBOUND:                -5.153
REMARK SMILES CCCCCCCCCCCCCCCCCCCCCCCCCCCC(=O)[O-]
REMARK SMILES IDX 15 1 16 2 17 3 18 4 19 5 20 6 21 7 22 8 23 9 24 10 25 11
REMARK SMILES IDX 26 12 27 13 28 14 29 15 30 16 14 17 13 18 12 19 11 20 10 21
REMARK SMILES IDX 9 22 8 23 7 24 6 25 5 26 4 27 3 28 2 29 1 30
REMARK H PARENT
REMARK Flexibility Score: inf
ROOT
ATOM      1  C   UNL     1      19.607  -8.575  16.122  1.00  0.00     0.000 C 
ENDROOT
BRANCH   1   2
ATOM      2  C   UNL     1      19.860  -8.022  17.533  1.00  0.00     0.000 C 
BRANCH   2   3
ATOM      3  C   UNL     1      20.257  -6.537  17.525  1.00  0.00     0.000 C 
BRANCH   3   4
ATOM      4  C   UNL     1      20.756  -6.049  18.897  1.00  0.00     0.000 C 
BRANCH   4   5
ATOM      5  C   UNL     1      21.782  -4.911  18.777  1.00  0.00     0.000 C 
BRANCH   5   6
ATOM      6  C   UNL     1      22.962  -5.267  17.856  1.00  0.00     0.000 C 
BRANCH   6   7
ATOM      7  C   UNL     1      24.222  -5.675  18.638  1.00  0.00     0.000 C 
BRANCH   7   8
ATOM      8  C   UNL     1      25.429  -4.777  18.323  1.00  0.00     0.000 C 
BRANCH   8   9
ATOM      9  C   UNL     1      25.064  -3.713  17.278  1.00  0.00     0.000 C 
BRANCH   9  10
ATOM     10  C   UNL     1      25.290  -2.280  17.787  1.00  0.00     0.000 C 
BRANCH  10  11
ATOM     11  C   UNL     1      24.320  -1.890  18.912  1.00  0.00     0.000 C 
BRANCH  11  12
ATOM     12  C   UNL     1      23.145  -1.067  18.362  1.00  0.00     0.006 C 
BRANCH  12  13
ATOM     13  C   UNL     1      23.499  -0.348  17.053  1.00  0.00     0.053 C 
BRANCH  13  14
ATOM     14  C   UNL     1      23.085   1.091  17.079  1.00  0.00     0.041 C 
ATOM     15  O   UNL     1      21.935   1.412  17.480  1.00  0.00    -0.550 OA
ATOM     16  O   UNL     1      23.954   2.074  16.624  1.00  0.00    -0.550 OA
ENDBRANCH  13  14
ENDBRANCH  12  13
ENDBRANCH  11  12
ENDBRANCH  10  11
ENDBRANCH   9  10
ENDBRANCH   8   9
ENDBRANCH   7   8
ENDBRANCH   6   7
ENDBRANCH   5   6
ENDBRANCH   4   5
ENDBRANCH   3   4
ENDBRANCH   2   3
ENDBRANCH   1   2
BRANCH   1  17
ATOM     17  C   UNL     1      20.329  -7.728  15.067  1.00  0.00     0.000 C 
BRANCH  17  18
ATOM     18  C   UNL     1      20.925  -8.612  13.960  1.00  0.00     0.000 C 
BRANCH  18  19
ATOM     19  C   UNL     1      22.422  -8.349  13.736  1.00  0.00     0.000 C 
BRANCH  19  20
ATOM     20  C   UNL     1      23.007  -7.359  14.756  1.00  0.00     0.000 C 
BRANCH  20  21
ATOM     21  C   UNL     1      24.077  -8.032  15.624  1.00  0.00     0.000 C 
BRANCH  21  22
ATOM     22  C   UNL     1      23.442  -8.705  16.851  1.00  0.00    -0.000 C 
BRANCH  22  23
ATOM     23  C   UNL     1      23.353 -10.236  16.714  1.00  0.00    -0.000 C 
BRANCH  23  24
ATOM     24  C   UNL     1      24.579 -10.905  16.063  1.00  0.00    -0.000 C 
BRANCH  24  25
ATOM     25  C   UNL     1      24.303 -11.606  14.717  1.00  0.00    -0.000 C 
BRANCH  25  26
ATOM     26  C   UNL     1      22.828 -11.980  14.467  1.00  0.00    -0.000 C 
BRANCH  26  27
ATOM     27  C   UNL     1      22.439 -13.410  14.881  1.00  0.00    -0.000 C 
BRANCH  27  28
ATOM     28  C   UNL     1      20.964 -13.531  15.303  1.00  0.00    -0.000 C 
BRANCH  28  29
ATOM     29  C   UNL     1      20.372 -12.189  15.762  1.00  0.00    -0.003 C 
ATOM     30  C   UNL     1      20.158 -12.122  17.273  1.00  0.00     0.004 C 
ENDBRANCH  28  29
ENDBRANCH  27  28
ENDBRANCH  26  27
ENDBRANCH  25  26
ENDBRANCH  24  25
ENDBRANCH  23  24
ENDBRANCH  22  23
ENDBRANCH  21  22
ENDBRANCH  20  21
ENDBRANCH  19  20
ENDBRANCH  18  19
ENDBRANCH  17  18
ENDBRANCH   1  17
TORSDOF 26
ENDMDL
