MODEL 1
REMARK VINA RESULT:    -3.585      0.000      0.000
REMARK INTER + INTRA:          -4.265
REMARK INTER:                  -4.213
REMARK INTRA:                  -0.052
REMARK UNBOUND:                -0.052
REMARK SMILES O=C([O-])CCC(=O)[O-]
REMARK SMILES IDX 4 1 2 2 1 3 3 4 5 5 6 6 7 7 8 8
REMARK H PARENT
REMARK Flexibility Score: inf
ROOT
ATOM      1  C   UNL     1     -20.809  -7.783  17.697  1.00  0.00     0.059 C 
ENDROOT
BRANCH   1   2
ATOM      2  C   UNL     1     -20.791  -7.383  19.141  1.00  0.00     0.042 C 
ATOM      3  O   UNL     1     -21.635  -7.865  19.943  1.00  0.00    -0.550 OA
ATOM      4  O   UNL     1     -19.817  -6.511  19.610  1.00  0.00    -0.550 OA
ENDBRANCH   1   2
BRANCH   1   5
ATOM      5  C   UNL     1     -19.899  -6.886  16.851  1.00  0.00     0.059 C 
BRANCH   5   6
ATOM      6  C   UNL     1     -19.182  -7.670  15.794  1.00  0.00     0.042 C 
ATOM      7  O   UNL     1     -18.524  -7.076  14.900  1.00  0.00    -0.550 OA
ATOM      8  O   UNL     1     -19.272  -9.056  15.775  1.00  0.00    -0.550 OA
ENDBRANCH   5   6
ENDBRANCH   1   5
TORSDOF 3
ENDMDL
MODEL 2
REMARK VINA RESULT:    -3.488     17.576     18.490
REMARK INTER + INTRA:          -4.152
REMARK INTER:                  -4.117
REMARK INTRA:                  -0.035
REMARK UNBOUND:                -0.052
REMARK SMILES O=C([O-])CCC(=O)[O-]
REMARK SMILES IDX 4 1 2 2 1 3 3 4 5 5 6 6 7 7 8 8
REMARK H PARENT
REMARK Flexibility Score: inf
ROOT
ATOM      1  C   UNL     1      -9.552 -22.402  18.788  1.00  0.00     0.059 C 
ENDROOT
BRANCH   1   2
ATOM      2  C   UNL     1      -9.301 -22.836  20.200  1.00  0.00     0.042 C 
ATOM      3  O   UNL     1      -9.714 -22.134  21.162  1.00  0.00    -0.550 OA
ATOM      4  O   UNL     1      -8.648 -24.035  20.454  1.00  0.00    -0.550 OA
ENDBRANCH   1   2
BRANCH   1   5
ATOM      5  C   UNL     1     -10.082 -23.554  17.928  1.00  0.00     0.059 C 
BRANCH   5   6
ATOM      6  C   UNL     1     -10.874 -23.050  16.761  1.00  0.00     0.042 C 
ATOM      7  O   UNL     1     -11.010 -23.763  15.731  1.00  0.00    -0.550 OA
ATOM      8  O   UNL     1     -11.430 -21.778  16.794  1.00  0.00    -0.550 OA
ENDBRANCH   5   6
ENDBRANCH   1   5
TORSDOF 3
ENDMDL
MODEL 3
REMARK VINA RESULT:    -3.401      9.786     11.181
REMARK INTER + INTRA:          -4.050
REMARK INTER:                  -3.956
REMARK INTRA:                  -0.094
REMARK UNBOUND:                -0.052
REMARK SMILES O=C([O-])CCC(=O)[O-]
REMARK SMILES IDX 4 1 2 2 1 3 3 4 5 5 6 6 7 7 8 8
REMARK H PARENT
REMARK Flexibility Score: inf
ROOT
ATOM      1  C   UNL     1     -10.631 -14.063  15.912  1.00  0.00     0.059 C 
ENDROOT
BRANCH   1   2
ATOM      2  C   UNL     1     -11.165 -13.695  14.560  1.00  0.00     0.042 C 
ATOM      3  O   UNL     1     -12.405 -13.553  14.386  1.00  0.00    -0.550 OA
ATOM      4  O   UNL     1     -10.291 -13.468  13.505  1.00  0.00    -0.550 OA
ENDBRANCH   1   2
BRANCH   1   5
ATOM      5  C   UNL     1     -11.621 -13.706  17.026  1.00  0.00     0.059 C 
BRANCH   5   6
ATOM      6  C   UNL     1     -11.269 -12.404  17.679  1.00  0.00     0.042 C 
ATOM      7  O   UNL     1     -12.091 -11.837  18.447  1.00  0.00    -0.550 OA
ATOM      8  O   UNL     1     -10.049 -11.798  17.409  1.00  0.00    -0.550 OA
ENDBRANCH   5   6
ENDBRANCH   1   5
TORSDOF 3
ENDMDL
MODEL 4
REMARK VINA RESULT:    -3.392      9.702     10.600
REMARK INTER + INTRA:          -4.039
REMARK INTER:                  -3.948
REMARK INTRA:                  -0.091
REMARK UNBOUND:                -0.052
REMARK SMILES O=C([O-])CCC(=O)[O-]
REMARK SMILES IDX 4 1 2 2 1 3 3 4 5 5 6 6 7 7 8 8
REMARK H PARENT
REMARK Flexibility Score: inf
ROOT
ATOM      1  C   UNL     1     -11.580 -13.648  17.083  1.00  0.00     0.059 C 
ENDROOT
BRANCH   1   2
ATOM      2  C   UNL     1     -11.268 -12.339  17.744  1.00  0.00     0.042 C 
ATOM      3  O   UNL     1     -10.159 -11.776  17.543  1.00  0.00    -0.550 OA
ATOM      4  O   UNL     1     -12.217 -11.722  18.548  1.00  0.00    -0.550 OA
ENDBRANCH   1   2
BRANCH   1   5
ATOM      5  C   UNL     1     -10.590 -13.961  15.956  1.00  0.00     0.059 C 
BRANCH   5   6
ATOM      6  C   UNL     1     -11.173 -13.651  14.611  1.00  0.00     0.042 C 
ATOM      7  O   UNL     1     -12.420 -13.546  14.468  1.00  0.00    -0.550 OA
ATOM      8  O   UNL     1     -10.342 -13.517  13.506  1.00  0.00    -0.550 OA
ENDBRANCH   5   6
ENDBRANCH   1   5
TORSDOF 3
ENDMDL
MODEL 5
REMARK VINA RESULT:    -3.391      9.840     10.719
REMARK INTER + INTRA:          -4.038
REMARK INTER:                  -3.934
REMARK INTRA:                  -0.104
REMARK UNBOUND:                -0.052
REMARK SMILES O=C([O-])CCC(=O)[O-]
REMARK SMILES IDX 4 1 2 2 1 3 3 4 5 5 6 6 7 7 8 8
REMARK H PARENT
REMARK Flexibility Score: inf
ROOT
ATOM      1  C   UNL     1     -11.632 -13.796  16.651  1.00  0.00     0.059 C 
ENDROOT
BRANCH   1   2
ATOM      2  C   UNL     1     -11.157 -12.797  17.662  1.00  0.00     0.042 C 
ATOM      3  O   UNL     1     -11.974 -12.005  18.202  1.00  0.00    -0.550 OA
ATOM      4  O   UNL     1      -9.821 -12.769  18.039  1.00  0.00    -0.550 OA
ENDBRANCH   1   2
BRANCH   1   5
ATOM      5  C   UNL     1     -11.997 -13.126  15.322  1.00  0.00     0.059 C 
BRANCH   5   6
ATOM      6  C   UNL     1     -10.895 -13.260  14.317  1.00  0.00     0.042 C 
ATOM      7  O   UNL     1     -11.037 -14.010  13.315  1.00  0.00    -0.550 OA
ATOM      8  O   UNL     1      -9.694 -12.587  14.506  1.00  0.00    -0.550 OA
ENDBRANCH   5   6
ENDBRANCH   1   5
TORSDOF 3
ENDMDL
MODEL 6
REMARK VINA RESULT:    -3.385      9.805     10.609
REMARK INTER + INTRA:          -4.031
REMARK INTER:                  -3.949
REMARK INTRA:                  -0.082
REMARK UNBOUND:                -0.052
REMARK SMILES O=C([O-])CCC(=O)[O-]
REMARK SMILES IDX 4 1 2 2 1 3 3 4 5 5 6 6 7 7 8 8
REMARK H PARENT
REMARK Flexibility Score: inf
ROOT
ATOM      1  C   UNL     1     -11.501 -13.733  16.960  1.00  0.00     0.059 C 
ENDROOT
BRANCH   1   2
ATOM      2  C   UNL     1     -11.302 -12.365  17.538  1.00  0.00     0.042 C 
ATOM      3  O   UNL     1     -12.045 -11.957  18.471  1.00  0.00    -0.550 OA
ATOM      4  O   UNL     1     -10.271 -11.557  17.077  1.00  0.00    -0.550 OA
ENDBRANCH   1   2
BRANCH   1   5
ATOM      5  C   UNL     1     -10.537 -14.001  15.800  1.00  0.00     0.059 C 
BRANCH   5   6
ATOM      6  C   UNL     1     -11.163 -13.678  14.478  1.00  0.00     0.042 C 
ATOM      7  O   UNL     1     -12.414 -13.564  14.379  1.00  0.00    -0.550 OA
ATOM      8  O   UNL     1     -10.369 -13.542  13.346  1.00  0.00    -0.550 OA
ENDBRANCH   5   6
ENDBRANCH   1   5
TORSDOF 3
ENDMDL
MODEL 7
REMARK VINA RESULT:    -3.382      9.784     11.122
REMARK INTER + INTRA:          -4.027
REMARK INTER:                  -3.941
REMARK INTRA:                  -0.086
REMARK UNBOUND:                -0.052
REMARK SMILES O=C([O-])CCC(=O)[O-]
REMARK SMILES IDX 4 1 2 2 1 3 3 4 5 5 6 6 7 7 8 8
REMARK H PARENT
REMARK Flexibility Score: inf
ROOT
ATOM      1  C   UNL     1     -10.671 -14.157  15.907  1.00  0.00     0.059 C 
ENDROOT
BRANCH   1   2
ATOM      2  C   UNL     1     -11.233 -13.683  14.601  1.00  0.00     0.042 C 
ATOM      3  O   UNL     1     -12.469 -13.469  14.483  1.00  0.00    -0.550 OA
ATOM      4  O   UNL     1     -10.387 -13.437  13.528  1.00  0.00    -0.550 OA
ENDBRANCH   1   2
BRANCH   1   5
ATOM      5  C   UNL     1     -11.583 -13.786  17.082  1.00  0.00     0.059 C 
BRANCH   5   6
ATOM      6  C   UNL     1     -11.237 -12.441  17.644  1.00  0.00     0.042 C 
ATOM      7  O   UNL     1     -10.120 -11.916  17.391  1.00  0.00    -0.550 OA
ATOM      8  O   UNL     1     -12.132 -11.785  18.480  1.00  0.00    -0.550 OA
ENDBRANCH   5   6
ENDBRANCH   1   5
TORSDOF 3
ENDMDL
MODEL 8
REMARK VINA RESULT:    -3.381      9.939     11.550
REMARK INTER + INTRA:          -4.026
REMARK INTER:                  -3.918
REMARK INTRA:                  -0.108
REMARK UNBOUND:                -0.052
REMARK SMILES O=C([O-])CCC(=O)[O-]
REMARK SMILES IDX 4 1 2 2 1 3 3 4 5 5 6 6 7 7 8 8
REMARK H PARENT
REMARK Flexibility Score: inf
ROOT
ATOM      1  C   UNL     1     -10.425 -11.998  15.117  1.00  0.00     0.059 C 
ENDROOT
BRANCH   1   2
ATOM      2  C   UNL     1     -10.174 -13.169  14.216  1.00  0.00     0.042 C 
ATOM      3  O   UNL     1      -8.994 -13.542  13.976  1.00  0.00    -0.550 OA
ATOM      4  O   UNL     1     -11.242 -13.873  13.676  1.00  0.00    -0.550 OA
ENDBRANCH   1   2
BRANCH   1   5
ATOM      5  C   UNL     1     -10.124 -12.337  16.581  1.00  0.00     0.059 C 
BRANCH   5   6
ATOM      6  C   UNL     1     -11.361 -12.758  17.314  1.00  0.00     0.042 C 
ATOM      7  O   UNL     1     -11.887 -11.992  18.164  1.00  0.00    -0.550 OA
ATOM      8  O   UNL     1     -11.910 -14.014  17.087  1.00  0.00    -0.550 OA
ENDBRANCH   5   6
ENDBRANCH   1   5
TORSDOF 3
ENDMDL
MODEL 9
REMARK VINA RESULT:    -3.326      9.862     10.602
REMARK INTER + INTRA:          -3.962
REMARK INTER:                  -3.799
REMARK INTRA:                  -0.163
REMARK UNBOUND:                -0.052
REMARK SMILES O=C([O-])CCC(=O)[O-]
REMARK SMILES IDX 4 1 2 2 1 3 3 4 5 5 6 6 7 7 8 8
REMARK H PARENT
REMARK Flexibility Score: inf
ROOT
ATOM      1  C   UNL     1     -10.446 -13.518  17.361  1.00  0.00     0.059 C 
ENDROOT
BRANCH   1   2
ATOM      2  C   UNL     1     -10.902 -12.115  17.627  1.00  0.00     0.042 C 
ATOM      3  O   UNL     1     -10.289 -11.142  17.112  1.00  0.00    -0.550 OA
ATOM      4  O   UNL     1     -12.027 -11.885  18.407  1.00  0.00    -0.550 OA
ENDBRANCH   1   2
BRANCH   1   5
ATOM      5  C   UNL     1     -11.469 -14.296  16.526  1.00  0.00     0.059 C 
BRANCH   5   6
ATOM      6  C   UNL     1     -11.496 -13.819  15.105  1.00  0.00     0.042 C 
ATOM      7  O   UNL     1     -10.449 -13.849  14.406  1.00  0.00    -0.550 OA
ATOM      8  O   UNL     1     -12.669 -13.306  14.566  1.00  0.00    -0.550 OA
ENDBRANCH   5   6
ENDBRANCH   1   5
TORSDOF 3
ENDMDL
