MODEL 1
REMARK VINA RESULT:    -8.002      0.000      0.000
REMARK INTER + INTRA:          -9.676
REMARK INTER:                  -9.639
REMARK INTRA:                  -0.036
REMARK UNBOUND:                -0.036
REMARK SMILES Oc1cc(O)c2c(c1)O[C@H](c1ccc(O)c(O)c1)[C@H](O)C2
REMARK SMILES IDX 21 1 19 2 10 3 9 4 7 5 8 6 2 7 3 8 4 9 6 10 20 11 11 13
REMARK SMILES IDX 18 14 12 15 16 16 13 17 14 18 17 19 15 21 5 23 1 25
REMARK H PARENT 20 12 17 20 15 22 5 24 1 26
REMARK Flexibility Score: inf
ROOT
ATOM      1  C   UNL     1     -35.809  -3.536 -14.876  1.00  0.00     0.079 C 
ATOM      2  C   UNL     1     -36.473  -2.835 -16.073  1.00  0.00     0.164 C 
ATOM      3  C   UNL     1     -36.225  -3.616 -17.383  1.00  0.00     0.232 C 
ATOM      4  O   UNL     1     -36.600  -4.989 -17.229  1.00  0.00    -0.482 OA
ATOM      5  C   UNL     1     -36.532  -5.674 -16.008  1.00  0.00     0.131 A 
ATOM      6  C   UNL     1     -36.836  -7.039 -15.975  1.00  0.00     0.093 A 
ATOM      7  C   UNL     1     -36.759  -7.750 -14.770  1.00  0.00     0.122 A 
ATOM      8  C   UNL     1     -36.376  -7.092 -13.598  1.00  0.00     0.092 A 
ATOM      9  C   UNL     1     -36.071  -5.724 -13.619  1.00  0.00     0.126 A 
ATOM     10  C   UNL     1     -36.168  -5.003 -14.823  1.00  0.00     0.039 A 
ENDROOT
BRANCH   2  11
ATOM     11  O   UNL     1     -35.998  -1.519 -16.192  1.00  0.00    -0.389 OA
ATOM     12  H   UNL     1     -35.061  -1.520 -15.865  1.00  0.00     0.211 HD
ENDBRANCH   2  11
BRANCH   3  13
ATOM     13  C   UNL     1     -34.796  -3.490 -17.883  1.00  0.00    -0.001 A 
ATOM     14  C   UNL     1     -34.542  -2.801 -19.082  1.00  0.00     0.057 A 
ATOM     15  C   UNL     1     -33.708  -4.010 -17.157  1.00  0.00     0.012 A 
ATOM     16  C   UNL     1     -33.231  -2.645 -19.556  1.00  0.00     0.157 A 
ATOM     17  C   UNL     1     -32.402  -3.855 -17.628  1.00  0.00     0.050 A 
ATOM     18  C   UNL     1     -32.157  -3.176 -18.825  1.00  0.00     0.157 A 
BRANCH  16  19
ATOM     19  O   UNL     1     -32.994  -1.962 -20.748  1.00  0.00    -0.504 OA
ATOM     20  H   UNL     1     -32.577  -2.422 -21.551  1.00  0.00     0.293 HD
ENDBRANCH  16  19
BRANCH  18  21
ATOM     21  O   UNL     1     -30.843  -3.038 -19.270  1.00  0.00    -0.504 OA
ATOM     22  H   UNL     1     -30.142  -3.750 -19.107  1.00  0.00     0.293 HD
ENDBRANCH  18  21
ENDBRANCH   3  13
BRANCH   9  23
ATOM     23  O   UNL     1     -35.672  -5.081 -12.447  1.00  0.00    -0.507 OA
ATOM     24  H   UNL     1     -34.718  -4.767 -12.312  1.00  0.00     0.293 HD
ENDBRANCH   9  23
BRANCH   7  25
ATOM     25  O   UNL     1     -37.059  -9.109 -14.729  1.00  0.00    -0.508 OA
ATOM     26  H   UNL     1     -36.962  -9.647 -13.876  1.00  0.00     0.293 HD
ENDBRANCH   7  25
TORSDOF 6
ENDMDL
MODEL 2
REMARK VINA RESULT:    -7.761      1.125      1.785
REMARK INTER + INTRA:          -9.385
REMARK INTER:                  -9.373
REMARK INTRA:                  -0.012
REMARK UNBOUND:                -0.036
REMARK SMILES Oc1cc(O)c2c(c1)O[C@H](c1ccc(O)c(O)c1)[C@H](O)C2
REMARK SMILES IDX 21 1 19 2 10 3 9 4 7 5 8 6 2 7 3 8 4 9 6 10 20 11 11 13
REMARK SMILES IDX 18 14 12 15 16 16 13 17 14 18 17 19 15 21 5 23 1 25
REMARK H PARENT 20 12 17 20 15 22 5 24 1 26
REMARK Flexibility Score: inf
ROOT
ATOM      1  C   UNL     1     -35.671  -3.529 -14.987  1.00  0.00     0.079 C 
ATOM      2  C   UNL     1     -36.078  -2.925 -16.341  1.00  0.00     0.164 C 
ATOM      3  C   UNL     1     -35.538  -3.773 -17.515  1.00  0.00     0.232 C 
ATOM      4  O   UNL     1     -35.906  -5.147 -17.354  1.00  0.00    -0.482 OA
ATOM      5  C   UNL     1     -36.086  -5.755 -16.104  1.00  0.00     0.131 A 
ATOM      6  C   UNL     1     -36.359  -7.125 -16.046  1.00  0.00     0.093 A 
ATOM      7  C   UNL     1     -36.526  -7.760 -14.809  1.00  0.00     0.122 A 
ATOM      8  C   UNL     1     -36.419  -7.021 -13.628  1.00  0.00     0.092 A 
ATOM      9  C   UNL     1     -36.147  -5.646 -13.674  1.00  0.00     0.126 A 
ATOM     10  C   UNL     1     -36.000  -5.002 -14.916  1.00  0.00     0.039 A 
ENDROOT
BRANCH   2  11
ATOM     11  O   UNL     1     -35.619  -1.602 -16.443  1.00  0.00    -0.389 OA
ATOM     12  H   UNL     1     -36.413  -1.014 -16.343  1.00  0.00     0.211 HD
ENDBRANCH   2  11
BRANCH   3  13
ATOM     13  C   UNL     1     -34.038  -3.625 -17.706  1.00  0.00    -0.001 A 
ATOM     14  C   UNL     1     -33.162  -4.423 -16.948  1.00  0.00     0.057 A 
ATOM     15  C   UNL     1     -33.496  -2.735 -18.653  1.00  0.00     0.012 A 
ATOM     16  C   UNL     1     -31.774  -4.327 -17.120  1.00  0.00     0.157 A 
ATOM     17  C   UNL     1     -32.112  -2.639 -18.825  1.00  0.00     0.050 A 
ATOM     18  C   UNL     1     -31.248  -3.430 -18.063  1.00  0.00     0.157 A 
BRANCH  16  19
ATOM     19  O   UNL     1     -30.918  -5.122 -16.360  1.00  0.00    -0.504 OA
ATOM     20  H   UNL     1     -30.565  -4.815 -15.460  1.00  0.00     0.293 HD
ENDBRANCH  16  19
BRANCH  18  21
ATOM     21  O   UNL     1     -29.872  -3.312 -18.257  1.00  0.00    -0.504 OA
ATOM     22  H   UNL     1     -29.436  -3.505 -19.151  1.00  0.00     0.293 HD
ENDBRANCH  18  21
ENDBRANCH   3  13
BRANCH   9  23
ATOM     23  O   UNL     1     -36.024  -4.920 -12.489  1.00  0.00    -0.507 OA
ATOM     24  H   UNL     1     -36.827  -4.488 -12.045  1.00  0.00     0.293 HD
ENDBRANCH   9  23
BRANCH   7  25
ATOM     25  O   UNL     1     -36.797  -9.125 -14.743  1.00  0.00    -0.508 OA
ATOM     26  H   UNL     1     -37.739  -9.472 -14.610  1.00  0.00     0.293 HD
ENDBRANCH   7  25
TORSDOF 6
ENDMDL
MODEL 3
REMARK VINA RESULT:    -7.544      2.707      4.084
REMARK INTER + INTRA:          -9.124
REMARK INTER:                  -9.107
REMARK INTRA:                  -0.017
REMARK UNBOUND:                -0.036
REMARK SMILES Oc1cc(O)c2c(c1)O[C@H](c1ccc(O)c(O)c1)[C@H](O)C2
REMARK SMILES IDX 21 1 19 2 10 3 9 4 7 5 8 6 2 7 3 8 4 9 6 10 20 11 11 13
REMARK SMILES IDX 18 14 12 15 16 16 13 17 14 18 17 19 15 21 5 23 1 25
REMARK H PARENT 20 12 17 20 15 22 5 24 1 26
REMARK Flexibility Score: inf
ROOT
ATOM      1  C   UNL     1     -36.336  -6.234 -13.792  1.00  0.00     0.079 C 
ATOM      2  C   UNL     1     -36.278  -4.812 -13.210  1.00  0.00     0.164 C 
ATOM      3  C   UNL     1     -37.381  -3.916 -13.817  1.00  0.00     0.232 C 
ATOM      4  O   UNL     1     -38.662  -4.543 -13.699  1.00  0.00    -0.482 OA
ATOM      5  C   UNL     1     -38.842  -5.934 -13.700  1.00  0.00     0.131 A 
ATOM      6  C   UNL     1     -40.140  -6.453 -13.669  1.00  0.00     0.093 A 
ATOM      7  C   UNL     1     -40.347  -7.838 -13.685  1.00  0.00     0.122 A 
ATOM      8  C   UNL     1     -39.251  -8.704 -13.733  1.00  0.00     0.092 A 
ATOM      9  C   UNL     1     -37.945  -8.195 -13.763  1.00  0.00     0.126 A 
ATOM     10  C   UNL     1     -37.733  -6.805 -13.725  1.00  0.00     0.039 A 
ENDROOT
BRANCH   2  11
ATOM     11  O   UNL     1     -35.013  -4.246 -13.429  1.00  0.00    -0.389 OA
ATOM     12  H   UNL     1     -34.908  -4.147 -14.411  1.00  0.00     0.211 HD
ENDBRANCH   2  11
BRANCH   3  13
ATOM     13  C   UNL     1     -37.092  -3.522 -15.256  1.00  0.00    -0.001 A 
ATOM     14  C   UNL     1     -37.500  -4.371 -16.300  1.00  0.00     0.057 A 
ATOM     15  C   UNL     1     -36.459  -2.307 -15.579  1.00  0.00     0.012 A 
ATOM     16  C   UNL     1     -37.270  -4.024 -17.639  1.00  0.00     0.157 A 
ATOM     17  C   UNL     1     -36.230  -1.960 -16.913  1.00  0.00     0.050 A 
ATOM     18  C   UNL     1     -36.632  -2.811 -17.946  1.00  0.00     0.157 A 
BRANCH  16  19
ATOM     19  O   UNL     1     -37.679  -4.876 -18.664  1.00  0.00    -0.504 OA
ATOM     20  H   UNL     1     -38.572  -4.758 -19.129  1.00  0.00     0.293 HD
ENDBRANCH  16  19
BRANCH  18  21
ATOM     21  O   UNL     1     -36.389  -2.437 -19.267  1.00  0.00    -0.504 OA
ATOM     22  H   UNL     1     -35.704  -2.910 -19.843  1.00  0.00     0.293 HD
ENDBRANCH  18  21
ENDBRANCH   3  13
BRANCH   9  23
ATOM     23  O   UNL     1     -36.858  -9.068 -13.829  1.00  0.00    -0.507 OA
ATOM     24  H   UNL     1     -36.237  -9.081 -14.630  1.00  0.00     0.293 HD
ENDBRANCH   9  23
BRANCH   7  25
ATOM     25  O   UNL     1     -41.636  -8.363 -13.656  1.00  0.00    -0.508 OA
ATOM     26  H   UNL     1     -42.045  -8.809 -14.469  1.00  0.00     0.293 HD
ENDBRANCH   7  25
TORSDOF 6
ENDMDL
MODEL 4
REMARK VINA RESULT:    -7.493      2.894      5.009
REMARK INTER + INTRA:          -9.062
REMARK INTER:                  -9.089
REMARK INTRA:                   0.027
REMARK UNBOUND:                -0.036
REMARK SMILES Oc1cc(O)c2c(c1)O[C@H](c1ccc(O)c(O)c1)[C@H](O)C2
REMARK SMILES IDX 21 1 19 2 10 3 9 4 7 5 8 6 2 7 3 8 4 9 6 10 20 11 11 13
REMARK SMILES IDX 18 14 12 15 16 16 13 17 14 18 17 19 15 21 5 23 1 25
REMARK H PARENT 20 12 17 20 15 22 5 24 1 26
REMARK Flexibility Score: inf
ROOT
ATOM      1  C   UNL     1     -38.328  -8.195 -15.087  1.00  0.00     0.079 C 
ATOM      2  C   UNL     1     -36.797  -8.089 -14.989  1.00  0.00     0.164 C 
ATOM      3  C   UNL     1     -36.342  -6.613 -14.945  1.00  0.00     0.232 C 
ATOM      4  O   UNL     1     -37.044  -5.900 -13.922  1.00  0.00    -0.482 OA
ATOM      5  C   UNL     1     -38.346  -6.220 -13.514  1.00  0.00     0.131 A 
ATOM      6  C   UNL     1     -38.983  -5.411 -12.568  1.00  0.00     0.093 A 
ATOM      7  C   UNL     1     -40.289  -5.700 -12.156  1.00  0.00     0.122 A 
ATOM      8  C   UNL     1     -40.960  -6.802 -12.694  1.00  0.00     0.092 A 
ATOM      9  C   UNL     1     -40.331  -7.622 -13.642  1.00  0.00     0.126 A 
ATOM     10  C   UNL     1     -39.011  -7.346 -14.041  1.00  0.00     0.039 A 
ENDROOT
BRANCH   2  11
ATOM     11  O   UNL     1     -36.191  -8.755 -16.066  1.00  0.00    -0.389 OA
ATOM     12  H   UNL     1     -36.884  -9.339 -16.469  1.00  0.00     0.211 HD
ENDBRANCH   2  11
BRANCH   3  13
ATOM     13  C   UNL     1     -36.474  -5.917 -16.290  1.00  0.00    -0.001 A 
ATOM     14  C   UNL     1     -37.742  -5.492 -16.725  1.00  0.00     0.057 A 
ATOM     15  C   UNL     1     -35.354  -5.649 -17.099  1.00  0.00     0.012 A 
ATOM     16  C   UNL     1     -37.893  -4.825 -17.950  1.00  0.00     0.157 A 
ATOM     17  C   UNL     1     -35.504  -4.984 -18.318  1.00  0.00     0.050 A 
ATOM     18  C   UNL     1     -36.767  -4.570 -18.749  1.00  0.00     0.157 A 
BRANCH  16  19
ATOM     19  O   UNL     1     -39.156  -4.411 -18.371  1.00  0.00    -0.504 OA
ATOM     20  H   UNL     1     -39.606  -4.820 -19.182  1.00  0.00     0.293 HD
ENDBRANCH  16  19
BRANCH  18  21
ATOM     21  O   UNL     1     -36.885  -3.909 -19.971  1.00  0.00    -0.504 OA
ATOM     22  H   UNL     1     -37.399  -3.042 -20.067  1.00  0.00     0.293 HD
ENDBRANCH  18  21
ENDBRANCH   3  13
BRANCH   9  23
ATOM     23  O   UNL     1     -41.016  -8.709 -14.186  1.00  0.00    -0.507 OA
ATOM     24  H   UNL     1     -41.306  -9.494 -13.614  1.00  0.00     0.293 HD
ENDBRANCH   9  23
BRANCH   7  25
ATOM     25  O   UNL     1     -40.931  -4.897 -11.216  1.00  0.00    -0.508 OA
ATOM     26  H   UNL     1     -41.034  -3.899 -11.354  1.00  0.00     0.293 HD
ENDBRANCH   7  25
TORSDOF 6
ENDMDL
MODEL 5
REMARK VINA RESULT:    -7.420      2.025      6.499
REMARK INTER + INTRA:          -8.975
REMARK INTER:                  -8.904
REMARK INTRA:                  -0.071
REMARK UNBOUND:                -0.036
REMARK SMILES Oc1cc(O)c2c(c1)O[C@H](c1ccc(O)c(O)c1)[C@H](O)C2
REMARK SMILES IDX 21 1 19 2 10 3 9 4 7 5 8 6 2 7 3 8 4 9 6 10 20 11 11 13
REMARK SMILES IDX 18 14 12 15 16 16 13 17 14 18 17 19 15 21 5 23 1 25
REMARK H PARENT 20 12 17 20 15 22 5 24 1 26
REMARK Flexibility Score: inf
ROOT
ATOM      1  C   UNL     1     -37.095  -2.955 -16.625  1.00  0.00     0.079 C 
ATOM      2  C   UNL     1     -37.212  -2.819 -15.098  1.00  0.00     0.164 C 
ATOM      3  C   UNL     1     -36.563  -4.023 -14.380  1.00  0.00     0.232 C 
ATOM      4  O   UNL     1     -35.225  -4.228 -14.847  1.00  0.00    -0.482 OA
ATOM      5  C   UNL     1     -34.805  -3.905 -16.145  1.00  0.00     0.131 A 
ATOM      6  C   UNL     1     -33.502  -4.223 -16.538  1.00  0.00     0.093 A 
ATOM      7  C   UNL     1     -33.063  -3.927 -17.835  1.00  0.00     0.122 A 
ATOM      8  C   UNL     1     -33.933  -3.312 -18.739  1.00  0.00     0.092 A 
ATOM      9  C   UNL     1     -35.242  -2.987 -18.356  1.00  0.00     0.126 A 
ATOM     10  C   UNL     1     -35.678  -3.264 -17.048  1.00  0.00     0.039 A 
ENDROOT
BRANCH   2  11
ATOM     11  O   UNL     1     -38.558  -2.693 -14.720  1.00  0.00    -0.389 OA
ATOM     12  H   UNL     1     -38.570  -2.565 -13.736  1.00  0.00     0.211 HD
ENDBRANCH   2  11
BRANCH   3  13
ATOM     13  C   UNL     1     -37.387  -5.294 -14.500  1.00  0.00    -0.001 A 
ATOM     14  C   UNL     1     -38.338  -5.597 -13.509  1.00  0.00     0.057 A 
ATOM     15  C   UNL     1     -37.255  -6.162 -15.601  1.00  0.00     0.012 A 
ATOM     16  C   UNL     1     -39.131  -6.750 -13.605  1.00  0.00     0.157 A 
ATOM     17  C   UNL     1     -38.046  -7.310 -15.697  1.00  0.00     0.050 A 
ATOM     18  C   UNL     1     -38.983  -7.610 -14.705  1.00  0.00     0.157 A 
BRANCH  16  19
ATOM     19  O   UNL     1     -40.068  -7.039 -12.614  1.00  0.00    -0.504 OA
ATOM     20  H   UNL     1     -40.087  -6.532 -11.735  1.00  0.00     0.293 HD
ENDBRANCH  16  19
BRANCH  18  21
ATOM     21  O   UNL     1     -39.758  -8.762 -14.829  1.00  0.00    -0.504 OA
ATOM     22  H   UNL     1     -40.005  -9.150 -15.731  1.00  0.00     0.293 HD
ENDBRANCH  18  21
ENDBRANCH   3  13
BRANCH   9  23
ATOM     23  O   UNL     1     -36.108  -2.390 -19.272  1.00  0.00    -0.507 OA
ATOM     24  H   UNL     1     -36.347  -1.406 -19.214  1.00  0.00     0.293 HD
ENDBRANCH   9  23
BRANCH   7  25
ATOM     25  O   UNL     1     -31.766  -4.242 -18.234  1.00  0.00    -0.508 OA
ATOM     26  H   UNL     1     -31.016  -4.348 -17.562  1.00  0.00     0.293 HD
ENDBRANCH   7  25
TORSDOF 6
ENDMDL
MODEL 6
REMARK VINA RESULT:    -7.406      2.818      6.752
REMARK INTER + INTRA:          -8.958
REMARK INTER:                  -9.067
REMARK INTRA:                   0.109
REMARK UNBOUND:                -0.036
REMARK SMILES Oc1cc(O)c2c(c1)O[C@H](c1ccc(O)c(O)c1)[C@H](O)C2
REMARK SMILES IDX 21 1 19 2 10 3 9 4 7 5 8 6 2 7 3 8 4 9 6 10 20 11 11 13
REMARK SMILES IDX 18 14 12 15 16 16 13 17 14 18 17 19 15 21 5 23 1 25
REMARK H PARENT 20 12 17 20 15 22 5 24 1 26
REMARK Flexibility Score: inf
ROOT
ATOM      1  C   UNL     1     -36.559  -3.984 -14.177  1.00  0.00     0.079 C 
ATOM      2  C   UNL     1     -35.610  -5.173 -13.950  1.00  0.00     0.164 C 
ATOM      3  C   UNL     1     -35.996  -6.373 -14.844  1.00  0.00     0.232 C 
ATOM      4  O   UNL     1     -36.106  -5.967 -16.212  1.00  0.00    -0.482 OA
ATOM      5  C   UNL     1     -36.490  -4.678 -16.605  1.00  0.00     0.131 A 
ATOM      6  C   UNL     1     -36.655  -4.401 -17.965  1.00  0.00     0.093 A 
ATOM      7  C   UNL     1     -37.055  -3.125 -18.383  1.00  0.00     0.122 A 
ATOM      8  C   UNL     1     -37.292  -2.126 -17.434  1.00  0.00     0.092 A 
ATOM      9  C   UNL     1     -37.128  -2.392 -16.068  1.00  0.00     0.126 A 
ATOM     10  C   UNL     1     -36.706  -3.666 -15.647  1.00  0.00     0.039 A 
ENDROOT
BRANCH   2  11
ATOM     11  O   UNL     1     -35.616  -5.550 -12.597  1.00  0.00    -0.389 OA
ATOM     12  H   UNL     1     -35.901  -4.753 -12.078  1.00  0.00     0.211 HD
ENDBRANCH   2  11
BRANCH   3  13
ATOM     13  C   UNL     1     -37.261  -7.073 -14.375  1.00  0.00    -0.001 A 
ATOM     14  C   UNL     1     -38.485  -6.381 -14.405  1.00  0.00     0.057 A 
ATOM     15  C   UNL     1     -37.251  -8.414 -13.946  1.00  0.00     0.012 A 
ATOM     16  C   UNL     1     -39.673  -7.007 -14.003  1.00  0.00     0.157 A 
ATOM     17  C   UNL     1     -38.435  -9.038 -13.546  1.00  0.00     0.050 A 
ATOM     18  C   UNL     1     -39.647  -8.343 -13.571  1.00  0.00     0.157 A 
BRANCH  16  19
ATOM     19  O   UNL     1     -40.879  -6.308 -14.036  1.00  0.00    -0.504 OA
ATOM     20  H   UNL     1     -41.734  -6.738 -14.373  1.00  0.00     0.293 HD
ENDBRANCH  16  19
BRANCH  18  21
ATOM     21  O   UNL     1     -40.811  -8.993 -13.165  1.00  0.00    -0.504 OA
ATOM     22  H   UNL     1     -40.825  -9.979 -12.935  1.00  0.00     0.293 HD
ENDBRANCH  18  21
ENDBRANCH   3  13
BRANCH   9  23
ATOM     23  O   UNL     1     -37.385  -1.393 -15.128  1.00  0.00    -0.507 OA
ATOM     24  H   UNL     1     -37.005  -0.458 -15.230  1.00  0.00     0.293 HD
ENDBRANCH   9  23
BRANCH   7  25
ATOM     25  O   UNL     1     -37.222  -2.842 -19.736  1.00  0.00    -0.508 OA
ATOM     26  H   UNL     1     -36.792  -2.030 -20.164  1.00  0.00     0.293 HD
ENDBRANCH   7  25
TORSDOF 6
ENDMDL
MODEL 7
REMARK VINA RESULT:    -7.133      2.044      6.027
REMARK INTER + INTRA:          -8.629
REMARK INTER:                  -8.710
REMARK INTRA:                   0.081
REMARK UNBOUND:                -0.036
REMARK SMILES Oc1cc(O)c2c(c1)O[C@H](c1ccc(O)c(O)c1)[C@H](O)C2
REMARK SMILES IDX 21 1 19 2 10 3 9 4 7 5 8 6 2 7 3 8 4 9 6 10 20 11 11 13
REMARK SMILES IDX 18 14 12 15 16 16 13 17 14 18 17 19 15 21 5 23 1 25
REMARK H PARENT 20 12 17 20 15 22 5 24 1 26
REMARK Flexibility Score: inf
ROOT
ATOM      1  C   UNL     1     -33.645  -4.205 -16.047  1.00  0.00     0.079 C 
ATOM      2  C   UNL     1     -35.016  -4.897 -15.962  1.00  0.00     0.164 C 
ATOM      3  C   UNL     1     -36.141  -3.970 -16.476  1.00  0.00     0.232 C 
ATOM      4  O   UNL     1     -35.822  -3.463 -17.776  1.00  0.00    -0.482 OA
ATOM      5  C   UNL     1     -34.509  -3.245 -18.216  1.00  0.00     0.131 A 
ATOM      6  C   UNL     1     -34.299  -2.663 -19.471  1.00  0.00     0.093 A 
ATOM      7  C   UNL     1     -32.998  -2.420 -19.927  1.00  0.00     0.122 A 
ATOM      8  C   UNL     1     -31.905  -2.758 -19.125  1.00  0.00     0.092 A 
ATOM      9  C   UNL     1     -32.103  -3.344 -17.866  1.00  0.00     0.126 A 
ATOM     10  C   UNL     1     -33.408  -3.609 -17.414  1.00  0.00     0.039 A 
ENDROOT
BRANCH   2  11
ATOM     11  O   UNL     1     -35.279  -5.300 -14.644  1.00  0.00    -0.389 OA
ATOM     12  H   UNL     1     -34.596  -5.981 -14.409  1.00  0.00     0.211 HD
ENDBRANCH   2  11
BRANCH   3  13
ATOM     13  C   UNL     1     -36.460  -2.842 -15.509  1.00  0.00    -0.001 A 
ATOM     14  C   UNL     1     -36.342  -1.509 -15.940  1.00  0.00     0.057 A 
ATOM     15  C   UNL     1     -36.911  -3.093 -14.199  1.00  0.00     0.012 A 
ATOM     16  C   UNL     1     -36.654  -0.446 -15.079  1.00  0.00     0.157 A 
ATOM     17  C   UNL     1     -37.222  -2.035 -13.341  1.00  0.00     0.050 A 
ATOM     18  C   UNL     1     -37.095  -0.712 -13.773  1.00  0.00     0.157 A 
BRANCH  16  19
ATOM     19  O   UNL     1     -36.530   0.871 -15.519  1.00  0.00    -0.504 OA
ATOM     20  H   UNL     1     -36.737   1.133 -16.477  1.00  0.00     0.293 HD
ENDBRANCH  16  19
BRANCH  18  21
ATOM     21  O   UNL     1     -37.413   0.322 -12.894  1.00  0.00    -0.504 OA
ATOM     22  H   UNL     1     -38.154   0.984 -13.088  1.00  0.00     0.293 HD
ENDBRANCH  18  21
ENDBRANCH   3  13
BRANCH   9  23
ATOM     23  O   UNL     1     -31.005  -3.661 -17.065  1.00  0.00    -0.507 OA
ATOM     24  H   UNL     1     -30.961  -3.382 -16.091  1.00  0.00     0.293 HD
ENDBRANCH   9  23
BRANCH   7  25
ATOM     25  O   UNL     1     -32.781  -1.840 -21.175  1.00  0.00    -0.508 OA
ATOM     26  H   UNL     1     -33.511  -1.804 -21.876  1.00  0.00     0.293 HD
ENDBRANCH   7  25
TORSDOF 6
ENDMDL
MODEL 8
REMARK VINA RESULT:    -7.130      1.126      1.281
REMARK INTER + INTRA:          -8.625
REMARK INTER:                  -8.590
REMARK INTRA:                  -0.035
REMARK UNBOUND:                -0.036
REMARK SMILES Oc1cc(O)c2c(c1)O[C@H](c1ccc(O)c(O)c1)[C@H](O)C2
REMARK SMILES IDX 21 1 19 2 10 3 9 4 7 5 8 6 2 7 3 8 4 9 6 10 20 11 11 13
REMARK SMILES IDX 18 14 12 15 16 16 13 17 14 18 17 19 15 21 5 23 1 25
REMARK H PARENT 20 12 17 20 15 22 5 24 1 26
REMARK Flexibility Score: inf
ROOT
ATOM      1  C   UNL     1     -36.907  -3.243 -16.199  1.00  0.00     0.079 C 
ATOM      2  C   UNL     1     -37.160  -3.477 -17.698  1.00  0.00     0.164 C 
ATOM      3  C   UNL     1     -36.174  -4.519 -18.273  1.00  0.00     0.232 C 
ATOM      4  O   UNL     1     -36.187  -5.714 -17.485  1.00  0.00    -0.482 OA
ATOM      5  C   UNL     1     -36.462  -5.727 -16.111  1.00  0.00     0.131 A 
ATOM      6  C   UNL     1     -36.364  -6.932 -15.408  1.00  0.00     0.093 A 
ATOM      7  C   UNL     1     -36.617  -6.969 -14.031  1.00  0.00     0.122 A 
ATOM      8  C   UNL     1     -36.967  -5.796 -13.357  1.00  0.00     0.092 A 
ATOM      9  C   UNL     1     -37.070  -4.582 -14.051  1.00  0.00     0.126 A 
ATOM     10  C   UNL     1     -36.837  -4.546 -15.438  1.00  0.00     0.039 A 
ENDROOT
BRANCH   2  11
ATOM     11  O   UNL     1     -37.061  -2.268 -18.404  1.00  0.00    -0.389 OA
ATOM     12  H   UNL     1     -36.368  -1.724 -17.947  1.00  0.00     0.211 HD
ENDBRANCH   2  11
BRANCH   3  13
ATOM     13  C   UNL     1     -34.763  -3.974 -18.422  1.00  0.00    -0.001 A 
ATOM     14  C   UNL     1     -34.449  -3.164 -19.528  1.00  0.00     0.057 A 
ATOM     15  C   UNL     1     -33.766  -4.226 -17.461  1.00  0.00     0.012 A 
ATOM     16  C   UNL     1     -33.163  -2.625 -19.680  1.00  0.00     0.157 A 
ATOM     17  C   UNL     1     -32.485  -3.689 -17.612  1.00  0.00     0.050 A 
ATOM     18  C   UNL     1     -32.177  -2.891 -18.717  1.00  0.00     0.157 A 
BRANCH  16  19
ATOM     19  O   UNL     1     -32.865  -1.825 -20.782  1.00  0.00    -0.504 OA
ATOM     20  H   UNL     1     -33.061  -2.131 -21.729  1.00  0.00     0.293 HD
ENDBRANCH  16  19
BRANCH  18  21
ATOM     21  O   UNL     1     -30.890  -2.370 -18.840  1.00  0.00    -0.504 OA
ATOM     22  H   UNL     1     -30.555  -1.959 -19.703  1.00  0.00     0.293 HD
ENDBRANCH  18  21
ENDBRANCH   3  13
BRANCH   9  23
ATOM     23  O   UNL     1     -37.402  -3.413 -13.366  1.00  0.00    -0.507 OA
ATOM     24  H   UNL     1     -37.159  -2.498 -13.728  1.00  0.00     0.293 HD
ENDBRANCH   9  23
BRANCH   7  25
ATOM     25  O   UNL     1     -36.521  -8.165 -13.324  1.00  0.00    -0.508 OA
ATOM     26  H   UNL     1     -36.570  -8.188 -12.312  1.00  0.00     0.293 HD
ENDBRANCH   7  25
TORSDOF 6
ENDMDL
MODEL 9
REMARK VINA RESULT:    -7.108      2.558      6.187
REMARK INTER + INTRA:          -8.598
REMARK INTER:                  -8.683
REMARK INTRA:                   0.084
REMARK UNBOUND:                -0.036
REMARK SMILES Oc1cc(O)c2c(c1)O[C@H](c1ccc(O)c(O)c1)[C@H](O)C2
REMARK SMILES IDX 21 1 19 2 10 3 9 4 7 5 8 6 2 7 3 8 4 9 6 10 20 11 11 13
REMARK SMILES IDX 18 14 12 15 16 16 13 17 14 18 17 19 15 21 5 23 1 25
REMARK H PARENT 20 12 17 20 15 22 5 24 1 26
REMARK Flexibility Score: inf
ROOT
ATOM      1  C   UNL     1     -33.144  -4.208 -16.825  1.00  0.00     0.079 C 
ATOM      2  C   UNL     1     -34.216  -5.281 -17.081  1.00  0.00     0.164 C 
ATOM      3  C   UNL     1     -35.325  -4.748 -18.016  1.00  0.00     0.232 C 
ATOM      4  O   UNL     1     -34.757  -4.195 -19.207  1.00  0.00    -0.482 OA
ATOM      5  C   UNL     1     -33.489  -3.599 -19.251  1.00  0.00     0.131 A 
ATOM      6  C   UNL     1     -33.056  -3.006 -20.441  1.00  0.00     0.093 A 
ATOM      7  C   UNL     1     -31.800  -2.390 -20.507  1.00  0.00     0.122 A 
ATOM      8  C   UNL     1     -30.978  -2.365 -19.377  1.00  0.00     0.092 A 
ATOM      9  C   UNL     1     -31.401  -2.957 -18.178  1.00  0.00     0.126 A 
ATOM     10  C   UNL     1     -32.653  -3.596 -18.116  1.00  0.00     0.039 A 
ENDROOT
BRANCH   2  11
ATOM     11  O   UNL     1     -34.768  -5.718 -15.867  1.00  0.00    -0.389 OA
ATOM     12  H   UNL     1     -35.750  -5.586 -15.933  1.00  0.00     0.211 HD
ENDBRANCH   2  11
BRANCH   3  13
ATOM     13  C   UNL     1     -36.243  -3.750 -17.329  1.00  0.00    -0.001 A 
ATOM     14  C   UNL     1     -35.739  -2.492 -16.955  1.00  0.00     0.057 A 
ATOM     15  C   UNL     1     -37.601  -4.035 -17.091  1.00  0.00     0.012 A 
ATOM     16  C   UNL     1     -36.568  -1.541 -16.343  1.00  0.00     0.157 A 
ATOM     17  C   UNL     1     -38.427  -3.087 -16.482  1.00  0.00     0.050 A 
ATOM     18  C   UNL     1     -37.919  -1.841 -16.105  1.00  0.00     0.157 A 
BRANCH  16  19
ATOM     19  O   UNL     1     -36.054  -0.298 -15.975  1.00  0.00    -0.504 OA
ATOM     20  H   UNL     1     -35.345  -0.208 -15.255  1.00  0.00     0.293 HD
ENDBRANCH  16  19
BRANCH  18  21
ATOM     21  O   UNL     1     -38.768  -0.917 -15.499  1.00  0.00    -0.504 OA
ATOM     22  H   UNL     1     -39.041  -0.993 -14.527  1.00  0.00     0.293 HD
ENDBRANCH  18  21
ENDBRANCH   3  13
BRANCH   9  23
ATOM     23  O   UNL     1     -30.581  -2.911 -17.051  1.00  0.00    -0.507 OA
ATOM     24  H   UNL     1     -29.578  -3.043 -17.119  1.00  0.00     0.293 HD
ENDBRANCH   9  23
BRANCH   7  25
ATOM     25  O   UNL     1     -31.362  -1.796 -21.688  1.00  0.00    -0.508 OA
ATOM     26  H   UNL     1     -31.132  -0.811 -21.733  1.00  0.00     0.293 HD
ENDBRANCH   7  25
TORSDOF 6
ENDMDL
