MODEL 1
REMARK VINA RESULT:    -3.671      0.000      0.000
REMARK INTER + INTRA:          -4.503
REMARK INTER:                  -4.422
REMARK INTRA:                  -0.082
REMARK UNBOUND:                -0.082
REMARK SMILES CC[C@@H](C)[C@@H]([NH3+])C(=O)[O-]
REMARK SMILES IDX 3 1 4 2 5 3 6 4 7 8 8 9 9 10 2 11 1 12
REMARK H PARENT 6 5 6 6 6 7
REMARK Flexibility Score: inf
ROOT
ATOM      1  C   UNL     1     165.110 176.728 183.563  1.00  0.00     0.050 C 
ATOM      2  C   UNL     1     165.274 175.606 182.522  1.00  0.00     0.014 C 
ENDROOT
BRANCH   1   3
ATOM      3  C   UNL     1     163.766 177.510 183.408  1.00  0.00     0.230 C 
BRANCH   3   4
ATOM      4  N   UNL     1     163.097 177.712 184.702  1.00  0.00    -0.350 N 
ATOM      5  H   UNL     1     162.707 178.681 184.756  1.00  0.00     0.345 HD
ATOM      6  H   UNL     1     163.792 177.599 185.474  1.00  0.00     0.345 HD
ATOM      7  H   UNL     1     162.326 177.020 184.850  1.00  0.00     0.345 HD
ENDBRANCH   3   4
BRANCH   3   8
ATOM      8  C   UNL     1     163.938 178.828 182.689  1.00  0.00     0.099 C 
ATOM      9  O   UNL     1     165.089 179.228 182.373  1.00  0.00    -0.544 OA
ATOM     10  O   UNL     1     162.837 179.622 182.393  1.00  0.00    -0.544 OA
ENDBRANCH   3   8
ENDBRANCH   1   3
BRANCH   1  11
ATOM     11  C   UNL     1     165.311 176.143 184.986  1.00  0.00     0.006 C 
ATOM     12  C   UNL     1     166.746 175.693 185.260  1.00  0.00     0.004 C 
ENDBRANCH   1  11
TORSDOF 4
ENDMDL
MODEL 2
REMARK VINA RESULT:    -3.650     16.371     17.357
REMARK INTER + INTRA:          -4.478
REMARK INTER:                  -4.386
REMARK INTRA:                  -0.092
REMARK UNBOUND:                -0.082
REMARK SMILES CC[C@@H](C)[C@@H]([NH3+])C(=O)[O-]
REMARK SMILES IDX 3 1 4 2 5 3 6 4 7 8 8 9 9 10 2 11 1 12
REMARK H PARENT 6 5 6 6 6 7
REMARK Flexibility Score: inf
ROOT
ATOM      1  C   UNL     1     178.069 168.567 184.085  1.00  0.00     0.050 C 
ATOM      2  C   UNL     1     177.933 169.996 183.529  1.00  0.00     0.014 C 
ENDROOT
BRANCH   1   3
ATOM      3  C   UNL     1     179.350 167.835 183.573  1.00  0.00     0.230 C 
BRANCH   3   4
ATOM      4  N   UNL     1     180.216 167.405 184.682  1.00  0.00    -0.350 N 
ATOM      5  H   UNL     1     180.540 166.423 184.524  1.00  0.00     0.345 HD
ATOM      6  H   UNL     1     179.674 167.427 185.575  1.00  0.00     0.345 HD
ATOM      7  H   UNL     1     181.048 168.030 184.787  1.00  0.00     0.345 HD
ENDBRANCH   3   4
BRANCH   3   8
ATOM      8  C   UNL     1     179.033 166.668 182.667  1.00  0.00     0.099 C 
ATOM      9  O   UNL     1     179.685 165.596 182.769  1.00  0.00    -0.544 OA
ATOM     10  O   UNL     1     178.043 166.772 181.697  1.00  0.00    -0.544 OA
ENDBRANCH   3   8
ENDBRANCH   1   3
BRANCH   1  11
ATOM     11  C   UNL     1     177.970 168.606 185.632  1.00  0.00     0.006 C 
ATOM     12  C   UNL     1     177.973 170.023 186.206  1.00  0.00     0.004 C 
ENDBRANCH   1  11
TORSDOF 4
ENDMDL
MODEL 3
REMARK VINA RESULT:    -3.641     17.824     18.916
REMARK INTER + INTRA:          -4.467
REMARK INTER:                  -4.432
REMARK INTRA:                  -0.035
REMARK UNBOUND:                -0.082
REMARK SMILES CC[C@@H](C)[C@@H]([NH3+])C(=O)[O-]
REMARK SMILES IDX 3 1 4 2 5 3 6 4 7 8 8 9 9 10 2 11 1 12
REMARK H PARENT 6 5 6 6 6 7
REMARK Flexibility Score: inf
ROOT
ATOM      1  C   UNL     1     179.187 167.419 183.687  1.00  0.00     0.050 C 
ATOM      2  C   UNL     1     178.555 167.392 182.284  1.00  0.00     0.014 C 
ENDROOT
BRANCH   1   3
ATOM      3  C   UNL     1     180.728 167.161 183.664  1.00  0.00     0.230 C 
BRANCH   3   4
ATOM      4  N   UNL     1     181.221 166.668 184.960  1.00  0.00    -0.350 N 
ATOM      5  H   UNL     1     181.687 167.443 185.484  1.00  0.00     0.345 HD
ATOM      6  H   UNL     1     181.927 165.914 184.798  1.00  0.00     0.345 HD
ATOM      7  H   UNL     1     180.447 166.273 185.541  1.00  0.00     0.345 HD
ENDBRANCH   3   4
BRANCH   3   8
ATOM      8  C   UNL     1     181.148 166.231 182.550  1.00  0.00     0.099 C 
ATOM      9  O   UNL     1     181.755 166.686 181.545  1.00  0.00    -0.544 OA
ATOM     10  O   UNL     1     180.847 164.875 182.607  1.00  0.00    -0.544 OA
ENDBRANCH   3   8
ENDBRANCH   1   3
BRANCH   1  11
ATOM     11  C   UNL     1     178.805 168.743 184.398  1.00  0.00     0.006 C 
ATOM     12  C   UNL     1     177.935 168.536 185.639  1.00  0.00     0.004 C 
ENDBRANCH   1  11
TORSDOF 4
ENDMDL
MODEL 4
REMARK VINA RESULT:    -3.513      5.566      6.821
REMARK INTER + INTRA:          -4.314
REMARK INTER:                  -4.222
REMARK INTRA:                  -0.092
REMARK UNBOUND:                -0.082
REMARK SMILES CC[C@@H](C)[C@@H]([NH3+])C(=O)[O-]
REMARK SMILES IDX 3 1 4 2 5 3 6 4 7 8 8 9 9 10 2 11 1 12
REMARK H PARENT 6 5 6 6 6 7
REMARK Flexibility Score: inf
ROOT
ATOM      1  C   UNL     1     167.183 173.727 184.877  1.00  0.00     0.050 C 
ATOM      2  C   UNL     1     167.447 174.581 183.623  1.00  0.00     0.014 C 
ENDROOT
BRANCH   1   3
ATOM      3  C   UNL     1     168.482 173.076 185.452  1.00  0.00     0.230 C 
BRANCH   3   4
ATOM      4  N   UNL     1     168.602 173.284 186.904  1.00  0.00    -0.350 N 
ATOM      5  H   UNL     1     168.148 172.495 187.418  1.00  0.00     0.345 HD
ATOM      6  H   UNL     1     168.113 174.169 187.169  1.00  0.00     0.345 HD
ATOM      7  H   UNL     1     169.602 173.360 187.200  1.00  0.00     0.345 HD
ENDBRANCH   3   4
BRANCH   3   8
ATOM      8  C   UNL     1     168.596 171.607 185.117  1.00  0.00     0.099 C 
ATOM      9  O   UNL     1     167.832 171.096 184.256  1.00  0.00    -0.544 OA
ATOM     10  O   UNL     1     169.520 170.801 185.770  1.00  0.00    -0.544 OA
ENDBRANCH   3   8
ENDBRANCH   1   3
BRANCH   1  11
ATOM     11  C   UNL     1     166.414 174.574 185.924  1.00  0.00     0.006 C 
ATOM     12  C   UNL     1     166.110 175.995 185.449  1.00  0.00     0.004 C 
ENDBRANCH   1  11
TORSDOF 4
ENDMDL
MODEL 5
REMARK VINA RESULT:    -3.509      1.665      2.100
REMARK INTER + INTRA:          -4.309
REMARK INTER:                  -4.219
REMARK INTRA:                  -0.089
REMARK UNBOUND:                -0.082
REMARK SMILES CC[C@@H](C)[C@@H]([NH3+])C(=O)[O-]
REMARK SMILES IDX 3 1 4 2 5 3 6 4 7 8 8 9 9 10 2 11 1 12
REMARK H PARENT 6 5 6 6 6 7
REMARK Flexibility Score: inf
ROOT
ATOM      1  C   UNL     1     166.359 175.632 184.131  1.00  0.00     0.050 C 
ATOM      2  C   UNL     1     166.703 174.287 183.466  1.00  0.00     0.014 C 
ENDROOT
BRANCH   1   3
ATOM      3  C   UNL     1     165.085 176.302 183.524  1.00  0.00     0.230 C 
BRANCH   3   4
ATOM      4  N   UNL     1     164.258 176.944 184.557  1.00  0.00    -0.350 N 
ATOM      5  H   UNL     1     163.668 176.228 185.040  1.00  0.00     0.345 HD
ATOM      6  H   UNL     1     163.620 177.640 184.108  1.00  0.00     0.345 HD
ATOM      7  H   UNL     1     164.844 177.444 185.265  1.00  0.00     0.345 HD
ENDBRANCH   3   4
BRANCH   3   8
ATOM      8  C   UNL     1     165.411 177.283 182.422  1.00  0.00     0.099 C 
ATOM      9  O   UNL     1     165.756 178.460 182.708  1.00  0.00    -0.544 OA
ATOM     10  O   UNL     1     165.308 176.910 181.087  1.00  0.00    -0.544 OA
ENDBRANCH   3   8
ENDBRANCH   1   3
BRANCH   1  11
ATOM     11  C   UNL     1     166.269 175.438 185.667  1.00  0.00     0.006 C 
ATOM     12  C   UNL     1     166.217 173.970 186.091  1.00  0.00     0.004 C 
ENDBRANCH   1  11
TORSDOF 4
ENDMDL
MODEL 6
REMARK VINA RESULT:    -3.468     12.047     13.445
REMARK INTER + INTRA:          -4.259
REMARK INTER:                  -4.158
REMARK INTRA:                  -0.101
REMARK UNBOUND:                -0.082
REMARK SMILES CC[C@@H](C)[C@@H]([NH3+])C(=O)[O-]
REMARK SMILES IDX 3 1 4 2 5 3 6 4 7 8 8 9 9 10 2 11 1 12
REMARK H PARENT 6 5 6 6 6 7
REMARK Flexibility Score: inf
ROOT
ATOM      1  C   UNL     1     176.899 170.727 185.081  1.00  0.00     0.050 C 
ATOM      2  C   UNL     1     176.697 169.874 183.815  1.00  0.00     0.014 C 
ENDROOT
BRANCH   1   3
ATOM      3  C   UNL     1     175.558 171.284 185.658  1.00  0.00     0.230 C 
BRANCH   3   4
ATOM      4  N   UNL     1     175.375 170.919 187.071  1.00  0.00    -0.350 N 
ATOM      5  H   UNL     1     175.292 171.781 187.656  1.00  0.00     0.345 HD
ATOM      6  H   UNL     1     176.209 170.382 187.401  1.00  0.00     0.345 HD
ATOM      7  H   UNL     1     174.526 170.324 187.209  1.00  0.00     0.345 HD
ENDBRANCH   3   4
BRANCH   3   8
ATOM      8  C   UNL     1     175.420 172.778 185.476  1.00  0.00     0.099 C 
ATOM      9  O   UNL     1     176.196 173.391 184.696  1.00  0.00    -0.544 OA
ATOM     10  O   UNL     1     174.459 173.492 186.180  1.00  0.00    -0.544 OA
ENDBRANCH   3   8
ENDBRANCH   1   3
BRANCH   1  11
ATOM     11  C   UNL     1     177.717 169.919 186.121  1.00  0.00     0.006 C 
ATOM     12  C   UNL     1     178.028 168.491 185.671  1.00  0.00     0.004 C 
ENDBRANCH   1  11
TORSDOF 4
ENDMDL
MODEL 7
REMARK VINA RESULT:    -3.452      4.339      5.237
REMARK INTER + INTRA:          -4.240
REMARK INTER:                  -4.141
REMARK INTRA:                  -0.099
REMARK UNBOUND:                -0.082
REMARK SMILES CC[C@@H](C)[C@@H]([NH3+])C(=O)[O-]
REMARK SMILES IDX 3 1 4 2 5 3 6 4 7 8 8 9 9 10 2 11 1 12
REMARK H PARENT 6 5 6 6 6 7
REMARK Flexibility Score: inf
ROOT
ATOM      1  C   UNL     1     165.972 175.089 184.123  1.00  0.00     0.050 C 
ATOM      2  C   UNL     1     166.944 175.381 182.965  1.00  0.00     0.014 C 
ENDROOT
BRANCH   1   3
ATOM      3  C   UNL     1     166.643 174.303 185.295  1.00  0.00     0.230 C 
BRANCH   3   4
ATOM      4  N   UNL     1     165.671 173.935 186.336  1.00  0.00    -0.350 N 
ATOM      5  H   UNL     1     164.707 174.210 186.039  1.00  0.00     0.345 HD
ATOM      6  H   UNL     1     165.897 174.446 187.219  1.00  0.00     0.345 HD
ATOM      7  H   UNL     1     165.691 172.908 186.537  1.00  0.00     0.345 HD
ENDBRANCH   3   4
BRANCH   3   8
ATOM      8  C   UNL     1     167.400 173.083 184.823  1.00  0.00     0.099 C 
ATOM      9  O   UNL     1     168.648 173.018 184.976  1.00  0.00    -0.544 OA
ATOM     10  O   UNL     1     166.736 172.037 184.194  1.00  0.00    -0.544 OA
ENDBRANCH   3   8
ENDBRANCH   1   3
BRANCH   1  11
ATOM     11  C   UNL     1     165.306 176.411 184.583  1.00  0.00     0.006 C 
ATOM     12  C   UNL     1     164.099 176.810 183.732  1.00  0.00     0.004 C 
ENDBRANCH   1  11
TORSDOF 4
ENDMDL
MODEL 8
REMARK VINA RESULT:    -3.360     11.985     13.321
REMARK INTER + INTRA:          -4.130
REMARK INTER:                  -4.009
REMARK INTRA:                  -0.120
REMARK UNBOUND:                -0.082
REMARK SMILES CC[C@@H](C)[C@@H]([NH3+])C(=O)[O-]
REMARK SMILES IDX 3 1 4 2 5 3 6 4 7 8 8 9 9 10 2 11 1 12
REMARK H PARENT 6 5 6 6 6 7
REMARK Flexibility Score: inf
ROOT
ATOM      1  C   UNL     1     176.453 170.726 184.879  1.00  0.00     0.050 C 
ATOM      2  C   UNL     1     176.852 169.968 183.600  1.00  0.00     0.014 C 
ENDROOT
BRANCH   1   3
ATOM      3  C   UNL     1     174.909 170.737 185.121  1.00  0.00     0.230 C 
BRANCH   3   4
ATOM      4  N   UNL     1     174.383 169.386 185.370  1.00  0.00    -0.350 N 
ATOM      5  H   UNL     1     173.843 169.053 184.539  1.00  0.00     0.345 HD
ATOM      6  H   UNL     1     173.735 169.411 186.190  1.00  0.00     0.345 HD
ATOM      7  H   UNL     1     175.150 168.706 185.579  1.00  0.00     0.345 HD
ENDBRANCH   3   4
BRANCH   3   8
ATOM      8  C   UNL     1     174.500 171.677 186.231  1.00  0.00     0.099 C 
ATOM      9  O   UNL     1     174.685 172.916 186.107  1.00  0.00    -0.544 OA
ATOM     10  O   UNL     1     173.942 171.187 187.405  1.00  0.00    -0.544 OA
ENDBRANCH   3   8
ENDBRANCH   1   3
BRANCH   1  11
ATOM     11  C   UNL     1     177.251 170.161 186.082  1.00  0.00     0.006 C 
ATOM     12  C   UNL     1     177.987 168.859 185.765  1.00  0.00     0.004 C 
ENDBRANCH   1  11
TORSDOF 4
ENDMDL
MODEL 9
REMARK VINA RESULT:    -3.336     12.979     14.495
REMARK INTER + INTRA:          -4.100
REMARK INTER:                  -4.075
REMARK INTRA:                  -0.025
REMARK UNBOUND:                -0.082
REMARK SMILES CC[C@@H](C)[C@@H]([NH3+])C(=O)[O-]
REMARK SMILES IDX 3 1 4 2 5 3 6 4 7 8 8 9 9 10 2 11 1 12
REMARK H PARENT 6 5 6 6 6 7
REMARK Flexibility Score: inf
ROOT
ATOM      1  C   UNL     1     177.351 169.392 185.353  1.00  0.00     0.050 C 
ATOM      2  C   UNL     1     177.996 170.134 186.538  1.00  0.00     0.014 C 
ENDROOT
BRANCH   1   3
ATOM      3  C   UNL     1     176.033 170.071 184.857  1.00  0.00     0.230 C 
BRANCH   3   4
ATOM      4  N   UNL     1     174.838 169.432 185.432  1.00  0.00    -0.350 N 
ATOM      5  H   UNL     1     174.229 169.059 184.668  1.00  0.00     0.345 HD
ATOM      6  H   UNL     1     174.289 170.142 185.967  1.00  0.00     0.345 HD
ATOM      7  H   UNL     1     175.092 168.654 186.083  1.00  0.00     0.345 HD
ENDBRANCH   3   4
BRANCH   3   8
ATOM      8  C   UNL     1     176.011 171.560 185.112  1.00  0.00     0.099 C 
ATOM      9  O   UNL     1     175.234 172.039 185.979  1.00  0.00    -0.544 OA
ATOM     10  O   UNL     1     176.824 172.416 184.380  1.00  0.00    -0.544 OA
ENDBRANCH   3   8
ENDBRANCH   1   3
BRANCH   1  11
ATOM     11  C   UNL     1     178.400 169.211 184.226  1.00  0.00     0.006 C 
ATOM     12  C   UNL     1     179.323 168.012 184.444  1.00  0.00     0.004 C 
ENDBRANCH   1  11
TORSDOF 4
ENDMDL
