MODEL 1
REMARK VINA RESULT:    -3.595      0.000      0.000
REMARK INTER + INTRA:          -5.416
REMARK INTER:                  -5.065
REMARK INTRA:                  -0.351
REMARK UNBOUND:                -0.351
REMARK SMILES C=CCCCCCCC(=O)[O-]
REMARK SMILES IDX 6 1 7 2 8 3 9 4 10 5 11 6 5 7 4 8 3 9 2 10 1 11
REMARK H PARENT
REMARK Flexibility Score: inf
ROOT
ATOM      1  C   UNL     1      57.411  29.320  50.694  1.00  0.00     0.000 C 
ENDROOT
BRANCH   1   2
ATOM      2  C   UNL     1      58.495  29.219  49.609  1.00  0.00     0.006 C 
BRANCH   2   3
ATOM      3  C   UNL     1      59.863  28.916  50.229  1.00  0.00     0.053 C 
BRANCH   3   4
ATOM      4  C   UNL     1      60.393  27.613  49.717  1.00  0.00     0.041 C 
ATOM      5  O   UNL     1      59.607  26.659  49.482  1.00  0.00    -0.550 OA
ATOM      6  O   UNL     1      61.760  27.438  49.546  1.00  0.00    -0.550 OA
ENDBRANCH   3   4
ENDBRANCH   2   3
ENDBRANCH   1   2
BRANCH   1   7
ATOM      7  C   UNL     1      56.419  28.147  50.649  1.00  0.00     0.000 C 
BRANCH   7   8
ATOM      8  C   UNL     1      54.954  28.610  50.661  1.00  0.00     0.004 C 
BRANCH   8   9
ATOM      9  C   UNL     1      54.038  27.542  50.050  1.00  0.00     0.027 C 
BRANCH   9  10
ATOM     10  C   UNL     1      54.740  26.216  49.946  1.00  0.00    -0.035 C 
ATOM     11  C   UNL     1      54.107  25.116  49.526  1.00  0.00     0.004 C 
ENDBRANCH   9  10
ENDBRANCH   8   9
ENDBRANCH   7   8
ENDBRANCH   1   7
TORSDOF 7
ENDMDL
MODEL 2
REMARK VINA RESULT:    -3.516     12.101     13.829
REMARK INTER + INTRA:          -5.305
REMARK INTER:                  -4.991
REMARK INTRA:                  -0.314
REMARK UNBOUND:                -0.351
REMARK SMILES C=CCCCCCCC(=O)[O-]
REMARK SMILES IDX 6 1 7 2 8 3 9 4 10 5 11 6 5 7 4 8 3 9 2 10 1 11
REMARK H PARENT
REMARK Flexibility Score: inf
ROOT
ATOM      1  C   UNL     1      61.423  32.004  59.677  1.00  0.00     0.000 C 
ENDROOT
BRANCH   1   2
ATOM      2  C   UNL     1      60.559  31.085  60.554  1.00  0.00     0.006 C 
BRANCH   2   3
ATOM      3  C   UNL     1      61.260  30.779  61.881  1.00  0.00     0.053 C 
BRANCH   3   4
ATOM      4  C   UNL     1      62.438  29.884  61.657  1.00  0.00     0.041 C 
ATOM      5  O   UNL     1      62.281  28.638  61.577  1.00  0.00    -0.550 OA
ATOM      6  O   UNL     1      63.716  30.424  61.585  1.00  0.00    -0.550 OA
ENDBRANCH   3   4
ENDBRANCH   2   3
ENDBRANCH   1   2
BRANCH   1   7
ATOM      7  C   UNL     1      61.336  33.479  60.099  1.00  0.00     0.000 C 
BRANCH   7   8
ATOM      8  C   UNL     1      62.686  34.041  60.571  1.00  0.00     0.004 C 
BRANCH   8   9
ATOM      9  C   UNL     1      62.553  35.514  60.978  1.00  0.00     0.027 C 
BRANCH   9  10
ATOM     10  C   UNL     1      63.889  36.102  61.339  1.00  0.00    -0.035 C 
ATOM     11  C   UNL     1      64.947  35.332  61.612  1.00  0.00     0.004 C 
ENDBRANCH   9  10
ENDBRANCH   8   9
ENDBRANCH   7   8
ENDBRANCH   1   7
TORSDOF 7
ENDMDL
MODEL 3
REMARK VINA RESULT:    -3.504     12.692     13.806
REMARK INTER + INTRA:          -5.288
REMARK INTER:                  -4.666
REMARK INTRA:                  -0.622
REMARK UNBOUND:                -0.351
REMARK SMILES C=CCCCCCCC(=O)[O-]
REMARK SMILES IDX 6 1 7 2 8 3 9 4 10 5 11 6 5 7 4 8 3 9 2 10 1 11
REMARK H PARENT
REMARK Flexibility Score: inf
ROOT
ATOM      1  C   UNL     1      64.405  32.679  60.079  1.00  0.00     0.000 C 
ENDROOT
BRANCH   1   2
ATOM      2  C   UNL     1      64.000  33.941  60.856  1.00  0.00     0.006 C 
BRANCH   2   3
ATOM      3  C   UNL     1      62.556  34.340  60.535  1.00  0.00     0.053 C 
BRANCH   3   4
ATOM      4  C   UNL     1      62.292  35.746  60.976  1.00  0.00     0.041 C 
ATOM      5  O   UNL     1      61.140  36.240  60.859  1.00  0.00    -0.550 OA
ATOM      6  O   UNL     1      63.329  36.527  61.469  1.00  0.00    -0.550 OA
ENDBRANCH   3   4
ENDBRANCH   2   3
ENDBRANCH   1   2
BRANCH   1   7
ATOM      7  C   UNL     1      64.427  31.421  60.964  1.00  0.00     0.000 C 
BRANCH   7   8
ATOM      8  C   UNL     1      63.518  30.304  60.428  1.00  0.00     0.004 C 
BRANCH   8   9
ATOM      9  C   UNL     1      62.604  29.765  61.535  1.00  0.00     0.027 C 
BRANCH   9  10
ATOM     10  C   UNL     1      61.498  30.734  61.849  1.00  0.00    -0.035 C 
ATOM     11  C   UNL     1      60.619  31.123  60.921  1.00  0.00     0.004 C 
ENDBRANCH   9  10
ENDBRANCH   8   9
ENDBRANCH   7   8
ENDBRANCH   1   7
TORSDOF 7
ENDMDL
MODEL 4
REMARK VINA RESULT:    -3.488     12.081     13.451
REMARK INTER + INTRA:          -5.267
REMARK INTER:                  -4.849
REMARK INTRA:                  -0.418
REMARK UNBOUND:                -0.351
REMARK SMILES C=CCCCCCCC(=O)[O-]
REMARK SMILES IDX 6 1 7 2 8 3 9 4 10 5 11 6 5 7 4 8 3 9 2 10 1 11
REMARK H PARENT
REMARK Flexibility Score: inf
ROOT
ATOM      1  C   UNL     1      61.193  32.035  60.676  1.00  0.00     0.000 C 
ENDROOT
BRANCH   1   2
ATOM      2  C   UNL     1      60.951  30.830  61.599  1.00  0.00     0.006 C 
BRANCH   2   3
ATOM      3  C   UNL     1      62.233  30.011  61.776  1.00  0.00     0.053 C 
BRANCH   3   4
ATOM      4  C   UNL     1      62.111  28.691  61.083  1.00  0.00     0.041 C 
ATOM      5  O   UNL     1      61.920  28.644  59.839  1.00  0.00    -0.550 OA
ATOM      6  O   UNL     1      62.159  27.513  61.817  1.00  0.00    -0.550 OA
ENDBRANCH   3   4
ENDBRANCH   2   3
ENDBRANCH   1   2
BRANCH   1   7
ATOM      7  C   UNL     1      62.686  32.354  60.499  1.00  0.00     0.000 C 
BRANCH   7   8
ATOM      8  C   UNL     1      62.985  33.858  60.591  1.00  0.00     0.004 C 
BRANCH   8   9
ATOM      9  C   UNL     1      61.725  34.685  60.309  1.00  0.00     0.027 C 
BRANCH   9  10
ATOM     10  C   UNL     1      61.817  36.050  60.932  1.00  0.00    -0.035 C 
ATOM     11  C   UNL     1      62.993  36.603  61.243  1.00  0.00     0.004 C 
ENDBRANCH   9  10
ENDBRANCH   8   9
ENDBRANCH   7   8
ENDBRANCH   1   7
TORSDOF 7
ENDMDL
MODEL 5
REMARK VINA RESULT:    -3.411      3.278      5.200
REMARK INTER + INTRA:          -5.157
REMARK INTER:                  -4.559
REMARK INTRA:                  -0.598
REMARK UNBOUND:                -0.351
REMARK SMILES C=CCCCCCCC(=O)[O-]
REMARK SMILES IDX 6 1 7 2 8 3 9 4 10 5 11 6 5 7 4 8 3 9 2 10 1 11
REMARK H PARENT
REMARK Flexibility Score: inf
ROOT
ATOM      1  C   UNL     1      56.414  27.939  51.237  1.00  0.00     0.000 C 
ENDROOT
BRANCH   1   2
ATOM      2  C   UNL     1      55.247  27.371  50.415  1.00  0.00     0.006 C 
BRANCH   2   3
ATOM      3  C   UNL     1      55.488  25.899  50.067  1.00  0.00     0.053 C 
BRANCH   3   4
ATOM      4  C   UNL     1      54.385  25.045  50.610  1.00  0.00     0.041 C 
ATOM      5  O   UNL     1      53.697  24.331  49.834  1.00  0.00    -0.550 OA
ATOM      6  O   UNL     1      54.085  25.076  51.966  1.00  0.00    -0.550 OA
ENDBRANCH   3   4
ENDBRANCH   2   3
ENDBRANCH   1   2
BRANCH   1   7
ATOM      7  C   UNL     1      56.919  29.287  50.696  1.00  0.00     0.000 C 
BRANCH   7   8
ATOM      8  C   UNL     1      58.448  29.335  50.561  1.00  0.00     0.004 C 
BRANCH   8   9
ATOM      9  C   UNL     1      58.904  28.660  49.262  1.00  0.00     0.027 C 
BRANCH   9  10
ATOM     10  C   UNL     1      59.841  27.517  49.541  1.00  0.00    -0.035 C 
ATOM     11  C   UNL     1      59.393  26.278  49.764  1.00  0.00     0.004 C 
ENDBRANCH   9  10
ENDBRANCH   8   9
ENDBRANCH   7   8
ENDBRANCH   1   7
TORSDOF 7
ENDMDL
MODEL 6
REMARK VINA RESULT:    -3.364     11.573     13.094
REMARK INTER + INTRA:          -5.092
REMARK INTER:                  -4.348
REMARK INTRA:                  -0.744
REMARK UNBOUND:                -0.351
REMARK SMILES C=CCCCCCCC(=O)[O-]
REMARK SMILES IDX 6 1 7 2 8 3 9 4 10 5 11 6 5 7 4 8 3 9 2 10 1 11
REMARK H PARENT
REMARK Flexibility Score: inf
ROOT
ATOM      1  C   UNL     1      62.991  30.100  60.426  1.00  0.00     0.000 C 
ENDROOT
BRANCH   1   2
ATOM      2  C   UNL     1      62.235  29.931  61.753  1.00  0.00     0.006 C 
BRANCH   2   3
ATOM      3  C   UNL     1      60.982  30.812  61.785  1.00  0.00     0.053 C 
BRANCH   3   4
ATOM      4  C   UNL     1      60.032  30.412  60.700  1.00  0.00     0.041 C 
ATOM      5  O   UNL     1      59.437  29.304  60.757  1.00  0.00    -0.550 OA
ATOM      6  O   UNL     1      59.842  31.240  59.602  1.00  0.00    -0.550 OA
ENDBRANCH   3   4
ENDBRANCH   2   3
ENDBRANCH   1   2
BRANCH   1   7
ATOM      7  C   UNL     1      64.414  30.649  60.621  1.00  0.00     0.000 C 
BRANCH   7   8
ATOM      8  C   UNL     1      64.439  32.173  60.813  1.00  0.00     0.004 C 
BRANCH   8   9
ATOM      9  C   UNL     1      63.447  32.860  59.867  1.00  0.00     0.027 C 
BRANCH   9  10
ATOM     10  C   UNL     1      62.700  33.961  60.567  1.00  0.00    -0.035 C 
ATOM     11  C   UNL     1      61.439  34.270  60.248  1.00  0.00     0.004 C 
ENDBRANCH   9  10
ENDBRANCH   8   9
ENDBRANCH   7   8
ENDBRANCH   1   7
TORSDOF 7
ENDMDL
MODEL 7
REMARK VINA RESULT:    -3.350      1.357      1.845
REMARK INTER + INTRA:          -5.071
REMARK INTER:                  -4.695
REMARK INTRA:                  -0.376
REMARK UNBOUND:                -0.351
REMARK SMILES C=CCCCCCCC(=O)[O-]
REMARK SMILES IDX 6 1 7 2 8 3 9 4 10 5 11 6 5 7 4 8 3 9 2 10 1 11
REMARK H PARENT
REMARK Flexibility Score: inf
ROOT
ATOM      1  C   UNL     1      57.736  29.160  50.402  1.00  0.00     0.000 C 
ENDROOT
BRANCH   1   2
ATOM      2  C   UNL     1      59.094  29.224  49.687  1.00  0.00     0.006 C 
BRANCH   2   3
ATOM      3  C   UNL     1      59.590  27.819  49.328  1.00  0.00     0.053 C 
BRANCH   3   4
ATOM      4  C   UNL     1      60.873  27.519  50.037  1.00  0.00     0.041 C 
ATOM      5  O   UNL     1      61.883  28.246  49.852  1.00  0.00    -0.550 OA
ATOM      6  O   UNL     1      60.966  26.407  50.864  1.00  0.00    -0.550 OA
ENDBRANCH   3   4
ENDBRANCH   2   3
ENDBRANCH   1   2
BRANCH   1   7
ATOM      7  C   UNL     1      57.248  27.718  50.617  1.00  0.00     0.000 C 
BRANCH   7   8
ATOM      8  C   UNL     1      55.716  27.603  50.599  1.00  0.00     0.004 C 
BRANCH   8   9
ATOM      9  C   UNL     1      55.062  28.989  50.654  1.00  0.00     0.027 C 
BRANCH   9  10
ATOM     10  C   UNL     1      53.593  28.912  50.344  1.00  0.00    -0.035 C 
ATOM     11  C   UNL     1      53.017  27.774  49.944  1.00  0.00     0.004 C 
ENDBRANCH   9  10
ENDBRANCH   8   9
ENDBRANCH   7   8
ENDBRANCH   1   7
TORSDOF 7
ENDMDL
MODEL 8
REMARK VINA RESULT:    -3.345     11.968     13.249
REMARK INTER + INTRA:          -5.065
REMARK INTER:                  -4.274
REMARK INTRA:                  -0.791
REMARK UNBOUND:                -0.351
REMARK SMILES C=CCCCCCCC(=O)[O-]
REMARK SMILES IDX 6 1 7 2 8 3 9 4 10 5 11 6 5 7 4 8 3 9 2 10 1 11
REMARK H PARENT
REMARK Flexibility Score: inf
ROOT
ATOM      1  C   UNL     1      60.780  31.718  59.722  1.00  0.00     0.000 C 
ENDROOT
BRANCH   1   2
ATOM      2  C   UNL     1      61.181  33.119  60.208  1.00  0.00     0.006 C 
BRANCH   2   3
ATOM      3  C   UNL     1      62.570  33.502  59.689  1.00  0.00     0.053 C 
BRANCH   3   4
ATOM      4  C   UNL     1      63.296  34.335  60.698  1.00  0.00     0.041 C 
ATOM      5  O   UNL     1      64.406  33.954  61.153  1.00  0.00    -0.550 OA
ATOM      6  O   UNL     1      62.722  35.507  61.173  1.00  0.00    -0.550 OA
ENDBRANCH   3   4
ENDBRANCH   2   3
ENDBRANCH   1   2
BRANCH   1   7
ATOM      7  C   UNL     1      60.315  30.804  60.867  1.00  0.00     0.000 C 
BRANCH   7   8
ATOM      8  C   UNL     1      61.351  30.697  61.997  1.00  0.00     0.004 C 
BRANCH   8   9
ATOM      9  C   UNL     1      62.475  29.724  61.618  1.00  0.00     0.027 C 
BRANCH   9  10
ATOM     10  C   UNL     1      63.778  30.446  61.417  1.00  0.00    -0.035 C 
ATOM     11  C   UNL     1      64.475  30.338  60.282  1.00  0.00     0.004 C 
ENDBRANCH   9  10
ENDBRANCH   8   9
ENDBRANCH   7   8
ENDBRANCH   1   7
TORSDOF 7
ENDMDL
MODEL 9
REMARK VINA RESULT:    -3.302     12.597     13.605
REMARK INTER + INTRA:          -5.004
REMARK INTER:                  -4.478
REMARK INTRA:                  -0.526
REMARK UNBOUND:                -0.351
REMARK SMILES C=CCCCCCCC(=O)[O-]
REMARK SMILES IDX 6 1 7 2 8 3 9 4 10 5 11 6 5 7 4 8 3 9 2 10 1 11
REMARK H PARENT
REMARK Flexibility Score: inf
ROOT
ATOM      1  C   UNL     1      63.877  32.132  59.417  1.00  0.00     0.000 C 
ENDROOT
BRANCH   1   2
ATOM      2  C   UNL     1      63.859  30.640  59.783  1.00  0.00     0.006 C 
BRANCH   2   3
ATOM      3  C   UNL     1      63.751  30.451  61.299  1.00  0.00     0.053 C 
BRANCH   3   4
ATOM      4  C   UNL     1      62.415  29.883  61.663  1.00  0.00     0.041 C 
ATOM      5  O   UNL     1      61.458  30.649  61.945  1.00  0.00    -0.550 OA
ATOM      6  O   UNL     1      62.242  28.507  61.737  1.00  0.00    -0.550 OA
ENDBRANCH   3   4
ENDBRANCH   2   3
ENDBRANCH   1   2
BRANCH   1   7
ATOM      7  C   UNL     1      64.438  33.012  60.546  1.00  0.00     0.000 C 
BRANCH   7   8
ATOM      8  C   UNL     1      63.550  34.230  60.845  1.00  0.00     0.004 C 
BRANCH   8   9
ATOM      9  C   UNL     1      62.102  33.970  60.412  1.00  0.00     0.027 C 
BRANCH   9  10
ATOM     10  C   UNL     1      61.282  35.230  60.466  1.00  0.00    -0.035 C 
ATOM     11  C   UNL     1      61.790  36.380  60.918  1.00  0.00     0.004 C 
ENDBRANCH   9  10
ENDBRANCH   8   9
ENDBRANCH   7   8
ENDBRANCH   1   7
TORSDOF 7
ENDMDL
