MODEL 1
REMARK VINA RESULT:    -5.225      0.000      0.000
REMARK INTER + INTRA:         -10.513
REMARK INTER:                  -8.279
REMARK INTRA:                  -2.233
REMARK UNBOUND:                -2.233
REMARK SMILES C[C@@H]1O[C@@H](O[C@H]2[C@H](Oc3cc(O)c4c(c3)O[C@@H](c3ccc(O)cc3)CC4=O)O[C@@H](CO)[C@H](O)[C@@H]2O)[C@@H](O)[C@H](O)[C@H]1O
REMARK SMILES IDX 6 1 34 2 32 3 29 4 28 5 7 6 5 7 4 8 1 9 2 10 40 11 3 12
REMARK SMILES IDX 38 13 36 14 41 15 39 17 37 19 35 21 8 23 9 24 10 25 15 26
REMARK SMILES IDX 11 27 14 28 13 29 16 30 26 31 17 32 27 33 25 34 12 35 18 37
REMARK SMILES IDX 19 38 24 39 20 40 23 41 21 42 22 43 33 45 30 47 31 48
REMARK H PARENT 41 16 39 18 37 20 35 22 12 36 22 44 33 46 31 49
REMARK Flexibility Score: inf
ROOT
ATOM      1  C   UNL     1     -11.798 -26.502 -40.120  1.00  0.00     0.221 C 
ATOM      2  C   UNL     1     -11.804 -27.608 -39.035  1.00  0.00     0.181 C 
ATOM      3  C   UNL     1     -10.947 -27.168 -37.839  1.00  0.00     0.177 C 
ATOM      4  C   UNL     1      -9.489 -26.875 -38.300  1.00  0.00     0.179 C 
ATOM      5  O   UNL     1      -9.361 -26.632 -39.698  1.00  0.00    -0.332 OA
ATOM      6  C   UNL     1     -10.405 -25.819 -40.206  1.00  0.00     0.339 C 
ENDROOT
BRANCH   1   7
ATOM      7  O   UNL     1     -12.722 -25.470 -39.794  1.00  0.00    -0.337 OA
BRANCH   7   8
ATOM      8  C   UNL     1     -14.037 -25.695 -40.291  1.00  0.00     0.282 C 
ATOM      9  C   UNL     1     -14.165 -23.286 -43.069  1.00  0.00     0.041 C 
ATOM     10  C   UNL     1     -14.050 -23.752 -41.612  1.00  0.00     0.150 C 
ATOM     11  C   UNL     1     -15.091 -23.040 -40.721  1.00  0.00     0.174 C 
ATOM     12  O   UNL     1     -14.237 -25.154 -41.590  1.00  0.00    -0.344 OA
ATOM     13  C   UNL     1     -14.970 -23.581 -39.287  1.00  0.00     0.179 C 
ATOM     14  C   UNL     1     -15.059 -25.112 -39.283  1.00  0.00     0.202 C 
BRANCH  11  15
ATOM     15  O   UNL     1     -14.833 -21.656 -40.725  1.00  0.00    -0.388 OA
ATOM     16  H   UNL     1     -15.521 -21.232 -40.147  1.00  0.00     0.211 HD
ENDBRANCH  11  15
BRANCH  13  17
ATOM     17  O   UNL     1     -15.971 -23.055 -38.455  1.00  0.00    -0.387 OA
ATOM     18  H   UNL     1     -16.249 -22.181 -38.822  1.00  0.00     0.211 HD
ENDBRANCH  13  17
BRANCH  14  19
ATOM     19  O   UNL     1     -14.775 -25.580 -37.985  1.00  0.00    -0.385 OA
ATOM     20  H   UNL     1     -14.241 -24.866 -37.530  1.00  0.00     0.211 HD
ENDBRANCH  14  19
ENDBRANCH   7   8
ENDBRANCH   1   7
BRANCH   2  21
ATOM     21  O   UNL     1     -11.274 -28.795 -39.588  1.00  0.00    -0.387 OA
ATOM     22  H   UNL     1     -10.659 -28.535 -40.325  1.00  0.00     0.211 HD
ENDBRANCH   2  21
BRANCH   6  23
ATOM     23  O   UNL     1     -10.132 -25.424 -41.558  1.00  0.00    -0.462 OA
BRANCH  23  24
ATOM     24  C   UNL     1     -10.386 -26.175 -42.717  1.00  0.00     0.130 A 
ATOM     25  C   UNL     1      -9.611 -27.289 -43.096  1.00  0.00     0.093 A 
ATOM     26  C   UNL     1     -11.444 -25.773 -43.538  1.00  0.00     0.094 A 
ATOM     27  C   UNL     1      -9.798 -27.898 -44.347  1.00  0.00     0.133 A 
ATOM     28  C   UNL     1     -11.665 -26.400 -44.762  1.00  0.00     0.138 A 
ATOM     29  C   UNL     1     -10.812 -27.424 -45.203  1.00  0.00     0.102 A 
ATOM     30  O   UNL     1     -12.742 -25.991 -45.560  1.00  0.00    -0.484 OA
ATOM     31  C   UNL     1     -11.001 -27.925 -46.587  1.00  0.00     0.174 C 
ATOM     32  C   UNL     1     -13.227 -26.803 -46.629  1.00  0.00     0.211 C 
ATOM     33  O   UNL     1     -10.230 -28.799 -47.068  1.00  0.00    -0.294 OA
ATOM     34  C   UNL     1     -12.038 -27.294 -47.476  1.00  0.00     0.131 C 
BRANCH  27  35
ATOM     35  O   UNL     1      -8.989 -28.971 -44.731  1.00  0.00    -0.507 OA
ATOM     36  H   UNL     1      -7.996 -28.980 -44.548  1.00  0.00     0.293 HD
ENDBRANCH  27  35
BRANCH  32  37
ATOM     37  C   UNL     1     -14.305 -26.052 -47.382  1.00  0.00    -0.007 A 
ATOM     38  C   UNL     1     -15.513 -25.619 -46.793  1.00  0.00     0.011 A 
ATOM     39  C   UNL     1     -14.074 -25.765 -48.736  1.00  0.00     0.011 A 
ATOM     40  C   UNL     1     -16.454 -24.910 -47.546  1.00  0.00     0.046 A 
ATOM     41  C   UNL     1     -15.015 -25.066 -49.486  1.00  0.00     0.046 A 
ATOM     42  C   UNL     1     -16.206 -24.632 -48.892  1.00  0.00     0.115 A 
BRANCH  42  43
ATOM     43  O   UNL     1     -17.125 -23.924 -49.655  1.00  0.00    -0.508 OA
ATOM     44  H   UNL     1     -17.063 -22.919 -49.785  1.00  0.00     0.293 HD
ENDBRANCH  42  43
ENDBRANCH  32  37
ENDBRANCH  23  24
ENDBRANCH   6  23
BRANCH   3  45
ATOM     45  O   UNL     1     -10.941 -28.184 -36.874  1.00  0.00    -0.387 OA
ATOM     46  H   UNL     1     -11.819 -28.133 -36.408  1.00  0.00     0.211 HD
ENDBRANCH   3  45
BRANCH   4  47
ATOM     47  C   UNL     1      -8.828 -25.751 -37.483  1.00  0.00     0.191 C 
BRANCH  47  48
ATOM     48  O   UNL     1      -9.332 -25.765 -36.178  1.00  0.00    -0.394 OA
ATOM     49  H   UNL     1      -9.361 -24.819 -35.870  1.00  0.00     0.210 HD
ENDBRANCH  47  48
ENDBRANCH   4  47
TORSDOF 14
ENDMDL
MODEL 2
REMARK VINA RESULT:    -5.150      2.623      4.426
REMARK INTER + INTRA:         -10.394
REMARK INTER:                  -8.077
REMARK INTRA:                  -2.317
REMARK UNBOUND:                -2.233
REMARK SMILES C[C@@H]1O[C@@H](O[C@H]2[C@H](Oc3cc(O)c4c(c3)O[C@@H](c3ccc(O)cc3)CC4=O)O[C@@H](CO)[C@H](O)[C@@H]2O)[C@@H](O)[C@H](O)[C@H]1O
REMARK SMILES IDX 6 1 34 2 32 3 29 4 28 5 7 6 5 7 4 8 1 9 2 10 40 11 3 12
REMARK SMILES IDX 38 13 36 14 41 15 39 17 37 19 35 21 8 23 9 24 10 25 15 26
REMARK SMILES IDX 11 27 14 28 13 29 16 30 26 31 17 32 27 33 25 34 12 35 18 37
REMARK SMILES IDX 19 38 24 39 20 40 23 41 21 42 22 43 33 45 30 47 31 48
REMARK H PARENT 41 16 39 18 37 20 35 22 12 36 22 44 33 46 31 49
REMARK Flexibility Score: inf
ROOT
ATOM      1  C   UNL     1     -16.199 -24.978 -36.698  1.00  0.00     0.221 C 
ATOM      2  C   UNL     1     -16.347 -25.605 -35.289  1.00  0.00     0.181 C 
ATOM      3  C   UNL     1     -14.962 -25.951 -34.725  1.00  0.00     0.177 C 
ATOM      4  C   UNL     1     -14.223 -26.936 -35.677  1.00  0.00     0.179 C 
ATOM      5  O   UNL     1     -14.735 -26.952 -37.006  1.00  0.00    -0.332 OA
ATOM      6  C   UNL     1     -15.043 -25.654 -37.485  1.00  0.00     0.339 C 
ENDROOT
BRANCH   1   7
ATOM      7  O   UNL     1     -15.856 -23.599 -36.603  1.00  0.00    -0.337 OA
BRANCH   7   8
ATOM      8  C   UNL     1     -16.755 -22.734 -37.288  1.00  0.00     0.282 C 
ATOM      9  C   UNL     1     -14.801 -21.930 -40.302  1.00  0.00     0.041 C 
ATOM     10  C   UNL     1     -15.126 -21.972 -38.803  1.00  0.00     0.150 C 
ATOM     11  C   UNL     1     -15.083 -20.556 -38.189  1.00  0.00     0.174 C 
ATOM     12  O   UNL     1     -16.410 -22.550 -38.656  1.00  0.00    -0.344 OA
ATOM     13  C   UNL     1     -15.470 -20.647 -36.703  1.00  0.00     0.179 C 
ATOM     14  C   UNL     1     -16.808 -21.377 -36.542  1.00  0.00     0.202 C 
BRANCH  11  15
ATOM     15  O   UNL     1     -13.777 -20.043 -38.305  1.00  0.00    -0.388 OA
ATOM     16  H   UNL     1     -13.171 -20.820 -38.429  1.00  0.00     0.211 HD
ENDBRANCH  11  15
BRANCH  13  17
ATOM     17  O   UNL     1     -15.561 -19.374 -36.120  1.00  0.00    -0.387 OA
ATOM     18  H   UNL     1     -15.415 -19.469 -35.147  1.00  0.00     0.211 HD
ENDBRANCH  13  17
BRANCH  14  19
ATOM     19  O   UNL     1     -17.046 -21.591 -35.171  1.00  0.00    -0.385 OA
ATOM     20  H   UNL     1     -17.544 -22.456 -35.095  1.00  0.00     0.211 HD
ENDBRANCH  14  19
ENDBRANCH   7   8
ENDBRANCH   1   7
BRANCH   2  21
ATOM     21  O   UNL     1     -17.125 -26.779 -35.390  1.00  0.00    -0.387 OA
ATOM     22  H   UNL     1     -18.003 -26.525 -35.781  1.00  0.00     0.211 HD
ENDBRANCH   2  21
BRANCH   6  23
ATOM     23  O   UNL     1     -15.354 -25.688 -38.885  1.00  0.00    -0.462 OA
BRANCH  23  24
ATOM     24  C   UNL     1     -14.441 -25.592 -39.948  1.00  0.00     0.130 A 
ATOM     25  C   UNL     1     -13.053 -25.447 -39.757  1.00  0.00     0.093 A 
ATOM     26  C   UNL     1     -14.948 -25.618 -41.251  1.00  0.00     0.094 A 
ATOM     27  C   UNL     1     -12.205 -25.183 -40.845  1.00  0.00     0.133 A 
ATOM     28  C   UNL     1     -14.108 -25.401 -42.340  1.00  0.00     0.138 A 
ATOM     29  C   UNL     1     -12.745 -25.124 -42.146  1.00  0.00     0.102 A 
ATOM     30  O   UNL     1     -14.635 -25.448 -43.637  1.00  0.00    -0.484 OA
ATOM     31  C   UNL     1     -11.948 -24.732 -43.334  1.00  0.00     0.174 C 
ATOM     32  C   UNL     1     -13.792 -25.585 -44.780  1.00  0.00     0.211 C 
ATOM     33  O   UNL     1     -10.734 -24.409 -43.221  1.00  0.00    -0.294 OA
ATOM     34  C   UNL     1     -12.622 -24.589 -44.672  1.00  0.00     0.131 C 
BRANCH  27  35
ATOM     35  O   UNL     1     -10.836 -24.993 -40.636  1.00  0.00    -0.507 OA
ATOM     36  H   UNL     1     -10.484 -24.207 -40.107  1.00  0.00     0.293 HD
ENDBRANCH  27  35
BRANCH  32  37
ATOM     37  C   UNL     1     -14.628 -25.482 -46.039  1.00  0.00    -0.007 A 
ATOM     38  C   UNL     1     -15.988 -25.101 -46.045  1.00  0.00     0.011 A 
ATOM     39  C   UNL     1     -14.003 -25.771 -47.261  1.00  0.00     0.011 A 
ATOM     40  C   UNL     1     -16.692 -25.007 -47.249  1.00  0.00     0.046 A 
ATOM     41  C   UNL     1     -14.706 -25.683 -48.459  1.00  0.00     0.046 A 
ATOM     42  C   UNL     1     -16.052 -25.297 -48.457  1.00  0.00     0.115 A 
BRANCH  42  43
ATOM     43  O   UNL     1     -16.731 -25.203 -49.664  1.00  0.00    -0.508 OA
ATOM     44  H   UNL     1     -17.313 -24.404 -49.900  1.00  0.00     0.293 HD
ENDBRANCH  42  43
ENDBRANCH  32  37
ENDBRANCH  23  24
ENDBRANCH   6  23
BRANCH   3  45
ATOM     45  O   UNL     1     -15.108 -26.538 -33.461  1.00  0.00    -0.387 OA
ATOM     46  H   UNL     1     -15.743 -27.297 -33.577  1.00  0.00     0.211 HD
ENDBRANCH   3  45
BRANCH   4  47
ATOM     47  C   UNL     1     -12.699 -26.724 -35.678  1.00  0.00     0.191 C 
BRANCH  47  48
ATOM     48  O   UNL     1     -12.308 -26.146 -34.465  1.00  0.00    -0.394 OA
ATOM     49  H   UNL     1     -11.680 -26.785 -34.030  1.00  0.00     0.210 HD
ENDBRANCH  47  48
ENDBRANCH   4  47
TORSDOF 14
ENDMDL
MODEL 3
REMARK VINA RESULT:    -5.045      3.250      6.608
REMARK INTER + INTRA:         -10.228
REMARK INTER:                  -7.889
REMARK INTRA:                  -2.339
REMARK UNBOUND:                -2.233
REMARK SMILES C[C@@H]1O[C@@H](O[C@H]2[C@H](Oc3cc(O)c4c(c3)O[C@@H](c3ccc(O)cc3)CC4=O)O[C@@H](CO)[C@H](O)[C@@H]2O)[C@@H](O)[C@H](O)[C@H]1O
REMARK SMILES IDX 6 1 34 2 32 3 29 4 28 5 7 6 5 7 4 8 1 9 2 10 40 11 3 12
REMARK SMILES IDX 38 13 36 14 41 15 39 17 37 19 35 21 8 23 9 24 10 25 15 26
REMARK SMILES IDX 11 27 14 28 13 29 16 30 26 31 17 32 27 33 25 34 12 35 18 37
REMARK SMILES IDX 19 38 24 39 20 40 23 41 21 42 22 43 33 45 30 47 31 48
REMARK H PARENT 41 16 39 18 37 20 35 22 12 36 22 44 33 46 31 49
REMARK Flexibility Score: inf
ROOT
ATOM      1  C   UNL     1     -16.420 -24.406 -35.848  1.00  0.00     0.221 C 
ATOM      2  C   UNL     1     -16.227 -24.872 -34.383  1.00  0.00     0.181 C 
ATOM      3  C   UNL     1     -14.785 -25.355 -34.177  1.00  0.00     0.177 C 
ATOM      4  C   UNL     1     -14.461 -26.520 -35.158  1.00  0.00     0.179 C 
ATOM      5  O   UNL     1     -15.331 -26.587 -36.284  1.00  0.00    -0.332 OA
ATOM      6  C   UNL     1     -15.619 -25.309 -36.826  1.00  0.00     0.339 C 
ENDROOT
BRANCH   1   7
ATOM      7  O   UNL     1     -15.917 -23.087 -36.029  1.00  0.00    -0.337 OA
BRANCH   7   8
ATOM      8  C   UNL     1     -16.827 -22.207 -36.678  1.00  0.00     0.282 C 
ATOM      9  C   UNL     1     -14.970 -21.417 -39.757  1.00  0.00     0.041 C 
ATOM     10  C   UNL     1     -15.243 -21.461 -38.247  1.00  0.00     0.150 C 
ATOM     11  C   UNL     1     -15.159 -20.048 -37.630  1.00  0.00     0.174 C 
ATOM     12  O   UNL     1     -16.529 -22.022 -38.057  1.00  0.00    -0.344 OA
ATOM     13  C   UNL     1     -15.493 -20.140 -36.132  1.00  0.00     0.179 C 
ATOM     14  C   UNL     1     -16.835 -20.852 -35.926  1.00  0.00     0.202 C 
BRANCH  11  15
ATOM     15  O   UNL     1     -13.851 -19.552 -37.791  1.00  0.00    -0.388 OA
ATOM     16  H   UNL     1     -13.671 -19.523 -38.768  1.00  0.00     0.211 HD
ENDBRANCH  11  15
BRANCH  13  17
ATOM     17  O   UNL     1     -15.547 -18.868 -35.541  1.00  0.00    -0.387 OA
ATOM     18  H   UNL     1     -16.448 -18.494 -35.695  1.00  0.00     0.211 HD
ENDBRANCH  13  17
BRANCH  14  19
ATOM     19  O   UNL     1     -17.027 -21.069 -34.548  1.00  0.00    -0.385 OA
ATOM     20  H   UNL     1     -17.815 -20.515 -34.275  1.00  0.00     0.211 HD
ENDBRANCH  14  19
ENDBRANCH   7   8
ENDBRANCH   1   7
BRANCH   2  21
ATOM     21  O   UNL     1     -17.125 -25.929 -34.117  1.00  0.00    -0.387 OA
ATOM     22  H   UNL     1     -17.539 -25.755 -33.230  1.00  0.00     0.211 HD
ENDBRANCH   2  21
BRANCH   6  23
ATOM     23  O   UNL     1     -16.319 -25.430 -38.072  1.00  0.00    -0.462 OA
BRANCH  23  24
ATOM     24  C   UNL     1     -15.801 -25.171 -39.351  1.00  0.00     0.130 A 
ATOM     25  C   UNL     1     -16.552 -24.557 -40.373  1.00  0.00     0.093 A 
ATOM     26  C   UNL     1     -14.487 -25.570 -39.619  1.00  0.00     0.094 A 
ATOM     27  C   UNL     1     -16.047 -24.477 -41.682  1.00  0.00     0.133 A 
ATOM     28  C   UNL     1     -13.963 -25.455 -40.904  1.00  0.00     0.138 A 
ATOM     29  C   UNL     1     -14.753 -24.965 -41.956  1.00  0.00     0.102 A 
ATOM     30  O   UNL     1     -12.639 -25.844 -41.145  1.00  0.00    -0.484 OA
ATOM     31  C   UNL     1     -14.190 -25.033 -43.327  1.00  0.00     0.174 C 
ATOM     32  C   UNL     1     -11.943 -25.434 -42.322  1.00  0.00     0.211 C 
ATOM     33  O   UNL     1     -14.870 -24.668 -44.324  1.00  0.00    -0.294 OA
ATOM     34  C   UNL     1     -12.842 -25.665 -43.550  1.00  0.00     0.131 C 
BRANCH  27  35
ATOM     35  O   UNL     1     -16.822 -23.910 -42.697  1.00  0.00    -0.507 OA
ATOM     36  H   UNL     1     -17.727 -23.501 -42.510  1.00  0.00     0.293 HD
ENDBRANCH  27  35
BRANCH  32  37
ATOM     37  C   UNL     1     -10.586 -26.105 -42.365  1.00  0.00    -0.007 A 
ATOM     38  C   UNL     1      -9.594 -25.926 -41.376  1.00  0.00     0.011 A 
ATOM     39  C   UNL     1     -10.317 -26.961 -43.444  1.00  0.00     0.011 A 
ATOM     40  C   UNL     1      -8.371 -26.596 -41.470  1.00  0.00     0.046 A 
ATOM     41  C   UNL     1      -9.096 -27.622 -43.540  1.00  0.00     0.046 A 
ATOM     42  C   UNL     1      -8.121 -27.445 -42.551  1.00  0.00     0.115 A 
BRANCH  42  43
ATOM     43  O   UNL     1      -6.915 -28.125 -42.660  1.00  0.00    -0.508 OA
ATOM     44  H   UNL     1      -6.402 -28.454 -41.848  1.00  0.00     0.293 HD
ENDBRANCH  42  43
ENDBRANCH  32  37
ENDBRANCH  23  24
ENDBRANCH   6  23
BRANCH   3  45
ATOM     45  O   UNL     1     -14.627 -25.795 -32.856  1.00  0.00    -0.387 OA
ATOM     46  H   UNL     1     -15.243 -25.243 -32.301  1.00  0.00     0.211 HD
ENDBRANCH   3  45
BRANCH   4  47
ATOM     47  C   UNL     1     -12.987 -26.525 -35.600  1.00  0.00     0.191 C 
BRANCH  47  48
ATOM     48  O   UNL     1     -12.179 -26.118 -34.533  1.00  0.00    -0.394 OA
ATOM     49  H   UNL     1     -11.431 -26.773 -34.471  1.00  0.00     0.210 HD
ENDBRANCH  47  48
ENDBRANCH   4  47
TORSDOF 14
ENDMDL
MODEL 4
REMARK VINA RESULT:    -5.042      3.408     10.523
REMARK INTER + INTRA:         -10.223
REMARK INTER:                  -8.175
REMARK INTRA:                  -2.049
REMARK UNBOUND:                -2.233
REMARK SMILES C[C@@H]1O[C@@H](O[C@H]2[C@H](Oc3cc(O)c4c(c3)O[C@@H](c3ccc(O)cc3)CC4=O)O[C@@H](CO)[C@H](O)[C@@H]2O)[C@@H](O)[C@H](O)[C@H]1O
REMARK SMILES IDX 6 1 34 2 32 3 29 4 28 5 7 6 5 7 4 8 1 9 2 10 40 11 3 12
REMARK SMILES IDX 38 13 36 14 41 15 39 17 37 19 35 21 8 23 9 24 10 25 15 26
REMARK SMILES IDX 11 27 14 28 13 29 16 30 26 31 17 32 27 33 25 34 12 35 18 37
REMARK SMILES IDX 19 38 24 39 20 40 23 41 21 42 22 43 33 45 30 47 31 48
REMARK H PARENT 41 16 39 18 37 20 35 22 12 36 22 44 33 46 31 49
REMARK Flexibility Score: inf
ROOT
ATOM      1  C   UNL     1     -13.449 -26.131 -41.102  1.00  0.00     0.221 C 
ATOM      2  C   UNL     1     -13.976 -25.327 -42.316  1.00  0.00     0.181 C 
ATOM      3  C   UNL     1     -14.053 -23.835 -41.958  1.00  0.00     0.177 C 
ATOM      4  C   UNL     1     -14.984 -23.624 -40.728  1.00  0.00     0.179 C 
ATOM      5  O   UNL     1     -15.187 -24.798 -39.946  1.00  0.00    -0.332 OA
ATOM      6  C   UNL     1     -13.996 -25.546 -39.771  1.00  0.00     0.339 C 
ENDROOT
BRANCH   1   7
ATOM      7  O   UNL     1     -12.030 -26.045 -41.016  1.00  0.00    -0.337 OA
BRANCH   7   8
ATOM      8  C   UNL     1     -11.396 -27.275 -40.685  1.00  0.00     0.282 C 
ATOM      9  C   UNL     1      -8.877 -26.139 -38.254  1.00  0.00     0.041 C 
ATOM     10  C   UNL     1      -9.577 -26.240 -39.616  1.00  0.00     0.150 C 
ATOM     11  C   UNL     1      -8.577 -26.645 -40.722  1.00  0.00     0.174 C 
ATOM     12  O   UNL     1     -10.616 -27.193 -39.499  1.00  0.00    -0.344 OA
ATOM     13  C   UNL     1      -9.336 -26.785 -42.051  1.00  0.00     0.179 C 
ATOM     14  C   UNL     1     -10.532 -27.731 -41.887  1.00  0.00     0.202 C 
BRANCH  11  15
ATOM     15  O   UNL     1      -7.594 -25.643 -40.844  1.00  0.00    -0.388 OA
ATOM     16  H   UNL     1      -6.757 -26.012 -40.457  1.00  0.00     0.211 HD
ENDBRANCH  11  15
BRANCH  13  17
ATOM     17  O   UNL     1      -8.500 -27.265 -43.070  1.00  0.00    -0.387 OA
ATOM     18  H   UNL     1      -8.813 -28.166 -43.327  1.00  0.00     0.211 HD
ENDBRANCH  13  17
BRANCH  14  19
ATOM     19  O   UNL     1     -11.298 -27.703 -43.069  1.00  0.00    -0.385 OA
ATOM     20  H   UNL     1     -10.656 -27.586 -43.827  1.00  0.00     0.211 HD
ENDBRANCH  14  19
ENDBRANCH   7   8
ENDBRANCH   1   7
BRANCH   2  21
ATOM     21  O   UNL     1     -15.262 -25.800 -42.655  1.00  0.00    -0.387 OA
ATOM     22  H   UNL     1     -15.297 -26.767 -42.426  1.00  0.00     0.211 HD
ENDBRANCH   2  21
BRANCH   6  23
ATOM     23  O   UNL     1     -14.191 -26.597 -38.813  1.00  0.00    -0.462 OA
BRANCH  23  24
ATOM     24  C   UNL     1     -13.907 -26.541 -37.439  1.00  0.00     0.130 A 
ATOM     25  C   UNL     1     -14.845 -26.118 -36.478  1.00  0.00     0.093 A 
ATOM     26  C   UNL     1     -12.621 -26.900 -37.022  1.00  0.00     0.094 A 
ATOM     27  C   UNL     1     -14.460 -25.916 -35.143  1.00  0.00     0.133 A 
ATOM     28  C   UNL     1     -12.242 -26.744 -35.691  1.00  0.00     0.138 A 
ATOM     29  C   UNL     1     -13.135 -26.198 -34.754  1.00  0.00     0.102 A 
ATOM     30  O   UNL     1     -10.955 -27.126 -35.292  1.00  0.00    -0.484 OA
ATOM     31  C   UNL     1     -12.610 -25.900 -33.399  1.00  0.00     0.174 C 
ATOM     32  C   UNL     1     -10.628 -27.322 -33.916  1.00  0.00     0.211 C 
ATOM     33  O   UNL     1     -13.340 -25.351 -32.529  1.00  0.00    -0.294 OA
ATOM     34  C   UNL     1     -11.154 -26.131 -33.094  1.00  0.00     0.131 C 
BRANCH  27  35
ATOM     35  O   UNL     1     -15.389 -25.450 -34.209  1.00  0.00    -0.507 OA
ATOM     36  H   UNL     1     -15.698 -26.021 -33.435  1.00  0.00     0.293 HD
ENDBRANCH  27  35
BRANCH  32  37
ATOM     37  C   UNL     1      -9.146 -27.607 -33.786  1.00  0.00    -0.007 A 
ATOM     38  C   UNL     1      -8.258 -27.647 -34.884  1.00  0.00     0.011 A 
ATOM     39  C   UNL     1      -8.636 -27.828 -32.498  1.00  0.00     0.011 A 
ATOM     40  C   UNL     1      -6.897 -27.895 -34.686  1.00  0.00     0.046 A 
ATOM     41  C   UNL     1      -7.282 -28.081 -32.302  1.00  0.00     0.046 A 
ATOM     42  C   UNL     1      -6.407 -28.111 -33.395  1.00  0.00     0.115 A 
BRANCH  42  43
ATOM     43  O   UNL     1      -5.057 -28.352 -33.176  1.00  0.00    -0.508 OA
ATOM     44  H   UNL     1      -4.413 -28.560 -33.932  1.00  0.00     0.293 HD
ENDBRANCH  42  43
ENDBRANCH  32  37
ENDBRANCH  23  24
ENDBRANCH   6  23
BRANCH   3  45
ATOM     45  O   UNL     1     -14.552 -23.120 -43.054  1.00  0.00    -0.387 OA
ATOM     46  H   UNL     1     -13.922 -22.363 -43.204  1.00  0.00     0.211 HD
ENDBRANCH   3  45
BRANCH   4  47
ATOM     47  C   UNL     1     -14.534 -22.446 -39.845  1.00  0.00     0.191 C 
BRANCH  47  48
ATOM     48  O   UNL     1     -14.926 -21.243 -40.440  1.00  0.00    -0.394 OA
ATOM     49  H   UNL     1     -14.685 -21.305 -41.404  1.00  0.00     0.210 HD
ENDBRANCH  47  48
ENDBRANCH   4  47
TORSDOF 14
ENDMDL
MODEL 5
REMARK VINA RESULT:    -4.864      3.339      9.845
REMARK INTER + INTRA:          -9.940
REMARK INTER:                  -8.058
REMARK INTRA:                  -1.882
REMARK UNBOUND:                -2.233
REMARK SMILES C[C@@H]1O[C@@H](O[C@H]2[C@H](Oc3cc(O)c4c(c3)O[C@@H](c3ccc(O)cc3)CC4=O)O[C@@H](CO)[C@H](O)[C@@H]2O)[C@@H](O)[C@H](O)[C@H]1O
REMARK SMILES IDX 6 1 34 2 32 3 29 4 28 5 7 6 5 7 4 8 1 9 2 10 40 11 3 12
REMARK SMILES IDX 38 13 36 14 41 15 39 17 37 19 35 21 8 23 9 24 10 25 15 26
REMARK SMILES IDX 11 27 14 28 13 29 16 30 26 31 17 32 27 33 25 34 12 35 18 37
REMARK SMILES IDX 19 38 24 39 20 40 23 41 21 42 22 43 33 45 30 47 31 48
REMARK H PARENT 41 16 39 18 37 20 35 22 12 36 22 44 33 46 31 49
REMARK Flexibility Score: inf
ROOT
ATOM      1  C   UNL     1     -12.450 -25.872 -40.108  1.00  0.00     0.221 C 
ATOM      2  C   UNL     1     -11.058 -25.662 -40.752  1.00  0.00     0.181 C 
ATOM      3  C   UNL     1     -10.894 -26.600 -41.956  1.00  0.00     0.177 C 
ATOM      4  C   UNL     1     -11.061 -28.082 -41.510  1.00  0.00     0.179 C 
ATOM      5  O   UNL     1     -11.746 -28.241 -40.271  1.00  0.00    -0.332 OA
ATOM      6  C   UNL     1     -12.859 -27.370 -40.151  1.00  0.00     0.339 C 
ENDROOT
BRANCH   1   7
ATOM      7  O   UNL     1     -13.454 -25.170 -40.834  1.00  0.00    -0.337 OA
BRANCH   7   8
ATOM      8  C   UNL     1     -13.050 -23.880 -41.277  1.00  0.00     0.282 C 
ATOM      9  C   UNL     1     -15.097 -21.718 -39.113  1.00  0.00     0.041 C 
ATOM     10  C   UNL     1     -14.817 -22.773 -40.192  1.00  0.00     0.150 C 
ATOM     11  C   UNL     1     -15.526 -22.410 -41.515  1.00  0.00     0.174 C 
ATOM     12  O   UNL     1     -13.415 -22.846 -40.371  1.00  0.00    -0.344 OA
ATOM     13  C   UNL     1     -15.169 -23.466 -42.575  1.00  0.00     0.179 C 
ATOM     14  C   UNL     1     -13.648 -23.623 -42.682  1.00  0.00     0.202 C 
BRANCH  11  15
ATOM     15  O   UNL     1     -16.918 -22.406 -41.305  1.00  0.00    -0.388 OA
ATOM     16  H   UNL     1     -17.172 -21.474 -41.070  1.00  0.00     0.211 HD
ENDBRANCH  11  15
BRANCH  13  17
ATOM     17  O   UNL     1     -15.691 -23.126 -43.832  1.00  0.00    -0.387 OA
ATOM     18  H   UNL     1     -15.866 -23.961 -44.330  1.00  0.00     0.211 HD
ENDBRANCH  13  17
BRANCH  14  19
ATOM     19  O   UNL     1     -13.363 -24.710 -43.532  1.00  0.00    -0.385 OA
ATOM     20  H   UNL     1     -12.433 -24.572 -43.875  1.00  0.00     0.211 HD
ENDBRANCH  14  19
ENDBRANCH   7   8
ENDBRANCH   1   7
BRANCH   2  21
ATOM     21  O   UNL     1     -10.061 -25.943 -39.791  1.00  0.00    -0.387 OA
ATOM     22  H   UNL     1      -9.178 -25.797 -40.223  1.00  0.00     0.211 HD
ENDBRANCH   2  21
BRANCH   6  23
ATOM     23  O   UNL     1     -13.641 -27.702 -38.995  1.00  0.00    -0.462 OA
BRANCH  23  24
ATOM     24  C   UNL     1     -13.388 -27.309 -37.671  1.00  0.00     0.130 A 
ATOM     25  C   UNL     1     -14.314 -26.586 -36.894  1.00  0.00     0.093 A 
ATOM     26  C   UNL     1     -12.144 -27.632 -37.119  1.00  0.00     0.094 A 
ATOM     27  C   UNL     1     -13.948 -26.070 -35.640  1.00  0.00     0.133 A 
ATOM     28  C   UNL     1     -11.787 -27.160 -35.858  1.00  0.00     0.138 A 
ATOM     29  C   UNL     1     -12.658 -26.330 -35.135  1.00  0.00     0.102 A 
ATOM     30  O   UNL     1     -10.543 -27.512 -35.318  1.00  0.00    -0.484 OA
ATOM     31  C   UNL     1     -12.145 -25.725 -33.881  1.00  0.00     0.174 C 
ATOM     32  C   UNL     1     -10.266 -27.363 -33.926  1.00  0.00     0.211 C 
ATOM     33  O   UNL     1     -12.852 -24.920 -33.215  1.00  0.00    -0.294 OA
ATOM     34  C   UNL     1     -10.720 -25.966 -33.463  1.00  0.00     0.131 C 
BRANCH  27  35
ATOM     35  O   UNL     1     -14.861 -25.314 -34.900  1.00  0.00    -0.507 OA
ATOM     36  H   UNL     1     -14.778 -25.211 -33.898  1.00  0.00     0.293 HD
ENDBRANCH  27  35
BRANCH  32  37
ATOM     37  C   UNL     1      -8.814 -27.704 -33.662  1.00  0.00    -0.007 A 
ATOM     38  C   UNL     1      -8.303 -28.010 -32.381  1.00  0.00     0.011 A 
ATOM     39  C   UNL     1      -7.941 -27.729 -34.761  1.00  0.00     0.011 A 
ATOM     40  C   UNL     1      -6.954 -28.338 -32.217  1.00  0.00     0.046 A 
ATOM     41  C   UNL     1      -6.597 -28.049 -34.594  1.00  0.00     0.046 A 
ATOM     42  C   UNL     1      -6.100 -28.359 -33.323  1.00  0.00     0.115 A 
BRANCH  42  43
ATOM     43  O   UNL     1      -4.759 -28.688 -33.181  1.00  0.00    -0.508 OA
ATOM     44  H   UNL     1      -4.430 -29.649 -33.203  1.00  0.00     0.293 HD
ENDBRANCH  42  43
ENDBRANCH  32  37
ENDBRANCH  23  24
ENDBRANCH   6  23
BRANCH   3  45
ATOM     45  O   UNL     1      -9.623 -26.418 -42.517  1.00  0.00    -0.387 OA
ATOM     46  H   UNL     1      -9.283 -25.550 -42.165  1.00  0.00     0.211 HD
ENDBRANCH   3  45
BRANCH   4  47
ATOM     47  C   UNL     1     -11.694 -28.959 -42.605  1.00  0.00     0.191 C 
BRANCH  47  48
ATOM     48  O   UNL     1     -11.947 -28.178 -43.738  1.00  0.00    -0.394 OA
ATOM     49  H   UNL     1     -12.935 -28.171 -43.869  1.00  0.00     0.210 HD
ENDBRANCH  47  48
ENDBRANCH   4  47
TORSDOF 14
ENDMDL
MODEL 6
REMARK VINA RESULT:    -4.806      3.422      7.973
REMARK INTER + INTRA:          -9.849
REMARK INTER:                  -7.696
REMARK INTRA:                  -2.153
REMARK UNBOUND:                -2.233
REMARK SMILES C[C@@H]1O[C@@H](O[C@H]2[C@H](Oc3cc(O)c4c(c3)O[C@@H](c3ccc(O)cc3)CC4=O)O[C@@H](CO)[C@H](O)[C@@H]2O)[C@@H](O)[C@H](O)[C@H]1O
REMARK SMILES IDX 6 1 34 2 32 3 29 4 28 5 7 6 5 7 4 8 1 9 2 10 40 11 3 12
REMARK SMILES IDX 38 13 36 14 41 15 39 17 37 19 35 21 8 23 9 24 10 25 15 26
REMARK SMILES IDX 11 27 14 28 13 29 16 30 26 31 17 32 27 33 25 34 12 35 18 37
REMARK SMILES IDX 19 38 24 39 20 40 23 41 21 42 22 43 33 45 30 47 31 48
REMARK H PARENT 41 16 39 18 37 20 35 22 12 36 22 44 33 46 31 49
REMARK Flexibility Score: inf
ROOT
ATOM      1  C   UNL     1     -10.918 -28.375 -40.473  1.00  0.00     0.221 C 
ATOM      2  C   UNL     1      -9.576 -28.547 -41.226  1.00  0.00     0.181 C 
ATOM      3  C   UNL     1      -8.903 -27.179 -41.409  1.00  0.00     0.177 C 
ATOM      4  C   UNL     1      -9.841 -26.219 -42.197  1.00  0.00     0.179 C 
ATOM      5  O   UNL     1     -11.212 -26.606 -42.181  1.00  0.00    -0.332 OA
ATOM      6  C   UNL     1     -11.632 -27.065 -40.907  1.00  0.00     0.339 C 
ENDROOT
BRANCH   1   7
ATOM      7  O   UNL     1     -10.699 -28.257 -39.071  1.00  0.00    -0.337 OA
BRANCH   7   8
ATOM      8  C   UNL     1     -11.020 -26.975 -38.543  1.00  0.00     0.282 C 
ATOM      9  C   UNL     1      -7.889 -26.125 -36.805  1.00  0.00     0.041 C 
ATOM     10  C   UNL     1      -9.166 -26.923 -37.099  1.00  0.00     0.150 C 
ATOM     11  C   UNL     1     -10.033 -27.065 -35.829  1.00  0.00     0.174 C 
ATOM     12  O   UNL     1      -9.872 -26.248 -38.123  1.00  0.00    -0.344 OA
ATOM     13  C   UNL     1     -11.321 -27.823 -36.190  1.00  0.00     0.179 C 
ATOM     14  C   UNL     1     -12.023 -27.151 -37.376  1.00  0.00     0.202 C 
BRANCH  11  15
ATOM     15  O   UNL     1      -9.315 -27.791 -34.860  1.00  0.00    -0.388 OA
ATOM     16  H   UNL     1      -9.782 -27.656 -33.993  1.00  0.00     0.211 HD
ENDBRANCH  11  15
BRANCH  13  17
ATOM     17  O   UNL     1     -12.203 -27.880 -35.100  1.00  0.00    -0.387 OA
ATOM     18  H   UNL     1     -12.578 -26.977 -34.958  1.00  0.00     0.211 HD
ENDBRANCH  13  17
BRANCH  14  19
ATOM     19  O   UNL     1     -13.099 -27.962 -37.785  1.00  0.00    -0.385 OA
ATOM     20  H   UNL     1     -12.782 -28.910 -37.737  1.00  0.00     0.211 HD
ENDBRANCH  14  19
ENDBRANCH   7   8
ENDBRANCH   1   7
BRANCH   2  21
ATOM     21  O   UNL     1      -9.830 -29.125 -42.489  1.00  0.00    -0.387 OA
ATOM     22  H   UNL     1     -10.116 -30.065 -42.338  1.00  0.00     0.211 HD
ENDBRANCH   2  21
BRANCH   6  23
ATOM     23  O   UNL     1     -13.055 -27.245 -40.874  1.00  0.00    -0.462 OA
BRANCH  23  24
ATOM     24  C   UNL     1     -14.028 -26.238 -40.982  1.00  0.00     0.130 A 
ATOM     25  C   UNL     1     -14.856 -26.090 -42.112  1.00  0.00     0.093 A 
ATOM     26  C   UNL     1     -14.154 -25.332 -39.924  1.00  0.00     0.094 A 
ATOM     27  C   UNL     1     -15.691 -24.969 -42.245  1.00  0.00     0.133 A 
ATOM     28  C   UNL     1     -15.012 -24.241 -40.028  1.00  0.00     0.138 A 
ATOM     29  C   UNL     1     -15.741 -24.016 -41.207  1.00  0.00     0.102 A 
ATOM     30  O   UNL     1     -15.134 -23.356 -38.949  1.00  0.00    -0.484 OA
ATOM     31  C   UNL     1     -16.499 -22.745 -41.313  1.00  0.00     0.174 C 
ATOM     32  C   UNL     1     -16.228 -22.444 -38.853  1.00  0.00     0.211 C 
ATOM     33  O   UNL     1     -17.123 -22.451 -42.368  1.00  0.00    -0.294 OA
ATOM     34  C   UNL     1     -16.416 -21.731 -40.204  1.00  0.00     0.131 C 
BRANCH  27  35
ATOM     35  O   UNL     1     -16.471 -24.808 -43.393  1.00  0.00    -0.507 OA
ATOM     36  H   UNL     1     -16.083 -24.918 -44.319  1.00  0.00     0.293 HD
ENDBRANCH  27  35
BRANCH  32  37
ATOM     37  C   UNL     1     -16.027 -21.540 -37.654  1.00  0.00    -0.007 A 
ATOM     38  C   UNL     1     -15.389 -20.282 -37.722  1.00  0.00     0.011 A 
ATOM     39  C   UNL     1     -16.519 -21.982 -36.416  1.00  0.00     0.011 A 
ATOM     40  C   UNL     1     -15.259 -19.492 -36.577  1.00  0.00     0.046 A 
ATOM     41  C   UNL     1     -16.382 -21.197 -35.276  1.00  0.00     0.046 A 
ATOM     42  C   UNL     1     -15.756 -19.947 -35.352  1.00  0.00     0.115 A 
BRANCH  42  43
ATOM     43  O   UNL     1     -15.642 -19.174 -34.205  1.00  0.00    -0.508 OA
ATOM     44  H   UNL     1     -14.743 -18.923 -33.806  1.00  0.00     0.293 HD
ENDBRANCH  42  43
ENDBRANCH  32  37
ENDBRANCH  23  24
ENDBRANCH   6  23
BRANCH   3  45
ATOM     45  O   UNL     1      -7.701 -27.344 -42.111  1.00  0.00    -0.387 OA
ATOM     46  H   UNL     1      -6.982 -26.986 -41.522  1.00  0.00     0.211 HD
ENDBRANCH   3  45
BRANCH   4  47
ATOM     47  C   UNL     1      -9.679 -24.751 -41.765  1.00  0.00     0.191 C 
BRANCH  47  48
ATOM     48  O   UNL     1      -9.318 -24.701 -40.414  1.00  0.00    -0.394 OA
ATOM     49  H   UNL     1     -10.031 -25.176 -39.907  1.00  0.00     0.210 HD
ENDBRANCH  47  48
ENDBRANCH   4  47
TORSDOF 14
ENDMDL
MODEL 7
REMARK VINA RESULT:    -4.590      3.263      9.587
REMARK INTER + INTRA:          -9.506
REMARK INTER:                  -8.014
REMARK INTRA:                  -1.492
REMARK UNBOUND:                -2.233
REMARK SMILES C[C@@H]1O[C@@H](O[C@H]2[C@H](Oc3cc(O)c4c(c3)O[C@@H](c3ccc(O)cc3)CC4=O)O[C@@H](CO)[C@H](O)[C@@H]2O)[C@@H](O)[C@H](O)[C@H]1O
REMARK SMILES IDX 6 1 34 2 32 3 29 4 28 5 7 6 5 7 4 8 1 9 2 10 40 11 3 12
REMARK SMILES IDX 38 13 36 14 41 15 39 17 37 19 35 21 8 23 9 24 10 25 15 26
REMARK SMILES IDX 11 27 14 28 13 29 16 30 26 31 17 32 27 33 25 34 12 35 18 37
REMARK SMILES IDX 19 38 24 39 20 40 23 41 21 42 22 43 33 45 30 47 31 48
REMARK H PARENT 41 16 39 18 37 20 35 22 12 36 22 44 33 46 31 49
REMARK Flexibility Score: inf
ROOT
ATOM      1  C   UNL     1     -13.650 -24.041 -43.765  1.00  0.00     0.221 C 
ATOM      2  C   UNL     1     -12.153 -24.399 -43.936  1.00  0.00     0.181 C 
ATOM      3  C   UNL     1     -11.726 -25.388 -42.842  1.00  0.00     0.177 C 
ATOM      4  C   UNL     1     -11.974 -24.773 -41.434  1.00  0.00     0.179 C 
ATOM      5  O   UNL     1     -12.909 -23.698 -41.427  1.00  0.00    -0.332 OA
ATOM      6  C   UNL     1     -14.028 -23.946 -42.261  1.00  0.00     0.339 C 
ENDROOT
BRANCH   1   7
ATOM      7  O   UNL     1     -14.480 -25.058 -44.315  1.00  0.00    -0.337 OA
BRANCH   7   8
ATOM      8  C   UNL     1     -13.773 -26.027 -45.082  1.00  0.00     0.282 C 
ATOM      9  C   UNL     1     -15.091 -25.358 -48.452  1.00  0.00     0.041 C 
ATOM     10  C   UNL     1     -15.142 -25.769 -46.975  1.00  0.00     0.150 C 
ATOM     11  C   UNL     1     -15.789 -27.162 -46.812  1.00  0.00     0.174 C 
ATOM     12  O   UNL     1     -13.816 -25.764 -46.479  1.00  0.00    -0.344 OA
ATOM     13  C   UNL     1     -15.766 -27.549 -45.324  1.00  0.00     0.179 C 
ATOM     14  C   UNL     1     -14.344 -27.431 -44.763  1.00  0.00     0.202 C 
BRANCH  11  15
ATOM     15  O   UNL     1     -17.122 -27.106 -47.263  1.00  0.00    -0.388 OA
ATOM     16  H   UNL     1     -17.589 -26.432 -46.702  1.00  0.00     0.211 HD
ENDBRANCH  11  15
BRANCH  13  17
ATOM     17  O   UNL     1     -16.236 -28.857 -45.129  1.00  0.00    -0.387 OA
ATOM     18  H   UNL     1     -17.143 -28.920 -45.516  1.00  0.00     0.211 HD
ENDBRANCH  13  17
BRANCH  14  19
ATOM     19  O   UNL     1     -14.389 -27.627 -43.369  1.00  0.00    -0.385 OA
ATOM     20  H   UNL     1     -14.864 -26.836 -42.980  1.00  0.00     0.211 HD
ENDBRANCH  14  19
ENDBRANCH   7   8
ENDBRANCH   1   7
BRANCH   2  21
ATOM     21  O   UNL     1     -11.385 -23.218 -43.835  1.00  0.00    -0.387 OA
ATOM     22  H   UNL     1     -11.953 -22.463 -44.145  1.00  0.00     0.211 HD
ENDBRANCH   2  21
BRANCH   6  23
ATOM     23  O   UNL     1     -15.038 -22.946 -42.068  1.00  0.00    -0.462 OA
BRANCH  23  24
ATOM     24  C   UNL     1     -15.295 -22.232 -40.886  1.00  0.00     0.130 A 
ATOM     25  C   UNL     1     -15.252 -20.826 -40.814  1.00  0.00     0.093 A 
ATOM     26  C   UNL     1     -15.579 -22.964 -39.728  1.00  0.00     0.094 A 
ATOM     27  C   UNL     1     -15.346 -20.170 -39.576  1.00  0.00     0.133 A 
ATOM     28  C   UNL     1     -15.717 -22.318 -38.502  1.00  0.00     0.138 A 
ATOM     29  C   UNL     1     -15.544 -20.929 -38.404  1.00  0.00     0.102 A 
ATOM     30  O   UNL     1     -16.019 -23.070 -37.359  1.00  0.00    -0.484 OA
ATOM     31  C   UNL     1     -15.533 -20.333 -37.045  1.00  0.00     0.174 C 
ATOM     32  C   UNL     1     -16.512 -22.452 -36.170  1.00  0.00     0.211 C 
ATOM     33  O   UNL     1     -15.320 -19.101 -36.881  1.00  0.00    -0.294 OA
ATOM     34  C   UNL     1     -15.645 -21.224 -35.838  1.00  0.00     0.131 C 
BRANCH  27  35
ATOM     35  O   UNL     1     -15.253 -18.777 -39.512  1.00  0.00    -0.507 OA
ATOM     36  H   UNL     1     -15.638 -18.254 -38.739  1.00  0.00     0.293 HD
ENDBRANCH  27  35
BRANCH  32  37
ATOM     37  C   UNL     1     -16.628 -23.491 -35.074  1.00  0.00    -0.007 A 
ATOM     38  C   UNL     1     -16.942 -23.181 -33.732  1.00  0.00     0.011 A 
ATOM     39  C   UNL     1     -16.425 -24.834 -35.426  1.00  0.00     0.011 A 
ATOM     40  C   UNL     1     -17.055 -24.196 -32.778  1.00  0.00     0.046 A 
ATOM     41  C   UNL     1     -16.530 -25.843 -34.473  1.00  0.00     0.046 A 
ATOM     42  C   UNL     1     -16.850 -25.528 -33.148  1.00  0.00     0.115 A 
BRANCH  42  43
ATOM     43  O   UNL     1     -16.964 -26.551 -32.216  1.00  0.00    -0.508 OA
ATOM     44  H   UNL     1     -17.806 -26.695 -31.668  1.00  0.00     0.293 HD
ENDBRANCH  42  43
ENDBRANCH  32  37
ENDBRANCH  23  24
ENDBRANCH   6  23
BRANCH   3  45
ATOM     45  O   UNL     1     -10.366 -25.688 -42.993  1.00  0.00    -0.387 OA
ATOM     46  H   UNL     1      -9.935 -25.481 -42.119  1.00  0.00     0.211 HD
ENDBRANCH   3  45
BRANCH   4  47
ATOM     47  C   UNL     1     -12.349 -25.834 -40.385  1.00  0.00     0.191 C 
BRANCH  47  48
ATOM     48  O   UNL     1     -12.534 -27.068 -41.017  1.00  0.00    -0.394 OA
ATOM     49  H   UNL     1     -12.923 -26.878 -41.914  1.00  0.00     0.210 HD
ENDBRANCH  47  48
ENDBRANCH   4  47
TORSDOF 14
ENDMDL
MODEL 8
REMARK VINA RESULT:    -4.573      2.389      8.357
REMARK INTER + INTRA:          -9.479
REMARK INTER:                  -7.202
REMARK INTRA:                  -2.277
REMARK UNBOUND:                -2.233
REMARK SMILES C[C@@H]1O[C@@H](O[C@H]2[C@H](Oc3cc(O)c4c(c3)O[C@@H](c3ccc(O)cc3)CC4=O)O[C@@H](CO)[C@H](O)[C@@H]2O)[C@@H](O)[C@H](O)[C@H]1O
REMARK SMILES IDX 6 1 34 2 32 3 29 4 28 5 7 6 5 7 4 8 1 9 2 10 40 11 3 12
REMARK SMILES IDX 38 13 36 14 41 15 39 17 37 19 35 21 8 23 9 24 10 25 15 26
REMARK SMILES IDX 11 27 14 28 13 29 16 30 26 31 17 32 27 33 25 34 12 35 18 37
REMARK SMILES IDX 19 38 24 39 20 40 23 41 21 42 22 43 33 45 30 47 31 48
REMARK H PARENT 41 16 39 18 37 20 35 22 12 36 22 44 33 46 31 49
REMARK Flexibility Score: inf
ROOT
ATOM      1  C   UNL     1     -13.512 -26.861 -45.246  1.00  0.00     0.221 C 
ATOM      2  C   UNL     1     -13.302 -26.675 -46.770  1.00  0.00     0.181 C 
ATOM      3  C   UNL     1     -14.347 -25.697 -47.324  1.00  0.00     0.177 C 
ATOM      4  C   UNL     1     -15.784 -26.226 -47.041  1.00  0.00     0.179 C 
ATOM      5  O   UNL     1     -15.850 -27.191 -45.995  1.00  0.00    -0.332 OA
ATOM      6  C   UNL     1     -15.025 -26.854 -44.892  1.00  0.00     0.339 C 
ENDROOT
BRANCH   1   7
ATOM      7  O   UNL     1     -12.934 -25.780 -44.522  1.00  0.00    -0.337 OA
BRANCH   7   8
ATOM      8  C   UNL     1     -11.548 -25.946 -44.247  1.00  0.00     0.282 C 
ATOM      9  C   UNL     1     -11.577 -29.095 -42.342  1.00  0.00     0.041 C 
ATOM     10  C   UNL     1     -11.898 -27.624 -42.639  1.00  0.00     0.150 C 
ATOM     11  C   UNL     1     -11.470 -26.718 -41.464  1.00  0.00     0.174 C 
ATOM     12  O   UNL     1     -11.222 -27.266 -43.829  1.00  0.00    -0.344 OA
ATOM     13  C   UNL     1     -11.762 -25.254 -41.833  1.00  0.00     0.179 C 
ATOM     14  C   UNL     1     -11.121 -24.905 -43.182  1.00  0.00     0.202 C 
BRANCH  11  15
ATOM     15  O   UNL     1     -12.207 -27.070 -40.317  1.00  0.00    -0.388 OA
ATOM     16  H   UNL     1     -11.773 -27.876 -39.931  1.00  0.00     0.211 HD
ENDBRANCH  11  15
BRANCH  13  17
ATOM     17  O   UNL     1     -11.285 -24.373 -40.851  1.00  0.00    -0.387 OA
ATOM     18  H   UNL     1     -10.586 -24.839 -40.331  1.00  0.00     0.211 HD
ENDBRANCH  13  17
BRANCH  14  19
ATOM     19  O   UNL     1     -11.548 -23.620 -43.568  1.00  0.00    -0.385 OA
ATOM     20  H   UNL     1     -12.540 -23.594 -43.441  1.00  0.00     0.211 HD
ENDBRANCH  14  19
ENDBRANCH   7   8
ENDBRANCH   1   7
BRANCH   2  21
ATOM     21  O   UNL     1     -13.439 -27.928 -47.407  1.00  0.00    -0.387 OA
ATOM     22  H   UNL     1     -13.247 -27.796 -48.374  1.00  0.00     0.211 HD
ENDBRANCH   2  21
BRANCH   6  23
ATOM     23  O   UNL     1     -15.275 -27.729 -43.783  1.00  0.00    -0.462 OA
BRANCH  23  24
ATOM     24  C   UNL     1     -15.345 -27.365 -42.429  1.00  0.00     0.130 A 
ATOM     25  C   UNL     1     -15.511 -28.302 -41.390  1.00  0.00     0.093 A 
ATOM     26  C   UNL     1     -15.272 -26.005 -42.112  1.00  0.00     0.094 A 
ATOM     27  C   UNL     1     -15.747 -27.875 -40.073  1.00  0.00     0.133 A 
ATOM     28  C   UNL     1     -15.462 -25.574 -40.801  1.00  0.00     0.138 A 
ATOM     29  C   UNL     1     -15.759 -26.495 -39.784  1.00  0.00     0.102 A 
ATOM     30  O   UNL     1     -15.366 -24.209 -40.504  1.00  0.00    -0.484 OA
ATOM     31  C   UNL     1     -16.119 -25.953 -38.451  1.00  0.00     0.174 C 
ATOM     32  C   UNL     1     -15.201 -23.747 -39.164  1.00  0.00     0.211 C 
ATOM     33  O   UNL     1     -16.458 -26.721 -37.510  1.00  0.00    -0.294 OA
ATOM     34  C   UNL     1     -16.212 -24.464 -38.250  1.00  0.00     0.131 C 
BRANCH  27  35
ATOM     35  O   UNL     1     -15.959 -28.814 -39.060  1.00  0.00    -0.507 OA
ATOM     36  H   UNL     1     -15.585 -29.751 -39.117  1.00  0.00     0.293 HD
ENDBRANCH  27  35
BRANCH  32  37
ATOM     37  C   UNL     1     -15.253 -22.234 -39.142  1.00  0.00    -0.007 A 
ATOM     38  C   UNL     1     -15.275 -21.469 -37.955  1.00  0.00     0.011 A 
ATOM     39  C   UNL     1     -15.266 -21.565 -40.376  1.00  0.00     0.011 A 
ATOM     40  C   UNL     1     -15.301 -20.072 -38.012  1.00  0.00     0.046 A 
ATOM     41  C   UNL     1     -15.298 -20.175 -40.431  1.00  0.00     0.046 A 
ATOM     42  C   UNL     1     -15.312 -19.424 -39.250  1.00  0.00     0.115 A 
BRANCH  42  43
ATOM     43  O   UNL     1     -15.331 -18.038 -39.329  1.00  0.00    -0.508 OA
ATOM     44  H   UNL     1     -16.030 -17.534 -39.865  1.00  0.00     0.293 HD
ENDBRANCH  42  43
ENDBRANCH  32  37
ENDBRANCH  23  24
ENDBRANCH   6  23
BRANCH   3  45
ATOM     45  O   UNL     1     -14.162 -25.554 -48.706  1.00  0.00    -0.387 OA
ATOM     46  H   UNL     1     -14.982 -25.108 -49.053  1.00  0.00     0.211 HD
ENDBRANCH   3  45
BRANCH   4  47
ATOM     47  C   UNL     1     -16.794 -25.089 -46.805  1.00  0.00     0.191 C 
BRANCH  47  48
ATOM     48  O   UNL     1     -16.863 -24.284 -47.947  1.00  0.00    -0.394 OA
ATOM     49  H   UNL     1     -16.067 -24.502 -48.504  1.00  0.00     0.210 HD
ENDBRANCH  47  48
ENDBRANCH   4  47
TORSDOF 14
ENDMDL
MODEL 9
REMARK VINA RESULT:    -4.478      2.462      7.831
REMARK INTER + INTRA:          -9.329
REMARK INTER:                  -7.924
REMARK INTRA:                  -1.405
REMARK UNBOUND:                -2.233
REMARK SMILES C[C@@H]1O[C@@H](O[C@H]2[C@H](Oc3cc(O)c4c(c3)O[C@@H](c3ccc(O)cc3)CC4=O)O[C@@H](CO)[C@H](O)[C@@H]2O)[C@@H](O)[C@H](O)[C@H]1O
REMARK SMILES IDX 6 1 34 2 32 3 29 4 28 5 7 6 5 7 4 8 1 9 2 10 40 11 3 12
REMARK SMILES IDX 38 13 36 14 41 15 39 17 37 19 35 21 8 23 9 24 10 25 15 26
REMARK SMILES IDX 11 27 14 28 13 29 16 30 26 31 17 32 27 33 25 34 12 35 18 37
REMARK SMILES IDX 19 38 24 39 20 40 23 41 21 42 22 43 33 45 30 47 31 48
REMARK H PARENT 41 16 39 18 37 20 35 22 12 36 22 44 33 46 31 49
REMARK Flexibility Score: inf
ROOT
ATOM      1  C   UNL     1     -11.521 -26.495 -41.609  1.00  0.00     0.221 C 
ATOM      2  C   UNL     1     -10.205 -25.807 -41.167  1.00  0.00     0.181 C 
ATOM      3  C   UNL     1      -9.333 -26.804 -40.390  1.00  0.00     0.177 C 
ATOM      4  C   UNL     1     -10.103 -27.339 -39.148  1.00  0.00     0.179 C 
ATOM      5  O   UNL     1     -11.516 -27.180 -39.229  1.00  0.00    -0.332 OA
ATOM      6  C   UNL     1     -12.023 -27.480 -40.518  1.00  0.00     0.339 C 
ENDROOT
BRANCH   1   7
ATOM      7  O   UNL     1     -11.313 -27.277 -42.780  1.00  0.00    -0.337 OA
BRANCH   7   8
ATOM      8  C   UNL     1     -10.760 -26.549 -43.870  1.00  0.00     0.282 C 
ATOM      9  C   UNL     1     -12.886 -23.545 -43.863  1.00  0.00     0.041 C 
ATOM     10  C   UNL     1     -12.557 -25.038 -43.987  1.00  0.00     0.150 C 
ATOM     11  C   UNL     1     -13.069 -25.606 -45.329  1.00  0.00     0.174 C 
ATOM     12  O   UNL     1     -11.154 -25.182 -43.877  1.00  0.00    -0.344 OA
ATOM     13  C   UNL     1     -12.666 -27.087 -45.428  1.00  0.00     0.179 C 
ATOM     14  C   UNL     1     -11.160 -27.248 -45.193  1.00  0.00     0.202 C 
BRANCH  11  15
ATOM     15  O   UNL     1     -14.472 -25.496 -45.372  1.00  0.00    -0.388 OA
ATOM     16  H   UNL     1     -14.822 -25.947 -44.558  1.00  0.00     0.211 HD
ENDBRANCH  11  15
BRANCH  13  17
ATOM     17  O   UNL     1     -13.003 -27.626 -46.678  1.00  0.00    -0.387 OA
ATOM     18  H   UNL     1     -12.166 -27.813 -47.169  1.00  0.00     0.211 HD
ENDBRANCH  13  17
BRANCH  14  19
ATOM     19  O   UNL     1     -10.857 -28.622 -45.122  1.00  0.00    -0.385 OA
ATOM     20  H   UNL     1     -10.017 -28.705 -44.584  1.00  0.00     0.211 HD
ENDBRANCH  14  19
ENDBRANCH   7   8
ENDBRANCH   1   7
BRANCH   2  21
ATOM     21  O   UNL     1     -10.519 -24.706 -40.340  1.00  0.00    -0.387 OA
ATOM     22  H   UNL     1      -9.853 -24.686 -39.602  1.00  0.00     0.211 HD
ENDBRANCH   2  21
BRANCH   6  23
ATOM     23  O   UNL     1     -13.458 -27.513 -40.506  1.00  0.00    -0.462 OA
BRANCH  23  24
ATOM     24  C   UNL     1     -14.322 -26.424 -40.704  1.00  0.00     0.130 A 
ATOM     25  C   UNL     1     -15.054 -26.232 -41.892  1.00  0.00     0.093 A 
ATOM     26  C   UNL     1     -14.431 -25.480 -39.678  1.00  0.00     0.094 A 
ATOM     27  C   UNL     1     -15.769 -25.042 -42.107  1.00  0.00     0.133 A 
ATOM     28  C   UNL     1     -15.173 -24.316 -39.866  1.00  0.00     0.138 A 
ATOM     29  C   UNL     1     -15.797 -24.059 -41.097  1.00  0.00     0.102 A 
ATOM     30  O   UNL     1     -15.283 -23.394 -38.817  1.00  0.00    -0.484 OA
ATOM     31  C   UNL     1     -16.422 -22.726 -41.284  1.00  0.00     0.174 C 
ATOM     32  C   UNL     1     -16.289 -22.381 -38.818  1.00  0.00     0.211 C 
ATOM     33  O   UNL     1     -16.944 -22.406 -42.386  1.00  0.00    -0.294 OA
ATOM     34  C   UNL     1     -16.318 -21.693 -40.195  1.00  0.00     0.131 C 
BRANCH  27  35
ATOM     35  O   UNL     1     -16.451 -24.843 -43.310  1.00  0.00    -0.507 OA
ATOM     36  H   UNL     1     -17.441 -25.029 -43.397  1.00  0.00     0.293 HD
ENDBRANCH  27  35
BRANCH  32  37
ATOM     37  C   UNL     1     -16.084 -21.466 -37.629  1.00  0.00    -0.007 A 
ATOM     38  C   UNL     1     -15.411 -20.226 -37.704  1.00  0.00     0.011 A 
ATOM     39  C   UNL     1     -16.607 -21.876 -36.394  1.00  0.00     0.011 A 
ATOM     40  C   UNL     1     -15.279 -19.423 -36.568  1.00  0.00     0.046 A 
ATOM     41  C   UNL     1     -16.469 -21.078 -35.262  1.00  0.00     0.046 A 
ATOM     42  C   UNL     1     -15.808 -19.847 -35.346  1.00  0.00     0.115 A 
BRANCH  42  43
ATOM     43  O   UNL     1     -15.693 -19.061 -34.207  1.00  0.00    -0.508 OA
ATOM     44  H   UNL     1     -16.488 -18.845 -33.614  1.00  0.00     0.293 HD
ENDBRANCH  42  43
ENDBRANCH  32  37
ENDBRANCH  23  24
ENDBRANCH   6  23
BRANCH   3  45
ATOM     45  O   UNL     1      -8.156 -26.166 -39.976  1.00  0.00    -0.387 OA
ATOM     46  H   UNL     1      -8.437 -25.419 -39.381  1.00  0.00     0.211 HD
ENDBRANCH   3  45
BRANCH   4  47
ATOM     47  C   UNL     1      -9.732 -28.793 -38.806  1.00  0.00     0.191 C 
BRANCH  47  48
ATOM     48  O   UNL     1      -9.681 -28.947 -37.417  1.00  0.00    -0.394 OA
ATOM     49  H   UNL     1     -10.071 -29.841 -37.211  1.00  0.00     0.210 HD
ENDBRANCH  47  48
ENDBRANCH   4  47
TORSDOF 14
ENDMDL
