MODEL 1
REMARK VINA RESULT:    -4.576      0.000      0.000
REMARK INTER + INTRA:          -9.750
REMARK INTER:                  -7.785
REMARK INTRA:                  -1.965
REMARK UNBOUND:                -1.965
REMARK SMILES CCCCCCCCCCCCCC(=O)[O-]
REMARK SMILES IDX 8 1 9 2 10 3 11 4 12 5 13 6 14 7 15 8 16 9 7 10 6 11 5 12
REMARK SMILES IDX 4 13 3 14 2 15 1 16
REMARK H PARENT
REMARK Flexibility Score: inf
ROOT
ATOM      1  C   UNL     1      -3.757 -48.731  16.812  1.00  0.00     0.000 C 
ENDROOT
BRANCH   1   2
ATOM      2  C   UNL     1      -4.916 -48.427  17.779  1.00  0.00     0.000 C 
BRANCH   2   3
ATOM      3  C   UNL     1      -4.587 -48.776  19.239  1.00  0.00     0.000 C 
BRANCH   3   4
ATOM      4  C   UNL     1      -4.585 -47.519  20.117  1.00  0.00     0.000 C 
BRANCH   4   5
ATOM      5  C   UNL     1      -5.293 -46.353  19.412  1.00  0.00     0.006 C 
BRANCH   5   6
ATOM      6  C   UNL     1      -6.015 -45.428  20.401  1.00  0.00     0.053 C 
BRANCH   6   7
ATOM      7  C   UNL     1      -5.720 -43.986  20.130  1.00  0.00     0.041 C 
ATOM      8  O   UNL     1      -4.662 -43.657  19.531  1.00  0.00    -0.550 OA
ATOM      9  O   UNL     1      -6.597 -43.001  20.566  1.00  0.00    -0.550 OA
ENDBRANCH   6   7
ENDBRANCH   5   6
ENDBRANCH   4   5
ENDBRANCH   3   4
ENDBRANCH   2   3
ENDBRANCH   1   2
BRANCH   1  10
ATOM     10  C   UNL     1      -2.397 -48.995  17.484  1.00  0.00     0.000 C 
BRANCH  10  11
ATOM     11  C   UNL     1      -1.415 -47.821  17.329  1.00  0.00    -0.000 C 
BRANCH  11  12
ATOM     12  C   UNL     1      -1.623 -46.733  18.396  1.00  0.00    -0.000 C 
BRANCH  12  13
ATOM     13  C   UNL     1      -2.102 -45.401  17.792  1.00  0.00    -0.000 C 
BRANCH  13  14
ATOM     14  C   UNL     1      -1.728 -45.257  16.308  1.00  0.00    -0.000 C 
BRANCH  14  15
ATOM     15  C   UNL     1      -2.957 -45.181  15.390  1.00  0.00    -0.003 C 
ATOM     16  C   UNL     1      -4.225 -44.906  16.194  1.00  0.00     0.004 C 
ENDBRANCH  14  15
ENDBRANCH  13  14
ENDBRANCH  12  13
ENDBRANCH  11  12
ENDBRANCH  10  11
ENDBRANCH   1  10
TORSDOF 12
ENDMDL
MODEL 2
REMARK VINA RESULT:    -4.517      2.715      4.904
REMARK INTER + INTRA:          -9.650
REMARK INTER:                  -7.682
REMARK INTRA:                  -1.969
REMARK UNBOUND:                -1.965
REMARK SMILES CCCCCCCCCCCCCC(=O)[O-]
REMARK SMILES IDX 8 1 9 2 10 3 11 4 12 5 13 6 14 7 15 8 16 9 7 10 6 11 5 12
REMARK SMILES IDX 4 13 3 14 2 15 1 16
REMARK H PARENT
REMARK Flexibility Score: inf
ROOT
ATOM      1  C   UNL     1      -1.465 -47.796  17.351  1.00  0.00     0.000 C 
ENDROOT
BRANCH   1   2
ATOM      2  C   UNL     1      -1.605 -46.666  18.386  1.00  0.00     0.000 C 
BRANCH   2   3
ATOM      3  C   UNL     1      -2.102 -45.347  17.774  1.00  0.00     0.000 C 
BRANCH   3   4
ATOM      4  C   UNL     1      -1.701 -45.241  16.298  1.00  0.00     0.000 C 
BRANCH   4   5
ATOM      5  C   UNL     1      -2.835 -44.634  15.461  1.00  0.00     0.006 C 
BRANCH   5   6
ATOM      6  C   UNL     1      -4.048 -45.569  15.360  1.00  0.00     0.053 C 
BRANCH   6   7
ATOM      7  C   UNL     1      -4.157 -46.193  14.003  1.00  0.00     0.041 C 
ATOM      8  O   UNL     1      -3.633 -47.316  13.779  1.00  0.00    -0.550 OA
ATOM      9  O   UNL     1      -4.808 -45.521  12.977  1.00  0.00    -0.550 OA
ENDBRANCH   6   7
ENDBRANCH   5   6
ENDBRANCH   4   5
ENDBRANCH   3   4
ENDBRANCH   2   3
ENDBRANCH   1   2
BRANCH   1  10
ATOM     10  C   UNL     1      -2.352 -49.028  17.606  1.00  0.00     0.000 C 
BRANCH  10  11
ATOM     11  C   UNL     1      -3.678 -48.984  16.827  1.00  0.00    -0.000 C 
BRANCH  11  12
ATOM     12  C   UNL     1      -4.875 -48.619  17.721  1.00  0.00    -0.000 C 
BRANCH  12  13
ATOM     13  C   UNL     1      -4.550 -48.743  19.220  1.00  0.00    -0.000 C 
BRANCH  13  14
ATOM     14  C   UNL     1      -4.662 -47.401  19.961  1.00  0.00    -0.000 C 
BRANCH  14  15
ATOM     15  C   UNL     1      -5.423 -46.339  19.154  1.00  0.00    -0.003 C 
ATOM     16  C   UNL     1      -5.222 -44.949  19.750  1.00  0.00     0.004 C 
ENDBRANCH  14  15
ENDBRANCH  13  14
ENDBRANCH  12  13
ENDBRANCH  11  12
ENDBRANCH  10  11
ENDBRANCH   1  10
TORSDOF 12
ENDMDL
MODEL 3
REMARK VINA RESULT:    -4.438      1.065      1.728
REMARK INTER + INTRA:          -9.515
REMARK INTER:                  -7.288
REMARK INTRA:                  -2.227
REMARK UNBOUND:                -1.965
REMARK SMILES CCCCCCCCCCCCCC(=O)[O-]
REMARK SMILES IDX 8 1 9 2 10 3 11 4 12 5 13 6 14 7 15 8 16 9 7 10 6 11 5 12
REMARK SMILES IDX 4 13 3 14 2 15 1 16
REMARK H PARENT
REMARK Flexibility Score: inf
ROOT
ATOM      1  C   UNL     1      -2.619 -48.998  17.982  1.00  0.00     0.000 C 
ENDROOT
BRANCH   1   2
ATOM      2  C   UNL     1      -3.936 -48.519  18.618  1.00  0.00     0.000 C 
BRANCH   2   3
ATOM      3  C   UNL     1      -5.015 -48.174  17.579  1.00  0.00     0.000 C 
BRANCH   3   4
ATOM      4  C   UNL     1      -5.689 -46.838  17.909  1.00  0.00     0.000 C 
BRANCH   4   5
ATOM      5  C   UNL     1      -5.302 -46.358  19.315  1.00  0.00     0.006 C 
BRANCH   5   6
ATOM      6  C   UNL     1      -5.222 -44.828  19.406  1.00  0.00     0.053 C 
BRANCH   6   7
ATOM      7  C   UNL     1      -6.192 -44.279  20.405  1.00  0.00     0.041 C 
ATOM      8  O   UNL     1      -6.072 -43.097  20.822  1.00  0.00    -0.550 OA
ATOM      9  O   UNL     1      -7.211 -45.083  20.900  1.00  0.00    -0.550 OA
ENDBRANCH   6   7
ENDBRANCH   5   6
ENDBRANCH   4   5
ENDBRANCH   3   4
ENDBRANCH   2   3
ENDBRANCH   1   2
BRANCH   1  10
ATOM     10  C   UNL     1      -1.637 -47.879  17.590  1.00  0.00     0.000 C 
BRANCH  10  11
ATOM     11  C   UNL     1      -1.708 -46.663  18.530  1.00  0.00    -0.000 C 
BRANCH  11  12
ATOM     12  C   UNL     1      -2.030 -45.358  17.783  1.00  0.00    -0.000 C 
BRANCH  12  13
ATOM     13  C   UNL     1      -2.090 -45.553  16.258  1.00  0.00    -0.000 C 
BRANCH  13  14
ATOM     14  C   UNL     1      -3.242 -44.769  15.608  1.00  0.00    -0.000 C 
BRANCH  14  15
ATOM     15  C   UNL     1      -4.079 -45.628  14.649  1.00  0.00    -0.003 C 
ATOM     16  C   UNL     1      -3.507 -47.038  14.536  1.00  0.00     0.004 C 
ENDBRANCH  14  15
ENDBRANCH  13  14
ENDBRANCH  12  13
ENDBRANCH  11  12
ENDBRANCH  10  11
ENDBRANCH   1  10
TORSDOF 12
ENDMDL
MODEL 4
REMARK VINA RESULT:    -4.434      2.026      4.208
REMARK INTER + INTRA:          -9.509
REMARK INTER:                  -7.332
REMARK INTRA:                  -2.177
REMARK UNBOUND:                -1.965
REMARK SMILES CCCCCCCCCCCCCC(=O)[O-]
REMARK SMILES IDX 8 1 9 2 10 3 11 4 12 5 13 6 14 7 15 8 16 9 7 10 6 11 5 12
REMARK SMILES IDX 4 13 3 14 2 15 1 16
REMARK H PARENT
REMARK Flexibility Score: inf
ROOT
ATOM      1  C   UNL     1      -2.447 -48.991  17.585  1.00  0.00     0.000 C 
ENDROOT
BRANCH   1   2
ATOM      2  C   UNL     1      -1.503 -47.818  17.264  1.00  0.00     0.000 C 
BRANCH   2   3
ATOM      3  C   UNL     1      -1.975 -46.976  16.070  1.00  0.00     0.000 C 
BRANCH   3   4
ATOM      4  C   UNL     1      -1.663 -45.491  16.287  1.00  0.00     0.000 C 
BRANCH   4   5
ATOM      5  C   UNL     1      -2.712 -44.601  15.604  1.00  0.00     0.006 C 
BRANCH   5   6
ATOM      6  C   UNL     1      -3.888 -45.413  15.044  1.00  0.00     0.053 C 
BRANCH   6   7
ATOM      7  C   UNL     1      -5.200 -44.741  15.303  1.00  0.00     0.041 C 
ATOM      8  O   UNL     1      -5.342 -43.513  15.062  1.00  0.00    -0.550 OA
ATOM      9  O   UNL     1      -6.259 -45.462  15.841  1.00  0.00    -0.550 OA
ENDBRANCH   6   7
ENDBRANCH   5   6
ENDBRANCH   4   5
ENDBRANCH   3   4
ENDBRANCH   2   3
ENDBRANCH   1   2
BRANCH   1  10
ATOM     10  C   UNL     1      -3.803 -48.956  16.857  1.00  0.00     0.000 C 
BRANCH  10  11
ATOM     11  C   UNL     1      -4.947 -48.440  17.747  1.00  0.00    -0.000 C 
BRANCH  11  12
ATOM     12  C   UNL     1      -4.611 -48.520  19.245  1.00  0.00    -0.000 C 
BRANCH  12  13
ATOM     13  C   UNL     1      -4.649 -47.143  19.932  1.00  0.00    -0.000 C 
BRANCH  13  14
ATOM     14  C   UNL     1      -4.730 -45.984  18.925  1.00  0.00    -0.000 C 
BRANCH  14  15
ATOM     15  C   UNL     1      -3.741 -44.852  19.242  1.00  0.00    -0.003 C 
ATOM     16  C   UNL     1      -2.429 -45.408  19.789  1.00  0.00     0.004 C 
ENDBRANCH  14  15
ENDBRANCH  13  14
ENDBRANCH  12  13
ENDBRANCH  11  12
ENDBRANCH  10  11
ENDBRANCH   1  10
TORSDOF 12
ENDMDL
MODEL 5
REMARK VINA RESULT:    -4.430      1.921      4.361
REMARK INTER + INTRA:          -9.503
REMARK INTER:                  -7.523
REMARK INTRA:                  -1.980
REMARK UNBOUND:                -1.965
REMARK SMILES CCCCCCCCCCCCCC(=O)[O-]
REMARK SMILES IDX 8 1 9 2 10 3 11 4 12 5 13 6 14 7 15 8 16 9 7 10 6 11 5 12
REMARK SMILES IDX 4 13 3 14 2 15 1 16
REMARK H PARENT
REMARK Flexibility Score: inf
ROOT
ATOM      1  C   UNL     1      -1.643 -46.628  18.437  1.00  0.00     0.000 C 
ENDROOT
BRANCH   1   2
ATOM      2  C   UNL     1      -2.065 -45.298  17.786  1.00  0.00     0.000 C 
BRANCH   2   3
ATOM      3  C   UNL     1      -1.694 -45.215  16.297  1.00  0.00     0.000 C 
BRANCH   3   4
ATOM      4  C   UNL     1      -2.893 -44.762  15.456  1.00  0.00     0.000 C 
BRANCH   4   5
ATOM      5  C   UNL     1      -4.207 -44.930  16.234  1.00  0.00     0.006 C 
BRANCH   5   6
ATOM      6  C   UNL     1      -5.319 -45.542  15.372  1.00  0.00     0.053 C 
BRANCH   6   7
ATOM      7  C   UNL     1      -6.679 -45.175  15.878  1.00  0.00     0.041 C 
ATOM      8  O   UNL     1      -7.291 -45.944  16.666  1.00  0.00    -0.550 OA
ATOM      9  O   UNL     1      -7.286 -44.000  15.454  1.00  0.00    -0.550 OA
ENDBRANCH   6   7
ENDBRANCH   5   6
ENDBRANCH   4   5
ENDBRANCH   3   4
ENDBRANCH   2   3
ENDBRANCH   1   2
BRANCH   1  10
ATOM     10  C   UNL     1      -1.387 -47.784  17.454  1.00  0.00     0.000 C 
BRANCH  10  11
ATOM     11  C   UNL     1      -2.290 -49.003  17.713  1.00  0.00    -0.000 C 
BRANCH  11  12
ATOM     12  C   UNL     1      -3.430 -49.120  16.689  1.00  0.00    -0.000 C 
BRANCH  12  13
ATOM     13  C   UNL     1      -4.796 -48.730  17.280  1.00  0.00    -0.000 C 
BRANCH  13  14
ATOM     14  C   UNL     1      -4.727 -48.451  18.790  1.00  0.00    -0.000 C 
BRANCH  14  15
ATOM     15  C   UNL     1      -5.131 -47.013  19.148  1.00  0.00    -0.003 C 
ATOM     16  C   UNL     1      -4.742 -46.675  20.584  1.00  0.00     0.004 C 
ENDBRANCH  14  15
ENDBRANCH  13  14
ENDBRANCH  12  13
ENDBRANCH  11  12
ENDBRANCH  10  11
ENDBRANCH   1  10
TORSDOF 12
ENDMDL
MODEL 6
REMARK VINA RESULT:    -4.419      1.380      3.506
REMARK INTER + INTRA:          -9.484
REMARK INTER:                  -7.291
REMARK INTRA:                  -2.193
REMARK UNBOUND:                -1.965
REMARK SMILES CCCCCCCCCCCCCC(=O)[O-]
REMARK SMILES IDX 8 1 9 2 10 3 11 4 12 5 13 6 14 7 15 8 16 9 7 10 6 11 5 12
REMARK SMILES IDX 4 13 3 14 2 15 1 16
REMARK H PARENT
REMARK Flexibility Score: inf
ROOT
ATOM      1  C   UNL     1      -2.083 -45.564  16.157  1.00  0.00     0.000 C 
ENDROOT
BRANCH   1   2
ATOM      2  C   UNL     1      -3.480 -45.723  15.531  1.00  0.00     0.000 C 
BRANCH   2   3
ATOM      3  C   UNL     1      -4.579 -44.996  16.321  1.00  0.00     0.000 C 
BRANCH   3   4
ATOM      4  C   UNL     1      -5.868 -45.824  16.360  1.00  0.00     0.000 C 
BRANCH   4   5
ATOM      5  C   UNL     1      -6.510 -45.780  17.754  1.00  0.00     0.006 C 
BRANCH   5   6
ATOM      6  C   UNL     1      -5.596 -45.119  18.795  1.00  0.00     0.053 C 
BRANCH   6   7
ATOM      7  C   UNL     1      -5.893 -45.600  20.181  1.00  0.00     0.041 C 
ATOM      8  O   UNL     1      -6.878 -45.139  20.815  1.00  0.00    -0.550 OA
ATOM      9  O   UNL     1      -5.063 -46.536  20.786  1.00  0.00    -0.550 OA
ENDBRANCH   6   7
ENDBRANCH   5   6
ENDBRANCH   4   5
ENDBRANCH   3   4
ENDBRANCH   2   3
ENDBRANCH   1   2
BRANCH   1  10
ATOM     10  C   UNL     1      -2.075 -45.163  17.643  1.00  0.00     0.000 C 
BRANCH  10  11
ATOM     11  C   UNL     1      -2.095 -46.375  18.591  1.00  0.00    -0.000 C 
BRANCH  11  12
ATOM     12  C   UNL     1      -1.397 -47.606  17.989  1.00  0.00    -0.000 C 
BRANCH  12  13
ATOM     13  C   UNL     1      -2.279 -48.866  18.039  1.00  0.00    -0.000 C 
BRANCH  13  14
ATOM     14  C   UNL     1      -3.740 -48.550  18.399  1.00  0.00    -0.000 C 
BRANCH  14  15
ATOM     15  C   UNL     1      -4.735 -49.073  17.352  1.00  0.00    -0.003 C 
ATOM     16  C   UNL     1      -4.026 -49.421  16.047  1.00  0.00     0.004 C 
ENDBRANCH  14  15
ENDBRANCH  13  14
ENDBRANCH  12  13
ENDBRANCH  11  12
ENDBRANCH  10  11
ENDBRANCH   1  10
TORSDOF 12
ENDMDL
MODEL 7
REMARK VINA RESULT:    -4.340      3.498      5.753
REMARK INTER + INTRA:          -9.349
REMARK INTER:                  -7.468
REMARK INTRA:                  -1.882
REMARK UNBOUND:                -1.965
REMARK SMILES CCCCCCCCCCCCCC(=O)[O-]
REMARK SMILES IDX 8 1 9 2 10 3 11 4 12 5 13 6 14 7 15 8 16 9 7 10 6 11 5 12
REMARK SMILES IDX 4 13 3 14 2 15 1 16
REMARK H PARENT
REMARK Flexibility Score: inf
ROOT
ATOM      1  C   UNL     1      -2.026 -45.338  17.777  1.00  0.00     0.000 C 
ENDROOT
BRANCH   1   2
ATOM      2  C   UNL     1      -1.608 -45.292  16.296  1.00  0.00     0.000 C 
BRANCH   2   3
ATOM      3  C   UNL     1      -2.615 -44.542  15.411  1.00  0.00     0.000 C 
BRANCH   3   4
ATOM      4  C   UNL     1      -3.938 -45.310  15.310  1.00  0.00     0.000 C 
BRANCH   4   5
ATOM      5  C   UNL     1      -3.717 -46.714  14.730  1.00  0.00     0.006 C 
BRANCH   5   6
ATOM      6  C   UNL     1      -4.104 -46.799  13.247  1.00  0.00     0.053 C 
BRANCH   6   7
ATOM      7  C   UNL     1      -3.717 -48.115  12.647  1.00  0.00     0.041 C 
ATOM      8  O   UNL     1      -2.715 -48.740  13.082  1.00  0.00    -0.550 OA
ATOM      9  O   UNL     1      -4.445 -48.636  11.585  1.00  0.00    -0.550 OA
ENDBRANCH   6   7
ENDBRANCH   5   6
ENDBRANCH   4   5
ENDBRANCH   3   4
ENDBRANCH   2   3
ENDBRANCH   1   2
BRANCH   1  10
ATOM     10  C   UNL     1      -1.768 -46.680  18.487  1.00  0.00     0.000 C 
BRANCH  10  11
ATOM     11  C   UNL     1      -1.494 -47.833  17.507  1.00  0.00    -0.000 C 
BRANCH  11  12
ATOM     12  C   UNL     1      -2.472 -49.006  17.689  1.00  0.00    -0.000 C 
BRANCH  12  13
ATOM     13  C   UNL     1      -3.720 -48.612  18.498  1.00  0.00    -0.000 C 
BRANCH  13  14
ATOM     14  C   UNL     1      -5.006 -48.653  17.656  1.00  0.00    -0.000 C 
BRANCH  14  15
ATOM     15  C   UNL     1      -5.779 -47.327  17.688  1.00  0.00    -0.003 C 
ATOM     16  C   UNL     1      -5.379 -46.488  18.898  1.00  0.00     0.004 C 
ENDBRANCH  14  15
ENDBRANCH  13  14
ENDBRANCH  12  13
ENDBRANCH  11  12
ENDBRANCH  10  11
ENDBRANCH   1  10
TORSDOF 12
ENDMDL
MODEL 8
REMARK VINA RESULT:    -4.333      2.195      4.705
REMARK INTER + INTRA:          -9.337
REMARK INTER:                  -7.554
REMARK INTRA:                  -1.783
REMARK UNBOUND:                -1.965
REMARK SMILES CCCCCCCCCCCCCC(=O)[O-]
REMARK SMILES IDX 8 1 9 2 10 3 11 4 12 5 13 6 14 7 15 8 16 9 7 10 6 11 5 12
REMARK SMILES IDX 4 13 3 14 2 15 1 16
REMARK H PARENT
REMARK Flexibility Score: inf
ROOT
ATOM      1  C   UNL     1      -5.302 -46.219  18.788  1.00  0.00     0.000 C 
ENDROOT
BRANCH   1   2
ATOM      2  C   UNL     1      -4.399 -45.099  18.239  1.00  0.00     0.000 C 
BRANCH   2   3
ATOM      3  C   UNL     1      -2.945 -45.207  18.725  1.00  0.00     0.000 C 
BRANCH   3   4
ATOM      4  C   UNL     1      -1.973 -45.269  17.541  1.00  0.00     0.000 C 
BRANCH   4   5
ATOM      5  C   UNL     1      -2.732 -45.315  16.207  1.00  0.00     0.006 C 
BRANCH   5   6
ATOM      6  C   UNL     1      -2.245 -44.241  15.224  1.00  0.00     0.053 C 
BRANCH   6   7
ATOM      7  C   UNL     1      -3.388 -43.527  14.572  1.00  0.00     0.041 C 
ATOM      8  O   UNL     1      -3.266 -43.068  13.406  1.00  0.00    -0.550 OA
ATOM      9  O   UNL     1      -4.577 -43.338  15.265  1.00  0.00    -0.550 OA
ENDBRANCH   6   7
ENDBRANCH   5   6
ENDBRANCH   4   5
ENDBRANCH   3   4
ENDBRANCH   2   3
ENDBRANCH   1   2
BRANCH   1  10
ATOM     10  C   UNL     1      -4.626 -47.167  19.796  1.00  0.00     0.000 C 
BRANCH  10  11
ATOM     11  C   UNL     1      -4.515 -48.612  19.278  1.00  0.00    -0.000 C 
BRANCH  11  12
ATOM     12  C   UNL     1      -4.827 -48.725  17.777  1.00  0.00    -0.000 C 
BRANCH  12  13
ATOM     13  C   UNL     1      -3.561 -48.924  16.925  1.00  0.00    -0.000 C 
BRANCH  13  14
ATOM     14  C   UNL     1      -2.276 -48.921  17.769  1.00  0.00    -0.000 C 
BRANCH  14  15
ATOM     15  C   UNL     1      -1.005 -48.803  16.914  1.00  0.00    -0.003 C 
ATOM     16  C   UNL     1      -1.038 -49.781  15.744  1.00  0.00     0.004 C 
ENDBRANCH  14  15
ENDBRANCH  13  14
ENDBRANCH  12  13
ENDBRANCH  11  12
ENDBRANCH  10  11
ENDBRANCH   1  10
TORSDOF 12
ENDMDL
MODEL 9
REMARK VINA RESULT:    -4.223      2.129      4.452
REMARK INTER + INTRA:          -9.150
REMARK INTER:                  -7.147
REMARK INTRA:                  -2.003
REMARK UNBOUND:                -1.965
REMARK SMILES CCCCCCCCCCCCCC(=O)[O-]
REMARK SMILES IDX 8 1 9 2 10 3 11 4 12 5 13 6 14 7 15 8 16 9 7 10 6 11 5 12
REMARK SMILES IDX 4 13 3 14 2 15 1 16
REMARK H PARENT
REMARK Flexibility Score: inf
ROOT
ATOM      1  C   UNL     1      -2.966 -44.910  18.667  1.00  0.00     0.000 C 
ENDROOT
BRANCH   1   2
ATOM      2  C   UNL     1      -2.013 -45.386  17.556  1.00  0.00     0.000 C 
BRANCH   2   3
ATOM      3  C   UNL     1      -2.442 -44.919  16.156  1.00  0.00     0.000 C 
BRANCH   3   4
ATOM      4  C   UNL     1      -3.581 -45.788  15.611  1.00  0.00     0.000 C 
BRANCH   4   5
ATOM      5  C   UNL     1      -4.892 -44.993  15.533  1.00  0.00     0.006 C 
BRANCH   5   6
ATOM      6  C   UNL     1      -6.037 -45.682  16.287  1.00  0.00     0.053 C 
BRANCH   6   7
ATOM      7  C   UNL     1      -7.306 -44.890  16.216  1.00  0.00     0.041 C 
ATOM      8  O   UNL     1      -7.396 -43.784  16.810  1.00  0.00    -0.550 OA
ATOM      9  O   UNL     1      -8.400 -45.388  15.519  1.00  0.00    -0.550 OA
ENDBRANCH   6   7
ENDBRANCH   5   6
ENDBRANCH   4   5
ENDBRANCH   3   4
ENDBRANCH   2   3
ENDBRANCH   1   2
BRANCH   1  10
ATOM     10  C   UNL     1      -3.291 -45.963  19.743  1.00  0.00     0.000 C 
BRANCH  10  11
ATOM     11  C   UNL     1      -4.611 -46.707  19.474  1.00  0.00    -0.000 C 
BRANCH  11  12
ATOM     12  C   UNL     1      -4.408 -48.219  19.284  1.00  0.00    -0.000 C 
BRANCH  12  13
ATOM     13  C   UNL     1      -4.819 -48.696  17.880  1.00  0.00    -0.000 C 
BRANCH  13  14
ATOM     14  C   UNL     1      -3.614 -49.122  17.025  1.00  0.00    -0.000 C 
BRANCH  14  15
ATOM     15  C   UNL     1      -2.280 -48.997  17.776  1.00  0.00    -0.003 C 
ATOM     16  C   UNL     1      -1.115 -48.850  16.802  1.00  0.00     0.004 C 
ENDBRANCH  14  15
ENDBRANCH  13  14
ENDBRANCH  12  13
ENDBRANCH  11  12
ENDBRANCH  10  11
ENDBRANCH   1  10
TORSDOF 12
ENDMDL
