MODEL 1
REMARK VINA RESULT:    -5.118      0.000      0.000
REMARK INTER + INTRA:          -5.632
REMARK INTER:                  -5.567
REMARK INTRA:                  -0.065
REMARK UNBOUND:                -0.065
REMARK SMILES COc1cc2ccc(=O)oc2cc1O
REMARK SMILES IDX 3 1 13 2 12 3 11 4 5 5 4 6 6 7 7 8 8 9 9 10 10 11 2 12 1 13
REMARK SMILES IDX 14 14
REMARK H PARENT 14 15
REMARK Flexibility Score: inf
ROOT
ATOM      1  C   UNL     1      18.081   7.794 -21.354  1.00  0.00     0.161 A 
ATOM      2  C   UNL     1      17.896   7.051 -22.531  1.00  0.00     0.161 A 
ATOM      3  C   UNL     1      18.970   6.359 -23.108  1.00  0.00     0.098 A 
ATOM      4  C   UNL     1      20.235   6.404 -22.518  1.00  0.00     0.142 A 
ATOM      5  C   UNL     1      20.431   7.148 -21.336  1.00  0.00     0.022 A 
ATOM      6  C   UNL     1      19.358   7.840 -20.757  1.00  0.00     0.062 A 
ATOM      7  C   UNL     1      21.709   7.173 -20.768  1.00  0.00     0.019 A 
ATOM      8  C   UNL     1      22.745   6.468 -21.381  1.00  0.00     0.094 A 
ATOM      9  C   UNL     1      22.476   5.752 -22.552  1.00  0.00     0.336 A 
ATOM     10  O   UNL     1      23.397   5.109 -23.121  1.00  0.00    -0.246 OA
ATOM     11  O   UNL     1      21.251   5.745 -23.072  1.00  0.00    -0.423 OA
ENDROOT
BRANCH   1  12
ATOM     12  O   UNL     1      16.978   8.471 -20.810  1.00  0.00    -0.493 OA
ATOM     13  C   UNL     1      16.212   8.006 -19.705  1.00  0.00     0.278 C 
ENDBRANCH   1  12
BRANCH   2  14
ATOM     14  O   UNL     1      16.634   7.005 -23.122  1.00  0.00    -0.504 OA
ATOM     15  H   UNL     1      16.514   7.092 -24.125  1.00  0.00     0.293 HD
ENDBRANCH   2  14
TORSDOF 2
ENDMDL
MODEL 2
REMARK VINA RESULT:    -4.873     20.137     21.651
REMARK INTER + INTRA:          -5.365
REMARK INTER:                  -5.315
REMARK INTRA:                  -0.050
REMARK UNBOUND:                -0.065
REMARK SMILES COc1cc2ccc(=O)oc2cc1O
REMARK SMILES IDX 3 1 13 2 12 3 11 4 5 5 4 6 6 7 7 8 8 9 9 10 10 11 2 12 1 13
REMARK SMILES IDX 14 14
REMARK H PARENT 14 15
REMARK Flexibility Score: inf
ROOT
ATOM      1  C   UNL     1       7.994  -5.773  -7.058  1.00  0.00     0.161 A 
ATOM      2  C   UNL     1       7.350  -5.278  -8.203  1.00  0.00     0.161 A 
ATOM      3  C   UNL     1       7.846  -5.575  -9.480  1.00  0.00     0.098 A 
ATOM      4  C   UNL     1       8.989  -6.365  -9.625  1.00  0.00     0.142 A 
ATOM      5  C   UNL     1       9.643  -6.868  -8.481  1.00  0.00     0.022 A 
ATOM      6  C   UNL     1       9.147  -6.572  -7.203  1.00  0.00     0.062 A 
ATOM      7  C   UNL     1      10.784  -7.657  -8.658  1.00  0.00     0.019 A 
ATOM      8  C   UNL     1      11.239  -7.923  -9.949  1.00  0.00     0.094 A 
ATOM      9  C   UNL     1      10.538  -7.392 -11.037  1.00  0.00     0.336 A 
ATOM     10  O   UNL     1      10.933  -7.620 -12.211  1.00  0.00    -0.246 OA
ATOM     11  O   UNL     1       9.455  -6.643 -10.840  1.00  0.00    -0.423 OA
ENDROOT
BRANCH   1  12
ATOM     12  O   UNL     1       7.462  -5.452  -5.800  1.00  0.00    -0.493 OA
ATOM     13  C   UNL     1       8.240  -5.132  -4.652  1.00  0.00     0.278 C 
ENDBRANCH   1  12
BRANCH   2  14
ATOM     14  O   UNL     1       6.209  -4.488  -8.061  1.00  0.00    -0.504 OA
ATOM     15  H   UNL     1       5.280  -4.871  -8.189  1.00  0.00     0.293 HD
ENDBRANCH   2  14
TORSDOF 2
ENDMDL
MODEL 3
REMARK VINA RESULT:    -4.855      1.572      4.919
REMARK INTER + INTRA:          -5.346
REMARK INTER:                  -5.289
REMARK INTRA:                  -0.057
REMARK UNBOUND:                -0.065
REMARK SMILES COc1cc2ccc(=O)oc2cc1O
REMARK SMILES IDX 3 1 13 2 12 3 11 4 5 5 4 6 6 7 7 8 8 9 9 10 10 11 2 12 1 13
REMARK SMILES IDX 14 14
REMARK H PARENT 14 15
REMARK Flexibility Score: inf
ROOT
ATOM      1  C   UNL     1      22.813   6.683 -20.490  1.00  0.00     0.161 A 
ATOM      2  C   UNL     1      22.780   5.995 -21.713  1.00  0.00     0.161 A 
ATOM      3  C   UNL     1      21.607   5.967 -22.479  1.00  0.00     0.098 A 
ATOM      4  C   UNL     1      20.458   6.623 -22.032  1.00  0.00     0.142 A 
ATOM      5  C   UNL     1      20.482   7.318 -20.805  1.00  0.00     0.022 A 
ATOM      6  C   UNL     1      21.655   7.348 -20.038  1.00  0.00     0.062 A 
ATOM      7  C   UNL     1      19.316   7.967 -20.384  1.00  0.00     0.019 A 
ATOM      8  C   UNL     1      18.174   7.909 -21.182  1.00  0.00     0.094 A 
ATOM      9  C   UNL     1      18.224   7.202 -22.387  1.00  0.00     0.336 A 
ATOM     10  O   UNL     1      17.204   7.137 -23.122  1.00  0.00    -0.246 OA
ATOM     11  O   UNL     1      19.346   6.593 -22.764  1.00  0.00    -0.423 OA
ENDROOT
BRANCH   1  12
ATOM     12  O   UNL     1      24.010   6.686 -19.757  1.00  0.00    -0.493 OA
ATOM     13  C   UNL     1      24.125   6.270 -18.400  1.00  0.00     0.278 C 
ENDBRANCH   1  12
BRANCH   2  14
ATOM     14  O   UNL     1      23.925   5.338 -22.162  1.00  0.00    -0.504 OA
ATOM     15  H   UNL     1      24.008   5.009 -23.117  1.00  0.00     0.293 HD
ENDBRANCH   2  14
TORSDOF 2
ENDMDL
MODEL 4
REMARK VINA RESULT:    -4.849     20.515     22.346
REMARK INTER + INTRA:          -5.339
REMARK INTER:                  -5.289
REMARK INTRA:                  -0.050
REMARK UNBOUND:                -0.065
REMARK SMILES COc1cc2ccc(=O)oc2cc1O
REMARK SMILES IDX 3 1 13 2 12 3 11 4 5 5 4 6 6 7 7 8 8 9 9 10 10 11 2 12 1 13
REMARK SMILES IDX 14 14
REMARK H PARENT 14 15
REMARK Flexibility Score: inf
ROOT
ATOM      1  C   UNL     1       7.981  -6.484  -6.795  1.00  0.00     0.161 A 
ATOM      2  C   UNL     1       8.223  -7.828  -7.119  1.00  0.00     0.161 A 
ATOM      3  C   UNL     1       8.386  -8.216  -8.456  1.00  0.00     0.098 A 
ATOM      4  C   UNL     1       8.307  -7.268  -9.479  1.00  0.00     0.142 A 
ATOM      5  C   UNL     1       8.064  -5.915  -9.163  1.00  0.00     0.022 A 
ATOM      6  C   UNL     1       7.902  -5.525  -7.826  1.00  0.00     0.062 A 
ATOM      7  C   UNL     1       7.992  -4.989 -10.209  1.00  0.00     0.019 A 
ATOM      8  C   UNL     1       8.161  -5.425 -11.523  1.00  0.00     0.094 A 
ATOM      9  C   UNL     1       8.399  -6.783 -11.760  1.00  0.00     0.336 A 
ATOM     10  O   UNL     1       8.553  -7.197 -12.939  1.00  0.00    -0.246 OA
ATOM     11  O   UNL     1       8.462  -7.644 -10.747  1.00  0.00    -0.423 OA
ENDROOT
BRANCH   1  12
ATOM     12  O   UNL     1       7.825  -6.140  -5.443  1.00  0.00    -0.493 OA
ATOM     13  C   UNL     1       8.316  -4.942  -4.853  1.00  0.00     0.278 C 
ENDBRANCH   1  12
BRANCH   2  14
ATOM     14  O   UNL     1       8.301  -8.776  -6.100  1.00  0.00    -0.504 OA
ATOM     15  H   UNL     1       9.173  -8.967  -5.618  1.00  0.00     0.293 HD
ENDBRANCH   2  14
TORSDOF 2
ENDMDL
MODEL 5
REMARK VINA RESULT:    -4.818     20.848     22.307
REMARK INTER + INTRA:          -5.305
REMARK INTER:                  -5.257
REMARK INTRA:                  -0.048
REMARK UNBOUND:                -0.065
REMARK SMILES COc1cc2ccc(=O)oc2cc1O
REMARK SMILES IDX 3 1 13 2 12 3 11 4 5 5 4 6 6 7 7 8 8 9 9 10 10 11 2 12 1 13
REMARK SMILES IDX 14 14
REMARK H PARENT 14 15
REMARK Flexibility Score: inf
ROOT
ATOM      1  C   UNL     1       8.334  -6.576  -6.636  1.00  0.00     0.161 A 
ATOM      2  C   UNL     1       7.912  -7.852  -7.041  1.00  0.00     0.161 A 
ATOM      3  C   UNL     1       8.583  -8.527  -8.070  1.00  0.00     0.098 A 
ATOM      4  C   UNL     1       9.678  -7.935  -8.704  1.00  0.00     0.142 A 
ATOM      5  C   UNL     1      10.109  -6.653  -8.304  1.00  0.00     0.022 A 
ATOM      6  C   UNL     1       9.440  -5.977  -7.274  1.00  0.00     0.062 A 
ATOM      7  C   UNL     1      11.209  -6.086  -8.957  1.00  0.00     0.019 A 
ATOM      8  C   UNL     1      11.842  -6.798  -9.975  1.00  0.00     0.094 A 
ATOM      9  C   UNL     1      11.359  -8.065 -10.318  1.00  0.00     0.336 A 
ATOM     10  O   UNL     1      11.916  -8.723 -11.235  1.00  0.00    -0.246 OA
ATOM     11  O   UNL     1      10.310  -8.581  -9.681  1.00  0.00    -0.423 OA
ENDROOT
BRANCH   1  12
ATOM     12  O   UNL     1       7.634  -5.937  -5.601  1.00  0.00    -0.493 OA
ATOM     13  C   UNL     1       8.224  -5.060  -4.649  1.00  0.00     0.278 C 
ENDBRANCH   1  12
BRANCH   2  14
ATOM     14  O   UNL     1       6.819  -8.445  -6.410  1.00  0.00    -0.504 OA
ATOM     15  H   UNL     1       6.193  -7.910  -5.819  1.00  0.00     0.293 HD
ENDBRANCH   2  14
TORSDOF 2
ENDMDL
MODEL 6
REMARK VINA RESULT:    -4.812     20.743     22.043
REMARK INTER + INTRA:          -5.299
REMARK INTER:                  -5.274
REMARK INTRA:                  -0.026
REMARK UNBOUND:                -0.065
REMARK SMILES COc1cc2ccc(=O)oc2cc1O
REMARK SMILES IDX 3 1 13 2 12 3 11 4 5 5 4 6 6 7 7 8 8 9 9 10 10 11 2 12 1 13
REMARK SMILES IDX 14 14
REMARK H PARENT 14 15
REMARK Flexibility Score: inf
ROOT
ATOM      1  C   UNL     1       8.520  -5.992  -6.900  1.00  0.00     0.161 A 
ATOM      2  C   UNL     1       9.874  -5.700  -7.132  1.00  0.00     0.161 A 
ATOM      3  C   UNL     1      10.498  -6.125  -8.313  1.00  0.00     0.098 A 
ATOM      4  C   UNL     1       9.779  -6.844  -9.270  1.00  0.00     0.142 A 
ATOM      5  C   UNL     1       8.418  -7.142  -9.046  1.00  0.00     0.022 A 
ATOM      6  C   UNL     1       7.792  -6.717  -7.866  1.00  0.00     0.062 A 
ATOM      7  C   UNL     1       7.724  -7.862 -10.023  1.00  0.00     0.019 A 
ATOM      8  C   UNL     1       8.390  -8.263 -11.181  1.00  0.00     0.094 A 
ATOM      9  C   UNL     1       9.740  -7.932 -11.335  1.00  0.00     0.336 A 
ATOM     10  O   UNL     1      10.360  -8.284 -12.373  1.00  0.00    -0.246 OA
ATOM     11  O   UNL     1      10.377  -7.245 -10.389  1.00  0.00    -0.423 OA
ENDROOT
BRANCH   1  12
ATOM     12  O   UNL     1       7.936  -5.546  -5.704  1.00  0.00    -0.493 OA
ATOM     13  C   UNL     1       7.949  -6.272  -4.480  1.00  0.00     0.278 C 
ENDBRANCH   1  12
BRANCH   2  14
ATOM     14  O   UNL     1      10.594  -4.983  -6.178  1.00  0.00    -0.504 OA
ATOM     15  H   UNL     1      11.602  -4.885  -6.237  1.00  0.00     0.293 HD
ENDBRANCH   2  14
TORSDOF 2
ENDMDL
MODEL 7
REMARK VINA RESULT:    -4.787      7.832      9.363
REMARK INTER + INTRA:          -5.272
REMARK INTER:                  -5.210
REMARK INTRA:                  -0.062
REMARK UNBOUND:                -0.065
REMARK SMILES COc1cc2ccc(=O)oc2cc1O
REMARK SMILES IDX 3 1 13 2 12 3 11 4 5 5 4 6 6 7 7 8 8 9 9 10 10 11 2 12 1 13
REMARK SMILES IDX 14 14
REMARK H PARENT 14 15
REMARK Flexibility Score: inf
ROOT
ATOM      1  C   UNL     1      10.719   3.701 -19.732  1.00  0.00     0.161 A 
ATOM      2  C   UNL     1      11.745   3.109 -18.978  1.00  0.00     0.161 A 
ATOM      3  C   UNL     1      12.697   3.907 -18.328  1.00  0.00     0.098 A 
ATOM      4  C   UNL     1      12.634   5.299 -18.426  1.00  0.00     0.142 A 
ATOM      5  C   UNL     1      11.607   5.902 -19.180  1.00  0.00     0.022 A 
ATOM      6  C   UNL     1      10.654   5.106 -19.831  1.00  0.00     0.062 A 
ATOM      7  C   UNL     1      11.570   7.298 -19.259  1.00  0.00     0.019 A 
ATOM      8  C   UNL     1      12.540   8.048 -18.595  1.00  0.00     0.094 A 
ATOM      9  C   UNL     1      13.529   7.380 -17.864  1.00  0.00     0.336 A 
ATOM     10  O   UNL     1      14.415   8.038 -17.257  1.00  0.00    -0.246 OA
ATOM     11  O   UNL     1      13.542   6.050 -17.806  1.00  0.00    -0.423 OA
ENDROOT
BRANCH   1  12
ATOM     12  O   UNL     1       9.787   2.864 -20.365  1.00  0.00    -0.493 OA
ATOM     13  C   UNL     1       8.396   2.832 -20.064  1.00  0.00     0.278 C 
ENDBRANCH   1  12
BRANCH   2  14
ATOM     14  O   UNL     1      11.810   1.720 -18.879  1.00  0.00    -0.504 OA
ATOM     15  H   UNL     1      11.389   1.223 -18.102  1.00  0.00     0.293 HD
ENDBRANCH   2  14
TORSDOF 2
ENDMDL
MODEL 8
REMARK VINA RESULT:    -4.762     20.311     22.338
REMARK INTER + INTRA:          -5.245
REMARK INTER:                  -5.186
REMARK INTRA:                  -0.058
REMARK UNBOUND:                -0.065
REMARK SMILES COc1cc2ccc(=O)oc2cc1O
REMARK SMILES IDX 3 1 13 2 12 3 11 4 5 5 4 6 6 7 7 8 8 9 9 10 10 11 2 12 1 13
REMARK SMILES IDX 14 14
REMARK H PARENT 14 15
REMARK Flexibility Score: inf
ROOT
ATOM      1  C   UNL     1       8.076  -6.858 -11.012  1.00  0.00     0.161 A 
ATOM      2  C   UNL     1       8.061  -5.478 -10.751  1.00  0.00     0.161 A 
ATOM      3  C   UNL     1       8.010  -5.007  -9.432  1.00  0.00     0.098 A 
ATOM      4  C   UNL     1       7.972  -5.906  -8.364  1.00  0.00     0.142 A 
ATOM      5  C   UNL     1       7.986  -7.294  -8.616  1.00  0.00     0.022 A 
ATOM      6  C   UNL     1       8.039  -7.767  -9.935  1.00  0.00     0.062 A 
ATOM      7  C   UNL     1       7.948  -8.170  -7.526  1.00  0.00     0.019 A 
ATOM      8  C   UNL     1       7.897  -7.651  -6.233  1.00  0.00     0.094 A 
ATOM      9  C   UNL     1       7.886  -6.263  -6.059  1.00  0.00     0.336 A 
ATOM     10  O   UNL     1       7.839  -5.775  -4.899  1.00  0.00    -0.246 OA
ATOM     11  O   UNL     1       7.922  -5.452  -7.114  1.00  0.00    -0.423 OA
ENDROOT
BRANCH   1  12
ATOM     12  O   UNL     1       8.129  -7.285 -12.348  1.00  0.00    -0.493 OA
ATOM     13  C   UNL     1       9.134  -8.138 -12.883  1.00  0.00     0.278 C 
ENDBRANCH   1  12
BRANCH   2  14
ATOM     14  O   UNL     1       8.099  -4.579 -11.816  1.00  0.00    -0.504 OA
ATOM     15  H   UNL     1       8.113  -3.576 -11.663  1.00  0.00     0.293 HD
ENDBRANCH   2  14
TORSDOF 2
ENDMDL
MODEL 9
REMARK VINA RESULT:    -4.761      1.499      5.464
REMARK INTER + INTRA:          -5.243
REMARK INTER:                  -5.193
REMARK INTRA:                  -0.050
REMARK UNBOUND:                -0.065
REMARK SMILES COc1cc2ccc(=O)oc2cc1O
REMARK SMILES IDX 3 1 13 2 12 3 11 4 5 5 4 6 6 7 7 8 8 9 9 10 10 11 2 12 1 13
REMARK SMILES IDX 14 14
REMARK H PARENT 14 15
REMARK Flexibility Score: inf
ROOT
ATOM      1  C   UNL     1      22.637   6.305 -21.736  1.00  0.00     0.161 A 
ATOM      2  C   UNL     1      22.425   6.580 -20.376  1.00  0.00     0.161 A 
ATOM      3  C   UNL     1      21.199   7.104 -19.942  1.00  0.00     0.098 A 
ATOM      4  C   UNL     1      20.178   7.359 -20.860  1.00  0.00     0.142 A 
ATOM      5  C   UNL     1      20.382   7.086 -22.229  1.00  0.00     0.022 A 
ATOM      6  C   UNL     1      21.607   6.561 -22.664  1.00  0.00     0.062 A 
ATOM      7  C   UNL     1      19.341   7.351 -23.124  1.00  0.00     0.019 A 
ATOM      8  C   UNL     1      18.140   7.873 -22.643  1.00  0.00     0.094 A 
ATOM      9  C   UNL     1      18.009   8.118 -21.272  1.00  0.00     0.336 A 
ATOM     10  O   UNL     1      16.934   8.590 -20.818  1.00  0.00    -0.246 OA
ATOM     11  O   UNL     1      19.016   7.857 -20.442  1.00  0.00    -0.423 OA
ENDROOT
BRANCH   1  12
ATOM     12  O   UNL     1      23.880   5.780 -22.126  1.00  0.00    -0.493 OA
ATOM     13  C   UNL     1      24.056   4.782 -23.125  1.00  0.00     0.278 C 
ENDBRANCH   1  12
BRANCH   2  14
ATOM     14  O   UNL     1      23.443   6.326 -19.457  1.00  0.00    -0.504 OA
ATOM     15  H   UNL     1      23.781   7.046 -18.829  1.00  0.00     0.293 HD
ENDBRANCH   2  14
TORSDOF 2
ENDMDL
