MODEL 1
REMARK VINA RESULT:    -4.774      0.000      0.000
REMARK INTER + INTRA:          -5.881
REMARK INTER:                  -5.612
REMARK INTRA:                  -0.269
REMARK UNBOUND:                -0.269
REMARK SMILES O=c1cc(-c2ccc(O)c(O)c2)oc2cc(O)cc(O)c12
REMARK SMILES IDX 4 1 3 2 2 3 1 4 21 5 19 6 18 7 16 8 15 9 14 10 13 11 5 12
REMARK SMILES IDX 6 13 7 14 8 15 12 16 10 17 9 18 11 20 20 22 17 24
REMARK H PARENT 9 19 11 21 20 23 17 25
REMARK Flexibility Score: inf
ROOT
ATOM      1  C   UNL     1     -15.154  15.403  11.289  1.00  0.00     0.138 A 
ATOM      2  C   UNL     1     -16.240  16.102  10.743  1.00  0.00     0.100 A 
ATOM      3  C   UNL     1     -16.366  16.210   9.358  1.00  0.00     0.197 A 
ATOM      4  O   UNL     1     -17.315  16.897   8.899  1.00  0.00    -0.289 OA
ATOM      5  C   UNL     1     -15.414  15.589   8.515  1.00  0.00     0.107 A 
ATOM      6  C   UNL     1     -15.464  15.598   7.088  1.00  0.00     0.134 A 
ATOM      7  C   UNL     1     -14.403  15.047   6.357  1.00  0.00     0.093 A 
ATOM      8  C   UNL     1     -13.325  14.434   7.002  1.00  0.00     0.123 A 
ATOM      9  C   UNL     1     -13.295  14.372   8.393  1.00  0.00     0.094 A 
ATOM     10  C   UNL     1     -14.320  14.943   9.150  1.00  0.00     0.146 A 
ATOM     11  O   UNL     1     -14.246  14.874  10.475  1.00  0.00    -0.456 OA
ENDROOT
BRANCH   1  12
ATOM     12  C   UNL     1     -14.973  15.255  12.755  1.00  0.00     0.021 A 
ATOM     13  C   UNL     1     -15.649  14.260  13.487  1.00  0.00     0.016 A 
ATOM     14  C   UNL     1     -15.452  14.139  14.865  1.00  0.00     0.051 A 
ATOM     15  C   UNL     1     -14.575  15.000  15.534  1.00  0.00     0.157 A 
ATOM     16  C   UNL     1     -14.083  16.108  13.432  1.00  0.00     0.062 A 
ATOM     17  C   UNL     1     -13.886  15.988  14.812  1.00  0.00     0.158 A 
BRANCH  15  18
ATOM     18  O   UNL     1     -14.382  14.876  16.909  1.00  0.00    -0.504 OA
ATOM     19  H   UNL     1     -14.312  13.969  17.355  1.00  0.00     0.293 HD
ENDBRANCH  15  18
BRANCH  17  20
ATOM     20  O   UNL     1     -13.001  16.859  15.447  1.00  0.00    -0.504 OA
ATOM     21  H   UNL     1     -12.733  16.742  16.417  1.00  0.00     0.293 HD
ENDBRANCH  17  20
ENDBRANCH   1  12
BRANCH   6  22
ATOM     22  O   UNL     1     -16.533  16.109   6.347  1.00  0.00    -0.507 OA
ATOM     23  H   UNL     1     -16.829  17.073   6.351  1.00  0.00     0.293 HD
ENDBRANCH   6  22
BRANCH   8  24
ATOM     24  O   UNL     1     -12.282  13.875   6.267  1.00  0.00    -0.508 OA
ATOM     25  H   UNL     1     -12.454  13.360   5.410  1.00  0.00     0.293 HD
ENDBRANCH   8  24
TORSDOF 5
ENDMDL
MODEL 2
REMARK VINA RESULT:    -4.639      1.224      2.659
REMARK INTER + INTRA:          -5.721
REMARK INTER:                  -5.458
REMARK INTRA:                  -0.263
REMARK UNBOUND:                -0.269
REMARK SMILES O=c1cc(-c2ccc(O)c(O)c2)oc2cc(O)cc(O)c12
REMARK SMILES IDX 4 1 3 2 2 3 1 4 21 5 19 6 18 7 16 8 15 9 14 10 13 11 5 12
REMARK SMILES IDX 6 13 7 14 8 15 12 16 10 17 9 18 11 20 20 22 17 24
REMARK H PARENT 9 19 11 21 20 23 17 25
REMARK Flexibility Score: inf
ROOT
ATOM      1  C   UNL     1     -14.422  14.817  11.200  1.00  0.00     0.138 A 
ATOM      2  C   UNL     1     -13.171  14.427  10.699  1.00  0.00     0.100 A 
ATOM      3  C   UNL     1     -12.989  14.299   9.322  1.00  0.00     0.197 A 
ATOM      4  O   UNL     1     -11.875  13.887   8.906  1.00  0.00    -0.289 OA
ATOM      5  C   UNL     1     -14.056  14.594   8.441  1.00  0.00     0.107 A 
ATOM      6  C   UNL     1     -13.974  14.539   7.017  1.00  0.00     0.134 A 
ATOM      7  C   UNL     1     -15.128  14.740   6.250  1.00  0.00     0.093 A 
ATOM      8  C   UNL     1     -16.349  15.054   6.854  1.00  0.00     0.123 A 
ATOM      9  C   UNL     1     -16.428  15.164   8.240  1.00  0.00     0.094 A 
ATOM     10  C   UNL     1     -15.301  14.935   9.034  1.00  0.00     0.146 A 
ATOM     11  O   UNL     1     -15.422  15.036  10.353  1.00  0.00    -0.456 OA
ENDROOT
BRANCH   1  12
ATOM     12  C   UNL     1     -14.670  14.970  12.656  1.00  0.00     0.021 A 
ATOM     13  C   UNL     1     -15.089  13.888  13.453  1.00  0.00     0.016 A 
ATOM     14  C   UNL     1     -15.306  14.059  14.823  1.00  0.00     0.051 A 
ATOM     15  C   UNL     1     -15.101  15.308  15.422  1.00  0.00     0.157 A 
ATOM     16  C   UNL     1     -14.453  16.218  13.268  1.00  0.00     0.062 A 
ATOM     17  C   UNL     1     -14.671  16.391  14.639  1.00  0.00     0.158 A 
BRANCH  15  18
ATOM     18  O   UNL     1     -15.319  15.474  16.788  1.00  0.00    -0.504 OA
ATOM     19  H   UNL     1     -16.086  15.014  17.263  1.00  0.00     0.293 HD
ENDBRANCH  15  18
BRANCH  17  20
ATOM     20  O   UNL     1     -14.453  17.647  15.205  1.00  0.00    -0.504 OA
ATOM     21  H   UNL     1     -15.207  18.306  15.359  1.00  0.00     0.293 HD
ENDBRANCH  17  20
ENDBRANCH   1  12
BRANCH   6  22
ATOM     22  O   UNL     1     -12.787  14.316   6.311  1.00  0.00    -0.507 OA
ATOM     23  H   UNL     1     -12.680  13.654   5.558  1.00  0.00     0.293 HD
ENDBRANCH   6  22
BRANCH   8  24
ATOM     24  O   UNL     1     -17.489  15.268   6.083  1.00  0.00    -0.508 OA
ATOM     25  H   UNL     1     -17.429  15.618   5.133  1.00  0.00     0.293 HD
ENDBRANCH   8  24
TORSDOF 5
ENDMDL
MODEL 3
REMARK VINA RESULT:    -4.307      1.274      3.047
REMARK INTER + INTRA:          -5.332
REMARK INTER:                  -5.060
REMARK INTRA:                  -0.271
REMARK UNBOUND:                -0.269
REMARK SMILES O=c1cc(-c2ccc(O)c(O)c2)oc2cc(O)cc(O)c12
REMARK SMILES IDX 4 1 3 2 2 3 1 4 21 5 19 6 18 7 16 8 15 9 14 10 13 11 5 12
REMARK SMILES IDX 6 13 7 14 8 15 12 16 10 17 9 18 11 20 20 22 17 24
REMARK H PARENT 9 19 11 21 20 23 17 25
REMARK Flexibility Score: inf
ROOT
ATOM      1  C   UNL     1     -13.981  15.152  11.681  1.00  0.00     0.138 A 
ATOM      2  C   UNL     1     -12.866  14.596  11.037  1.00  0.00     0.100 A 
ATOM      3  C   UNL     1     -12.863  14.472   9.647  1.00  0.00     0.197 A 
ATOM      4  O   UNL     1     -11.877  13.912   9.103  1.00  0.00    -0.289 OA
ATOM      5  C   UNL     1     -13.970  14.936   8.897  1.00  0.00     0.107 A 
ATOM      6  C   UNL     1     -14.060  14.900   7.473  1.00  0.00     0.134 A 
ATOM      7  C   UNL     1     -15.253  15.280   6.847  1.00  0.00     0.093 A 
ATOM      8  C   UNL     1     -16.338  15.755   7.589  1.00  0.00     0.123 A 
ATOM      9  C   UNL     1     -16.241  15.846   8.976  1.00  0.00     0.094 A 
ATOM     10  C   UNL     1     -15.076  15.440   9.632  1.00  0.00     0.146 A 
ATOM     11  O   UNL     1     -15.029  15.530  10.957  1.00  0.00    -0.456 OA
ENDROOT
BRANCH   1  12
ATOM     12  C   UNL     1     -14.036  15.309  13.157  1.00  0.00     0.021 A 
ATOM     13  C   UNL     1     -13.212  16.228  13.834  1.00  0.00     0.016 A 
ATOM     14  C   UNL     1     -13.293  16.361  15.223  1.00  0.00     0.051 A 
ATOM     15  C   UNL     1     -14.198  15.587  15.958  1.00  0.00     0.157 A 
ATOM     16  C   UNL     1     -14.953  14.544  13.900  1.00  0.00     0.062 A 
ATOM     17  C   UNL     1     -15.033  14.675  15.291  1.00  0.00     0.158 A 
BRANCH  15  18
ATOM     18  O   UNL     1     -14.275  15.722  17.342  1.00  0.00    -0.504 OA
ATOM     19  H   UNL     1     -13.479  15.527  17.939  1.00  0.00     0.293 HD
ENDBRANCH  15  18
BRANCH  17  20
ATOM     20  O   UNL     1     -15.950  13.892  15.992  1.00  0.00    -0.504 OA
ATOM     21  H   UNL     1     -16.611  14.294  16.646  1.00  0.00     0.293 HD
ENDBRANCH  17  20
ENDBRANCH   1  12
BRANCH   6  22
ATOM     22  O   UNL     1     -13.008  14.523   6.634  1.00  0.00    -0.507 OA
ATOM     23  H   UNL     1     -12.447  15.161   6.089  1.00  0.00     0.293 HD
ENDBRANCH   6  22
BRANCH   8  24
ATOM     24  O   UNL     1     -17.516  16.146   6.957  1.00  0.00    -0.508 OA
ATOM     25  H   UNL     1     -17.764  15.799   6.038  1.00  0.00     0.293 HD
ENDBRANCH   8  24
TORSDOF 5
ENDMDL
MODEL 4
REMARK VINA RESULT:    -4.291     11.913     14.954
REMARK INTER + INTRA:          -5.313
REMARK INTER:                  -5.048
REMARK INTRA:                  -0.264
REMARK UNBOUND:                -0.269
REMARK SMILES O=c1cc(-c2ccc(O)c(O)c2)oc2cc(O)cc(O)c12
REMARK SMILES IDX 4 1 3 2 2 3 1 4 21 5 19 6 18 7 16 8 15 9 14 10 13 11 5 12
REMARK SMILES IDX 6 13 7 14 8 15 12 16 10 17 9 18 11 20 20 22 17 24
REMARK H PARENT 9 19 11 21 20 23 17 25
REMARK Flexibility Score: inf
ROOT
ATOM      1  C   UNL     1     -25.948  15.432  19.170  1.00  0.00     0.138 A 
ATOM      2  C   UNL     1     -24.916  14.607  18.700  1.00  0.00     0.100 A 
ATOM      3  C   UNL     1     -23.595  15.050  18.763  1.00  0.00     0.197 A 
ATOM      4  O   UNL     1     -22.697  14.315  18.276  1.00  0.00    -0.289 OA
ATOM      5  C   UNL     1     -23.303  16.314  19.329  1.00  0.00     0.107 A 
ATOM      6  C   UNL     1     -21.990  16.852  19.483  1.00  0.00     0.134 A 
ATOM      7  C   UNL     1     -21.832  18.163  19.951  1.00  0.00     0.093 A 
ATOM      8  C   UNL     1     -22.936  18.933  20.327  1.00  0.00     0.123 A 
ATOM      9  C   UNL     1     -24.219  18.397  20.231  1.00  0.00     0.094 A 
ATOM     10  C   UNL     1     -24.411  17.105  19.736  1.00  0.00     0.146 A 
ATOM     11  O   UNL     1     -25.651  16.636  19.647  1.00  0.00    -0.456 OA
ENDROOT
BRANCH   1  12
ATOM     12  C   UNL     1     -27.371  15.009  19.129  1.00  0.00     0.021 A 
ATOM     13  C   UNL     1     -27.952  14.264  20.173  1.00  0.00     0.016 A 
ATOM     14  C   UNL     1     -29.296  13.888  20.111  1.00  0.00     0.051 A 
ATOM     15  C   UNL     1     -30.084  14.254  19.013  1.00  0.00     0.157 A 
ATOM     16  C   UNL     1     -28.172  15.384  18.036  1.00  0.00     0.062 A 
ATOM     17  C   UNL     1     -29.518  15.008  17.972  1.00  0.00     0.158 A 
BRANCH  15  18
ATOM     18  O   UNL     1     -31.424  13.876  18.955  1.00  0.00    -0.504 OA
ATOM     19  H   UNL     1     -31.761  13.218  18.262  1.00  0.00     0.293 HD
ENDBRANCH  15  18
BRANCH  17  20
ATOM     20  O   UNL     1     -30.277  15.393  16.867  1.00  0.00    -0.504 OA
ATOM     21  H   UNL     1     -30.911  14.755  16.401  1.00  0.00     0.293 HD
ENDBRANCH  17  20
ENDBRANCH   1  12
BRANCH   6  22
ATOM     22  O   UNL     1     -20.817  16.139  19.217  1.00  0.00    -0.507 OA
ATOM     23  H   UNL     1     -20.116  15.905  19.903  1.00  0.00     0.293 HD
ENDBRANCH   6  22
BRANCH   8  24
ATOM     24  O   UNL     1     -22.768  20.230  20.805  1.00  0.00    -0.508 OA
ATOM     25  H   UNL     1     -22.024  20.464  21.452  1.00  0.00     0.293 HD
ENDBRANCH   8  24
TORSDOF 5
ENDMDL
MODEL 5
REMARK VINA RESULT:    -3.897      1.518      2.431
REMARK INTER + INTRA:          -4.850
REMARK INTER:                  -4.586
REMARK INTRA:                  -0.263
REMARK UNBOUND:                -0.269
REMARK SMILES O=c1cc(-c2ccc(O)c(O)c2)oc2cc(O)cc(O)c12
REMARK SMILES IDX 4 1 3 2 2 3 1 4 21 5 19 6 18 7 16 8 15 9 14 10 13 11 5 12
REMARK SMILES IDX 6 13 7 14 8 15 12 16 10 17 9 18 11 20 20 22 17 24
REMARK H PARENT 9 19 11 21 20 23 17 25
REMARK Flexibility Score: inf
ROOT
ATOM      1  C   UNL     1     -14.486  15.598  13.163  1.00  0.00     0.138 A 
ATOM      2  C   UNL     1     -15.721  16.073  12.698  1.00  0.00     0.100 A 
ATOM      3  C   UNL     1     -16.022  15.994  11.338  1.00  0.00     0.197 A 
ATOM      4  O   UNL     1     -17.110  16.486  10.941  1.00  0.00    -0.289 OA
ATOM      5  C   UNL     1     -15.093  15.409  10.444  1.00  0.00     0.107 A 
ATOM      6  C   UNL     1     -15.309  15.239   9.044  1.00  0.00     0.134 A 
ATOM      7  C   UNL     1     -14.271  14.752   8.239  1.00  0.00     0.093 A 
ATOM      8  C   UNL     1     -13.046  14.373   8.794  1.00  0.00     0.123 A 
ATOM      9  C   UNL     1     -12.844  14.485  10.168  1.00  0.00     0.094 A 
ATOM     10  C   UNL     1     -13.848  14.999  10.992  1.00  0.00     0.146 A 
ATOM     11  O   UNL     1     -13.611  15.102  12.295  1.00  0.00    -0.456 OA
ENDROOT
BRANCH   1  12
ATOM     12  C   UNL     1     -14.116  15.655  14.600  1.00  0.00     0.021 A 
ATOM     13  C   UNL     1     -13.045  16.446  15.057  1.00  0.00     0.016 A 
ATOM     14  C   UNL     1     -12.725  16.488  16.417  1.00  0.00     0.051 A 
ATOM     15  C   UNL     1     -13.471  15.749  17.343  1.00  0.00     0.157 A 
ATOM     16  C   UNL     1     -14.869  14.926  15.538  1.00  0.00     0.062 A 
ATOM     17  C   UNL     1     -14.549  14.966  16.900  1.00  0.00     0.158 A 
BRANCH  15  18
ATOM     18  O   UNL     1     -13.148  15.793  18.698  1.00  0.00    -0.504 OA
ATOM     19  H   UNL     1     -13.214  14.970  19.286  1.00  0.00     0.293 HD
ENDBRANCH  15  18
BRANCH  17  20
ATOM     20  O   UNL     1     -15.315  14.221  17.797  1.00  0.00    -0.504 OA
ATOM     21  H   UNL     1     -15.163  14.262  18.797  1.00  0.00     0.293 HD
ENDBRANCH  17  20
ENDBRANCH   1  12
BRANCH   6  22
ATOM     22  O   UNL     1     -16.522  15.507   8.402  1.00  0.00    -0.507 OA
ATOM     23  H   UNL     1     -16.674  15.448   7.407  1.00  0.00     0.293 HD
ENDBRANCH   6  22
BRANCH   8  24
ATOM     24  O   UNL     1     -12.024  13.875   7.989  1.00  0.00    -0.508 OA
ATOM     25  H   UNL     1     -12.089  13.896   6.977  1.00  0.00     0.293 HD
ENDBRANCH   8  24
TORSDOF 5
ENDMDL
MODEL 6
REMARK VINA RESULT:    -2.946      2.201      7.162
REMARK INTER + INTRA:          -3.732
REMARK INTER:                  -3.463
REMARK INTRA:                  -0.269
REMARK UNBOUND:                -0.269
REMARK SMILES O=c1cc(-c2ccc(O)c(O)c2)oc2cc(O)cc(O)c12
REMARK SMILES IDX 4 1 3 2 2 3 1 4 21 5 19 6 18 7 16 8 15 9 14 10 13 11 5 12
REMARK SMILES IDX 6 13 7 14 8 15 12 16 10 17 9 18 11 20 20 22 17 24
REMARK H PARENT 9 19 11 21 20 23 17 25
REMARK Flexibility Score: inf
ROOT
ATOM      1  C   UNL     1     -14.888  15.047  10.028  1.00  0.00     0.138 A 
ATOM      2  C   UNL     1     -13.659  14.393  10.193  1.00  0.00     0.100 A 
ATOM      3  C   UNL     1     -13.006  14.453  11.424  1.00  0.00     0.197 A 
ATOM      4  O   UNL     1     -11.875  13.910  11.524  1.00  0.00    -0.289 OA
ATOM      5  C   UNL     1     -13.602  15.148  12.504  1.00  0.00     0.107 A 
ATOM      6  C   UNL     1     -13.047  15.241  13.816  1.00  0.00     0.134 A 
ATOM      7  C   UNL     1     -13.669  16.053  14.772  1.00  0.00     0.093 A 
ATOM      8  C   UNL     1     -14.860  16.725  14.483  1.00  0.00     0.123 A 
ATOM      9  C   UNL     1     -15.438  16.597  13.221  1.00  0.00     0.094 A 
ATOM     10  C   UNL     1     -14.823  15.823  12.236  1.00  0.00     0.146 A 
ATOM     11  O   UNL     1     -15.400  15.737  11.042  1.00  0.00    -0.456 OA
ENDROOT
BRANCH   1  12
ATOM     12  C   UNL     1     -15.627  15.014   8.740  1.00  0.00     0.021 A 
ATOM     13  C   UNL     1     -16.347  13.875   8.330  1.00  0.00     0.016 A 
ATOM     14  C   UNL     1     -17.041  13.875   7.117  1.00  0.00     0.051 A 
ATOM     15  C   UNL     1     -17.036  15.011   6.298  1.00  0.00     0.157 A 
ATOM     16  C   UNL     1     -15.638  16.155   7.918  1.00  0.00     0.062 A 
ATOM     17  C   UNL     1     -16.332  16.156   6.703  1.00  0.00     0.158 A 
BRANCH  15  18
ATOM     18  O   UNL     1     -17.729  15.006   5.089  1.00  0.00    -0.504 OA
ATOM     19  H   UNL     1     -17.409  14.464   4.296  1.00  0.00     0.293 HD
ENDBRANCH  15  18
BRANCH  17  20
ATOM     20  O   UNL     1     -16.310  17.305   5.913  1.00  0.00    -0.504 OA
ATOM     21  H   UNL     1     -17.133  17.640   5.427  1.00  0.00     0.293 HD
ENDBRANCH  17  20
ENDBRANCH   1  12
BRANCH   6  22
ATOM     22  O   UNL     1     -11.909  14.545  14.234  1.00  0.00    -0.507 OA
ATOM     23  H   UNL     1     -10.998  14.956  14.371  1.00  0.00     0.293 HD
ENDBRANCH   6  22
BRANCH   8  24
ATOM     24  O   UNL     1     -15.481  17.518  15.445  1.00  0.00    -0.508 OA
ATOM     25  H   UNL     1     -16.243  18.142  15.206  1.00  0.00     0.293 HD
ENDBRANCH   8  24
TORSDOF 5
ENDMDL
MODEL 7
REMARK VINA RESULT:    -2.039      4.600     10.467
REMARK INTER + INTRA:          -2.665
REMARK INTER:                  -2.400
REMARK INTRA:                  -0.265
REMARK UNBOUND:                -0.269
REMARK SMILES O=c1cc(-c2ccc(O)c(O)c2)oc2cc(O)cc(O)c12
REMARK SMILES IDX 4 1 3 2 2 3 1 4 21 5 19 6 18 7 16 8 15 9 14 10 13 11 5 12
REMARK SMILES IDX 6 13 7 14 8 15 12 16 10 17 9 18 11 20 20 22 17 24
REMARK H PARENT 9 19 11 21 20 23 17 25
REMARK Flexibility Score: inf
ROOT
ATOM      1  C   UNL     1     -13.328  15.596  17.979  1.00  0.00     0.138 A 
ATOM      2  C   UNL     1     -13.884  14.602  18.797  1.00  0.00     0.100 A 
ATOM      3  C   UNL     1     -13.972  14.810  20.173  1.00  0.00     0.197 A 
ATOM      4  O   UNL     1     -14.417  13.875  20.888  1.00  0.00    -0.289 OA
ATOM      5  C   UNL     1     -13.529  16.034  20.730  1.00  0.00     0.107 A 
ATOM      6  C   UNL     1     -13.608  16.373  22.113  1.00  0.00     0.134 A 
ATOM      7  C   UNL     1     -13.031  17.567  22.565  1.00  0.00     0.093 A 
ATOM      8  C   UNL     1     -12.433  18.461  21.674  1.00  0.00     0.123 A 
ATOM      9  C   UNL     1     -12.399  18.164  20.313  1.00  0.00     0.094 A 
ATOM     10  C   UNL     1     -12.935  16.965  19.836  1.00  0.00     0.146 A 
ATOM     11  O   UNL     1     -12.871  16.713  18.533  1.00  0.00    -0.456 OA
ENDROOT
BRANCH   1  12
ATOM     12  C   UNL     1     -13.213  15.427  16.508  1.00  0.00     0.021 A 
ATOM     13  C   UNL     1     -12.153  14.704  15.927  1.00  0.00     0.016 A 
ATOM     14  C   UNL     1     -12.075  14.553  14.541  1.00  0.00     0.051 A 
ATOM     15  C   UNL     1     -13.053  15.114  13.711  1.00  0.00     0.157 A 
ATOM     16  C   UNL     1     -14.199  15.976  15.669  1.00  0.00     0.062 A 
ATOM     17  C   UNL     1     -14.121  15.826  14.280  1.00  0.00     0.158 A 
BRANCH  15  18
ATOM     18  O   UNL     1     -12.971  14.962  12.328  1.00  0.00    -0.504 OA
ATOM     19  H   UNL     1     -13.615  15.433  11.703  1.00  0.00     0.293 HD
ENDBRANCH  15  18
BRANCH  17  20
ATOM     20  O   UNL     1     -15.115  16.393  13.482  1.00  0.00    -0.504 OA
ATOM     21  H   UNL     1     -15.604  17.239  13.751  1.00  0.00     0.293 HD
ENDBRANCH  17  20
ENDBRANCH   1  12
BRANCH   6  22
ATOM     22  O   UNL     1     -14.256  15.591  23.074  1.00  0.00    -0.507 OA
ATOM     23  H   UNL     1     -14.972  14.909  22.875  1.00  0.00     0.293 HD
ENDBRANCH   6  22
BRANCH   8  24
ATOM     24  O   UNL     1     -11.875  19.653  22.129  1.00  0.00    -0.508 OA
ATOM     25  H   UNL     1     -12.318  20.200  22.860  1.00  0.00     0.293 HD
ENDBRANCH   8  24
TORSDOF 5
ENDMDL
