MODEL 1
REMARK VINA RESULT:    -2.628      0.000      0.000
REMARK INTER + INTRA:          -2.628
REMARK INTER:                  -2.628
REMARK INTRA:                   0.000
REMARK UNBOUND:                 0.000
REMARK SMILES CC(=O)[O-]
REMARK SMILES IDX 1 1 2 2 3 3 4 4
REMARK H PARENT
REMARK Flexibility Score: inf
ROOT
ATOM      1  C   UNL     1      -2.764  12.506 -14.141  1.00  0.00     0.063 C 
ATOM      2  C   UNL     1      -3.559  11.716 -15.127  1.00  0.00     0.038 C 
ATOM      3  O   UNL     1      -4.749  11.399 -14.868  1.00  0.00    -0.550 OA
ATOM      4  O   UNL     1      -3.004  11.375 -16.353  1.00  0.00    -0.550 OA
ENDROOT
TORSDOF 0
ENDMDL
MODEL 2
REMARK VINA RESULT:    -2.573      1.367      2.243
REMARK INTER + INTRA:          -2.573
REMARK INTER:                  -2.573
REMARK INTRA:                   0.000
REMARK UNBOUND:                 0.000
REMARK SMILES CC(=O)[O-]
REMARK SMILES IDX 1 1 2 2 3 3 4 4
REMARK H PARENT
REMARK Flexibility Score: inf
ROOT
ATOM      1  C   UNL     1      -4.832  11.493 -15.903  1.00  0.00     0.063 C 
ATOM      2  C   UNL     1      -3.438  11.567 -15.377  1.00  0.00     0.038 C 
ATOM      3  O   UNL     1      -2.517  10.915 -15.935  1.00  0.00    -0.550 OA
ATOM      4  O   UNL     1      -3.143  12.398 -14.304  1.00  0.00    -0.550 OA
ENDROOT
TORSDOF 0
ENDMDL
MODEL 3
REMARK VINA RESULT:    -2.569     13.533     13.945
REMARK INTER + INTRA:          -2.569
REMARK INTER:                  -2.569
REMARK INTRA:                   0.000
REMARK UNBOUND:                 0.000
REMARK SMILES CC(=O)[O-]
REMARK SMILES IDX 1 1 2 2 3 3 4 4
REMARK H PARENT
REMARK Flexibility Score: inf
ROOT
ATOM      1  C   UNL     1     -15.927   5.959 -12.416  1.00  0.00     0.063 C 
ATOM      2  C   UNL     1     -15.237   4.665 -12.692  1.00  0.00     0.038 C 
ATOM      3  O   UNL     1     -15.834   3.754 -13.321  1.00  0.00    -0.550 OA
ATOM      4  O   UNL     1     -13.917   4.484 -12.301  1.00  0.00    -0.550 OA
ENDROOT
TORSDOF 0
ENDMDL
MODEL 4
REMARK VINA RESULT:    -2.527     13.488     13.922
REMARK INTER + INTRA:          -2.527
REMARK INTER:                  -2.527
REMARK INTRA:                   0.000
REMARK UNBOUND:                 0.000
REMARK SMILES CC(=O)[O-]
REMARK SMILES IDX 1 1 2 2 3 3 4 4
REMARK H PARENT
REMARK Flexibility Score: inf
ROOT
ATOM      1  C   UNL     1     -15.797   5.992 -12.301  1.00  0.00     0.063 C 
ATOM      2  C   UNL     1     -15.132   4.711 -12.678  1.00  0.00     0.038 C 
ATOM      3  O   UNL     1     -13.953   4.478 -12.304  1.00  0.00    -0.550 OA
ATOM      4  O   UNL     1     -15.831   3.750 -13.397  1.00  0.00    -0.550 OA
ENDROOT
TORSDOF 0
ENDMDL
MODEL 5
REMARK VINA RESULT:    -2.518     13.822     14.102
REMARK INTER + INTRA:          -2.518
REMARK INTER:                  -2.518
REMARK INTRA:                   0.000
REMARK UNBOUND:                 0.000
REMARK SMILES CC(=O)[O-]
REMARK SMILES IDX 1 1 2 2 3 3 4 4
REMARK H PARENT
REMARK Flexibility Score: inf
ROOT
ATOM      1  C   UNL     1     -15.686   4.329 -13.020  1.00  0.00     0.063 C 
ATOM      2  C   UNL     1     -15.731   5.638 -12.305  1.00  0.00     0.038 C 
ATOM      3  O   UNL     1     -16.464   6.566 -12.735  1.00  0.00    -0.550 OA
ATOM      4  O   UNL     1     -15.006   5.816 -11.135  1.00  0.00    -0.550 OA
ENDROOT
TORSDOF 0
ENDMDL
MODEL 6
REMARK VINA RESULT:    -2.411     14.822     15.476
REMARK INTER + INTRA:          -2.411
REMARK INTER:                  -2.411
REMARK INTRA:                   0.000
REMARK UNBOUND:                 0.000
REMARK SMILES CC(=O)[O-]
REMARK SMILES IDX 1 1 2 2 3 3 4 4
REMARK H PARENT
REMARK Flexibility Score: inf
ROOT
ATOM      1  C   UNL     1      -9.516  15.119  -2.502  1.00  0.00     0.063 C 
ATOM      2  C   UNL     1      -8.896  14.958  -1.155  1.00  0.00     0.038 C 
ATOM      3  O   UNL     1      -7.651  15.078  -1.015  1.00  0.00    -0.550 OA
ATOM      4  O   UNL     1      -9.697  14.729  -0.044  1.00  0.00    -0.550 OA
ENDROOT
TORSDOF 0
ENDMDL
MODEL 7
REMARK VINA RESULT:    -2.325     23.921     24.402
REMARK INTER + INTRA:          -2.325
REMARK INTER:                  -2.325
REMARK INTRA:                   0.000
REMARK UNBOUND:                 0.000
REMARK SMILES CC(=O)[O-]
REMARK SMILES IDX 1 1 2 2 3 3 4 4
REMARK H PARENT
REMARK Flexibility Score: inf
ROOT
ATOM      1  C   UNL     1     -16.175  -2.780   0.125  1.00  0.00     0.063 C 
ATOM      2  C   UNL     1     -17.336  -2.119  -0.539  1.00  0.00     0.038 C 
ATOM      3  O   UNL     1     -18.367  -1.839   0.125  1.00  0.00    -0.550 OA
ATOM      4  O   UNL     1     -17.259  -1.762  -1.879  1.00  0.00    -0.550 OA
ENDROOT
TORSDOF 0
ENDMDL
MODEL 8
REMARK VINA RESULT:    -2.318     18.236     18.394
REMARK INTER + INTRA:          -2.318
REMARK INTER:                  -2.318
REMARK INTRA:                   0.000
REMARK UNBOUND:                 0.000
REMARK SMILES CC(=O)[O-]
REMARK SMILES IDX 1 1 2 2 3 3 4 4
REMARK H PARENT
REMARK Flexibility Score: inf
ROOT
ATOM      1  C   UNL     1      -4.521  -5.125  -6.470  1.00  0.00     0.063 C 
ATOM      2  C   UNL     1      -4.139  -5.117  -7.912  1.00  0.00     0.038 C 
ATOM      3  O   UNL     1      -5.030  -5.123  -8.801  1.00  0.00    -0.550 OA
ATOM      4  O   UNL     1      -2.800  -5.049  -8.276  1.00  0.00    -0.550 OA
ENDROOT
TORSDOF 0
ENDMDL
MODEL 9
REMARK VINA RESULT:    -2.305     18.323     18.539
REMARK INTER + INTRA:          -2.305
REMARK INTER:                  -2.305
REMARK INTRA:                   0.000
REMARK UNBOUND:                 0.000
REMARK SMILES CC(=O)[O-]
REMARK SMILES IDX 1 1 2 2 3 3 4 4
REMARK H PARENT
REMARK Flexibility Score: inf
ROOT
ATOM      1  C   UNL     1      -4.731  -4.872  -6.889  1.00  0.00     0.063 C 
ATOM      2  C   UNL     1      -3.300  -4.602  -6.565  1.00  0.00     0.038 C 
ATOM      3  O   UNL     1      -2.953  -4.386  -5.375  1.00  0.00    -0.550 OA
ATOM      4  O   UNL     1      -2.340  -4.642  -7.568  1.00  0.00    -0.550 OA
ENDROOT
TORSDOF 0
ENDMDL
