MODEL 1
REMARK VINA RESULT:    -2.832      0.000      0.000
REMARK INTER + INTRA:          -4.110
REMARK INTER:                  -3.660
REMARK INTRA:                  -0.450
REMARK UNBOUND:                -0.450
REMARK SMILES CCCCCCC(=O)[O-]
REMARK SMILES IDX 5 1 6 2 7 3 8 4 9 5 4 6 3 7 2 8 1 9
REMARK H PARENT
REMARK Flexibility Score: inf
ROOT
ATOM      1  C   UNL     1      64.086  41.239  15.523  1.00  0.00     0.006 C 
ENDROOT
BRANCH   1   2
ATOM      2  C   UNL     1      64.498  40.767  16.920  1.00  0.00     0.053 C 
BRANCH   2   3
ATOM      3  C   UNL     1      63.847  41.609  17.971  1.00  0.00     0.041 C 
ATOM      4  O   UNL     1      62.608  41.519  18.178  1.00  0.00    -0.550 OA
ATOM      5  O   UNL     1      64.599  42.530  18.689  1.00  0.00    -0.550 OA
ENDBRANCH   2   3
ENDBRANCH   1   2
BRANCH   1   6
ATOM      6  C   UNL     1      64.768  42.569  15.168  1.00  0.00     0.000 C 
BRANCH   6   7
ATOM      7  C   UNL     1      63.763  43.675  14.812  1.00  0.00    -0.000 C 
BRANCH   7   8
ATOM      8  C   UNL     1      63.677  44.764  15.891  1.00  0.00    -0.003 C 
ATOM      9  C   UNL     1      62.306  44.764  16.564  1.00  0.00     0.004 C 
ENDBRANCH   7   8
ENDBRANCH   6   7
ENDBRANCH   1   6
TORSDOF 5
ENDMDL
MODEL 2
REMARK VINA RESULT:    -2.832      1.010      3.239
REMARK INTER + INTRA:          -4.109
REMARK INTER:                  -3.692
REMARK INTRA:                  -0.417
REMARK UNBOUND:                -0.450
REMARK SMILES CCCCCCC(=O)[O-]
REMARK SMILES IDX 5 1 6 2 7 3 8 4 9 5 4 6 3 7 2 8 1 9
REMARK H PARENT
REMARK Flexibility Score: inf
ROOT
ATOM      1  C   UNL     1      63.545  44.840  15.915  1.00  0.00     0.006 C 
ENDROOT
BRANCH   1   2
ATOM      2  C   UNL     1      62.235  44.655  16.686  1.00  0.00     0.053 C 
BRANCH   2   3
ATOM      3  C   UNL     1      62.464  43.846  17.923  1.00  0.00     0.041 C 
ATOM      4  O   UNL     1      63.460  44.079  18.657  1.00  0.00    -0.550 OA
ATOM      5  O   UNL     1      61.605  42.801  18.238  1.00  0.00    -0.550 OA
ENDBRANCH   2   3
ENDBRANCH   1   2
BRANCH   1   6
ATOM      6  C   UNL     1      63.723  43.737  14.861  1.00  0.00     0.000 C 
BRANCH   6   7
ATOM      7  C   UNL     1      64.737  42.666  15.289  1.00  0.00    -0.000 C 
BRANCH   7   8
ATOM      8  C   UNL     1      64.086  41.295  15.525  1.00  0.00    -0.003 C 
ATOM      9  C   UNL     1      64.342  40.804  16.948  1.00  0.00     0.004 C 
ENDBRANCH   7   8
ENDBRANCH   6   7
ENDBRANCH   1   6
TORSDOF 5
ENDMDL
MODEL 3
REMARK VINA RESULT:    -2.771      2.373      3.872
REMARK INTER + INTRA:          -4.031
REMARK INTER:                  -3.766
REMARK INTRA:                  -0.265
REMARK UNBOUND:                -0.450
REMARK SMILES CCCCCCC(=O)[O-]
REMARK SMILES IDX 5 1 6 2 7 3 8 4 9 5 4 6 3 7 2 8 1 9
REMARK H PARENT
REMARK Flexibility Score: inf
ROOT
ATOM      1  C   UNL     1      63.496  44.079  15.075  1.00  0.00     0.006 C 
ENDROOT
BRANCH   1   2
ATOM      2  C   UNL     1      62.660  44.426  16.310  1.00  0.00     0.053 C 
BRANCH   2   3
ATOM      3  C   UNL     1      62.858  45.859  16.691  1.00  0.00     0.041 C 
ATOM      4  O   UNL     1      62.097  46.401  17.536  1.00  0.00    -0.550 OA
ATOM      5  O   UNL     1      63.851  46.611  16.077  1.00  0.00    -0.550 OA
ENDBRANCH   2   3
ENDBRANCH   1   2
BRANCH   1   6
ATOM      6  C   UNL     1      64.590  43.058  15.421  1.00  0.00     0.000 C 
BRANCH   6   7
ATOM      7  C   UNL     1      64.167  41.612  15.121  1.00  0.00    -0.000 C 
BRANCH   7   8
ATOM      8  C   UNL     1      64.498  40.648  16.270  1.00  0.00    -0.003 C 
ATOM      9  C   UNL     1      63.628  40.930  17.492  1.00  0.00     0.004 C 
ENDBRANCH   7   8
ENDBRANCH   6   7
ENDBRANCH   1   6
TORSDOF 5
ENDMDL
MODEL 4
REMARK VINA RESULT:    -2.768     14.921     15.851
REMARK INTER + INTRA:          -4.027
REMARK INTER:                  -3.867
REMARK INTRA:                  -0.160
REMARK UNBOUND:                -0.450
REMARK SMILES CCCCCCC(=O)[O-]
REMARK SMILES IDX 5 1 6 2 7 3 8 4 9 5 4 6 3 7 2 8 1 9
REMARK H PARENT
REMARK Flexibility Score: inf
ROOT
ATOM      1  C   UNL     1      48.759  44.977  14.907  1.00  0.00     0.006 C 
ENDROOT
BRANCH   1   2
ATOM      2  C   UNL     1      48.547  43.462  14.978  1.00  0.00     0.053 C 
BRANCH   2   3
ATOM      3  C   UNL     1      47.189  43.098  14.468  1.00  0.00     0.041 C 
ATOM      4  O   UNL     1      46.263  43.951  14.468  1.00  0.00    -0.550 OA
ATOM      5  O   UNL     1      46.933  41.802  14.038  1.00  0.00    -0.550 OA
ENDBRANCH   2   3
ENDBRANCH   1   2
BRANCH   1   6
ATOM      6  C   UNL     1      50.153  45.312  14.355  1.00  0.00     0.000 C 
BRANCH   6   7
ATOM      7  C   UNL     1      50.362  46.819  14.148  1.00  0.00    -0.000 C 
BRANCH   7   8
ATOM      8  C   UNL     1      49.113  47.643  14.494  1.00  0.00    -0.003 C 
ATOM      9  C   UNL     1      49.120  48.984  13.764  1.00  0.00     0.004 C 
ENDBRANCH   7   8
ENDBRANCH   6   7
ENDBRANCH   1   6
TORSDOF 5
ENDMDL
MODEL 5
REMARK VINA RESULT:    -2.765      1.383      2.450
REMARK INTER + INTRA:          -4.024
REMARK INTER:                  -3.631
REMARK INTRA:                  -0.392
REMARK UNBOUND:                -0.450
REMARK SMILES CCCCCCC(=O)[O-]
REMARK SMILES IDX 5 1 6 2 7 3 8 4 9 5 4 6 3 7 2 8 1 9
REMARK H PARENT
REMARK Flexibility Score: inf
ROOT
ATOM      1  C   UNL     1      63.623  43.899  14.932  1.00  0.00     0.006 C 
ENDROOT
BRANCH   1   2
ATOM      2  C   UNL     1      64.724  42.843  15.067  1.00  0.00     0.053 C 
BRANCH   2   3
ATOM      3  C   UNL     1      64.323  41.790  16.050  1.00  0.00     0.041 C 
ATOM      4  O   UNL     1      63.983  40.645  15.648  1.00  0.00    -0.550 OA
ATOM      5  O   UNL     1      64.278  42.085  17.406  1.00  0.00    -0.550 OA
ENDBRANCH   2   3
ENDBRANCH   1   2
BRANCH   1   6
ATOM      6  C   UNL     1      64.011  45.195  15.658  1.00  0.00     0.000 C 
BRANCH   6   7
ATOM      7  C   UNL     1      63.100  45.499  16.857  1.00  0.00    -0.000 C 
BRANCH   7   8
ATOM      8  C   UNL     1      61.727  44.821  16.743  1.00  0.00    -0.003 C 
ATOM      9  C   UNL     1      61.406  44.016  18.000  1.00  0.00     0.004 C 
ENDBRANCH   7   8
ENDBRANCH   6   7
ENDBRANCH   1   6
TORSDOF 5
ENDMDL
MODEL 6
REMARK VINA RESULT:    -2.659     15.225     16.561
REMARK INTER + INTRA:          -3.886
REMARK INTER:                  -3.666
REMARK INTRA:                  -0.220
REMARK UNBOUND:                -0.450
REMARK SMILES CCCCCCC(=O)[O-]
REMARK SMILES IDX 5 1 6 2 7 3 8 4 9 5 4 6 3 7 2 8 1 9
REMARK H PARENT
REMARK Flexibility Score: inf
ROOT
ATOM      1  C   UNL     1      48.183  42.873  15.294  1.00  0.00     0.006 C 
ENDROOT
BRANCH   1   2
ATOM      2  C   UNL     1      47.120  42.508  14.254  1.00  0.00     0.053 C 
BRANCH   2   3
ATOM      3  C   UNL     1      45.756  42.531  14.867  1.00  0.00     0.041 C 
ATOM      4  O   UNL     1      45.232  43.626  15.206  1.00  0.00    -0.550 OA
ATOM      5  O   UNL     1      45.083  41.341  15.109  1.00  0.00    -0.550 OA
ENDBRANCH   2   3
ENDBRANCH   1   2
BRANCH   1   6
ATOM      6  C   UNL     1      49.032  44.062  14.820  1.00  0.00     0.000 C 
BRANCH   6   7
ATOM      7  C   UNL     1      48.300  45.406  14.959  1.00  0.00    -0.000 C 
BRANCH   7   8
ATOM      8  C   UNL     1      49.233  46.610  14.762  1.00  0.00    -0.003 C 
ATOM      9  C   UNL     1      50.523  46.197  14.059  1.00  0.00     0.004 C 
ENDBRANCH   7   8
ENDBRANCH   6   7
ENDBRANCH   1   6
TORSDOF 5
ENDMDL
MODEL 7
REMARK VINA RESULT:    -2.655     14.220     15.728
REMARK INTER + INTRA:          -3.880
REMARK INTER:                  -3.679
REMARK INTRA:                  -0.201
REMARK UNBOUND:                -0.450
REMARK SMILES CCCCCCC(=O)[O-]
REMARK SMILES IDX 5 1 6 2 7 3 8 4 9 5 4 6 3 7 2 8 1 9
REMARK H PARENT
REMARK Flexibility Score: inf
ROOT
ATOM      1  C   UNL     1      50.048  45.125  14.389  1.00  0.00     0.006 C 
ENDROOT
BRANCH   1   2
ATOM      2  C   UNL     1      49.577  46.562  14.636  1.00  0.00     0.053 C 
BRANCH   2   3
ATOM      3  C   UNL     1      50.326  47.517  13.761  1.00  0.00     0.041 C 
ATOM      4  O   UNL     1      49.819  48.629  13.458  1.00  0.00    -0.550 OA
ATOM      5  O   UNL     1      51.562  47.159  13.240  1.00  0.00    -0.550 OA
ENDBRANCH   2   3
ENDBRANCH   1   2
BRANCH   1   6
ATOM      6  C   UNL     1      48.987  44.113  14.843  1.00  0.00     0.000 C 
BRANCH   6   7
ATOM      7  C   UNL     1      47.584  44.730  14.943  1.00  0.00    -0.000 C 
BRANCH   7   8
ATOM      8  C   UNL     1      46.467  43.703  14.706  1.00  0.00    -0.003 C 
ATOM      9  C   UNL     1      47.015  42.436  14.054  1.00  0.00     0.004 C 
ENDBRANCH   7   8
ENDBRANCH   6   7
ENDBRANCH   1   6
TORSDOF 5
ENDMDL
MODEL 8
REMARK VINA RESULT:    -2.639     14.210     15.462
REMARK INTER + INTRA:          -3.860
REMARK INTER:                  -3.632
REMARK INTRA:                  -0.228
REMARK UNBOUND:                -0.450
REMARK SMILES CCCCCCC(=O)[O-]
REMARK SMILES IDX 5 1 6 2 7 3 8 4 9 5 4 6 3 7 2 8 1 9
REMARK H PARENT
REMARK Flexibility Score: inf
ROOT
ATOM      1  C   UNL     1      50.303  49.815  13.242  1.00  0.00     0.006 C 
ENDROOT
BRANCH   1   2
ATOM      2  C   UNL     1      50.274  49.935  11.715  1.00  0.00     0.053 C 
BRANCH   2   3
ATOM      3  C   UNL     1      51.521  49.362  11.120  1.00  0.00     0.041 C 
ATOM      4  O   UNL     1      51.699  49.391   9.873  1.00  0.00    -0.550 OA
ATOM      5  O   UNL     1      52.463  48.751  11.936  1.00  0.00    -0.550 OA
ENDBRANCH   2   3
ENDBRANCH   1   2
BRANCH   1   6
ATOM      6  C   UNL     1      49.213  48.853  13.738  1.00  0.00     0.000 C 
BRANCH   6   7
ATOM      7  C   UNL     1      49.761  47.774  14.684  1.00  0.00    -0.000 C 
BRANCH   7   8
ATOM      8  C   UNL     1      50.587  46.708  13.950  1.00  0.00    -0.003 C 
ATOM      9  C   UNL     1      50.130  45.301  14.329  1.00  0.00     0.004 C 
ENDBRANCH   7   8
ENDBRANCH   6   7
ENDBRANCH   1   6
TORSDOF 5
ENDMDL
MODEL 9
REMARK VINA RESULT:    -2.574     15.207     16.688
REMARK INTER + INTRA:          -3.776
REMARK INTER:                  -3.557
REMARK INTRA:                  -0.219
REMARK UNBOUND:                -0.450
REMARK SMILES CCCCCCC(=O)[O-]
REMARK SMILES IDX 5 1 6 2 7 3 8 4 9 5 4 6 3 7 2 8 1 9
REMARK H PARENT
REMARK Flexibility Score: inf
ROOT
ATOM      1  C   UNL     1      48.657  43.703  14.818  1.00  0.00     0.006 C 
ENDROOT
BRANCH   1   2
ATOM      2  C   UNL     1      48.308  45.152  15.167  1.00  0.00     0.053 C 
BRANCH   2   3
ATOM      3  C   UNL     1      49.300  46.092  14.559  1.00  0.00     0.041 C 
ATOM      4  O   UNL     1      50.393  45.656  14.110  1.00  0.00    -0.550 OA
ATOM      5  O   UNL     1      49.040  47.456  14.533  1.00  0.00    -0.550 OA
ENDBRANCH   2   3
ENDBRANCH   1   2
BRANCH   1   6
ATOM      6  C   UNL     1      47.396  42.906  14.452  1.00  0.00     0.000 C 
BRANCH   6   7
ATOM      7  C   UNL     1      46.100  43.651  14.808  1.00  0.00    -0.000 C 
BRANCH   7   8
ATOM      8  C   UNL     1      44.981  42.706  15.268  1.00  0.00    -0.003 C 
ATOM      9  C   UNL     1      45.430  41.248  15.199  1.00  0.00     0.004 C 
ENDBRANCH   7   8
ENDBRANCH   6   7
ENDBRANCH   1   6
TORSDOF 5
ENDMDL
