MODEL 1
REMARK VINA RESULT:    -5.996      0.000      0.000
REMARK INTER + INTRA:          -6.567
REMARK INTER:                  -6.346
REMARK INTRA:                  -0.221
REMARK UNBOUND:                -0.221
REMARK SMILES O=c1cc(-c2ccccc2)oc2ccccc12
REMARK SMILES IDX 4 1 3 2 2 3 1 4 17 5 16 6 15 7 14 8 13 9 12 10 11 11 5 12
REMARK SMILES IDX 8 13 7 14 9 15 6 16 10 17
REMARK H PARENT
REMARK Flexibility Score: inf
ROOT
ATOM      1  C   UNL     1      11.055  -5.955 -10.434  1.00  0.00     0.138 A 
ATOM      2  C   UNL     1       9.904  -5.572 -11.155  1.00  0.00     0.100 A 
ATOM      3  C   UNL     1       8.697  -5.388 -10.477  1.00  0.00     0.193 A 
ATOM      4  O   UNL     1       7.668  -5.046 -11.120  1.00  0.00    -0.289 OA
ATOM      5  C   UNL     1       8.646  -5.589  -9.090  1.00  0.00     0.065 A 
ATOM      6  C   UNL     1       7.463  -5.422  -8.347  1.00  0.00     0.016 A 
ATOM      7  C   UNL     1       7.469  -5.636  -6.965  1.00  0.00     0.001 A 
ATOM      8  C   UNL     1       8.647  -6.015  -6.317  1.00  0.00     0.004 A 
ATOM      9  C   UNL     1       9.827  -6.183  -7.048  1.00  0.00     0.048 A 
ATOM     10  C   UNL     1       9.833  -5.972  -8.430  1.00  0.00     0.138 A 
ATOM     11  O   UNL     1      10.960  -6.135  -9.116  1.00  0.00    -0.456 OA
ENDROOT
BRANCH   1  12
ATOM     12  C   UNL     1      12.385  -6.172 -11.083  1.00  0.00     0.017 A 
ATOM     13  C   UNL     1      14.867  -6.675 -12.328  1.00  0.00     0.000 A 
ATOM     14  C   UNL     1      13.890  -7.668 -12.294  1.00  0.00     0.001 A 
ATOM     15  C   UNL     1      14.617  -5.432 -11.746  1.00  0.00     0.001 A 
ATOM     16  C   UNL     1      12.660  -7.422 -11.677  1.00  0.00     0.012 A 
ATOM     17  C   UNL     1      13.389  -5.178 -11.127  1.00  0.00     0.012 A 
ENDBRANCH   1  12
TORSDOF 1
ENDMDL
MODEL 2
REMARK VINA RESULT:    -5.929     19.401     20.953
REMARK INTER + INTRA:          -6.497
REMARK INTER:                  -6.233
REMARK INTRA:                  -0.264
REMARK UNBOUND:                -0.221
REMARK SMILES O=c1cc(-c2ccccc2)oc2ccccc12
REMARK SMILES IDX 4 1 3 2 2 3 1 4 17 5 16 6 15 7 14 8 13 9 12 10 11 11 5 12
REMARK SMILES IDX 8 13 7 14 9 15 6 16 10 17
REMARK H PARENT
REMARK Flexibility Score: inf
ROOT
ATOM      1  C   UNL     1      20.175   9.018 -18.954  1.00  0.00     0.138 A 
ATOM      2  C   UNL     1      20.620   7.930 -19.735  1.00  0.00     0.100 A 
ATOM      3  C   UNL     1      21.980   7.617 -19.769  1.00  0.00     0.193 A 
ATOM      4  O   UNL     1      22.378   6.646 -20.466  1.00  0.00    -0.289 OA
ATOM      5  C   UNL     1      22.885   8.389 -19.026  1.00  0.00     0.065 A 
ATOM      6  C   UNL     1      24.268   8.129 -19.016  1.00  0.00     0.016 A 
ATOM      7  C   UNL     1      25.125   8.932 -18.258  1.00  0.00     0.001 A 
ATOM      8  C   UNL     1      24.615   9.993 -17.507  1.00  0.00     0.004 A 
ATOM      9  C   UNL     1      23.242  10.260 -17.511  1.00  0.00     0.048 A 
ATOM     10  C   UNL     1      22.374   9.464 -18.266  1.00  0.00     0.138 A 
ATOM     11  O   UNL     1      21.071   9.725 -18.264  1.00  0.00    -0.456 OA
ENDROOT
BRANCH   1  12
ATOM     12  C   UNL     1      18.737   9.420 -18.863  1.00  0.00     0.017 A 
ATOM     13  C   UNL     1      16.004  10.120 -18.770  1.00  0.00     0.000 A 
ATOM     14  C   UNL     1      16.465   9.235 -19.742  1.00  0.00     0.001 A 
ATOM     15  C   UNL     1      16.896  10.660 -17.842  1.00  0.00     0.001 A 
ATOM     16  C   UNL     1      17.818   8.887 -19.791  1.00  0.00     0.012 A 
ATOM     17  C   UNL     1      18.251  10.317 -17.884  1.00  0.00     0.012 A 
ENDBRANCH   1  12
TORSDOF 1
ENDMDL
MODEL 3
REMARK VINA RESULT:    -5.852     12.000     13.375
REMARK INTER + INTRA:          -6.415
REMARK INTER:                  -6.189
REMARK INTRA:                  -0.226
REMARK UNBOUND:                -0.221
REMARK SMILES O=c1cc(-c2ccccc2)oc2ccccc12
REMARK SMILES IDX 4 1 3 2 2 3 1 4 17 5 16 6 15 7 14 8 13 9 12 10 11 11 5 12
REMARK SMILES IDX 8 13 7 14 9 15 6 16 10 17
REMARK H PARENT
REMARK Flexibility Score: inf
ROOT
ATOM      1  C   UNL     1       8.585   3.895 -18.194  1.00  0.00     0.138 A 
ATOM      2  C   UNL     1       8.593   3.407 -16.870  1.00  0.00     0.100 A 
ATOM      3  C   UNL     1       7.668   2.432 -16.489  1.00  0.00     0.193 A 
ATOM      4  O   UNL     1       7.675   1.997 -15.306  1.00  0.00    -0.289 OA
ATOM      5  C   UNL     1       6.744   1.952 -17.428  1.00  0.00     0.065 A 
ATOM      6  C   UNL     1       5.786   0.972 -17.111  1.00  0.00     0.016 A 
ATOM      7  C   UNL     1       4.888   0.530 -18.087  1.00  0.00     0.001 A 
ATOM      8  C   UNL     1       4.938   1.057 -19.379  1.00  0.00     0.004 A 
ATOM      9  C   UNL     1       5.887   2.032 -19.704  1.00  0.00     0.048 A 
ATOM     10  C   UNL     1       6.790   2.482 -18.736  1.00  0.00     0.138 A 
ATOM     11  O   UNL     1       7.688   3.409 -19.054  1.00  0.00    -0.456 OA
ENDROOT
BRANCH   1  12
ATOM     12  C   UNL     1       9.539   4.937 -18.683  1.00  0.00     0.017 A 
ATOM     13  C   UNL     1      11.390   6.833 -19.657  1.00  0.00     0.000 A 
ATOM     14  C   UNL     1      11.494   5.496 -20.037  1.00  0.00     0.001 A 
ATOM     15  C   UNL     1      10.369   7.232 -18.793  1.00  0.00     0.001 A 
ATOM     16  C   UNL     1      10.580   4.555 -19.556  1.00  0.00     0.012 A 
ATOM     17  C   UNL     1       9.450   6.297 -18.308  1.00  0.00     0.012 A 
ENDBRANCH   1  12
TORSDOF 1
ENDMDL
MODEL 4
REMARK VINA RESULT:    -5.843      9.551     11.696
REMARK INTER + INTRA:          -6.405
REMARK INTER:                  -6.176
REMARK INTRA:                  -0.229
REMARK UNBOUND:                -0.221
REMARK SMILES O=c1cc(-c2ccccc2)oc2ccccc12
REMARK SMILES IDX 4 1 3 2 2 3 1 4 17 5 16 6 15 7 14 8 13 9 12 10 11 11 5 12
REMARK SMILES IDX 8 13 7 14 9 15 6 16 10 17
REMARK H PARENT
REMARK Flexibility Score: inf
ROOT
ATOM      1  C   UNL     1      20.931  -2.000  -7.140  1.00  0.00     0.138 A 
ATOM      2  C   UNL     1      19.707  -2.617  -7.476  1.00  0.00     0.100 A 
ATOM      3  C   UNL     1      18.609  -1.827  -7.822  1.00  0.00     0.193 A 
ATOM      4  O   UNL     1      17.516  -2.378  -8.122  1.00  0.00    -0.289 OA
ATOM      5  C   UNL     1      18.738  -0.431  -7.829  1.00  0.00     0.065 A 
ATOM      6  C   UNL     1      17.672   0.423  -8.167  1.00  0.00     0.016 A 
ATOM      7  C   UNL     1      17.856   1.809  -8.158  1.00  0.00     0.001 A 
ATOM      8  C   UNL     1      19.096   2.352  -7.814  1.00  0.00     0.004 A 
ATOM      9  C   UNL     1      20.161   1.510  -7.477  1.00  0.00     0.048 A 
ATOM     10  C   UNL     1      19.989   0.122  -7.482  1.00  0.00     0.138 A 
ATOM     11  O   UNL     1      21.007  -0.668  -7.160  1.00  0.00    -0.456 OA
ENDROOT
BRANCH   1  12
ATOM     12  C   UNL     1      22.153  -2.772  -6.758  1.00  0.00     0.017 A 
ATOM     13  C   UNL     1      24.415  -4.258  -5.954  1.00  0.00     0.000 A 
ATOM     14  C   UNL     1      23.272  -4.239  -5.157  1.00  0.00     0.001 A 
ATOM     15  C   UNL     1      24.439  -3.540  -7.151  1.00  0.00     0.001 A 
ATOM     16  C   UNL     1      22.151  -3.504  -5.552  1.00  0.00     0.012 A 
ATOM     17  C   UNL     1      23.322  -2.802  -7.553  1.00  0.00     0.012 A 
ENDBRANCH   1  12
TORSDOF 1
ENDMDL
MODEL 5
REMARK VINA RESULT:    -5.843      8.736     11.178
REMARK INTER + INTRA:          -6.405
REMARK INTER:                  -6.184
REMARK INTRA:                  -0.221
REMARK UNBOUND:                -0.221
REMARK SMILES O=c1cc(-c2ccccc2)oc2ccccc12
REMARK SMILES IDX 4 1 3 2 2 3 1 4 17 5 16 6 15 7 14 8 13 9 12 10 11 11 5 12
REMARK SMILES IDX 8 13 7 14 9 15 6 16 10 17
REMARK H PARENT
REMARK Flexibility Score: inf
ROOT
ATOM      1  C   UNL     1      20.852  -2.057  -7.257  1.00  0.00     0.138 A 
ATOM      2  C   UNL     1      20.646  -0.682  -7.012  1.00  0.00     0.100 A 
ATOM      3  C   UNL     1      19.485  -0.065  -7.482  1.00  0.00     0.193 A 
ATOM      4  O   UNL     1      19.300   1.163  -7.263  1.00  0.00    -0.289 OA
ATOM      5  C   UNL     1      18.540  -0.820  -8.192  1.00  0.00     0.065 A 
ATOM      6  C   UNL     1      17.351  -0.261  -8.694  1.00  0.00     0.016 A 
ATOM      7  C   UNL     1      16.444  -1.061  -9.396  1.00  0.00     0.001 A 
ATOM      8  C   UNL     1      16.713  -2.415  -9.602  1.00  0.00     0.004 A 
ATOM      9  C   UNL     1      17.893  -2.980  -9.107  1.00  0.00     0.048 A 
ATOM     10  C   UNL     1      18.808  -2.190  -8.403  1.00  0.00     0.138 A 
ATOM     11  O   UNL     1      19.926  -2.736  -7.937  1.00  0.00    -0.456 OA
ENDROOT
BRANCH   1  12
ATOM     12  C   UNL     1      22.066  -2.793  -6.788  1.00  0.00     0.017 A 
ATOM     13  C   UNL     1      24.405  -4.156  -5.988  1.00  0.00     0.000 A 
ATOM     14  C   UNL     1      24.379  -3.465  -7.198  1.00  0.00     0.001 A 
ATOM     15  C   UNL     1      23.272  -4.174  -5.173  1.00  0.00     0.001 A 
ATOM     16  C   UNL     1      23.222  -2.790  -7.598  1.00  0.00     0.012 A 
ATOM     17  C   UNL     1      22.111  -3.500  -5.565  1.00  0.00     0.012 A 
ENDBRANCH   1  12
TORSDOF 1
ENDMDL
MODEL 6
REMARK VINA RESULT:    -5.823     12.081     14.116
REMARK INTER + INTRA:          -6.385
REMARK INTER:                  -6.164
REMARK INTRA:                  -0.220
REMARK UNBOUND:                -0.221
REMARK SMILES O=c1cc(-c2ccccc2)oc2ccccc12
REMARK SMILES IDX 4 1 3 2 2 3 1 4 17 5 16 6 15 7 14 8 13 9 12 10 11 11 5 12
REMARK SMILES IDX 8 13 7 14 9 15 6 16 10 17
REMARK H PARENT
REMARK Flexibility Score: inf
ROOT
ATOM      1  C   UNL     1      10.059   3.818 -18.958  1.00  0.00     0.138 A 
ATOM      2  C   UNL     1      10.537   5.075 -19.387  1.00  0.00     0.100 A 
ATOM      3  C   UNL     1      11.838   5.464 -19.061  1.00  0.00     0.193 A 
ATOM      4  O   UNL     1      12.266   6.587 -19.443  1.00  0.00    -0.289 OA
ATOM      5  C   UNL     1      12.650   4.602 -18.311  1.00  0.00     0.065 A 
ATOM      6  C   UNL     1      13.968   4.932 -17.947  1.00  0.00     0.016 A 
ATOM      7  C   UNL     1      14.733   4.034 -17.197  1.00  0.00     0.001 A 
ATOM      8  C   UNL     1      14.194   2.806 -16.807  1.00  0.00     0.004 A 
ATOM      9  C   UNL     1      12.885   2.469 -17.163  1.00  0.00     0.048 A 
ATOM     10  C   UNL     1      12.110   3.360 -17.913  1.00  0.00     0.138 A 
ATOM     11  O   UNL     1      10.866   3.030 -18.246  1.00  0.00    -0.456 OA
ENDROOT
BRANCH   1  12
ATOM     12  C   UNL     1       8.681   3.325 -19.265  1.00  0.00     0.017 A 
ATOM     13  C   UNL     1       6.049   2.430 -19.754  1.00  0.00     0.000 A 
ATOM     14  C   UNL     1       6.350   3.097 -18.568  1.00  0.00     0.001 A 
ATOM     15  C   UNL     1       7.051   2.205 -20.699  1.00  0.00     0.001 A 
ATOM     16  C   UNL     1       7.652   3.541 -18.322  1.00  0.00     0.012 A 
ATOM     17  C   UNL     1       8.356   2.647 -20.462  1.00  0.00     0.012 A 
ENDBRANCH   1  12
TORSDOF 1
ENDMDL
MODEL 7
REMARK VINA RESULT:    -5.817      8.307     11.355
REMARK INTER + INTRA:          -6.378
REMARK INTER:                  -6.142
REMARK INTRA:                  -0.236
REMARK UNBOUND:                -0.221
REMARK SMILES O=c1cc(-c2ccccc2)oc2ccccc12
REMARK SMILES IDX 4 1 3 2 2 3 1 4 17 5 16 6 15 7 14 8 13 9 12 10 11 11 5 12
REMARK SMILES IDX 8 13 7 14 9 15 6 16 10 17
REMARK H PARENT
REMARK Flexibility Score: inf
ROOT
ATOM      1  C   UNL     1      18.746  -1.367 -16.877  1.00  0.00     0.138 A 
ATOM      2  C   UNL     1      18.286  -0.520 -15.847  1.00  0.00     0.100 A 
ATOM      3  C   UNL     1      17.588  -1.065 -14.767  1.00  0.00     0.193 A 
ATOM      4  O   UNL     1      17.177  -0.309 -13.846  1.00  0.00    -0.289 OA
ATOM      5  C   UNL     1      17.353  -2.447 -14.723  1.00  0.00     0.065 A 
ATOM      6  C   UNL     1      16.656  -3.060 -13.665  1.00  0.00     0.016 A 
ATOM      7  C   UNL     1      16.450  -4.443 -13.673  1.00  0.00     0.001 A 
ATOM      8  C   UNL     1      16.934  -5.221 -14.727  1.00  0.00     0.004 A 
ATOM      9  C   UNL     1      17.627  -4.620 -15.782  1.00  0.00     0.048 A 
ATOM     10  C   UNL     1      17.839  -3.237 -15.786  1.00  0.00     0.138 A 
ATOM     11  O   UNL     1      18.499  -2.676 -16.794  1.00  0.00    -0.456 OA
ENDROOT
BRANCH   1  12
ATOM     12  C   UNL     1      19.500  -0.865 -18.067  1.00  0.00     0.017 A 
ATOM     13  C   UNL     1      20.854   0.042 -20.372  1.00  0.00     0.000 A 
ATOM     14  C   UNL     1      19.657  -0.662 -20.497  1.00  0.00     0.001 A 
ATOM     15  C   UNL     1      21.381   0.297 -19.105  1.00  0.00     0.001 A 
ATOM     16  C   UNL     1      18.985  -1.113 -19.357  1.00  0.00     0.012 A 
ATOM     17  C   UNL     1      20.715  -0.151 -17.961  1.00  0.00     0.012 A 
ENDBRANCH   1  12
TORSDOF 1
ENDMDL
MODEL 8
REMARK VINA RESULT:    -5.797     12.517     14.445
REMARK INTER + INTRA:          -6.357
REMARK INTER:                  -6.136
REMARK INTRA:                  -0.221
REMARK UNBOUND:                -0.221
REMARK SMILES O=c1cc(-c2ccccc2)oc2ccccc12
REMARK SMILES IDX 4 1 3 2 2 3 1 4 17 5 16 6 15 7 14 8 13 9 12 10 11 11 5 12
REMARK SMILES IDX 8 13 7 14 9 15 6 16 10 17
REMARK H PARENT
REMARK Flexibility Score: inf
ROOT
ATOM      1  C   UNL     1       7.570   3.790 -18.355  1.00  0.00     0.138 A 
ATOM      2  C   UNL     1       7.133   5.056 -17.913  1.00  0.00     0.100 A 
ATOM      3  C   UNL     1       8.006   6.145 -17.968  1.00  0.00     0.193 A 
ATOM      4  O   UNL     1       7.616   7.276 -17.573  1.00  0.00    -0.289 OA
ATOM      5  C   UNL     1       9.306   5.963 -18.463  1.00  0.00     0.065 A 
ATOM      6  C   UNL     1      10.235   7.016 -18.545  1.00  0.00     0.016 A 
ATOM      7  C   UNL     1      11.519   6.778 -19.046  1.00  0.00     0.001 A 
ATOM      8  C   UNL     1      11.884   5.498 -19.467  1.00  0.00     0.004 A 
ATOM      9  C   UNL     1      10.966   4.445 -19.388  1.00  0.00     0.048 A 
ATOM     10  C   UNL     1       9.680   4.671 -18.888  1.00  0.00     0.138 A 
ATOM     11  O   UNL     1       8.815   3.663 -18.818  1.00  0.00    -0.456 OA
ENDROOT
BRANCH   1  12
ATOM     12  C   UNL     1       6.700   2.574 -18.330  1.00  0.00     0.017 A 
ATOM     13  C   UNL     1       5.037   0.294 -18.379  1.00  0.00     0.000 A 
ATOM     14  C   UNL     1       5.237   1.037 -19.541  1.00  0.00     0.001 A 
ATOM     15  C   UNL     1       5.660   0.679 -17.191  1.00  0.00     0.001 A 
ATOM     16  C   UNL     1       6.059   2.167 -19.520  1.00  0.00     0.012 A 
ATOM     17  C   UNL     1       6.484   1.808 -17.162  1.00  0.00     0.012 A 
ENDBRANCH   1  12
TORSDOF 1
ENDMDL
MODEL 9
REMARK VINA RESULT:    -5.609     18.504     20.748
REMARK INTER + INTRA:          -6.158
REMARK INTER:                  -5.913
REMARK INTRA:                  -0.245
REMARK UNBOUND:                -0.221
REMARK SMILES O=c1cc(-c2ccccc2)oc2ccccc12
REMARK SMILES IDX 4 1 3 2 2 3 1 4 17 5 16 6 15 7 14 8 13 9 12 10 11 11 5 12
REMARK SMILES IDX 8 13 7 14 9 15 6 16 10 17
REMARK H PARENT
REMARK Flexibility Score: inf
ROOT
ATOM      1  C   UNL     1      21.013   8.186 -18.894  1.00  0.00     0.138 A 
ATOM      2  C   UNL     1      22.067   8.686 -18.100  1.00  0.00     0.100 A 
ATOM      3  C   UNL     1      23.379   8.295 -18.370  1.00  0.00     0.193 A 
ATOM      4  O   UNL     1      24.321   8.741 -17.661  1.00  0.00    -0.289 OA
ATOM      5  C   UNL     1      23.632   7.409 -19.428  1.00  0.00     0.065 A 
ATOM      6  C   UNL     1      24.929   6.974 -19.753  1.00  0.00     0.016 A 
ATOM      7  C   UNL     1      25.123   6.088 -20.818  1.00  0.00     0.001 A 
ATOM      8  C   UNL     1      24.033   5.633 -21.563  1.00  0.00     0.004 A 
ATOM      9  C   UNL     1      22.739   6.060 -21.246  1.00  0.00     0.048 A 
ATOM     10  C   UNL     1      22.533   6.945 -20.183  1.00  0.00     0.138 A 
ATOM     11  O   UNL     1      21.300   7.345 -19.890  1.00  0.00    -0.456 OA
ENDROOT
BRANCH   1  12
ATOM     12  C   UNL     1      19.581   8.555 -18.672  1.00  0.00     0.017 A 
ATOM     13  C   UNL     1      16.868   9.266 -18.351  1.00  0.00     0.000 A 
ATOM     14  C   UNL     1      17.440   9.250 -19.622  1.00  0.00     0.001 A 
ATOM     15  C   UNL     1      17.639   8.930 -17.237  1.00  0.00     0.001 A 
ATOM     16  C   UNL     1      18.783   8.899 -19.784  1.00  0.00     0.012 A 
ATOM     17  C   UNL     1      18.983   8.577 -17.391  1.00  0.00     0.012 A 
ENDBRANCH   1  12
TORSDOF 1
ENDMDL
