MODEL 1
REMARK VINA RESULT:    -5.460      0.000      0.000
REMARK INTER + INTRA:          -9.194
REMARK INTER:                  -8.652
REMARK INTRA:                  -0.542
REMARK UNBOUND:                -0.542
REMARK SMILES C=CCCCCCCCCCCC
REMARK SMILES IDX 7 1 8 2 9 3 10 4 11 5 12 6 13 7 6 8 5 9 4 10 3 11 2 12 1 13
REMARK H PARENT
REMARK Flexibility Score: inf
ROOT
ATOM      1  C   UNL     1      15.899  29.971  23.910  1.00  0.00     0.000 C 
ENDROOT
BRANCH   1   2
ATOM      2  C   UNL     1      14.898  30.402  22.823  1.00  0.00     0.000 C 
BRANCH   2   3
ATOM      3  C   UNL     1      15.250  31.759  22.189  1.00  0.00    -0.000 C 
BRANCH   3   4
ATOM      4  C   UNL     1      14.120  32.306  21.302  1.00  0.00    -0.000 C 
BRANCH   4   5
ATOM      5  C   UNL     1      13.143  33.203  22.082  1.00  0.00    -0.000 C 
BRANCH   5   6
ATOM      6  C   UNL     1      11.724  32.616  22.140  1.00  0.00    -0.003 C 
ATOM      7  C   UNL     1      10.639  33.670  21.920  1.00  0.00     0.004 C 
ENDBRANCH   5   6
ENDBRANCH   4   5
ENDBRANCH   3   4
ENDBRANCH   2   3
ENDBRANCH   1   2
BRANCH   1   8
ATOM      8  C   UNL     1      17.037  30.973  24.180  1.00  0.00     0.000 C 
BRANCH   8   9
ATOM      9  C   UNL     1      18.324  30.295  24.684  1.00  0.00     0.000 C 
BRANCH   9  10
ATOM     10  C   UNL     1      18.603  30.580  26.174  1.00  0.00     0.004 C 
BRANCH  10  11
ATOM     11  C   UNL     1      19.112  29.355  26.954  1.00  0.00     0.027 C 
BRANCH  11  12
ATOM     12  C   UNL     1      18.851  28.056  26.244  1.00  0.00    -0.035 C 
ATOM     13  C   UNL     1      19.839  27.205  25.946  1.00  0.00     0.004 C 
ENDBRANCH  11  12
ENDBRANCH  10  11
ENDBRANCH   9  10
ENDBRANCH   8   9
ENDBRANCH   1   8
TORSDOF 10
ENDMDL
MODEL 2
REMARK VINA RESULT:    -5.437      0.827      1.534
REMARK INTER + INTRA:          -9.157
REMARK INTER:                  -8.379
REMARK INTRA:                  -0.778
REMARK UNBOUND:                -0.542
REMARK SMILES C=CCCCCCCCCCCC
REMARK SMILES IDX 7 1 8 2 9 3 10 4 11 5 12 6 13 7 6 8 5 9 4 10 3 11 2 12 1 13
REMARK H PARENT
REMARK Flexibility Score: inf
ROOT
ATOM      1  C   UNL     1      14.578  30.658  22.694  1.00  0.00     0.000 C 
ENDROOT
BRANCH   1   2
ATOM      2  C   UNL     1      15.130  31.127  21.336  1.00  0.00     0.000 C 
BRANCH   2   3
ATOM      3  C   UNL     1      14.929  32.633  21.096  1.00  0.00    -0.000 C 
BRANCH   3   4
ATOM      4  C   UNL     1      13.782  33.216  21.936  1.00  0.00    -0.000 C 
BRANCH   4   5
ATOM      5  C   UNL     1      12.521  33.491  21.098  1.00  0.00    -0.000 C 
BRANCH   5   6
ATOM      6  C   UNL     1      11.231  33.394  21.927  1.00  0.00    -0.003 C 
ATOM      7  C   UNL     1      11.396  32.532  23.178  1.00  0.00     0.004 C 
ENDBRANCH   5   6
ENDBRANCH   4   5
ENDBRANCH   3   4
ENDBRANCH   2   3
ENDBRANCH   1   2
BRANCH   1   8
ATOM      8  C   UNL     1      15.633  30.110  23.672  1.00  0.00     0.000 C 
BRANCH   8   9
ATOM      9  C   UNL     1      16.744  31.128  23.987  1.00  0.00     0.000 C 
BRANCH   9  10
ATOM     10  C   UNL     1      17.924  30.502  24.759  1.00  0.00     0.004 C 
BRANCH  10  11
ATOM     11  C   UNL     1      17.682  29.042  25.183  1.00  0.00     0.027 C 
BRANCH  11  12
ATOM     12  C   UNL     1      18.656  28.564  26.224  1.00  0.00    -0.035 C 
ATOM     13  C   UNL     1      19.510  27.564  25.984  1.00  0.00     0.004 C 
ENDBRANCH  11  12
ENDBRANCH  10  11
ENDBRANCH   9  10
ENDBRANCH   8   9
ENDBRANCH   1   8
TORSDOF 10
ENDMDL
MODEL 3
REMARK VINA RESULT:    -5.372      0.902      7.304
REMARK INTER + INTRA:          -9.055
REMARK INTER:                  -8.311
REMARK INTRA:                  -0.744
REMARK UNBOUND:                -0.542
REMARK SMILES C=CCCCCCCCCCCC
REMARK SMILES IDX 7 1 8 2 9 3 10 4 11 5 12 6 13 7 6 8 5 9 4 10 3 11 2 12 1 13
REMARK H PARENT
REMARK Flexibility Score: inf
ROOT
ATOM      1  C   UNL     1      14.896  30.649  22.536  1.00  0.00     0.000 C 
ENDROOT
BRANCH   1   2
ATOM      2  C   UNL     1      15.692  30.361  23.821  1.00  0.00     0.000 C 
BRANCH   2   3
ATOM      3  C   UNL     1      16.992  31.177  23.915  1.00  0.00    -0.000 C 
BRANCH   3   4
ATOM      4  C   UNL     1      18.108  30.427  24.659  1.00  0.00    -0.000 C 
BRANCH   4   5
ATOM      5  C   UNL     1      17.650  29.050  25.170  1.00  0.00    -0.000 C 
BRANCH   5   6
ATOM      6  C   UNL     1      18.796  28.246  25.802  1.00  0.00    -0.003 C 
ATOM      7  C   UNL     1      19.249  28.817  27.145  1.00  0.00     0.004 C 
ENDBRANCH   5   6
ENDBRANCH   4   5
ENDBRANCH   3   4
ENDBRANCH   2   3
ENDBRANCH   1   2
BRANCH   1   8
ATOM      8  C   UNL     1      15.326  31.916  21.773  1.00  0.00     0.000 C 
BRANCH   8   9
ATOM      9  C   UNL     1      14.393  33.114  22.027  1.00  0.00     0.000 C 
BRANCH   9  10
ATOM     10  C   UNL     1      13.279  33.235  20.968  1.00  0.00     0.004 C 
BRANCH  10  11
ATOM     11  C   UNL     1      11.870  33.397  21.566  1.00  0.00     0.027 C 
BRANCH  11  12
ATOM     12  C   UNL     1      11.518  32.310  22.544  1.00  0.00    -0.035 C 
ATOM     13  C   UNL     1      11.050  32.585  23.765  1.00  0.00     0.004 C 
ENDBRANCH  11  12
ENDBRANCH  10  11
ENDBRANCH   9  10
ENDBRANCH   8   9
ENDBRANCH   1   8
TORSDOF 10
ENDMDL
MODEL 4
REMARK VINA RESULT:    -5.350      1.142      7.297
REMARK INTER + INTRA:          -9.019
REMARK INTER:                  -8.258
REMARK INTRA:                  -0.761
REMARK UNBOUND:                -0.542
REMARK SMILES C=CCCCCCCCCCCC
REMARK SMILES IDX 7 1 8 2 9 3 10 4 11 5 12 6 13 7 6 8 5 9 4 10 3 11 2 12 1 13
REMARK H PARENT
REMARK Flexibility Score: inf
ROOT
ATOM      1  C   UNL     1      15.572  30.185  23.878  1.00  0.00     0.000 C 
ENDROOT
BRANCH   1   2
ATOM      2  C   UNL     1      16.620  31.276  23.595  1.00  0.00     0.000 C 
BRANCH   2   3
ATOM      3  C   UNL     1      18.013  30.925  24.145  1.00  0.00    -0.000 C 
BRANCH   3   4
ATOM      4  C   UNL     1      17.971  29.777  25.166  1.00  0.00    -0.000 C 
BRANCH   4   5
ATOM      5  C   UNL     1      18.750  30.105  26.452  1.00  0.00    -0.000 C 
BRANCH   5   6
ATOM      6  C   UNL     1      19.405  28.864  27.076  1.00  0.00    -0.003 C 
ATOM      7  C   UNL     1      19.440  27.671  26.122  1.00  0.00     0.004 C 
ENDBRANCH   5   6
ENDBRANCH   4   5
ENDBRANCH   3   4
ENDBRANCH   2   3
ENDBRANCH   1   2
BRANCH   1   8
ATOM      8  C   UNL     1      15.042  29.452  22.633  1.00  0.00     0.000 C 
BRANCH   8   9
ATOM      9  C   UNL     1      14.587  30.413  21.520  1.00  0.00     0.000 C 
BRANCH   9  10
ATOM     10  C   UNL     1      13.069  30.682  21.550  1.00  0.00     0.004 C 
BRANCH  10  11
ATOM     11  C   UNL     1      12.679  31.947  22.336  1.00  0.00     0.027 C 
BRANCH  11  12
ATOM     12  C   UNL     1      13.239  33.207  21.737  1.00  0.00    -0.035 C 
ATOM     13  C   UNL     1      12.937  33.591  20.492  1.00  0.00     0.004 C 
ENDBRANCH  11  12
ENDBRANCH  10  11
ENDBRANCH   9  10
ENDBRANCH   8   9
ENDBRANCH   1   8
TORSDOF 10
ENDMDL
MODEL 5
REMARK VINA RESULT:    -5.190      2.079      7.023
REMARK INTER + INTRA:          -8.767
REMARK INTER:                  -8.299
REMARK INTRA:                  -0.467
REMARK UNBOUND:                -0.542
REMARK SMILES C=CCCCCCCCCCCC
REMARK SMILES IDX 7 1 8 2 9 3 10 4 11 5 12 6 13 7 6 8 5 9 4 10 3 11 2 12 1 13
REMARK H PARENT
REMARK Flexibility Score: inf
ROOT
ATOM      1  C   UNL     1      16.423  31.351  23.801  1.00  0.00     0.000 C 
ENDROOT
BRANCH   1   2
ATOM      2  C   UNL     1      17.713  30.650  24.264  1.00  0.00     0.000 C 
BRANCH   2   3
ATOM      3  C   UNL     1      17.445  29.316  24.982  1.00  0.00    -0.000 C 
BRANCH   3   4
ATOM      4  C   UNL     1      18.727  28.681  25.542  1.00  0.00    -0.000 C 
BRANCH   4   5
ATOM      5  C   UNL     1      18.680  28.514  27.071  1.00  0.00    -0.000 C 
BRANCH   5   6
ATOM      6  C   UNL     1      19.622  29.485  27.798  1.00  0.00    -0.003 C 
ATOM      7  C   UNL     1      19.394  30.942  27.398  1.00  0.00     0.004 C 
ENDBRANCH   5   6
ENDBRANCH   4   5
ENDBRANCH   3   4
ENDBRANCH   2   3
ENDBRANCH   1   2
BRANCH   1   8
ATOM      8  C   UNL     1      15.344  30.415  23.226  1.00  0.00     0.000 C 
BRANCH   8   9
ATOM      9  C   UNL     1      14.637  31.003  21.991  1.00  0.00     0.000 C 
BRANCH   9  10
ATOM     10  C   UNL     1      14.069  29.915  21.056  1.00  0.00     0.004 C 
BRANCH  10  11
ATOM     11  C   UNL     1      14.284  28.481  21.572  1.00  0.00     0.027 C 
BRANCH  11  12
ATOM     12  C   UNL     1      13.162  27.550  21.202  1.00  0.00    -0.035 C 
ATOM     13  C   UNL     1      13.203  26.803  20.094  1.00  0.00     0.004 C 
ENDBRANCH  11  12
ENDBRANCH  10  11
ENDBRANCH   9  10
ENDBRANCH   8   9
ENDBRANCH   1   8
TORSDOF 10
ENDMDL
MODEL 6
REMARK VINA RESULT:    -5.159      2.040      3.207
REMARK INTER + INTRA:          -8.717
REMARK INTER:                  -7.956
REMARK INTRA:                  -0.761
REMARK UNBOUND:                -0.542
REMARK SMILES C=CCCCCCCCCCCC
REMARK SMILES IDX 7 1 8 2 9 3 10 4 11 5 12 6 13 7 6 8 5 9 4 10 3 11 2 12 1 13
REMARK H PARENT
REMARK Flexibility Score: inf
ROOT
ATOM      1  C   UNL     1      14.912  30.250  23.096  1.00  0.00     0.000 C 
ENDROOT
BRANCH   1   2
ATOM      2  C   UNL     1      15.274  31.417  22.160  1.00  0.00     0.000 C 
BRANCH   2   3
ATOM      3  C   UNL     1      14.872  31.159  20.698  1.00  0.00    -0.000 C 
BRANCH   3   4
ATOM      4  C   UNL     1      13.733  30.135  20.571  1.00  0.00    -0.000 C 
BRANCH   4   5
ATOM      5  C   UNL     1      14.148  28.889  19.770  1.00  0.00    -0.000 C 
BRANCH   5   6
ATOM      6  C   UNL     1      14.132  27.610  20.621  1.00  0.00    -0.003 C 
ATOM      7  C   UNL     1      12.729  27.232  21.094  1.00  0.00     0.004 C 
ENDBRANCH   5   6
ENDBRANCH   4   5
ENDBRANCH   3   4
ENDBRANCH   2   3
ENDBRANCH   1   2
BRANCH   1   8
ATOM      8  C   UNL     1      16.017  29.844  24.087  1.00  0.00     0.000 C 
BRANCH   8   9
ATOM      9  C   UNL     1      17.113  30.915  24.235  1.00  0.00     0.000 C 
BRANCH   9  10
ATOM     10  C   UNL     1      18.339  30.408  25.022  1.00  0.00     0.004 C 
BRANCH  10  11
ATOM     11  C   UNL     1      18.198  28.959  25.522  1.00  0.00     0.027 C 
BRANCH  11  12
ATOM     12  C   UNL     1      19.157  28.624  26.631  1.00  0.00    -0.035 C 
ATOM     13  C   UNL     1      19.423  29.487  27.616  1.00  0.00     0.004 C 
ENDBRANCH  11  12
ENDBRANCH  10  11
ENDBRANCH   9  10
ENDBRANCH   8   9
ENDBRANCH   1   8
TORSDOF 10
ENDMDL
MODEL 7
REMARK VINA RESULT:    -5.091      1.206      2.572
REMARK INTER + INTRA:          -8.609
REMARK INTER:                  -8.099
REMARK INTRA:                  -0.510
REMARK UNBOUND:                -0.542
REMARK SMILES C=CCCCCCCCCCCC
REMARK SMILES IDX 7 1 8 2 9 3 10 4 11 5 12 6 13 7 6 8 5 9 4 10 3 11 2 12 1 13
REMARK H PARENT
REMARK Flexibility Score: inf
ROOT
ATOM      1  C   UNL     1      15.464  31.648  22.109  1.00  0.00     0.000 C 
ENDROOT
BRANCH   1   2
ATOM      2  C   UNL     1      14.368  32.623  21.643  1.00  0.00     0.000 C 
BRANCH   2   3
ATOM      3  C   UNL     1      12.949  32.126  21.963  1.00  0.00    -0.000 C 
BRANCH   3   4
ATOM      4  C   UNL     1      12.059  33.227  22.560  1.00  0.00    -0.000 C 
BRANCH   4   5
ATOM      5  C   UNL     1      11.028  32.673  23.560  1.00  0.00    -0.000 C 
BRANCH   5   6
ATOM      6  C   UNL     1      10.029  33.741  24.028  1.00  0.00    -0.003 C 
ATOM      7  C   UNL     1       9.294  34.412  22.867  1.00  0.00     0.004 C 
ENDBRANCH   5   6
ENDBRANCH   4   5
ENDBRANCH   3   4
ENDBRANCH   2   3
ENDBRANCH   1   2
BRANCH   1   8
ATOM      8  C   UNL     1      14.949  30.310  22.670  1.00  0.00     0.000 C 
BRANCH   8   9
ATOM      9  C   UNL     1      15.644  29.904  23.983  1.00  0.00     0.000 C 
BRANCH   9  10
ATOM     10  C   UNL     1      16.879  30.771  24.296  1.00  0.00     0.004 C 
BRANCH  10  11
ATOM     11  C   UNL     1      18.072  29.973  24.853  1.00  0.00     0.027 C 
BRANCH  11  12
ATOM     12  C   UNL     1      18.688  30.609  26.068  1.00  0.00    -0.035 C 
ATOM     13  C   UNL     1      19.067  29.886  27.127  1.00  0.00     0.004 C 
ENDBRANCH  11  12
ENDBRANCH  10  11
ENDBRANCH   9  10
ENDBRANCH   8   9
ENDBRANCH   1   8
TORSDOF 10
ENDMDL
MODEL 8
REMARK VINA RESULT:    -5.036      1.470      2.610
REMARK INTER + INTRA:          -8.522
REMARK INTER:                  -7.858
REMARK INTRA:                  -0.663
REMARK UNBOUND:                -0.542
REMARK SMILES C=CCCCCCCCCCCC
REMARK SMILES IDX 7 1 8 2 9 3 10 4 11 5 12 6 13 7 6 8 5 9 4 10 3 11 2 12 1 13
REMARK H PARENT
REMARK Flexibility Score: inf
ROOT
ATOM      1  C   UNL     1      15.468  29.934  23.393  1.00  0.00     0.000 C 
ENDROOT
BRANCH   1   2
ATOM      2  C   UNL     1      14.606  30.279  22.165  1.00  0.00     0.000 C 
BRANCH   2   3
ATOM      3  C   UNL     1      13.538  31.345  22.464  1.00  0.00    -0.000 C 
BRANCH   3   4
ATOM      4  C   UNL     1      13.836  32.687  21.776  1.00  0.00    -0.000 C 
BRANCH   4   5
ATOM      5  C   UNL     1      14.615  32.513  20.461  1.00  0.00    -0.000 C 
BRANCH   5   6
ATOM      6  C   UNL     1      15.570  33.683  20.184  1.00  0.00    -0.003 C 
ATOM      7  C   UNL     1      15.926  33.819  18.704  1.00  0.00     0.004 C 
ENDBRANCH   5   6
ENDBRANCH   4   5
ENDBRANCH   3   4
ENDBRANCH   2   3
ENDBRANCH   1   2
BRANCH   1   8
ATOM      8  C   UNL     1      16.443  31.041  23.835  1.00  0.00     0.000 C 
BRANCH   8   9
ATOM      9  C   UNL     1      17.644  30.499  24.632  1.00  0.00     0.000 C 
BRANCH   9  10
ATOM     10  C   UNL     1      17.514  28.997  24.956  1.00  0.00     0.004 C 
BRANCH  10  11
ATOM     11  C   UNL     1      18.374  28.544  26.150  1.00  0.00     0.027 C 
BRANCH  11  12
ATOM     12  C   UNL     1      18.955  29.693  26.926  1.00  0.00    -0.035 C 
ATOM     13  C   UNL     1      19.758  29.500  27.977  1.00  0.00     0.004 C 
ENDBRANCH  11  12
ENDBRANCH  10  11
ENDBRANCH   9  10
ENDBRANCH   8   9
ENDBRANCH   1   8
TORSDOF 10
ENDMDL
MODEL 9
REMARK VINA RESULT:    -5.005      1.690      2.522
REMARK INTER + INTRA:          -8.472
REMARK INTER:                  -7.913
REMARK INTRA:                  -0.560
REMARK UNBOUND:                -0.542
REMARK SMILES C=CCCCCCCCCCCC
REMARK SMILES IDX 7 1 8 2 9 3 10 4 11 5 12 6 13 7 6 8 5 9 4 10 3 11 2 12 1 13
REMARK H PARENT
REMARK Flexibility Score: inf
ROOT
ATOM      1  C   UNL     1      14.894  30.303  23.140  1.00  0.00     0.000 C 
ENDROOT
BRANCH   1   2
ATOM      2  C   UNL     1      15.257  31.248  21.980  1.00  0.00     0.000 C 
BRANCH   2   3
ATOM      3  C   UNL     1      14.452  32.558  22.001  1.00  0.00    -0.000 C 
BRANCH   3   4
ATOM      4  C   UNL     1      14.883  33.533  20.894  1.00  0.00    -0.000 C 
BRANCH   4   5
ATOM      5  C   UNL     1      13.842  33.636  19.765  1.00  0.00    -0.000 C 
BRANCH   5   6
ATOM      6  C   UNL     1      14.205  34.709  18.727  1.00  0.00    -0.003 C 
ATOM      7  C   UNL     1      15.652  35.185  18.849  1.00  0.00     0.004 C 
ENDBRANCH   5   6
ENDBRANCH   4   5
ENDBRANCH   3   4
ENDBRANCH   2   3
ENDBRANCH   1   2
BRANCH   1   8
ATOM      8  C   UNL     1      16.082  29.852  24.009  1.00  0.00     0.000 C 
BRANCH   8   9
ATOM      9  C   UNL     1      17.116  30.969  24.236  1.00  0.00     0.000 C 
BRANCH   9  10
ATOM     10  C   UNL     1      18.482  30.429  24.706  1.00  0.00     0.004 C 
BRANCH  10  11
ATOM     11  C   UNL     1      18.643  30.398  26.236  1.00  0.00     0.027 C 
BRANCH  11  12
ATOM     12  C   UNL     1      18.722  29.002  26.790  1.00  0.00    -0.035 C 
ATOM     13  C   UNL     1      19.033  27.954  26.020  1.00  0.00     0.004 C 
ENDBRANCH  11  12
ENDBRANCH  10  11
ENDBRANCH   9  10
ENDBRANCH   8   9
ENDBRANCH   1   8
TORSDOF 10
ENDMDL
