MODEL 1
REMARK VINA RESULT:    -3.298      0.000      0.000
REMARK INTER + INTRA:          -5.451
REMARK INTER:                  -4.841
REMARK INTRA:                  -0.611
REMARK UNBOUND:                -0.611
REMARK SMILES C=C1C=C[C@H](C(C)C)CCC(C)=CCC1
REMARK SMILES IDX 3 1 4 2 5 3 9 4 10 5 11 6 12 7 13 8 6 10 7 11 8 12 2 13 1 14
REMARK SMILES IDX 15 15 14 16
REMARK H PARENT
REMARK Flexibility Score: 70.00
ROOT
ATOM      1  C   UNL     1       2.269  13.888  16.137  1.00  0.00    -0.001 C 
ATOM      2  C   UNL     1       2.311  13.798  14.799  1.00  0.00    -0.023 C 
ENDROOT
BRANCH   2   3
ATOM      3  C   UNL     1       1.107  13.708  13.885  1.00  0.00     0.014 C 
BRANCH   3   4
ATOM      4  C   UNL     1       0.972  15.010  13.059  1.00  0.00     0.012 C 
BRANCH   4   5
ATOM      5  C   UNL     1       1.627  16.231  13.733  1.00  0.00     0.031 C 
BRANCH   5   6
ATOM      6  C   UNL     1       0.602  17.199  14.299  1.00  0.00    -0.077 C 
ATOM      7  C   UNL     1      -0.221  18.005  13.327  1.00  0.00     0.039 C 
ATOM      8  C   UNL     1       0.362  17.370  15.622  1.00  0.00    -0.028 CG0
ATOM      9  G   UNL     1       1.003  16.608  16.761  1.00  0.00     0.000 G0
ENDBRANCH   5   6
ENDBRANCH   4   5
ENDBRANCH   3   4
BRANCH   3  10
ATOM     10  C   UNL     1       1.197  12.420  13.010  1.00  0.00    -0.010 C 
ATOM     11  C   UNL     1       1.003  11.118  13.804  1.00  0.00     0.008 C 
ATOM     12  C   UNL     1       2.507  12.362  12.208  1.00  0.00     0.008 C 
ENDBRANCH   3  10
ENDBRANCH   2   3
BRANCH   1  13
ATOM     13  C   UNL     1       1.042  14.018  16.957  1.00  0.00    -0.055 C 
ATOM     14  C   UNL     1       0.652  12.953  17.664  1.00  0.00     0.012 C 
BRANCH  13  15
ATOM     15  C   UNL     1       0.230  15.299  17.062  1.00  0.00     0.039 C 
BRANCH  15  16
ATOM     16  C   UNL     1       1.008  16.602  16.758  1.00  0.00     0.032 CG0
ATOM     17  G   UNL     1       0.368  17.366  15.621  1.00  0.00     0.000 G0
ENDBRANCH  15  16
ENDBRANCH  13  15
ENDBRANCH   1  13
TORSDOF 1
ENDMDL
MODEL 2
REMARK VINA RESULT:    -3.261      1.627      4.291
REMARK INTER + INTRA:          -5.396
REMARK INTER:                  -4.866
REMARK INTRA:                  -0.531
REMARK UNBOUND:                -0.611
REMARK SMILES C=C1C=C[C@H](C(C)C)CCC(C)=CCC1
REMARK SMILES IDX 3 1 4 2 5 3 9 4 10 5 11 6 12 7 13 8 6 10 7 11 8 12 2 13 1 14
REMARK SMILES IDX 15 15 14 16
REMARK H PARENT
REMARK Flexibility Score: 70.00
ROOT
ATOM      1  C   UNL     1       1.359  16.719  16.270  1.00  0.00    -0.001 C 
ATOM      2  C   UNL     1       1.524  15.462  16.708  1.00  0.00    -0.023 C 
ENDROOT
BRANCH   2   3
ATOM      3  C   UNL     1       0.782  14.247  16.191  1.00  0.00     0.014 C 
BRANCH   3   4
ATOM      4  C   UNL     1       1.792  13.186  15.690  1.00  0.00     0.012 C 
BRANCH   4   5
ATOM      5  C   UNL     1       2.960  13.787  14.885  1.00  0.00     0.031 C 
BRANCH   5   6
ATOM      6  C   UNL     1       2.653  13.879  13.401  1.00  0.00    -0.077 C 
ATOM      7  C   UNL     1       2.634  12.600  12.602  1.00  0.00     0.039 C 
ATOM      8  C   UNL     1       2.373  15.034  12.749  1.00  0.00    -0.028 CG0
ATOM      9  G   UNL     1       2.251  16.410  13.364  1.00  0.00     0.000 G0
ENDBRANCH   5   6
ENDBRANCH   4   5
ENDBRANCH   3   4
BRANCH   3  10
ATOM     10  C   UNL     1      -0.194  13.713  17.283  1.00  0.00    -0.010 C 
ATOM     11  C   UNL     1      -0.809  14.818  18.158  1.00  0.00     0.008 C 
ATOM     12  C   UNL     1       0.465  12.642  18.168  1.00  0.00     0.008 C 
ENDBRANCH   3  10
ENDBRANCH   2   3
BRANCH   1  13
ATOM     13  C   UNL     1       0.502  17.136  15.136  1.00  0.00    -0.055 C 
ATOM     14  C   UNL     1      -0.545  17.921  15.404  1.00  0.00     0.012 C 
BRANCH  13  15
ATOM     15  C   UNL     1       0.770  16.747  13.690  1.00  0.00     0.039 C 
BRANCH  15  16
ATOM     16  C   UNL     1       2.245  16.415  13.356  1.00  0.00     0.032 CG0
ATOM     17  G   UNL     1       2.369  15.030  12.760  1.00  0.00     0.000 G0
ENDBRANCH  15  16
ENDBRANCH  13  15
ENDBRANCH   1  13
TORSDOF 1
ENDMDL
MODEL 3
REMARK VINA RESULT:    -3.219      1.905      3.971
REMARK INTER + INTRA:          -5.335
REMARK INTER:                  -4.820
REMARK INTRA:                  -0.515
REMARK UNBOUND:                -0.611
REMARK SMILES C=C1C=C[C@H](C(C)C)CCC(C)=CCC1
REMARK SMILES IDX 3 1 4 2 5 3 9 4 10 5 11 6 12 7 13 8 6 10 7 11 8 12 2 13 1 14
REMARK SMILES IDX 15 15 14 16
REMARK H PARENT
REMARK Flexibility Score: 70.00
ROOT
ATOM      1  C   UNL     1       2.078  12.953  13.979  1.00  0.00    -0.001 C 
ATOM      2  C   UNL     1       1.490  13.319  15.127  1.00  0.00    -0.023 C 
ENDROOT
BRANCH   2   3
ATOM      3  C   UNL     1       1.659  14.660  15.813  1.00  0.00     0.014 C 
BRANCH   3   4
ATOM      4  C   UNL     1       0.524  15.620  15.382  1.00  0.00     0.012 C 
BRANCH   4   5
ATOM      5  C   UNL     1       1.037  16.948  14.795  1.00  0.00     0.031 C 
BRANCH   5   6
ATOM      6  C   UNL     1       0.500  17.210  13.399  1.00  0.00    -0.077 C 
ATOM      7  C   UNL     1      -0.814  17.938  13.271  1.00  0.00     0.039 C 
ATOM      8  C   UNL     1       1.137  16.853  12.256  1.00  0.00    -0.028 CG0
ATOM      9  G   UNL     1       2.496  16.199  12.147  1.00  0.00     0.000 G0
ENDBRANCH   5   6
ENDBRANCH   4   5
ENDBRANCH   3   4
BRANCH   3  10
ATOM     10  C   UNL     1       1.757  14.461  17.356  1.00  0.00    -0.010 C 
ATOM     11  C   UNL     1       0.544  13.739  17.966  1.00  0.00     0.008 C 
ATOM     12  C   UNL     1       2.008  15.788  18.091  1.00  0.00     0.008 C 
ENDBRANCH   3  10
ENDBRANCH   2   3
BRANCH   1  13
ATOM     13  C   UNL     1       2.915  13.821  13.119  1.00  0.00    -0.055 C 
ATOM     14  C   UNL     1       4.231  13.838  13.347  1.00  0.00     0.012 C 
BRANCH  13  15
ATOM     15  C   UNL     1       2.362  14.660  11.977  1.00  0.00     0.039 C 
BRANCH  15  16
ATOM     16  C   UNL     1       2.502  16.192  12.153  1.00  0.00     0.032 CG0
ATOM     17  G   UNL     1       1.146  16.856  12.243  1.00  0.00     0.000 G0
ENDBRANCH  15  16
ENDBRANCH  13  15
ENDBRANCH   1  13
TORSDOF 1
ENDMDL
MODEL 4
REMARK VINA RESULT:    -3.133      1.413      2.714
REMARK INTER + INTRA:          -5.210
REMARK INTER:                  -4.804
REMARK INTRA:                  -0.405
REMARK UNBOUND:                -0.611
REMARK SMILES C=C1C=C[C@H](C(C)C)CCC(C)=CCC1
REMARK SMILES IDX 3 1 4 2 5 3 9 4 10 5 11 6 12 7 13 8 6 10 7 11 8 12 2 13 1 14
REMARK SMILES IDX 15 15 14 16
REMARK H PARENT
REMARK Flexibility Score: 70.00
ROOT
ATOM      1  C   UNL     1       2.104  15.624  17.671  1.00  0.00    -0.001 C 
ATOM      2  C   UNL     1       2.178  14.449  17.029  1.00  0.00    -0.023 C 
ENDROOT
BRANCH   2   3
ATOM      3  C   UNL     1       1.566  14.145  15.677  1.00  0.00     0.014 C 
BRANCH   3   4
ATOM      4  C   UNL     1       2.618  14.357  14.562  1.00  0.00     0.012 C 
BRANCH   4   5
ATOM      5  C   UNL     1       2.271  15.516  13.608  1.00  0.00     0.031 C 
BRANCH   5   6
ATOM      6  C   UNL     1       0.784  15.599  13.315  1.00  0.00    -0.077 C 
ATOM      7  C   UNL     1       0.195  14.601  12.351  1.00  0.00     0.039 C 
ATOM      8  C   UNL     1      -0.057  16.500  13.882  1.00  0.00    -0.028 CG0
ATOM      9  G   UNL     1       0.298  17.527  14.933  1.00  0.00     0.000 G0
ENDBRANCH   5   6
ENDBRANCH   4   5
ENDBRANCH   3   4
BRANCH   3  10
ATOM     10  C   UNL     1       0.943  12.715  15.683  1.00  0.00    -0.010 C 
ATOM     11  C   UNL     1       1.304  11.876  14.447  1.00  0.00     0.008 C 
ATOM     12  C   UNL     1      -0.583  12.756  15.869  1.00  0.00     0.008 C 
ENDBRANCH   3  10
ENDBRANCH   2   3
BRANCH   1  13
ATOM     13  C   UNL     1       1.502  16.867  17.133  1.00  0.00    -0.055 C 
ATOM     14  C   UNL     1       2.173  18.009  17.312  1.00  0.00     0.012 C 
BRANCH  13  15
ATOM     15  C   UNL     1       0.191  16.905  16.365  1.00  0.00     0.039 C 
BRANCH  15  16
ATOM     16  C   UNL     1       0.269  17.530  14.951  1.00  0.00     0.032 CG0
ATOM     17  G   UNL     1      -0.065  16.510  13.885  1.00  0.00     0.000 G0
ENDBRANCH  15  16
ENDBRANCH  13  15
ENDBRANCH   1  13
TORSDOF 1
ENDMDL
MODEL 5
REMARK VINA RESULT:    -3.125      1.688      4.304
REMARK INTER + INTRA:          -5.197
REMARK INTER:                  -4.545
REMARK INTRA:                  -0.652
REMARK UNBOUND:                -0.611
REMARK SMILES C=C1C=C[C@H](C(C)C)CCC(C)=CCC1
REMARK SMILES IDX 3 1 4 2 5 3 9 4 10 5 11 6 12 7 13 8 6 10 7 11 8 12 2 13 1 14
REMARK SMILES IDX 15 15 14 16
REMARK H PARENT
REMARK Flexibility Score: 70.00
ROOT
ATOM      1  C   UNL     1      -0.379  15.978  16.508  1.00  0.00    -0.001 C 
ATOM      2  C   UNL     1      -0.621  16.066  15.192  1.00  0.00    -0.023 C 
ENDROOT
BRANCH   2   3
ATOM      3  C   UNL     1       0.433  16.102  14.104  1.00  0.00     0.014 C 
BRANCH   3   4
ATOM      4  C   UNL     1       0.253  14.895  13.154  1.00  0.00     0.012 C 
BRANCH   4   5
ATOM      5  C   UNL     1       1.389  13.860  13.259  1.00  0.00     0.031 C 
BRANCH   5   6
ATOM      6  C   UNL     1       1.074  12.751  14.247  1.00  0.00    -0.077 C 
ATOM      7  C   UNL     1       0.295  11.560  13.748  1.00  0.00     0.039 C 
ATOM      8  C   UNL     1       1.467  12.749  15.544  1.00  0.00    -0.028 CG0
ATOM      9  G   UNL     1       2.325  13.790  16.228  1.00  0.00     0.000 G0
ENDBRANCH   5   6
ENDBRANCH   4   5
ENDBRANCH   3   4
BRANCH   3  10
ATOM     10  C   UNL     1       0.400  17.481  13.377  1.00  0.00    -0.010 C 
ATOM     11  C   UNL     1       1.721  18.262  13.468  1.00  0.00     0.008 C 
ATOM     12  C   UNL     1      -0.768  18.357  13.860  1.00  0.00     0.008 C 
ENDBRANCH   3  10
ENDBRANCH   2   3
BRANCH   1  13
ATOM     13  C   UNL     1       0.953  15.799  17.134  1.00  0.00    -0.055 C 
ATOM     14  C   UNL     1       1.625  16.898  17.488  1.00  0.00     0.012 C 
BRANCH  13  15
ATOM     15  C   UNL     1       1.572  14.441  17.421  1.00  0.00     0.039 C 
BRANCH  15  16
ATOM     16  C   UNL     1       2.319  13.788  16.233  1.00  0.00     0.032 CG0
ATOM     17  G   UNL     1       1.454  12.753  15.549  1.00  0.00     0.000 G0
ENDBRANCH  15  16
ENDBRANCH  13  15
ENDBRANCH   1  13
TORSDOF 1
ENDMDL
MODEL 6
REMARK VINA RESULT:    -2.954      1.434      2.594
REMARK INTER + INTRA:          -4.947
REMARK INTER:                  -4.645
REMARK INTRA:                  -0.302
REMARK UNBOUND:                -0.611
REMARK SMILES C=C1C=C[C@H](C(C)C)CCC(C)=CCC1
REMARK SMILES IDX 3 1 4 2 5 3 9 4 10 5 11 6 12 7 13 8 6 10 7 11 8 12 2 13 1 14
REMARK SMILES IDX 15 15 14 16
REMARK H PARENT
REMARK Flexibility Score: 70.00
ROOT
ATOM      1  C   UNL     1       2.538  13.326  15.662  1.00  0.00    -0.001 C 
ATOM      2  C   UNL     1       2.903  14.227  14.738  1.00  0.00    -0.023 C 
ENDROOT
BRANCH   2   3
ATOM      3  C   UNL     1       1.967  14.933  13.779  1.00  0.00     0.014 C 
BRANCH   3   4
ATOM      4  C   UNL     1       1.719  16.384  14.255  1.00  0.00     0.012 C 
BRANCH   4   5
ATOM      5  C   UNL     1       0.539  16.512  15.236  1.00  0.00     0.031 C 
BRANCH   5   6
ATOM      6  C   UNL     1       0.994  16.584  16.683  1.00  0.00    -0.077 C 
ATOM      7  C   UNL     1       1.866  17.743  17.094  1.00  0.00     0.039 C 
ATOM      8  C   UNL     1       0.648  15.686  17.638  1.00  0.00    -0.028 CG0
ATOM      9  G   UNL     1      -0.283  14.505  17.472  1.00  0.00     0.000 G0
ENDBRANCH   5   6
ENDBRANCH   4   5
ENDBRANCH   3   4
BRANCH   3  10
ATOM     10  C   UNL     1       2.524  14.838  12.325  1.00  0.00    -0.010 C 
ATOM     11  C   UNL     1       3.344  13.566  12.057  1.00  0.00     0.008 C 
ATOM     12  C   UNL     1       3.338  16.085  11.941  1.00  0.00     0.008 C 
ENDBRANCH   3  10
ENDBRANCH   2   3
BRANCH   1  13
ATOM     13  C   UNL     1       1.146  12.931  15.983  1.00  0.00    -0.055 C 
ATOM     14  C   UNL     1       0.442  12.310  15.032  1.00  0.00     0.012 C 
BRANCH  13  15
ATOM     15  C   UNL     1       0.495  13.163  17.337  1.00  0.00     0.039 C 
BRANCH  15  16
ATOM     16  C   UNL     1      -0.283  14.494  17.479  1.00  0.00     0.032 CG0
ATOM     17  G   UNL     1       0.662  15.662  17.648  1.00  0.00     0.000 G0
ENDBRANCH  15  16
ENDBRANCH  13  15
ENDBRANCH   1  13
TORSDOF 1
ENDMDL
MODEL 7
REMARK VINA RESULT:    -2.929      1.294      3.509
REMARK INTER + INTRA:          -4.909
REMARK INTER:                  -4.252
REMARK INTRA:                  -0.657
REMARK UNBOUND:                -0.611
REMARK SMILES C=C1C=C[C@H](C(C)C)CCC(C)=CCC1
REMARK SMILES IDX 3 1 4 2 5 3 9 4 10 5 11 6 12 7 13 8 6 10 7 11 8 12 2 13 1 14
REMARK SMILES IDX 15 15 14 16
REMARK H PARENT
REMARK Flexibility Score: 70.00
ROOT
ATOM      1  C   UNL     1      -0.729  15.664  13.964  1.00  0.00    -0.001 C 
ATOM      2  C   UNL     1      -0.516  14.341  13.901  1.00  0.00    -0.023 C 
ENDROOT
BRANCH   2   3
ATOM      3  C   UNL     1       0.719  13.623  14.405  1.00  0.00     0.014 C 
BRANCH   3   4
ATOM      4  C   UNL     1       0.333  12.636  15.532  1.00  0.00     0.012 C 
BRANCH   4   5
ATOM      5  C   UNL     1       0.883  13.040  16.913  1.00  0.00     0.031 C 
BRANCH   5   6
ATOM      6  C   UNL     1      -0.127  13.825  17.732  1.00  0.00    -0.077 C 
ATOM      7  C   UNL     1      -1.114  13.052  18.568  1.00  0.00     0.039 C 
ATOM      8  C   UNL     1      -0.185  15.179  17.778  1.00  0.00    -0.028 CG0
ATOM      9  G   UNL     1       0.756  16.146  17.095  1.00  0.00     0.000 G0
ENDBRANCH   5   6
ENDBRANCH   4   5
ENDBRANCH   3   4
BRANCH   3  10
ATOM     10  C   UNL     1       1.467  12.951  13.214  1.00  0.00    -0.010 C 
ATOM     11  C   UNL     1       1.446  11.414  13.257  1.00  0.00     0.008 C 
ATOM     12  C   UNL     1       2.913  13.457  13.086  1.00  0.00     0.008 C 
ENDBRANCH   3  10
ENDBRANCH   2   3
BRANCH   1  13
ATOM     13  C   UNL     1       0.155  16.651  14.627  1.00  0.00    -0.055 C 
ATOM     14  C   UNL     1       1.099  17.237  13.883  1.00  0.00     0.012 C 
BRANCH  13  15
ATOM     15  C   UNL     1       0.021  17.056  16.086  1.00  0.00     0.039 C 
BRANCH  15  16
ATOM     16  C   UNL     1       0.771  16.153  17.095  1.00  0.00     0.032 CG0
ATOM     17  G   UNL     1      -0.176  15.184  17.768  1.00  0.00     0.000 G0
ENDBRANCH  15  16
ENDBRANCH  13  15
ENDBRANCH   1  13
TORSDOF 1
ENDMDL
MODEL 8
REMARK VINA RESULT:    -2.866      1.213      3.527
REMARK INTER + INTRA:          -4.817
REMARK INTER:                  -4.542
REMARK INTRA:                  -0.275
REMARK UNBOUND:                -0.611
REMARK SMILES C=C1C=C[C@H](C(C)C)CCC(C)=CCC1
REMARK SMILES IDX 3 1 4 2 5 3 9 4 10 5 11 6 12 7 13 8 6 10 7 11 8 12 2 13 1 14
REMARK SMILES IDX 15 15 14 16
REMARK H PARENT
REMARK Flexibility Score: 70.00
ROOT
ATOM      1  C   UNL     1       0.290  15.991  12.577  1.00  0.00    -0.001 C 
ATOM      2  C   UNL     1       0.613  14.784  13.064  1.00  0.00    -0.023 C 
ENDROOT
BRANCH   2   3
ATOM      3  C   UNL     1       1.063  14.499  14.482  1.00  0.00     0.014 C 
BRANCH   3   4
ATOM      4  C   UNL     1      -0.164  14.186  15.372  1.00  0.00     0.012 C 
BRANCH   4   5
ATOM      5  C   UNL     1      -0.367  15.203  16.511  1.00  0.00     0.031 C 
BRANCH   5   6
ATOM      6  C   UNL     1       0.947  15.750  17.040  1.00  0.00    -0.077 C 
ATOM      7  C   UNL     1       1.765  14.870  17.951  1.00  0.00     0.039 C 
ATOM      8  C   UNL     1       1.447  16.972  16.729  1.00  0.00    -0.028 CG0
ATOM      9  G   UNL     1       0.843  17.976  15.772  1.00  0.00     0.000 G0
ENDBRANCH   5   6
ENDBRANCH   4   5
ENDBRANCH   3   4
BRANCH   3  10
ATOM     10  C   UNL     1       2.140  13.371  14.482  1.00  0.00    -0.010 C 
ATOM     11  C   UNL     1       3.293  13.614  13.495  1.00  0.00     0.008 C 
ATOM     12  C   UNL     1       1.519  11.985  14.241  1.00  0.00     0.008 C 
ENDBRANCH   3  10
ENDBRANCH   2   3
BRANCH   1  13
ATOM     13  C   UNL     1       0.216  17.248  13.358  1.00  0.00    -0.055 C 
ATOM     14  C   UNL     1      -0.888  17.991  13.235  1.00  0.00     0.012 C 
BRANCH  13  15
ATOM     15  C   UNL     1       1.306  17.714  14.310  1.00  0.00     0.039 C 
BRANCH  15  16
ATOM     16  C   UNL     1       0.848  17.973  15.766  1.00  0.00     0.032 CG0
ATOM     17  G   UNL     1       1.455  16.965  16.715  1.00  0.00     0.000 G0
ENDBRANCH  15  16
ENDBRANCH  13  15
ENDBRANCH   1  13
TORSDOF 1
ENDMDL
MODEL 9
REMARK VINA RESULT:    -2.848      1.964      4.025
REMARK INTER + INTRA:          -4.791
REMARK INTER:                  -4.388
REMARK INTRA:                  -0.403
REMARK UNBOUND:                -0.611
REMARK SMILES C=C1C=C[C@H](C(C)C)CCC(C)=CCC1
REMARK SMILES IDX 3 1 4 2 5 3 9 4 10 5 11 6 12 7 13 8 6 10 7 11 8 12 2 13 1 14
REMARK SMILES IDX 15 15 14 16
REMARK H PARENT
REMARK Flexibility Score: 70.00
ROOT
ATOM      1  C   UNL     1       1.823  16.149  16.885  1.00  0.00    -0.001 C 
ATOM      2  C   UNL     1       1.185  16.974  16.041  1.00  0.00    -0.023 C 
ENDROOT
BRANCH   2   3
ATOM      3  C   UNL     1       0.579  16.576  14.711  1.00  0.00     0.014 C 
BRANCH   3   4
ATOM      4  C   UNL     1      -0.854  16.033  14.926  1.00  0.00     0.012 C 
BRANCH   4   5
ATOM      5  C   UNL     1      -0.941  14.496  14.861  1.00  0.00     0.031 C 
BRANCH   5   6
ATOM      6  C   UNL     1      -0.233  13.927  13.644  1.00  0.00    -0.077 C 
ATOM      7  C   UNL     1      -0.802  14.240  12.283  1.00  0.00     0.039 C 
ATOM      8  C   UNL     1       0.892  13.172  13.699  1.00  0.00    -0.028 CG0
ATOM      9  G   UNL     1       1.678  12.812  14.940  1.00  0.00     0.000 G0
ENDBRANCH   5   6
ENDBRANCH   4   5
ENDBRANCH   3   4
BRANCH   3  10
ATOM     10  C   UNL     1       0.651  17.771  13.713  1.00  0.00    -0.010 C 
ATOM     11  C   UNL     1      -0.694  18.107  13.049  1.00  0.00     0.008 C 
ATOM     12  C   UNL     1       1.733  17.559  12.641  1.00  0.00     0.008 C 
ENDBRANCH   3  10
ENDBRANCH   2   3
BRANCH   1  13
ATOM     13  C   UNL     1       1.962  14.683  16.722  1.00  0.00    -0.055 C 
ATOM     14  C   UNL     1       1.555  13.905  17.730  1.00  0.00     0.012 C 
BRANCH  13  15
ATOM     15  C   UNL     1       2.506  14.023  15.465  1.00  0.00     0.039 C 
BRANCH  15  16
ATOM     16  C   UNL     1       1.694  12.811  14.949  1.00  0.00     0.032 CG0
ATOM     17  G   UNL     1       0.899  13.174  13.714  1.00  0.00     0.000 G0
ENDBRANCH  15  16
ENDBRANCH  13  15
ENDBRANCH   1  13
TORSDOF 1
ENDMDL
