MODEL 1
REMARK VINA RESULT:    34.571      0.000      0.000
REMARK INTER + INTRA:          37.602
REMARK INTER:                  37.602
REMARK INTRA:                   0.000
REMARK UNBOUND:                 0.000
REMARK SMILES Cc1cc(O)c2c(c1)C(=O)c1cc(O)cc(O)c1C2=O
REMARK SMILES IDX 1 1 2 2 8 3 7 4 6 5 4 6 3 7 19 8 20 9 18 10 11 11 9 12 10 13
REMARK SMILES IDX 12 14 13 15 15 16 16 17 5 18 17 20 14 22
REMARK H PARENT 5 19 17 21 14 23
REMARK Flexibility Score: inf
ROOT
ATOM      1  C   UNL     1       1.138   1.481  -5.662  1.00  0.00     0.044 C 
ATOM      2  C   UNL     1       1.243   0.673  -6.922  1.00  0.00    -0.047 A 
ATOM      3  C   UNL     1       0.143  -0.059  -7.384  1.00  0.00     0.016 A 
ATOM      4  C   UNL     1       0.220  -0.792  -8.582  1.00  0.00     0.038 A 
ATOM      5  C   UNL     1       1.411  -0.774  -9.338  1.00  0.00     0.076 A 
ATOM      6  C   UNL     1       2.515  -0.022  -8.875  1.00  0.00     0.127 A 
ATOM      7  C   UNL     1       2.420   0.699  -7.678  1.00  0.00     0.050 A 
ATOM      8  C   UNL     1       1.462  -1.522 -10.623  1.00  0.00     0.201 C 
ATOM      9  O   UNL     1       2.350  -1.238 -11.470  1.00  0.00    -0.288 OA
ATOM     10  C   UNL     1       0.405  -2.518 -10.952  1.00  0.00     0.076 A 
ATOM     11  C   UNL     1      -0.806  -2.477 -10.223  1.00  0.00     0.041 A 
ATOM     12  C   UNL     1      -0.942  -1.576  -9.054  1.00  0.00     0.194 C 
ATOM     13  O   UNL     1      -2.047  -1.490  -8.449  1.00  0.00    -0.289 OA
ATOM     14  C   UNL     1      -1.880  -3.303 -10.602  1.00  0.00     0.059 A 
ATOM     15  C   UNL     1      -1.757  -4.175 -11.685  1.00  0.00     0.120 A 
ATOM     16  C   UNL     1      -0.551  -4.253 -12.377  1.00  0.00     0.093 A 
ATOM     17  C   UNL     1       0.542  -3.464 -12.004  1.00  0.00     0.131 A 
ENDROOT
BRANCH   6  18
ATOM     18  O   UNL     1       3.710   0.004  -9.596  1.00  0.00    -0.507 OA
ATOM     19  H   UNL     1       4.146   0.876  -9.873  1.00  0.00     0.293 HD
ENDBRANCH   6  18
BRANCH  17  20
ATOM     20  O   UNL     1       1.745  -3.682 -12.681  1.00  0.00    -0.507 OA
ATOM     21  H   UNL     1       1.813  -4.180 -13.557  1.00  0.00     0.293 HD
ENDBRANCH  17  20
BRANCH  15  22
ATOM     22  O   UNL     1      -2.825  -4.981 -12.074  1.00  0.00    -0.508 OA
ATOM     23  H   UNL     1      -2.882  -5.955 -11.798  1.00  0.00     0.293 HD
ENDBRANCH  15  22
TORSDOF 3
ENDMDL
MODEL 2
REMARK VINA RESULT:    35.487      1.211      6.281
REMARK INTER + INTRA:          38.599
REMARK INTER:                  38.599
REMARK INTRA:                   0.000
REMARK UNBOUND:                 0.000
REMARK SMILES Cc1cc(O)c2c(c1)C(=O)c1cc(O)cc(O)c1C2=O
REMARK SMILES IDX 1 1 2 2 8 3 7 4 6 5 4 6 3 7 19 8 20 9 18 10 11 11 9 12 10 13
REMARK SMILES IDX 12 14 13 15 15 16 16 17 5 18 17 20 14 22
REMARK H PARENT 5 19 17 21 14 23
REMARK Flexibility Score: inf
ROOT
ATOM      1  C   UNL     1      -1.117  -5.529 -13.350  1.00  0.00     0.044 C 
ATOM      2  C   UNL     1      -0.975  -4.523 -12.245  1.00  0.00    -0.047 A 
ATOM      3  C   UNL     1       0.181  -3.739 -12.151  1.00  0.00     0.016 A 
ATOM      4  C   UNL     1       0.310  -2.770 -11.141  1.00  0.00     0.038 A 
ATOM      5  C   UNL     1      -0.743  -2.569 -10.224  1.00  0.00     0.076 A 
ATOM      6  C   UNL     1      -1.914  -3.355 -10.330  1.00  0.00     0.127 A 
ATOM      7  C   UNL     1      -2.022  -4.318 -11.342  1.00  0.00     0.050 A 
ATOM      8  C   UNL     1      -0.606  -1.513  -9.186  1.00  0.00     0.201 C 
ATOM      9  O   UNL     1      -1.636  -1.076  -8.606  1.00  0.00    -0.288 OA
ATOM     10  C   UNL     1       0.722  -0.896  -8.916  1.00  0.00     0.076 A 
ATOM     11  C   UNL     1       1.745  -1.056  -9.879  1.00  0.00     0.041 A 
ATOM     12  C   UNL     1       1.542  -1.956 -11.039  1.00  0.00     0.194 C 
ATOM     13  O   UNL     1       2.429  -2.042 -11.933  1.00  0.00    -0.289 OA
ATOM     14  C   UNL     1       2.963  -0.368  -9.729  1.00  0.00     0.059 A 
ATOM     15  C   UNL     1       3.177   0.463  -8.627  1.00  0.00     0.120 A 
ATOM     16  C   UNL     1       2.191   0.587  -7.651  1.00  0.00     0.093 A 
ATOM     17  C   UNL     1       0.982  -0.107  -7.762  1.00  0.00     0.131 A 
ENDROOT
BRANCH   6  18
ATOM     18  O   UNL     1      -2.967  -3.188  -9.429  1.00  0.00    -0.507 OA
ATOM     19  H   UNL     1      -3.407  -3.978  -8.971  1.00  0.00     0.293 HD
ENDBRANCH   6  18
BRANCH  17  20
ATOM     20  O   UNL     1       0.093  -0.012  -6.688  1.00  0.00    -0.507 OA
ATOM     21  H   UNL     1       0.106  -0.635  -5.893  1.00  0.00     0.293 HD
ENDBRANCH  17  20
BRANCH  15  22
ATOM     22  O   UNL     1       4.376   1.160  -8.485  1.00  0.00    -0.508 OA
ATOM     23  H   UNL     1       4.734   1.754  -9.224  1.00  0.00     0.293 HD
ENDBRANCH  15  22
TORSDOF 3
ENDMDL
MODEL 3
REMARK VINA RESULT:    36.737      1.323      5.522
REMARK INTER + INTRA:          39.959
REMARK INTER:                  39.959
REMARK INTRA:                   0.000
REMARK UNBOUND:                 0.000
REMARK SMILES Cc1cc(O)c2c(c1)C(=O)c1cc(O)cc(O)c1C2=O
REMARK SMILES IDX 1 1 2 2 8 3 7 4 6 5 4 6 3 7 19 8 20 9 18 10 11 11 9 12 10 13
REMARK SMILES IDX 12 14 13 15 15 16 16 17 5 18 17 20 14 22
REMARK H PARENT 5 19 17 21 14 23
REMARK Flexibility Score: inf
ROOT
ATOM      1  C   UNL     1      -3.175  -5.332 -12.499  1.00  0.00     0.044 C 
ATOM      2  C   UNL     1      -1.985  -4.505 -12.109  1.00  0.00    -0.047 A 
ATOM      3  C   UNL     1      -2.019  -3.725 -10.948  1.00  0.00     0.016 A 
ATOM      4  C   UNL     1      -0.898  -2.973 -10.555  1.00  0.00     0.038 A 
ATOM      5  C   UNL     1       0.282  -3.019 -11.327  1.00  0.00     0.076 A 
ATOM      6  C   UNL     1       0.317  -3.818 -12.493  1.00  0.00     0.127 A 
ATOM      7  C   UNL     1      -0.812  -4.559 -12.869  1.00  0.00     0.050 A 
ATOM      8  C   UNL     1       1.471  -2.249 -10.876  1.00  0.00     0.201 C 
ATOM      9  O   UNL     1       2.610  -2.548 -11.324  1.00  0.00    -0.288 OA
ATOM     10  C   UNL     1       1.333  -1.209  -9.818  1.00  0.00     0.076 A 
ATOM     11  C   UNL     1       0.170  -1.220  -9.014  1.00  0.00     0.041 A 
ATOM     12  C   UNL     1      -0.948  -2.139  -9.334  1.00  0.00     0.194 C 
ATOM     13  O   UNL     1      -1.955  -2.196  -8.574  1.00  0.00    -0.289 OA
ATOM     14  C   UNL     1       0.071  -0.350  -7.913  1.00  0.00     0.059 A 
ATOM     15  C   UNL     1       1.107   0.538  -7.615  1.00  0.00     0.120 A 
ATOM     16  C   UNL     1       2.234   0.586  -8.433  1.00  0.00     0.093 A 
ATOM     17  C   UNL     1       2.346  -0.249  -9.549  1.00  0.00     0.131 A 
ENDROOT
BRANCH   6  18
ATOM     18  O   UNL     1       1.466  -3.874 -13.283  1.00  0.00    -0.507 OA
ATOM     19  H   UNL     1       2.122  -3.102 -13.325  1.00  0.00     0.293 HD
ENDBRANCH   6  18
BRANCH  17  20
ATOM     20  O   UNL     1       3.457  -0.061 -10.375  1.00  0.00    -0.507 OA
ATOM     21  H   UNL     1       3.546   0.703 -11.029  1.00  0.00     0.293 HD
ENDBRANCH  17  20
BRANCH  15  22
ATOM     22  O   UNL     1       1.019   1.389  -6.516  1.00  0.00    -0.508 OA
ATOM     23  H   UNL     1       1.555   1.222  -5.671  1.00  0.00     0.293 HD
ENDBRANCH  15  22
TORSDOF 3
ENDMDL
