MODEL 1
REMARK VINA RESULT:    -4.045      0.000      0.000
REMARK INTER + INTRA:          -9.322
REMARK INTER:                  -7.356
REMARK INTRA:                  -1.966
REMARK UNBOUND:                -1.966
REMARK SMILES CCCCCCCCCCCCCCCC(=O)[O-]
REMARK SMILES IDX 9 1 10 2 11 3 12 4 13 5 14 6 15 7 16 8 17 9 18 10 8 11 7 12
REMARK SMILES IDX 6 13 5 14 4 15 3 16 2 17 1 18
REMARK H PARENT
REMARK Flexibility Score: inf
ROOT
ATOM      1  C   UNL     1      -7.108  -3.266   9.132  1.00  0.00     0.000 C 
ENDROOT
BRANCH   1   2
ATOM      2  C   UNL     1      -8.605  -3.242   9.477  1.00  0.00     0.000 C 
BRANCH   2   3
ATOM      3  C   UNL     1      -9.457  -2.613   8.360  1.00  0.00     0.000 C 
BRANCH   3   4
ATOM      4  C   UNL     1      -8.700  -1.520   7.588  1.00  0.00     0.000 C 
BRANCH   4   5
ATOM      5  C   UNL     1      -8.772  -1.718   6.064  1.00  0.00     0.000 C 
BRANCH   5   6
ATOM      6  C   UNL     1      -9.580  -2.964   5.669  1.00  0.00     0.006 C 
BRANCH   6   7
ATOM      7  C   UNL     1      -8.890  -3.791   4.578  1.00  0.00     0.053 C 
BRANCH   7   8
ATOM      8  C   UNL     1      -7.746  -4.565   5.155  1.00  0.00     0.041 C 
ATOM      9  O   UNL     1      -6.622  -4.017   5.305  1.00  0.00    -0.550 OA
ATOM     10  O   UNL     1      -7.936  -5.874   5.578  1.00  0.00    -0.550 OA
ENDBRANCH   7   8
ENDBRANCH   6   7
ENDBRANCH   5   6
ENDBRANCH   4   5
ENDBRANCH   3   4
ENDBRANCH   2   3
ENDBRANCH   1   2
BRANCH   1  11
ATOM     11  C   UNL     1      -6.609  -4.675   8.766  1.00  0.00     0.000 C 
BRANCH  11  12
ATOM     12  C   UNL     1      -5.112  -4.700   8.421  1.00  0.00    -0.000 C 
BRANCH  12  13
ATOM     13  C   UNL     1      -4.228  -4.943   9.653  1.00  0.00    -0.000 C 
BRANCH  13  14
ATOM     14  C   UNL     1      -3.508  -3.656  10.076  1.00  0.00    -0.000 C 
BRANCH  14  15
ATOM     15  C   UNL     1      -2.935  -2.918   8.856  1.00  0.00    -0.000 C 
BRANCH  15  16
ATOM     16  C   UNL     1      -3.127  -1.391   8.951  1.00  0.00    -0.000 C 
BRANCH  16  17
ATOM     17  C   UNL     1      -4.471  -0.900   8.385  1.00  0.00    -0.003 C 
ATOM     18  C   UNL     1      -4.759  -1.427   6.981  1.00  0.00     0.004 C 
ENDBRANCH  16  17
ENDBRANCH  15  16
ENDBRANCH  14  15
ENDBRANCH  13  14
ENDBRANCH  12  13
ENDBRANCH  11  12
ENDBRANCH   1  11
TORSDOF 14
ENDMDL
MODEL 2
REMARK VINA RESULT:    -4.038     12.305     15.788
REMARK INTER + INTRA:          -9.309
REMARK INTER:                  -6.994
REMARK INTRA:                  -2.315
REMARK UNBOUND:                -1.966
REMARK SMILES CCCCCCCCCCCCCCCC(=O)[O-]
REMARK SMILES IDX 9 1 10 2 11 3 12 4 13 5 14 6 15 7 16 8 17 9 18 10 8 11 7 12
REMARK SMILES IDX 6 13 5 14 4 15 3 16 2 17 1 18
REMARK H PARENT
REMARK Flexibility Score: inf
ROOT
ATOM      1  C   UNL     1       8.670   2.014   9.813  1.00  0.00     0.000 C 
ENDROOT
BRANCH   1   2
ATOM      2  C   UNL     1       8.732   0.578   9.267  1.00  0.00     0.000 C 
BRANCH   2   3
ATOM      3  C   UNL     1       7.527   0.238   8.370  1.00  0.00     0.000 C 
BRANCH   3   4
ATOM      4  C   UNL     1       7.853   0.366   6.874  1.00  0.00     0.000 C 
BRANCH   4   5
ATOM      5  C   UNL     1       7.075   1.507   6.197  1.00  0.00     0.000 C 
BRANCH   5   6
ATOM      6  C   UNL     1       7.997   2.503   5.476  1.00  0.00     0.006 C 
BRANCH   6   7
ATOM      7  C   UNL     1       7.236   3.707   4.909  1.00  0.00     0.053 C 
BRANCH   7   8
ATOM      8  C   UNL     1       8.163   4.865   4.713  1.00  0.00     0.041 C 
ATOM      9  O   UNL     1       9.136   4.770   3.919  1.00  0.00    -0.550 OA
ATOM     10  O   UNL     1       7.920   6.068   5.364  1.00  0.00    -0.550 OA
ENDBRANCH   7   8
ENDBRANCH   6   7
ENDBRANCH   5   6
ENDBRANCH   4   5
ENDBRANCH   3   4
ENDBRANCH   2   3
ENDBRANCH   1   2
BRANCH   1  11
ATOM     11  C   UNL     1       9.381   3.025   8.897  1.00  0.00     0.000 C 
BRANCH  11  12
ATOM     12  C   UNL     1       8.567   4.313   8.695  1.00  0.00    -0.000 C 
BRANCH  12  13
ATOM     13  C   UNL     1       7.052   4.069   8.764  1.00  0.00    -0.000 C 
BRANCH  13  14
ATOM     14  C   UNL     1       6.273   5.326   8.355  1.00  0.00    -0.000 C 
BRANCH  14  15
ATOM     15  C   UNL     1       4.768   5.034   8.255  1.00  0.00    -0.000 C 
BRANCH  15  16
ATOM     16  C   UNL     1       4.477   3.548   7.963  1.00  0.00    -0.000 C 
BRANCH  16  17
ATOM     17  C   UNL     1       3.862   3.299   6.575  1.00  0.00    -0.003 C 
ATOM     18  C   UNL     1       2.358   3.039   6.623  1.00  0.00     0.004 C 
ENDBRANCH  16  17
ENDBRANCH  15  16
ENDBRANCH  14  15
ENDBRANCH  13  14
ENDBRANCH  12  13
ENDBRANCH  11  12
ENDBRANCH   1  11
TORSDOF 14
ENDMDL
MODEL 3
REMARK VINA RESULT:    -4.024     11.493     15.262
REMARK INTER + INTRA:          -9.284
REMARK INTER:                  -7.105
REMARK INTRA:                  -2.180
REMARK UNBOUND:                -1.966
REMARK SMILES CCCCCCCCCCCCCCCC(=O)[O-]
REMARK SMILES IDX 9 1 10 2 11 3 12 4 13 5 14 6 15 7 16 8 17 9 18 10 8 11 7 12
REMARK SMILES IDX 6 13 5 14 4 15 3 16 2 17 1 18
REMARK H PARENT
REMARK Flexibility Score: inf
ROOT
ATOM      1  C   UNL     1       6.467   1.199   9.784  1.00  0.00     0.000 C 
ENDROOT
BRANCH   1   2
ATOM      2  C   UNL     1       7.752   0.410  10.080  1.00  0.00     0.000 C 
BRANCH   2   3
ATOM      3  C   UNL     1       9.022   1.189   9.696  1.00  0.00     0.000 C 
BRANCH   3   4
ATOM      4  C   UNL     1       9.127   2.539  10.424  1.00  0.00     0.000 C 
BRANCH   4   5
ATOM      5  C   UNL     1       9.516   3.689   9.479  1.00  0.00     0.000 C 
BRANCH   5   6
ATOM      6  C   UNL     1       8.316   4.236   8.691  1.00  0.00     0.006 C 
BRANCH   6   7
ATOM      7  C   UNL     1       8.437   3.986   7.183  1.00  0.00     0.053 C 
BRANCH   7   8
ATOM      8  C   UNL     1       7.480   4.858   6.431  1.00  0.00     0.041 C 
ATOM      9  O   UNL     1       6.721   4.360   5.559  1.00  0.00    -0.550 OA
ATOM     10  O   UNL     1       7.388   6.210   6.735  1.00  0.00    -0.550 OA
ENDBRANCH   7   8
ENDBRANCH   6   7
ENDBRANCH   5   6
ENDBRANCH   4   5
ENDBRANCH   3   4
ENDBRANCH   2   3
ENDBRANCH   1   2
BRANCH   1  11
ATOM     11  C   UNL     1       6.141   1.254   8.281  1.00  0.00     0.000 C 
BRANCH  11  12
ATOM     12  C   UNL     1       5.117   2.347   7.938  1.00  0.00    -0.000 C 
BRANCH  12  13
ATOM     13  C   UNL     1       4.669   3.143   9.173  1.00  0.00    -0.000 C 
BRANCH  13  14
ATOM     14  C   UNL     1       4.601   4.644   8.866  1.00  0.00    -0.000 C 
BRANCH  14  15
ATOM     15  C   UNL     1       3.610   4.930   7.727  1.00  0.00    -0.000 C 
BRANCH  15  16
ATOM     16  C   UNL     1       2.204   5.290   8.250  1.00  0.00    -0.000 C 
BRANCH  16  17
ATOM     17  C   UNL     1       1.210   4.117   8.206  1.00  0.00    -0.003 C 
ATOM     18  C   UNL     1       1.537   3.092   7.123  1.00  0.00     0.004 C 
ENDBRANCH  16  17
ENDBRANCH  15  16
ENDBRANCH  14  15
ENDBRANCH  13  14
ENDBRANCH  12  13
ENDBRANCH  11  12
ENDBRANCH   1  11
TORSDOF 14
ENDMDL
MODEL 4
REMARK VINA RESULT:    -4.010     12.098     15.327
REMARK INTER + INTRA:          -9.258
REMARK INTER:                  -7.225
REMARK INTRA:                  -2.033
REMARK UNBOUND:                -1.966
REMARK SMILES CCCCCCCCCCCCCCCC(=O)[O-]
REMARK SMILES IDX 9 1 10 2 11 3 12 4 13 5 14 6 15 7 16 8 17 9 18 10 8 11 7 12
REMARK SMILES IDX 6 13 5 14 4 15 3 16 2 17 1 18
REMARK H PARENT
REMARK Flexibility Score: inf
ROOT
ATOM      1  C   UNL     1       5.098   4.654   8.664  1.00  0.00     0.000 C 
ENDROOT
BRANCH   1   2
ATOM      2  C   UNL     1       6.401   5.404   8.348  1.00  0.00     0.000 C 
BRANCH   2   3
ATOM      3  C   UNL     1       7.637   4.489   8.416  1.00  0.00     0.000 C 
BRANCH   3   4
ATOM      4  C   UNL     1       7.305   3.026   8.086  1.00  0.00     0.000 C 
BRANCH   4   5
ATOM      5  C   UNL     1       8.242   2.434   7.018  1.00  0.00     0.000 C 
BRANCH   5   6
ATOM      6  C   UNL     1       9.012   3.517   6.246  1.00  0.00     0.006 C 
BRANCH   6   7
ATOM      7  C   UNL     1       8.660   3.539   4.754  1.00  0.00     0.053 C 
BRANCH   7   8
ATOM      8  C   UNL     1       8.257   4.918   4.333  1.00  0.00     0.041 C 
ATOM      9  O   UNL     1       7.970   5.786   5.199  1.00  0.00    -0.550 OA
ATOM     10  O   UNL     1       8.255   5.261   2.987  1.00  0.00    -0.550 OA
ENDBRANCH   7   8
ENDBRANCH   6   7
ENDBRANCH   5   6
ENDBRANCH   4   5
ENDBRANCH   3   4
ENDBRANCH   2   3
ENDBRANCH   1   2
BRANCH   1  11
ATOM     11  C   UNL     1       4.067   5.540   9.384  1.00  0.00     0.000 C 
BRANCH  11  12
ATOM     12  C   UNL     1       2.618   5.154   9.046  1.00  0.00    -0.000 C 
BRANCH  12  13
ATOM     13  C   UNL     1       2.434   4.798   7.564  1.00  0.00    -0.000 C 
BRANCH  13  14
ATOM     14  C   UNL     1       1.901   3.368   7.403  1.00  0.00    -0.000 C 
BRANCH  14  15
ATOM     15  C   UNL     1       2.804   2.545   6.472  1.00  0.00    -0.000 C 
BRANCH  15  16
ATOM     16  C   UNL     1       3.428   3.402   5.352  1.00  0.00    -0.000 C 
BRANCH  16  17
ATOM     17  C   UNL     1       4.949   3.220   5.208  1.00  0.00    -0.003 C 
ATOM     18  C   UNL     1       5.331   2.060   4.291  1.00  0.00     0.004 C 
ENDBRANCH  16  17
ENDBRANCH  15  16
ENDBRANCH  14  15
ENDBRANCH  13  14
ENDBRANCH  12  13
ENDBRANCH  11  12
ENDBRANCH   1  11
TORSDOF 14
ENDMDL
MODEL 5
REMARK VINA RESULT:    -3.979      1.895      4.488
REMARK INTER + INTRA:          -9.202
REMARK INTER:                  -6.525
REMARK INTRA:                  -2.677
REMARK UNBOUND:                -1.966
REMARK SMILES CCCCCCCCCCCCCCCC(=O)[O-]
REMARK SMILES IDX 9 1 10 2 11 3 12 4 13 5 14 6 15 7 16 8 17 9 18 10 8 11 7 12
REMARK SMILES IDX 6 13 5 14 4 15 3 16 2 17 1 18
REMARK H PARENT
REMARK Flexibility Score: inf
ROOT
ATOM      1  C   UNL     1      -1.499  -3.737  10.072  1.00  0.00     0.000 C 
ENDROOT
BRANCH   1   2
ATOM      2  C   UNL     1      -1.652  -4.311   8.654  1.00  0.00     0.000 C 
BRANCH   2   3
ATOM      3  C   UNL     1      -3.037  -4.941   8.421  1.00  0.00     0.000 C 
BRANCH   3   4
ATOM      4  C   UNL     1      -4.063  -4.517   9.484  1.00  0.00     0.000 C 
BRANCH   4   5
ATOM      5  C   UNL     1      -5.504  -4.889   9.094  1.00  0.00     0.000 C 
BRANCH   5   6
ATOM      6  C   UNL     1      -6.271  -3.710   8.476  1.00  0.00     0.006 C 
BRANCH   6   7
ATOM      7  C   UNL     1      -6.288  -3.757   6.943  1.00  0.00     0.053 C 
BRANCH   7   8
ATOM      8  C   UNL     1      -7.593  -4.302   6.453  1.00  0.00     0.041 C 
ATOM      9  O   UNL     1      -7.654  -5.463   5.969  1.00  0.00    -0.550 OA
ATOM     10  O   UNL     1      -8.753  -3.549   6.584  1.00  0.00    -0.550 OA
ENDBRANCH   7   8
ENDBRANCH   6   7
ENDBRANCH   5   6
ENDBRANCH   4   5
ENDBRANCH   3   4
ENDBRANCH   2   3
ENDBRANCH   1   2
BRANCH   1  11
ATOM     11  C   UNL     1      -0.573  -2.510  10.115  1.00  0.00     0.000 C 
BRANCH  11  12
ATOM     12  C   UNL     1      -1.351  -1.187  10.206  1.00  0.00    -0.000 C 
BRANCH  12  13
ATOM     13  C   UNL     1      -2.765  -1.373  10.774  1.00  0.00    -0.000 C 
BRANCH  13  14
ATOM     14  C   UNL     1      -3.822  -0.804   9.819  1.00  0.00    -0.000 C 
BRANCH  14  15
ATOM     15  C   UNL     1      -3.200  -0.443   8.461  1.00  0.00    -0.000 C 
BRANCH  15  16
ATOM     16  C   UNL     1      -3.933  -1.116   7.283  1.00  0.00    -0.000 C 
BRANCH  16  17
ATOM     17  C   UNL     1      -2.994  -1.846   6.307  1.00  0.00    -0.003 C 
ATOM     18  C   UNL     1      -1.545  -1.373   6.401  1.00  0.00     0.004 C 
ENDBRANCH  16  17
ENDBRANCH  15  16
ENDBRANCH  14  15
ENDBRANCH  13  14
ENDBRANCH  12  13
ENDBRANCH  11  12
ENDBRANCH   1  11
TORSDOF 14
ENDMDL
MODEL 6
REMARK VINA RESULT:    -3.977      2.119      5.028
REMARK INTER + INTRA:          -9.199
REMARK INTER:                  -7.372
REMARK INTRA:                  -1.827
REMARK UNBOUND:                -1.966
REMARK SMILES CCCCCCCCCCCCCCCC(=O)[O-]
REMARK SMILES IDX 9 1 10 2 11 3 12 4 13 5 14 6 15 7 16 8 17 9 18 10 8 11 7 12
REMARK SMILES IDX 6 13 5 14 4 15 3 16 2 17 1 18
REMARK H PARENT
REMARK Flexibility Score: inf
ROOT
ATOM      1  C   UNL     1      -7.479  -3.804   6.731  1.00  0.00     0.000 C 
ENDROOT
BRANCH   1   2
ATOM      2  C   UNL     1      -7.365  -5.158   7.450  1.00  0.00     0.000 C 
BRANCH   2   3
ATOM      3  C   UNL     1      -6.500  -5.078   8.721  1.00  0.00     0.000 C 
BRANCH   3   4
ATOM      4  C   UNL     1      -6.122  -3.634   9.085  1.00  0.00     0.000 C 
BRANCH   4   5
ATOM      5  C   UNL     1      -4.634  -3.489   9.451  1.00  0.00     0.000 C 
BRANCH   5   6
ATOM      6  C   UNL     1      -3.878  -4.825   9.384  1.00  0.00     0.006 C 
BRANCH   6   7
ATOM      7  C   UNL     1      -2.731  -4.802   8.367  1.00  0.00     0.053 C 
BRANCH   7   8
ATOM      8  C   UNL     1      -3.013  -3.807   7.285  1.00  0.00     0.041 C 
ATOM      9  O   UNL     1      -3.839  -4.077   6.375  1.00  0.00    -0.550 OA
ATOM     10  O   UNL     1      -2.404  -2.558   7.315  1.00  0.00    -0.550 OA
ENDBRANCH   7   8
ENDBRANCH   6   7
ENDBRANCH   5   6
ENDBRANCH   4   5
ENDBRANCH   3   4
ENDBRANCH   2   3
ENDBRANCH   1   2
BRANCH   1  11
ATOM     11  C   UNL     1      -8.934  -3.321   6.611  1.00  0.00     0.000 C 
BRANCH  11  12
ATOM     12  C   UNL     1      -9.332  -2.358   7.741  1.00  0.00    -0.000 C 
BRANCH  12  13
ATOM     13  C   UNL     1      -9.821  -3.095   8.997  1.00  0.00    -0.000 C 
BRANCH  13  14
ATOM     14  C   UNL     1      -9.438  -2.328  10.269  1.00  0.00    -0.000 C 
BRANCH  14  15
ATOM     15  C   UNL     1      -9.187  -0.843   9.964  1.00  0.00    -0.000 C 
BRANCH  15  16
ATOM     16  C   UNL     1      -7.773  -0.390  10.382  1.00  0.00    -0.000 C 
BRANCH  16  17
ATOM     17  C   UNL     1      -6.860  -0.037   9.195  1.00  0.00    -0.003 C 
ATOM     18  C   UNL     1      -5.507   0.526   9.625  1.00  0.00     0.004 C 
ENDBRANCH  16  17
ENDBRANCH  15  16
ENDBRANCH  14  15
ENDBRANCH  13  14
ENDBRANCH  12  13
ENDBRANCH  11  12
ENDBRANCH   1  11
TORSDOF 14
ENDMDL
MODEL 7
REMARK VINA RESULT:    -3.936      2.183      5.119
REMARK INTER + INTRA:          -9.124
REMARK INTER:                  -7.062
REMARK INTRA:                  -2.062
REMARK UNBOUND:                -1.966
REMARK SMILES CCCCCCCCCCCCCCCC(=O)[O-]
REMARK SMILES IDX 9 1 10 2 11 3 12 4 13 5 14 6 15 7 16 8 17 9 18 10 8 11 7 12
REMARK SMILES IDX 6 13 5 14 4 15 3 16 2 17 1 18
REMARK H PARENT
REMARK Flexibility Score: inf
ROOT
ATOM      1  C   UNL     1      -9.039  -0.545   9.362  1.00  0.00     0.000 C 
ENDROOT
BRANCH   1   2
ATOM      2  C   UNL     1      -8.789  -1.963   9.901  1.00  0.00     0.000 C 
BRANCH   2   3
ATOM      3  C   UNL     1      -9.412  -3.050   9.006  1.00  0.00     0.000 C 
BRANCH   3   4
ATOM      4  C   UNL     1      -8.364  -4.027   8.451  1.00  0.00     0.000 C 
BRANCH   4   5
ATOM      5  C   UNL     1      -6.945  -3.725   8.965  1.00  0.00     0.000 C 
BRANCH   5   6
ATOM      6  C   UNL     1      -5.910  -4.748   8.473  1.00  0.00     0.006 C 
BRANCH   6   7
ATOM      7  C   UNL     1      -4.606  -4.700   9.279  1.00  0.00     0.053 C 
BRANCH   7   8
ATOM      8  C   UNL     1      -3.424  -4.754   8.362  1.00  0.00     0.041 C 
ATOM      9  O   UNL     1      -2.297  -5.106   8.799  1.00  0.00    -0.550 OA
ATOM     10  O   UNL     1      -3.580  -4.468   7.011  1.00  0.00    -0.550 OA
ENDBRANCH   7   8
ENDBRANCH   6   7
ENDBRANCH   5   6
ENDBRANCH   4   5
ENDBRANCH   3   4
ENDBRANCH   2   3
ENDBRANCH   1   2
BRANCH   1  11
ATOM     11  C   UNL     1      -8.031  -0.143   8.272  1.00  0.00     0.000 C 
BRANCH  11  12
ATOM     12  C   UNL     1      -8.676  -0.048   6.879  1.00  0.00    -0.000 C 
BRANCH  12  13
ATOM     13  C   UNL     1      -8.323  -1.245   5.984  1.00  0.00    -0.000 C 
BRANCH  13  14
ATOM     14  C   UNL     1      -6.808  -1.340   5.764  1.00  0.00    -0.000 C 
BRANCH  14  15
ATOM     15  C   UNL     1      -6.388  -2.782   5.439  1.00  0.00    -0.000 C 
BRANCH  15  16
ATOM     16  C   UNL     1      -7.339  -3.457   4.430  1.00  0.00    -0.000 C 
BRANCH  16  17
ATOM     17  C   UNL     1      -7.797  -4.861   4.857  1.00  0.00    -0.003 C 
ATOM     18  C   UNL     1      -8.290  -5.713   3.689  1.00  0.00     0.004 C 
ENDBRANCH  16  17
ENDBRANCH  15  16
ENDBRANCH  14  15
ENDBRANCH  13  14
ENDBRANCH  12  13
ENDBRANCH  11  12
ENDBRANCH   1  11
TORSDOF 14
ENDMDL
MODEL 8
REMARK VINA RESULT:    -3.903     11.176     14.548
REMARK INTER + INTRA:          -9.064
REMARK INTER:                  -6.887
REMARK INTRA:                  -2.177
REMARK UNBOUND:                -1.966
REMARK SMILES CCCCCCCCCCCCCCCC(=O)[O-]
REMARK SMILES IDX 9 1 10 2 11 3 12 4 13 5 14 6 15 7 16 8 17 9 18 10 8 11 7 12
REMARK SMILES IDX 6 13 5 14 4 15 3 16 2 17 1 18
REMARK H PARENT
REMARK Flexibility Score: inf
ROOT
ATOM      1  C   UNL     1       7.853   4.529   7.483  1.00  0.00     0.000 C 
ENDROOT
BRANCH   1   2
ATOM      2  C   UNL     1       6.567   3.734   7.208  1.00  0.00     0.000 C 
BRANCH   2   3
ATOM      3  C   UNL     1       5.539   3.864   8.347  1.00  0.00     0.000 C 
BRANCH   3   4
ATOM      4  C   UNL     1       5.230   5.328   8.695  1.00  0.00     0.000 C 
BRANCH   4   5
ATOM      5  C   UNL     1       3.788   5.523   9.196  1.00  0.00     0.000 C 
BRANCH   5   6
ATOM      6  C   UNL     1       2.766   5.562   8.050  1.00  0.00     0.006 C 
BRANCH   6   7
ATOM      7  C   UNL     1       1.631   4.548   8.237  1.00  0.00     0.053 C 
BRANCH   7   8
ATOM      8  C   UNL     1       2.048   3.200   7.737  1.00  0.00     0.041 C 
ATOM      9  O   UNL     1       2.326   3.034   6.520  1.00  0.00    -0.550 OA
ATOM     10  O   UNL     1       2.183   2.141   8.626  1.00  0.00    -0.550 OA
ENDBRANCH   7   8
ENDBRANCH   6   7
ENDBRANCH   5   6
ENDBRANCH   4   5
ENDBRANCH   3   4
ENDBRANCH   2   3
ENDBRANCH   1   2
BRANCH   1  11
ATOM     11  C   UNL     1       9.112   3.646   7.446  1.00  0.00     0.000 C 
BRANCH  11  12
ATOM     12  C   UNL     1       9.878   3.654   8.778  1.00  0.00    -0.000 C 
BRANCH  12  13
ATOM     13  C   UNL     1       9.006   3.212   9.962  1.00  0.00    -0.000 C 
BRANCH  13  14
ATOM     14  C   UNL     1       9.000   1.685  10.102  1.00  0.00    -0.000 C 
BRANCH  14  15
ATOM     15  C   UNL     1       7.564   1.138  10.119  1.00  0.00    -0.000 C 
BRANCH  15  16
ATOM     16  C   UNL     1       7.198   0.411   8.810  1.00  0.00    -0.000 C 
BRANCH  16  17
ATOM     17  C   UNL     1       8.417   0.020   7.957  1.00  0.00    -0.003 C 
ATOM     18  C   UNL     1       8.182   0.194   6.458  1.00  0.00     0.004 C 
ENDBRANCH  16  17
ENDBRANCH  15  16
ENDBRANCH  14  15
ENDBRANCH  13  14
ENDBRANCH  12  13
ENDBRANCH  11  12
ENDBRANCH   1  11
TORSDOF 14
ENDMDL
MODEL 9
REMARK VINA RESULT:    -3.893      1.845      4.641
REMARK INTER + INTRA:          -9.046
REMARK INTER:                  -6.770
REMARK INTRA:                  -2.276
REMARK UNBOUND:                -1.966
REMARK SMILES CCCCCCCCCCCCCCCC(=O)[O-]
REMARK SMILES IDX 9 1 10 2 11 3 12 4 13 5 14 6 15 7 16 8 17 9 18 10 8 11 7 12
REMARK SMILES IDX 6 13 5 14 4 15 3 16 2 17 1 18
REMARK H PARENT
REMARK Flexibility Score: inf
ROOT
ATOM      1  C   UNL     1      -7.235  -3.653   8.994  1.00  0.00     0.000 C 
ENDROOT
BRANCH   1   2
ATOM      2  C   UNL     1      -6.443  -4.929   8.665  1.00  0.00     0.000 C 
BRANCH   2   3
ATOM      3  C   UNL     1      -4.996  -4.873   9.186  1.00  0.00     0.000 C 
BRANCH   3   4
ATOM      4  C   UNL     1      -4.446  -3.440   9.245  1.00  0.00     0.000 C 
BRANCH   4   5
ATOM      5  C   UNL     1      -3.271  -3.219   8.276  1.00  0.00     0.000 C 
BRANCH   5   6
ATOM      6  C   UNL     1      -3.664  -2.372   7.056  1.00  0.00     0.006 C 
BRANCH   6   7
ATOM      7  C   UNL     1      -4.133  -3.226   5.872  1.00  0.00     0.053 C 
BRANCH   7   8
ATOM      8  C   UNL     1      -5.572  -2.950   5.567  1.00  0.00     0.041 C 
ATOM      9  O   UNL     1      -6.354  -3.897   5.290  1.00  0.00    -0.550 OA
ATOM     10  O   UNL     1      -6.061  -1.651   5.644  1.00  0.00    -0.550 OA
ENDBRANCH   7   8
ENDBRANCH   6   7
ENDBRANCH   5   6
ENDBRANCH   4   5
ENDBRANCH   3   4
ENDBRANCH   2   3
ENDBRANCH   1   2
BRANCH   1  11
ATOM     11  C   UNL     1      -8.474  -3.480   8.097  1.00  0.00     0.000 C 
BRANCH  11  12
ATOM     12  C   UNL     1      -9.681  -2.913   8.862  1.00  0.00    -0.000 C 
BRANCH  12  13
ATOM     13  C   UNL     1      -9.342  -2.555  10.316  1.00  0.00    -0.000 C 
BRANCH  13  14
ATOM     14  C   UNL     1      -9.717  -1.100  10.626  1.00  0.00    -0.000 C 
BRANCH  14  15
ATOM     15  C   UNL     1      -8.530  -0.158  10.371  1.00  0.00    -0.000 C 
BRANCH  15  16
ATOM     16  C   UNL     1      -8.654   0.590   9.028  1.00  0.00    -0.000 C 
BRANCH  16  17
ATOM     17  C   UNL     1      -7.464   0.362   8.081  1.00  0.00    -0.003 C 
ATOM     18  C   UNL     1      -6.193  -0.074   8.807  1.00  0.00     0.004 C 
ENDBRANCH  16  17
ENDBRANCH  15  16
ENDBRANCH  14  15
ENDBRANCH  13  14
ENDBRANCH  12  13
ENDBRANCH  11  12
ENDBRANCH   1  11
TORSDOF 14
ENDMDL
