MODEL 1
REMARK VINA RESULT:    -3.595      0.000      0.000
REMARK INTER + INTRA:          -7.885
REMARK INTER:                  -6.327
REMARK INTRA:                  -1.559
REMARK UNBOUND:                -1.559
REMARK SMILES CCCCCCC=CCCCCCCCC(=O)[O-]
REMARK SMILES IDX 10 1 11 2 12 3 13 4 14 5 15 6 16 7 17 8 18 9 9 10 8 11 7 12
REMARK SMILES IDX 6 13 5 14 4 15 3 16 2 17 1 18
REMARK H PARENT
REMARK Flexibility Score: inf
ROOT
ATOM      1  C   UNL     1      -7.941  -4.527  -1.731  1.00  0.00     0.004 C 
ENDROOT
BRANCH   1   2
ATOM      2  C   UNL     1      -7.228  -3.426  -2.530  1.00  0.00     0.000 C 
BRANCH   2   3
ATOM      3  C   UNL     1      -8.196  -2.570  -3.365  1.00  0.00     0.000 C 
BRANCH   3   4
ATOM      4  C   UNL     1      -8.342  -1.106  -2.901  1.00  0.00     0.000 C 
BRANCH   4   5
ATOM      5  C   UNL     1      -7.819  -0.816  -1.483  1.00  0.00     0.006 C 
BRANCH   5   6
ATOM      6  C   UNL     1      -6.792   0.323  -1.447  1.00  0.00     0.053 C 
BRANCH   6   7
ATOM      7  C   UNL     1      -5.650  -0.032  -0.549  1.00  0.00     0.041 C 
ATOM      8  O   UNL     1      -5.867  -0.486   0.605  1.00  0.00    -0.550 OA
ATOM      9  O   UNL     1      -4.343   0.092  -1.005  1.00  0.00    -0.550 OA
ENDBRANCH   6   7
ENDBRANCH   5   6
ENDBRANCH   4   5
ENDBRANCH   3   4
ENDBRANCH   2   3
ENDBRANCH   1   2
BRANCH   1  10
ATOM     10  C   UNL     1      -7.290  -5.893  -1.978  1.00  0.00     0.027 C 
BRANCH  10  11
ATOM     11  C   UNL     1      -8.311  -6.996  -1.855  1.00  0.00    -0.031 C 
ATOM     12  C   UNL     1      -9.045  -7.475  -2.877  1.00  0.00    -0.031 C 
BRANCH  12  13
ATOM     13  C   UNL     1      -8.896  -7.042  -4.315  1.00  0.00     0.027 C 
BRANCH  13  14
ATOM     14  C   UNL     1      -7.693  -7.710  -5.008  1.00  0.00     0.004 C 
BRANCH  14  15
ATOM     15  C   UNL     1      -6.675  -6.710  -5.585  1.00  0.00     0.000 C 
BRANCH  15  16
ATOM     16  C   UNL     1      -7.231  -5.282  -5.683  1.00  0.00    -0.000 C 
BRANCH  16  17
ATOM     17  C   UNL     1      -6.365  -4.418  -6.606  1.00  0.00    -0.003 C 
ATOM     18  C   UNL     1      -7.109  -3.159  -7.043  1.00  0.00     0.004 C 
ENDBRANCH  16  17
ENDBRANCH  15  16
ENDBRANCH  14  15
ENDBRANCH  13  14
ENDBRANCH  12  13
ENDBRANCH  10  11
ENDBRANCH   1  10
TORSDOF 13
ENDMDL
MODEL 2
REMARK VINA RESULT:    -3.538      1.109      3.170
REMARK INTER + INTRA:          -7.785
REMARK INTER:                  -6.370
REMARK INTRA:                  -1.416
REMARK UNBOUND:                -1.559
REMARK SMILES CCCCCCC=CCCCCCCCC(=O)[O-]
REMARK SMILES IDX 10 1 11 2 12 3 13 4 14 5 15 6 16 7 17 8 18 9 9 10 8 11 7 12
REMARK SMILES IDX 6 13 5 14 4 15 3 16 2 17 1 18
REMARK H PARENT
REMARK Flexibility Score: inf
ROOT
ATOM      1  C   UNL     1      -7.426  -3.447  -4.311  1.00  0.00     0.004 C 
ENDROOT
BRANCH   1   2
ATOM      2  C   UNL     1      -8.582  -2.481  -4.614  1.00  0.00     0.000 C 
BRANCH   2   3
ATOM      3  C   UNL     1      -8.559  -1.225  -3.727  1.00  0.00     0.000 C 
BRANCH   3   4
ATOM      4  C   UNL     1      -8.884  -1.468  -2.239  1.00  0.00     0.000 C 
BRANCH   4   5
ATOM      5  C   UNL     1      -7.673  -1.415  -1.290  1.00  0.00     0.006 C 
BRANCH   5   6
ATOM      6  C   UNL     1      -6.817  -0.158  -1.486  1.00  0.00     0.053 C 
BRANCH   6   7
ATOM      7  C   UNL     1      -5.646  -0.173  -0.555  1.00  0.00     0.041 C 
ATOM      8  O   UNL     1      -4.505   0.163  -0.966  1.00  0.00    -0.550 OA
ATOM      9  O   UNL     1      -5.826  -0.511   0.780  1.00  0.00    -0.550 OA
ENDBRANCH   6   7
ENDBRANCH   5   6
ENDBRANCH   4   5
ENDBRANCH   3   4
ENDBRANCH   2   3
ENDBRANCH   1   2
BRANCH   1  10
ATOM     10  C   UNL     1      -6.929  -4.127  -5.593  1.00  0.00     0.027 C 
BRANCH  10  11
ATOM     11  C   UNL     1      -7.948  -5.120  -6.093  1.00  0.00    -0.031 C 
ATOM     12  C   UNL     1      -7.749  -6.450  -6.162  1.00  0.00    -0.031 C 
BRANCH  12  13
ATOM     13  C   UNL     1      -6.511  -7.157  -5.667  1.00  0.00     0.027 C 
BRANCH  13  14
ATOM     14  C   UNL     1      -6.842  -8.349  -4.749  1.00  0.00     0.004 C 
BRANCH  14  15
ATOM     15  C   UNL     1      -6.571  -8.077  -3.258  1.00  0.00     0.000 C 
BRANCH  15  16
ATOM     16  C   UNL     1      -7.639  -7.186  -2.610  1.00  0.00    -0.000 C 
BRANCH  16  17
ATOM     17  C   UNL     1      -7.053  -6.393  -1.435  1.00  0.00    -0.003 C 
ATOM     18  C   UNL     1      -7.907  -5.169  -1.116  1.00  0.00     0.004 C 
ENDBRANCH  16  17
ENDBRANCH  15  16
ENDBRANCH  14  15
ENDBRANCH  13  14
ENDBRANCH  12  13
ENDBRANCH  10  11
ENDBRANCH   1  10
TORSDOF 13
ENDMDL
MODEL 3
REMARK VINA RESULT:    -3.510     14.017     16.982
REMARK INTER + INTRA:          -7.737
REMARK INTER:                  -5.606
REMARK INTRA:                  -2.131
REMARK UNBOUND:                -1.559
REMARK SMILES CCCCCCC=CCCCCCCCC(=O)[O-]
REMARK SMILES IDX 10 1 11 2 12 3 13 4 14 5 15 6 16 7 17 8 18 9 9 10 8 11 7 12
REMARK SMILES IDX 6 13 5 14 4 15 3 16 2 17 1 18
REMARK H PARENT
REMARK Flexibility Score: inf
ROOT
ATOM      1  C   UNL     1       3.226   4.720  -7.384  1.00  0.00     0.004 C 
ENDROOT
BRANCH   1   2
ATOM      2  C   UNL     1       3.490   5.541  -8.656  1.00  0.00     0.000 C 
BRANCH   2   3
ATOM      3  C   UNL     1       4.546   6.641  -8.450  1.00  0.00     0.000 C 
BRANCH   3   4
ATOM      4  C   UNL     1       5.042   6.808  -6.999  1.00  0.00     0.000 C 
BRANCH   4   5
ATOM      5  C   UNL     1       6.557   7.033  -6.849  1.00  0.00     0.006 C 
BRANCH   5   6
ATOM      6  C   UNL     1       7.386   6.154  -7.794  1.00  0.00     0.053 C 
BRANCH   6   7
ATOM      7  C   UNL     1       8.116   5.100  -7.022  1.00  0.00     0.041 C 
ATOM      8  O   UNL     1       8.983   4.385  -7.587  1.00  0.00    -0.550 OA
ATOM      9  O   UNL     1       7.872   4.943  -5.663  1.00  0.00    -0.550 OA
ENDBRANCH   6   7
ENDBRANCH   5   6
ENDBRANCH   4   5
ENDBRANCH   3   4
ENDBRANCH   2   3
ENDBRANCH   1   2
BRANCH   1  10
ATOM     10  C   UNL     1       1.789   4.923  -6.890  1.00  0.00     0.027 C 
BRANCH  10  11
ATOM     11  C   UNL     1       1.770   5.803  -5.666  1.00  0.00    -0.031 C 
ATOM     12  C   UNL     1       1.500   7.122  -5.677  1.00  0.00    -0.031 C 
BRANCH  12  13
ATOM     13  C   UNL     1       1.091   7.902  -6.903  1.00  0.00     0.027 C 
BRANCH  13  14
ATOM     14  C   UNL     1       0.570   9.310  -6.556  1.00  0.00     0.004 C 
BRANCH  14  15
ATOM     15  C   UNL     1       1.512  10.446  -6.997  1.00  0.00     0.000 C 
BRANCH  15  16
ATOM     16  C   UNL     1       2.798   9.931  -7.657  1.00  0.00    -0.000 C 
BRANCH  16  17
ATOM     17  C   UNL     1       4.035  10.361  -6.859  1.00  0.00    -0.003 C 
ATOM     18  C   UNL     1       3.898   9.987  -5.386  1.00  0.00     0.004 C 
ENDBRANCH  16  17
ENDBRANCH  15  16
ENDBRANCH  14  15
ENDBRANCH  13  14
ENDBRANCH  12  13
ENDBRANCH  10  11
ENDBRANCH   1  10
TORSDOF 13
ENDMDL
MODEL 4
REMARK VINA RESULT:    -3.498     13.912     16.208
REMARK INTER + INTRA:          -7.715
REMARK INTER:                  -5.341
REMARK INTRA:                  -2.374
REMARK UNBOUND:                -1.559
REMARK SMILES CCCCCCC=CCCCCCCCC(=O)[O-]
REMARK SMILES IDX 10 1 11 2 12 3 13 4 14 5 15 6 16 7 17 8 18 9 9 10 8 11 7 12
REMARK SMILES IDX 6 13 5 14 4 15 3 16 2 17 1 18
REMARK H PARENT
REMARK Flexibility Score: inf
ROOT
ATOM      1  C   UNL     1       1.777   5.034  -7.695  1.00  0.00     0.004 C 
ENDROOT
BRANCH   1   2
ATOM      2  C   UNL     1       1.675   5.742  -9.055  1.00  0.00     0.000 C 
BRANCH   2   3
ATOM      3  C   UNL     1       2.520   7.026  -9.125  1.00  0.00     0.000 C 
BRANCH   3   4
ATOM      4  C   UNL     1       1.716   8.342  -9.067  1.00  0.00     0.000 C 
BRANCH   4   5
ATOM      5  C   UNL     1       0.471   8.306  -8.162  1.00  0.00     0.006 C 
BRANCH   5   6
ATOM      6  C   UNL     1       0.411   9.486  -7.184  1.00  0.00     0.053 C 
BRANCH   6   7
ATOM      7  C   UNL     1       0.893   9.068  -5.831  1.00  0.00     0.041 C 
ATOM      8  O   UNL     1       1.097   9.928  -4.936  1.00  0.00    -0.550 OA
ATOM      9  O   UNL     1       1.071   7.720  -5.544  1.00  0.00    -0.550 OA
ENDBRANCH   6   7
ENDBRANCH   5   6
ENDBRANCH   4   5
ENDBRANCH   3   4
ENDBRANCH   2   3
ENDBRANCH   1   2
BRANCH   1  10
ATOM     10  C   UNL     1       3.140   5.292  -7.043  1.00  0.00     0.027 C 
BRANCH  10  11
ATOM     11  C   UNL     1       4.033   4.086  -7.191  1.00  0.00    -0.031 C 
ATOM     12  C   UNL     1       5.195   4.073  -7.872  1.00  0.00    -0.031 C 
BRANCH  12  13
ATOM     13  C   UNL     1       5.822   5.285  -8.518  1.00  0.00     0.027 C 
BRANCH  13  14
ATOM     14  C   UNL     1       6.915   5.919  -7.637  1.00  0.00     0.004 C 
BRANCH  14  15
ATOM     15  C   UNL     1       6.384   6.983  -6.659  1.00  0.00     0.000 C 
BRANCH  15  16
ATOM     16  C   UNL     1       5.581   8.089  -7.358  1.00  0.00    -0.000 C 
BRANCH  16  17
ATOM     17  C   UNL     1       4.577   8.731  -6.394  1.00  0.00    -0.003 C 
ATOM     18  C   UNL     1       4.178  10.128  -6.864  1.00  0.00     0.004 C 
ENDBRANCH  16  17
ENDBRANCH  15  16
ENDBRANCH  14  15
ENDBRANCH  13  14
ENDBRANCH  12  13
ENDBRANCH  10  11
ENDBRANCH   1  10
TORSDOF 13
ENDMDL
MODEL 5
REMARK VINA RESULT:    -3.487      9.097     11.055
REMARK INTER + INTRA:          -7.695
REMARK INTER:                  -5.295
REMARK INTRA:                  -2.400
REMARK UNBOUND:                -1.559
REMARK SMILES CCCCCCC=CCCCCCCCC(=O)[O-]
REMARK SMILES IDX 10 1 11 2 12 3 13 4 14 5 15 6 16 7 17 8 18 9 9 10 8 11 7 12
REMARK SMILES IDX 6 13 5 14 4 15 3 16 2 17 1 18
REMARK H PARENT
REMARK Flexibility Score: inf
ROOT
ATOM      1  C   UNL     1      -4.223  -4.401   9.118  1.00  0.00     0.004 C 
ENDROOT
BRANCH   1   2
ATOM      2  C   UNL     1      -5.624  -4.930   9.463  1.00  0.00     0.000 C 
BRANCH   2   3
ATOM      3  C   UNL     1      -6.749  -4.133   8.779  1.00  0.00     0.000 C 
BRANCH   3   4
ATOM      4  C   UNL     1      -6.281  -2.913   7.960  1.00  0.00     0.000 C 
BRANCH   4   5
ATOM      5  C   UNL     1      -7.208  -2.514   6.798  1.00  0.00     0.006 C 
BRANCH   5   6
ATOM      6  C   UNL     1      -6.441  -2.000   5.573  1.00  0.00     0.053 C 
BRANCH   6   7
ATOM      7  C   UNL     1      -7.343  -1.197   4.691  1.00  0.00     0.041 C 
ATOM      8  O   UNL     1      -8.157  -0.379   5.192  1.00  0.00    -0.550 OA
ATOM      9  O   UNL     1      -7.250  -1.317   3.310  1.00  0.00    -0.550 OA
ENDBRANCH   6   7
ENDBRANCH   5   6
ENDBRANCH   4   5
ENDBRANCH   3   4
ENDBRANCH   2   3
ENDBRANCH   1   2
BRANCH   1  10
ATOM     10  C   UNL     1      -3.150  -5.450   9.428  1.00  0.00     0.027 C 
BRANCH  10  11
ATOM     11  C   UNL     1      -2.759  -6.193   8.175  1.00  0.00    -0.031 C 
ATOM     12  C   UNL     1      -3.074  -7.476   7.916  1.00  0.00    -0.031 C 
BRANCH  12  13
ATOM     13  C   UNL     1      -3.941  -8.339   8.800  1.00  0.00     0.027 C 
BRANCH  13  14
ATOM     14  C   UNL     1      -5.387  -8.448   8.279  1.00  0.00     0.004 C 
BRANCH  14  15
ATOM     15  C   UNL     1      -5.530  -8.140   6.778  1.00  0.00     0.000 C 
BRANCH  15  16
ATOM     16  C   UNL     1      -6.559  -7.038   6.490  1.00  0.00    -0.000 C 
BRANCH  16  17
ATOM     17  C   UNL     1      -6.194  -6.266   5.217  1.00  0.00    -0.003 C 
ATOM     18  C   UNL     1      -4.913  -5.459   5.409  1.00  0.00     0.004 C 
ENDBRANCH  16  17
ENDBRANCH  15  16
ENDBRANCH  14  15
ENDBRANCH  13  14
ENDBRANCH  12  13
ENDBRANCH  10  11
ENDBRANCH   1  10
TORSDOF 13
ENDMDL
MODEL 6
REMARK VINA RESULT:    -3.471      9.639     11.397
REMARK INTER + INTRA:          -7.668
REMARK INTER:                  -5.611
REMARK INTRA:                  -2.057
REMARK UNBOUND:                -1.559
REMARK SMILES CCCCCCC=CCCCCCCCC(=O)[O-]
REMARK SMILES IDX 10 1 11 2 12 3 13 4 14 5 15 6 16 7 17 8 18 9 9 10 8 11 7 12
REMARK SMILES IDX 6 13 5 14 4 15 3 16 2 17 1 18
REMARK H PARENT
REMARK Flexibility Score: inf
ROOT
ATOM      1  C   UNL     1      -7.206  -4.642   7.417  1.00  0.00     0.004 C 
ENDROOT
BRANCH   1   2
ATOM      2  C   UNL     1      -6.329  -4.028   6.316  1.00  0.00     0.000 C 
BRANCH   2   3
ATOM      3  C   UNL     1      -6.877  -2.689   5.791  1.00  0.00     0.000 C 
BRANCH   3   4
ATOM      4  C   UNL     1      -6.097  -1.439   6.248  1.00  0.00     0.000 C 
BRANCH   4   5
ATOM      5  C   UNL     1      -6.672  -0.728   7.487  1.00  0.00     0.006 C 
BRANCH   5   6
ATOM      6  C   UNL     1      -5.814   0.457   7.945  1.00  0.00     0.053 C 
BRANCH   6   7
ATOM      7  C   UNL     1      -6.500   1.750   7.635  1.00  0.00     0.041 C 
ATOM      8  O   UNL     1      -6.137   2.813   8.202  1.00  0.00    -0.550 OA
ATOM      9  O   UNL     1      -7.509   1.788   6.681  1.00  0.00    -0.550 OA
ENDBRANCH   6   7
ENDBRANCH   5   6
ENDBRANCH   4   5
ENDBRANCH   3   4
ENDBRANCH   2   3
ENDBRANCH   1   2
BRANCH   1  10
ATOM     10  C   UNL     1      -6.360  -5.047   8.630  1.00  0.00     0.027 C 
BRANCH  10  11
ATOM     11  C   UNL     1      -5.372  -3.961   8.972  1.00  0.00    -0.031 C 
ATOM     12  C   UNL     1      -4.118  -4.179   9.411  1.00  0.00    -0.031 C 
BRANCH  12  13
ATOM     13  C   UNL     1      -3.482  -5.542   9.544  1.00  0.00     0.027 C 
BRANCH  13  14
ATOM     14  C   UNL     1      -2.783  -5.992   8.246  1.00  0.00     0.004 C 
BRANCH  14  15
ATOM     15  C   UNL     1      -3.401  -7.253   7.615  1.00  0.00     0.000 C 
BRANCH  15  16
ATOM     16  C   UNL     1      -4.087  -6.972   6.270  1.00  0.00    -0.000 C 
BRANCH  16  17
ATOM     17  C   UNL     1      -5.402  -7.750   6.152  1.00  0.00    -0.003 C 
ATOM     18  C   UNL     1      -5.756  -8.438   7.467  1.00  0.00     0.004 C 
ENDBRANCH  16  17
ENDBRANCH  15  16
ENDBRANCH  14  15
ENDBRANCH  13  14
ENDBRANCH  12  13
ENDBRANCH  10  11
ENDBRANCH   1  10
TORSDOF 13
ENDMDL
MODEL 7
REMARK VINA RESULT:    -3.418     14.074     16.891
REMARK INTER + INTRA:          -7.575
REMARK INTER:                  -5.281
REMARK INTRA:                  -2.293
REMARK UNBOUND:                -1.559
REMARK SMILES CCCCCCC=CCCCCCCCC(=O)[O-]
REMARK SMILES IDX 10 1 11 2 12 3 13 4 14 5 15 6 16 7 17 8 18 9 9 10 8 11 7 12
REMARK SMILES IDX 6 13 5 14 4 15 3 16 2 17 1 18
REMARK H PARENT
REMARK Flexibility Score: inf
ROOT
ATOM      1  C   UNL     1       3.800   9.246  -5.946  1.00  0.00     0.004 C 
ENDROOT
BRANCH   1   2
ATOM      2  C   UNL     1       4.570   9.619  -7.222  1.00  0.00     0.000 C 
BRANCH   2   3
ATOM      3  C   UNL     1       5.646   8.585  -7.595  1.00  0.00     0.000 C 
BRANCH   3   4
ATOM      4  C   UNL     1       5.455   7.188  -6.970  1.00  0.00     0.000 C 
BRANCH   4   5
ATOM      5  C   UNL     1       5.421   6.023  -7.975  1.00  0.00     0.006 C 
BRANCH   5   6
ATOM      6  C   UNL     1       6.123   4.763  -7.452  1.00  0.00     0.053 C 
BRANCH   6   7
ATOM      7  C   UNL     1       7.540   5.070  -7.084  1.00  0.00     0.041 C 
ATOM      8  O   UNL     1       8.348   5.480  -7.957  1.00  0.00    -0.550 OA
ATOM      9  O   UNL     1       7.955   4.951  -5.763  1.00  0.00    -0.550 OA
ENDBRANCH   6   7
ENDBRANCH   5   6
ENDBRANCH   4   5
ENDBRANCH   3   4
ENDBRANCH   2   3
ENDBRANCH   1   2
BRANCH   1  10
ATOM     10  C   UNL     1       2.614  10.192  -5.724  1.00  0.00     0.027 C 
BRANCH  10  11
ATOM     11  C   UNL     1       1.362   9.408  -5.417  1.00  0.00    -0.031 C 
ATOM     12  C   UNL     1       0.457   9.023  -6.335  1.00  0.00    -0.031 C 
BRANCH  12  13
ATOM     13  C   UNL     1       0.600   9.240  -7.822  1.00  0.00     0.027 C 
BRANCH  13  14
ATOM     14  C   UNL     1       0.708   7.915  -8.602  1.00  0.00     0.004 C 
BRANCH  14  15
ATOM     15  C   UNL     1       1.948   7.080  -8.235  1.00  0.00     0.000 C 
BRANCH  15  16
ATOM     16  C   UNL     1       1.739   5.574  -8.448  1.00  0.00    -0.000 C 
BRANCH  16  17
ATOM     17  C   UNL     1       1.854   4.811  -7.123  1.00  0.00    -0.003 C 
ATOM     18  C   UNL     1       2.046   5.768  -5.950  1.00  0.00     0.004 C 
ENDBRANCH  16  17
ENDBRANCH  15  16
ENDBRANCH  14  15
ENDBRANCH  13  14
ENDBRANCH  12  13
ENDBRANCH  10  11
ENDBRANCH   1  10
TORSDOF 13
ENDMDL
MODEL 8
REMARK VINA RESULT:    -3.417     13.971     16.399
REMARK INTER + INTRA:          -7.572
REMARK INTER:                  -5.359
REMARK INTRA:                  -2.214
REMARK UNBOUND:                -1.559
REMARK SMILES CCCCCCC=CCCCCCCCC(=O)[O-]
REMARK SMILES IDX 10 1 11 2 12 3 13 4 14 5 15 6 16 7 17 8 18 9 9 10 8 11 7 12
REMARK SMILES IDX 6 13 5 14 4 15 3 16 2 17 1 18
REMARK H PARENT
REMARK Flexibility Score: inf
ROOT
ATOM      1  C   UNL     1       0.956   7.904  -6.789  1.00  0.00     0.004 C 
ENDROOT
BRANCH   1   2
ATOM      2  C   UNL     1       1.232   8.269  -8.256  1.00  0.00     0.000 C 
BRANCH   2   3
ATOM      3  C   UNL     1       2.664   8.782  -8.485  1.00  0.00     0.000 C 
BRANCH   3   4
ATOM      4  C   UNL     1       2.796  10.313  -8.617  1.00  0.00     0.000 C 
BRANCH   4   5
ATOM      5  C   UNL     1       2.823  11.083  -7.285  1.00  0.00     0.006 C 
BRANCH   5   6
ATOM      6  C   UNL     1       3.799  10.480  -6.267  1.00  0.00     0.053 C 
BRANCH   6   7
ATOM      7  C   UNL     1       3.232  10.566  -4.886  1.00  0.00     0.041 C 
ATOM      8  O   UNL     1       1.986  10.559  -4.709  1.00  0.00    -0.550 OA
ATOM      9  O   UNL     1       4.083  10.604  -3.788  1.00  0.00    -0.550 OA
ENDBRANCH   6   7
ENDBRANCH   5   6
ENDBRANCH   4   5
ENDBRANCH   3   4
ENDBRANCH   2   3
ENDBRANCH   1   2
BRANCH   1  10
ATOM     10  C   UNL     1       2.158   7.183  -6.168  1.00  0.00     0.027 C 
BRANCH  10  11
ATOM     11  C   UNL     1       1.829   5.735  -5.907  1.00  0.00    -0.031 C 
ATOM     12  C   UNL     1       2.266   4.705  -6.656  1.00  0.00    -0.031 C 
BRANCH  12  13
ATOM     13  C   UNL     1       3.222   4.836  -7.817  1.00  0.00     0.027 C 
BRANCH  13  14
ATOM     14  C   UNL     1       4.546   4.084  -7.576  1.00  0.00     0.004 C 
BRANCH  14  15
ATOM     15  C   UNL     1       5.797   4.966  -7.735  1.00  0.00     0.000 C 
BRANCH  15  16
ATOM     16  C   UNL     1       5.460   6.425  -8.072  1.00  0.00    -0.000 C 
BRANCH  16  17
ATOM     17  C   UNL     1       5.778   7.349  -6.891  1.00  0.00    -0.003 C 
ATOM     18  C   UNL     1       7.186   7.098  -6.358  1.00  0.00     0.004 C 
ENDBRANCH  16  17
ENDBRANCH  15  16
ENDBRANCH  14  15
ENDBRANCH  13  14
ENDBRANCH  12  13
ENDBRANCH  10  11
ENDBRANCH   1  10
TORSDOF 13
ENDMDL
MODEL 9
REMARK VINA RESULT:    -3.357      9.207     11.285
REMARK INTER + INTRA:          -7.467
REMARK INTER:                  -5.526
REMARK INTRA:                  -1.942
REMARK UNBOUND:                -1.559
REMARK SMILES CCCCCCC=CCCCCCCCC(=O)[O-]
REMARK SMILES IDX 10 1 11 2 12 3 13 4 14 5 15 6 16 7 17 8 18 9 9 10 8 11 7 12
REMARK SMILES IDX 6 13 5 14 4 15 3 16 2 17 1 18
REMARK H PARENT
REMARK Flexibility Score: inf
ROOT
ATOM      1  C   UNL     1      -7.276  -4.461   5.866  1.00  0.00     0.004 C 
ENDROOT
BRANCH   1   2
ATOM      2  C   UNL     1      -6.319  -3.261   5.790  1.00  0.00     0.000 C 
BRANCH   2   3
ATOM      3  C   UNL     1      -6.963  -2.022   5.145  1.00  0.00     0.000 C 
BRANCH   3   4
ATOM      4  C   UNL     1      -7.064  -0.785   6.062  1.00  0.00     0.000 C 
BRANCH   4   5
ATOM      5  C   UNL     1      -5.976  -0.688   7.148  1.00  0.00     0.006 C 
BRANCH   5   6
ATOM      6  C   UNL     1      -6.535  -0.277   8.516  1.00  0.00     0.053 C 
BRANCH   6   7
ATOM      7  C   UNL     1      -6.313   1.183   8.753  1.00  0.00     0.041 C 
ATOM      8  O   UNL     1      -5.786   1.898   7.862  1.00  0.00    -0.550 OA
ATOM      9  O   UNL     1      -6.735   1.765   9.942  1.00  0.00    -0.550 OA
ENDBRANCH   6   7
ENDBRANCH   5   6
ENDBRANCH   4   5
ENDBRANCH   3   4
ENDBRANCH   2   3
ENDBRANCH   1   2
BRANCH   1  10
ATOM     10  C   UNL     1      -6.498  -5.781   5.896  1.00  0.00     0.027 C 
BRANCH  10  11
ATOM     11  C   UNL     1      -5.067  -5.563   5.474  1.00  0.00    -0.031 C 
ATOM     12  C   UNL     1      -4.015  -6.254   5.950  1.00  0.00    -0.031 C 
BRANCH  12  13
ATOM     13  C   UNL     1      -4.117  -7.411   6.914  1.00  0.00     0.027 C 
BRANCH  13  14
ATOM     14  C   UNL     1      -3.233  -7.216   8.161  1.00  0.00     0.004 C 
BRANCH  14  15
ATOM     15  C   UNL     1      -2.826  -5.752   8.409  1.00  0.00     0.000 C 
BRANCH  15  16
ATOM     16  C   UNL     1      -3.598  -5.106   9.568  1.00  0.00    -0.000 C 
BRANCH  16  17
ATOM     17  C   UNL     1      -4.679  -4.154   9.044  1.00  0.00    -0.003 C 
ATOM     18  C   UNL     1      -6.076  -4.662   9.390  1.00  0.00     0.004 C 
ENDBRANCH  16  17
ENDBRANCH  15  16
ENDBRANCH  14  15
ENDBRANCH  13  14
ENDBRANCH  12  13
ENDBRANCH  10  11
ENDBRANCH   1  10
TORSDOF 13
ENDMDL
