MODEL 1
REMARK VINA RESULT:    -4.484      0.000      0.000
REMARK INTER + INTRA:          -6.105
REMARK INTER:                  -5.926
REMARK INTRA:                  -0.178
REMARK UNBOUND:                -0.178
REMARK SMILES CCCCC=CC=CCO
REMARK SMILES IDX 5 1 6 2 4 3 3 4 2 5 1 6 7 7 8 8 9 9 10 10
REMARK H PARENT 10 11
REMARK Flexibility Score: inf
ROOT
ATOM      1  C   UNL     1      19.165  13.718  26.265  1.00  0.00    -0.027 C 
ATOM      2  C   UNL     1      19.813  12.767  26.943  1.00  0.00    -0.005 C 
ENDROOT
BRANCH   1   3
ATOM      3  C   UNL     1      18.068  14.525  26.898  1.00  0.00     0.027 C 
BRANCH   3   4
ATOM      4  C   UNL     1      18.610  15.844  27.469  1.00  0.00     0.004 C 
BRANCH   4   5
ATOM      5  C   UNL     1      17.908  17.075  26.877  1.00  0.00    -0.003 C 
ATOM      6  C   UNL     1      18.433  18.389  27.452  1.00  0.00     0.004 C 
ENDBRANCH   4   5
ENDBRANCH   3   4
ENDBRANCH   1   3
BRANCH   2   7
ATOM      7  C   UNL     1      20.898  11.992  26.307  1.00  0.00    -0.002 C 
ATOM      8  C   UNL     1      20.748  10.742  25.852  1.00  0.00     0.001 C 
BRANCH   8   9
ATOM      9  C   UNL     1      19.456   9.976  25.932  1.00  0.00     0.183 C 
BRANCH   9  10
ATOM     10  O   UNL     1      19.401   9.008  24.920  1.00  0.00    -0.392 OA
ATOM     11  H   UNL     1      19.650   8.143  25.340  1.00  0.00     0.210 HD
ENDBRANCH   9  10
ENDBRANCH   8   9
ENDBRANCH   2   7
TORSDOF 6
ENDMDL
MODEL 2
REMARK VINA RESULT:    -4.445      2.391      2.975
REMARK INTER + INTRA:          -6.052
REMARK INTER:                  -5.836
REMARK INTRA:                  -0.216
REMARK UNBOUND:                -0.178
REMARK SMILES CCCCC=CC=CCO
REMARK SMILES IDX 5 1 6 2 4 3 3 4 2 5 1 6 7 7 8 8 9 9 10 10
REMARK H PARENT 10 11
REMARK Flexibility Score: inf
ROOT
ATOM      1  C   UNL     1      18.055  15.113  26.992  1.00  0.00    -0.027 C 
ATOM      2  C   UNL     1      18.740  14.353  26.134  1.00  0.00    -0.005 C 
ENDROOT
BRANCH   1   3
ATOM      3  C   UNL     1      17.695  16.535  26.671  1.00  0.00     0.027 C 
BRANCH   3   4
ATOM      4  C   UNL     1      18.497  17.518  27.536  1.00  0.00     0.004 C 
BRANCH   4   5
ATOM      5  C   UNL     1      18.100  18.981  27.288  1.00  0.00    -0.003 C 
ATOM      6  C   UNL     1      19.237  19.960  27.579  1.00  0.00     0.004 C 
ENDBRANCH   4   5
ENDBRANCH   3   4
ENDBRANCH   1   3
BRANCH   2   7
ATOM      7  C   UNL     1      19.074  12.952  26.463  1.00  0.00    -0.002 C 
ATOM      8  C   UNL     1      20.304  12.543  26.801  1.00  0.00     0.001 C 
BRANCH   8   9
ATOM      9  C   UNL     1      21.492  13.460  26.888  1.00  0.00     0.183 C 
BRANCH   9  10
ATOM     10  O   UNL     1      21.542  14.074  28.146  1.00  0.00    -0.392 OA
ATOM     11  H   UNL     1      20.726  14.635  28.221  1.00  0.00     0.210 HD
ENDBRANCH   9  10
ENDBRANCH   8   9
ENDBRANCH   2   7
TORSDOF 6
ENDMDL
MODEL 3
REMARK VINA RESULT:    -4.385      3.322      6.288
REMARK INTER + INTRA:          -5.973
REMARK INTER:                  -5.760
REMARK INTRA:                  -0.212
REMARK UNBOUND:                -0.178
REMARK SMILES CCCCC=CC=CCO
REMARK SMILES IDX 5 1 6 2 4 3 3 4 2 5 1 6 7 7 8 8 9 9 10 10
REMARK H PARENT 10 11
REMARK Flexibility Score: inf
ROOT
ATOM      1  C   UNL     1      19.430  14.074  26.428  1.00  0.00    -0.027 C 
ATOM      2  C   UNL     1      18.811  15.028  27.129  1.00  0.00    -0.005 C 
ENDROOT
BRANCH   1   3
ATOM      3  C   UNL     1      20.721  13.466  26.897  1.00  0.00     0.027 C 
BRANCH   3   4
ATOM      4  C   UNL     1      21.535  12.918  25.716  1.00  0.00     0.004 C 
BRANCH   4   5
ATOM      5  C   UNL     1      21.795  11.408  25.830  1.00  0.00    -0.003 C 
ATOM      6  C   UNL     1      20.506  10.594  25.940  1.00  0.00     0.004 C 
ENDBRANCH   4   5
ENDBRANCH   3   4
ENDBRANCH   1   3
BRANCH   2   7
ATOM      7  C   UNL     1      17.535  15.605  26.658  1.00  0.00    -0.002 C 
ATOM      8  C   UNL     1      17.261  16.916  26.684  1.00  0.00     0.001 C 
BRANCH   8   9
ATOM      9  C   UNL     1      18.218  17.957  27.193  1.00  0.00     0.183 C 
BRANCH   9  10
ATOM     10  O   UNL     1      18.349  18.995  26.261  1.00  0.00    -0.392 OA
ATOM     11  H   UNL     1      17.430  19.237  25.974  1.00  0.00     0.210 HD
ENDBRANCH   9  10
ENDBRANCH   8   9
ENDBRANCH   2   7
TORSDOF 6
ENDMDL
MODEL 4
REMARK VINA RESULT:    -4.379     13.760     15.216
REMARK INTER + INTRA:          -5.966
REMARK INTER:                  -5.668
REMARK INTRA:                  -0.298
REMARK UNBOUND:                -0.178
REMARK SMILES CCCCC=CC=CCO
REMARK SMILES IDX 5 1 6 2 4 3 3 4 2 5 1 6 7 7 8 8 9 9 10 10
REMARK H PARENT 10 11
REMARK Flexibility Score: inf
ROOT
ATOM      1  C   UNL     1       5.162  13.862  27.142  1.00  0.00    -0.027 C 
ATOM      2  C   UNL     1       5.613  14.053  25.900  1.00  0.00    -0.005 C 
ENDROOT
BRANCH   1   3
ATOM      3  C   UNL     1       3.761  13.389  27.406  1.00  0.00     0.027 C 
BRANCH   3   4
ATOM      4  C   UNL     1       2.972  13.237  26.097  1.00  0.00     0.004 C 
BRANCH   4   5
ATOM      5  C   UNL     1       2.225  11.898  26.013  1.00  0.00    -0.003 C 
ATOM      6  C   UNL     1       2.776  10.851  26.980  1.00  0.00     0.004 C 
ENDBRANCH   4   5
ENDBRANCH   3   4
ENDBRANCH   1   3
BRANCH   2   7
ATOM      7  C   UNL     1       6.998  14.506  25.659  1.00  0.00    -0.002 C 
ATOM      8  C   UNL     1       7.350  15.795  25.561  1.00  0.00     0.001 C 
BRANCH   8   9
ATOM      9  C   UNL     1       6.378  16.935  25.686  1.00  0.00     0.183 C 
BRANCH   9  10
ATOM     10  O   UNL     1       5.659  17.094  24.494  1.00  0.00    -0.392 OA
ATOM     11  H   UNL     1       6.014  17.911  24.055  1.00  0.00     0.210 HD
ENDBRANCH   9  10
ENDBRANCH   8   9
ENDBRANCH   2   7
TORSDOF 6
ENDMDL
MODEL 5
REMARK VINA RESULT:    -4.306      3.996      6.973
REMARK INTER + INTRA:          -5.869
REMARK INTER:                  -5.612
REMARK INTRA:                  -0.257
REMARK UNBOUND:                -0.178
REMARK SMILES CCCCC=CC=CCO
REMARK SMILES IDX 5 1 6 2 4 3 3 4 2 5 1 6 7 7 8 8 9 9 10 10
REMARK H PARENT 10 11
REMARK Flexibility Score: inf
ROOT
ATOM      1  C   UNL     1      18.539  16.332  27.409  1.00  0.00    -0.027 C 
ATOM      2  C   UNL     1      17.960  17.456  26.978  1.00  0.00    -0.005 C 
ENDROOT
BRANCH   1   3
ATOM      3  C   UNL     1      17.999  14.979  27.043  1.00  0.00     0.027 C 
BRANCH   3   4
ATOM      4  C   UNL     1      18.851  14.321  25.947  1.00  0.00     0.004 C 
BRANCH   4   5
ATOM      5  C   UNL     1      19.476  12.995  26.404  1.00  0.00    -0.003 C 
ATOM      6  C   UNL     1      20.611  13.191  27.408  1.00  0.00     0.004 C 
ENDBRANCH   4   5
ENDBRANCH   3   4
ENDBRANCH   1   3
BRANCH   2   7
ATOM      7  C   UNL     1      18.512  18.778  27.338  1.00  0.00    -0.002 C 
ATOM      8  C   UNL     1      17.757  19.829  27.681  1.00  0.00     0.001 C 
BRANCH   8   9
ATOM      9  C   UNL     1      16.255  19.790  27.742  1.00  0.00     0.183 C 
BRANCH   9  10
ATOM     10  O   UNL     1      15.830  19.451  29.034  1.00  0.00    -0.392 OA
ATOM     11  H   UNL     1      15.029  20.007  29.224  1.00  0.00     0.210 HD
ENDBRANCH   9  10
ENDBRANCH   8   9
ENDBRANCH   2   7
TORSDOF 6
ENDMDL
MODEL 6
REMARK VINA RESULT:    -4.219      2.721      5.873
REMARK INTER + INTRA:          -5.753
REMARK INTER:                  -5.508
REMARK INTRA:                  -0.246
REMARK UNBOUND:                -0.178
REMARK SMILES CCCCC=CC=CCO
REMARK SMILES IDX 5 1 6 2 4 3 3 4 2 5 1 6 7 7 8 8 9 9 10 10
REMARK H PARENT 10 11
REMARK Flexibility Score: inf
ROOT
ATOM      1  C   UNL     1      20.916  12.347  26.486  1.00  0.00    -0.027 C 
ATOM      2  C   UNL     1      19.994  13.078  27.118  1.00  0.00    -0.005 C 
ENDROOT
BRANCH   1   3
ATOM      3  C   UNL     1      20.632  10.945  26.029  1.00  0.00     0.027 C 
BRANCH   3   4
ATOM      4  C   UNL     1      19.141  10.606  26.179  1.00  0.00     0.004 C 
BRANCH   4   5
ATOM      5  C   UNL     1      18.863   9.102  26.038  1.00  0.00    -0.003 C 
ATOM      6  C   UNL     1      18.428   8.711  24.627  1.00  0.00     0.004 C 
ENDBRANCH   4   5
ENDBRANCH   3   4
ENDBRANCH   1   3
BRANCH   2   7
ATOM      7  C   UNL     1      20.288  14.460  27.549  1.00  0.00    -0.002 C 
ATOM      8  C   UNL     1      19.407  15.465  27.470  1.00  0.00     0.001 C 
BRANCH   8   9
ATOM      9  C   UNL     1      18.010  15.307  26.935  1.00  0.00     0.183 C 
BRANCH   9  10
ATOM     10  O   UNL     1      17.734  16.307  25.993  1.00  0.00    -0.392 OA
ATOM     11  H   UNL     1      18.611  16.655  25.682  1.00  0.00     0.210 HD
ENDBRANCH   9  10
ENDBRANCH   8   9
ENDBRANCH   2   7
TORSDOF 6
ENDMDL
MODEL 7
REMARK VINA RESULT:    -4.181      4.202      7.103
REMARK INTER + INTRA:          -5.704
REMARK INTER:                  -5.465
REMARK INTRA:                  -0.238
REMARK UNBOUND:                -0.178
REMARK SMILES CCCCC=CC=CCO
REMARK SMILES IDX 5 1 6 2 4 3 3 4 2 5 1 6 7 7 8 8 9 9 10 10
REMARK H PARENT 10 11
REMARK Flexibility Score: inf
ROOT
ATOM      1  C   UNL     1      18.416  16.892  27.153  1.00  0.00    -0.027 C 
ATOM      2  C   UNL     1      18.008  18.162  27.094  1.00  0.00    -0.005 C 
ENDROOT
BRANCH   1   3
ATOM      3  C   UNL     1      17.562  15.767  26.642  1.00  0.00     0.027 C 
BRANCH   3   4
ATOM      4  C   UNL     1      18.398  14.755  25.844  1.00  0.00     0.004 C 
BRANCH   4   5
ATOM      5  C   UNL     1      18.814  13.541  26.688  1.00  0.00    -0.003 C 
ATOM      6  C   UNL     1      20.287  13.577  27.091  1.00  0.00     0.004 C 
ENDBRANCH   4   5
ENDBRANCH   3   4
ENDBRANCH   1   3
BRANCH   2   7
ATOM      7  C   UNL     1      18.868  19.256  27.591  1.00  0.00    -0.002 C 
ATOM      8  C   UNL     1      19.124  20.372  26.895  1.00  0.00     0.001 C 
BRANCH   8   9
ATOM      9  C   UNL     1      18.566  20.645  25.526  1.00  0.00     0.183 C 
BRANCH   9  10
ATOM     10  O   UNL     1      19.587  21.049  24.656  1.00  0.00    -0.392 OA
ATOM     11  H   UNL     1      19.215  21.783  24.101  1.00  0.00     0.210 HD
ENDBRANCH   9  10
ENDBRANCH   8   9
ENDBRANCH   2   7
TORSDOF 6
ENDMDL
MODEL 8
REMARK VINA RESULT:    -4.064      5.518      8.059
REMARK INTER + INTRA:          -5.548
REMARK INTER:                  -5.303
REMARK INTRA:                  -0.245
REMARK UNBOUND:                -0.178
REMARK SMILES CCCCC=CC=CCO
REMARK SMILES IDX 5 1 6 2 4 3 3 4 2 5 1 6 7 7 8 8 9 9 10 10
REMARK H PARENT 10 11
REMARK Flexibility Score: inf
ROOT
ATOM      1  C   UNL     1      16.562  20.745  29.300  1.00  0.00    -0.027 C 
ATOM      2  C   UNL     1      16.565  20.211  28.076  1.00  0.00    -0.005 C 
ENDROOT
BRANCH   1   3
ATOM      3  C   UNL     1      15.384  20.596  30.220  1.00  0.00     0.027 C 
BRANCH   3   4
ATOM      4  C   UNL     1      15.789  20.838  31.682  1.00  0.00     0.004 C 
BRANCH   4   5
ATOM      5  C   UNL     1      14.982  21.969  32.337  1.00  0.00    -0.003 C 
ATOM      6  C   UNL     1      14.595  23.068  31.349  1.00  0.00     0.004 C 
ENDBRANCH   4   5
ENDBRANCH   3   4
ENDBRANCH   1   3
BRANCH   2   7
ATOM      7  C   UNL     1      17.738  20.358  27.191  1.00  0.00    -0.002 C 
ATOM      8  C   UNL     1      18.525  19.337  26.827  1.00  0.00     0.001 C 
BRANCH   8   9
ATOM      9  C   UNL     1      18.308  17.918  27.275  1.00  0.00     0.183 C 
BRANCH   9  10
ATOM     10  O   UNL     1      17.827  17.141  26.212  1.00  0.00    -0.392 OA
ATOM     11  H   UNL     1      18.598  16.615  25.873  1.00  0.00     0.210 HD
ENDBRANCH   9  10
ENDBRANCH   8   9
ENDBRANCH   2   7
TORSDOF 6
ENDMDL
MODEL 9
REMARK VINA RESULT:    -4.002      6.014      9.357
REMARK INTER + INTRA:          -5.467
REMARK INTER:                  -5.237
REMARK INTRA:                  -0.230
REMARK UNBOUND:                -0.178
REMARK SMILES CCCCC=CC=CCO
REMARK SMILES IDX 5 1 6 2 4 3 3 4 2 5 1 6 7 7 8 8 9 9 10 10
REMARK H PARENT 10 11
REMARK Flexibility Score: inf
ROOT
ATOM      1  C   UNL     1      16.896  20.501  28.418  1.00  0.00    -0.027 C 
ATOM      2  C   UNL     1      15.819  20.743  29.170  1.00  0.00    -0.005 C 
ENDROOT
BRANCH   1   3
ATOM      3  C   UNL     1      17.011  19.254  27.589  1.00  0.00     0.027 C 
BRANCH   3   4
ATOM      4  C   UNL     1      18.477  18.818  27.445  1.00  0.00     0.004 C 
BRANCH   4   5
ATOM      5  C   UNL     1      18.660  17.303  27.612  1.00  0.00    -0.003 C 
ATOM      6  C   UNL     1      17.786  16.492  26.656  1.00  0.00     0.004 C 
ENDBRANCH   4   5
ENDBRANCH   3   4
ENDBRANCH   1   3
BRANCH   2   7
ATOM      7  C   UNL     1      15.718  21.982  29.969  1.00  0.00    -0.002 C 
ATOM      8  C   UNL     1      15.877  22.021  31.298  1.00  0.00     0.001 C 
BRANCH   8   9
ATOM      9  C   UNL     1      16.178  20.810  32.137  1.00  0.00     0.183 C 
BRANCH   9  10
ATOM     10  O   UNL     1      15.011  20.345  32.758  1.00  0.00    -0.392 OA
ATOM     11  H   UNL     1      14.779  19.485  32.319  1.00  0.00     0.210 HD
ENDBRANCH   9  10
ENDBRANCH   8   9
ENDBRANCH   2   7
TORSDOF 6
ENDMDL
