MODEL 1
REMARK VINA RESULT:    -6.564      0.000      0.000
REMARK INTER + INTRA:          -7.450
REMARK INTER:                  -7.140
REMARK INTRA:                  -0.310
REMARK UNBOUND:                -0.310
REMARK SMILES C[C@H]1[C@H]2C3=CC[C@H]4[C@@]5(C)CC[C@@H](O)C(C)(C)[C@H]5CC[C@]4(C)[C@]3(C)CC[C@@]2(C(=O)[O-])CC[C@@H]1C
REMARK SMILES IDX 26 1 30 2 25 3 3 4 31 5 24 6 4 7 2 8 32 9 22 10 5 11 1 12
REMARK SMILES IDX 33 13 23 14 20 15 6 16 7 17 19 18 21 19 8 20 18 21 17 22
REMARK SMILES IDX 10 23 9 24 14 25 11 26 12 27 15 28 16 29 27 30 28 31 29 32
REMARK SMILES IDX 13 33
REMARK H PARENT 13 34
REMARK Flexibility Score: inf
ROOT
ATOM      1  C   UNL     1      70.667  47.039   9.250  1.00  0.00     0.017 C 
ATOM      2  C   UNL     1      70.592  48.334  10.124  1.00  0.00     0.014 C 
ATOM      3  C   UNL     1      71.394  45.952  10.116  1.00  0.00     0.014 C 
ATOM      4  C   UNL     1      71.350  47.285   7.826  1.00  0.00     0.030 C 
ATOM      5  C   UNL     1      70.599  49.619   9.308  1.00  0.00     0.004 C 
ATOM      6  C   UNL     1      71.886  44.713   9.344  1.00  0.00     0.013 C 
ATOM      7  C   UNL     1      71.991  46.015   7.231  1.00  0.00    -0.063 C 
ATOM      8  C   UNL     1      72.110  48.649   7.511  1.00  0.00    -0.003 C 
ATOM      9  C   UNL     1      71.947  49.749   8.598  1.00  0.00    -0.011 C 
ATOM     10  C   UNL     1      72.807  45.054   8.136  1.00  0.00    -0.006 C 
ATOM     11  C   UNL     1      71.632  45.684   5.956  1.00  0.00    -0.027 C 
ATOM     12  C   UNL     1      73.588  48.525   7.085  1.00  0.00     0.008 C 
ATOM     13  C   UNL     1      72.083  51.165   8.009  1.00  0.00     0.008 C 
ATOM     14  C   UNL     1      74.059  45.791   8.720  1.00  0.00     0.017 C 
ATOM     15  C   UNL     1      73.274  43.746   7.303  1.00  0.00    -0.020 C 
ATOM     16  C   UNL     1      71.769  44.307   5.347  1.00  0.00     0.032 C 
ATOM     17  C   UNL     1      72.059  43.254   6.436  1.00  0.00     0.006 C 
ATOM     18  C   UNL     1      73.770  42.570   8.209  1.00  0.00     0.008 C 
ATOM     19  C   UNL     1      74.479  44.166   6.378  1.00  0.00     0.012 C 
ATOM     20  C   UNL     1      72.033  41.716   6.011  1.00  0.00    -0.025 C 
ATOM     21  C   UNL     1      72.696  41.523   8.551  1.00  0.00     0.005 C 
ATOM     22  C   UNL     1      72.011  40.809   7.322  1.00  0.00     0.003 C 
ATOM     23  C   UNL     1      73.236  41.327   5.110  1.00  0.00     0.010 C 
ATOM     24  C   UNL     1      70.717  41.505   5.197  1.00  0.00     0.012 C 
ATOM     25  C   UNL     1      72.344  39.239   7.119  1.00  0.00    -0.006 C 
ATOM     26  C   UNL     1      73.292  39.836   4.776  1.00  0.00     0.033 C 
ATOM     27  C   UNL     1      73.458  38.979   6.042  1.00  0.00     0.120 C 
ATOM     28  C   UNL     1      72.764  38.539   8.447  1.00  0.00     0.014 C 
ATOM     29  C   UNL     1      71.060  38.462   6.672  1.00  0.00     0.014 C 
ENDROOT
BRANCH   1  30
ATOM     30  C   UNL     1      69.218  46.579   9.014  1.00  0.00     0.048 C 
ATOM     31  O   UNL     1      68.623  46.800   7.926  1.00  0.00    -0.550 OA
ATOM     32  O   UNL     1      68.504  45.972  10.044  1.00  0.00    -0.550 OA
ENDBRANCH   1  30
BRANCH  27  33
ATOM     33  O   UNL     1      74.767  39.105   6.545  1.00  0.00    -0.393 OA
ATOM     34  H   UNL     1      75.187  39.896   6.127  1.00  0.00     0.210 HD
ENDBRANCH  27  33
TORSDOF 2
ENDMDL
MODEL 2
REMARK VINA RESULT:    -6.184      2.253      3.581
REMARK INTER + INTRA:          -7.036
REMARK INTER:                  -7.005
REMARK INTRA:                  -0.030
REMARK UNBOUND:                -0.310
REMARK SMILES C[C@H]1[C@H]2C3=CC[C@H]4[C@@]5(C)CC[C@@H](O)C(C)(C)[C@H]5CC[C@]4(C)[C@]3(C)CC[C@@]2(C(=O)[O-])CC[C@@H]1C
REMARK SMILES IDX 26 1 30 2 25 3 3 4 31 5 24 6 4 7 2 8 32 9 22 10 5 11 1 12
REMARK SMILES IDX 33 13 23 14 20 15 6 16 7 17 19 18 21 19 8 20 18 21 17 22
REMARK SMILES IDX 10 23 9 24 14 25 11 26 12 27 15 28 16 29 27 30 28 31 29 32
REMARK SMILES IDX 13 33
REMARK H PARENT 13 34
REMARK Flexibility Score: inf
ROOT
ATOM      1  C   UNL     1      73.580  46.282   8.204  1.00  0.00     0.017 C 
ATOM      2  C   UNL     1      74.250  47.683   8.023  1.00  0.00     0.014 C 
ATOM      3  C   UNL     1      74.026  45.407   6.982  1.00  0.00     0.014 C 
ATOM      4  C   UNL     1      71.993  46.367   8.386  1.00  0.00     0.030 C 
ATOM      5  C   UNL     1      73.445  48.825   8.629  1.00  0.00     0.004 C 
ATOM      6  C   UNL     1      73.219  44.112   6.767  1.00  0.00     0.013 C 
ATOM      7  C   UNL     1      71.262  45.082   7.950  1.00  0.00    -0.063 C 
ATOM      8  C   UNL     1      71.213  47.728   8.110  1.00  0.00    -0.003 C 
ATOM      9  C   UNL     1      72.126  48.961   7.866  1.00  0.00    -0.011 C 
ATOM     10  C   UNL     1      71.684  44.344   6.651  1.00  0.00    -0.006 C 
ATOM     11  C   UNL     1      70.397  44.530   8.851  1.00  0.00    -0.027 C 
ATOM     12  C   UNL     1      70.089  47.669   7.055  1.00  0.00     0.008 C 
ATOM     13  C   UNL     1      71.436  50.278   8.267  1.00  0.00     0.008 C 
ATOM     14  C   UNL     1      71.462  45.267   5.407  1.00  0.00     0.017 C 
ATOM     15  C   UNL     1      70.844  42.970   6.477  1.00  0.00    -0.020 C 
ATOM     16  C   UNL     1      69.925  43.093   8.833  1.00  0.00     0.032 C 
ATOM     17  C   UNL     1      70.787  42.248   7.872  1.00  0.00     0.006 C 
ATOM     18  C   UNL     1      71.453  41.993   5.417  1.00  0.00     0.008 C 
ATOM     19  C   UNL     1      69.393  43.347   5.990  1.00  0.00     0.012 C 
ATOM     20  C   UNL     1      70.570  40.667   7.875  1.00  0.00    -0.025 C 
ATOM     21  C   UNL     1      72.393  40.921   5.993  1.00  0.00     0.005 C 
ATOM     22  C   UNL     1      71.771  39.971   7.089  1.00  0.00     0.003 C 
ATOM     23  C   UNL     1      69.210  40.251   7.253  1.00  0.00     0.010 C 
ATOM     24  C   UNL     1      70.586  40.221   9.370  1.00  0.00     0.012 C 
ATOM     25  C   UNL     1      71.558  38.424   6.668  1.00  0.00    -0.006 C 
ATOM     26  C   UNL     1      69.024  38.738   7.145  1.00  0.00     0.033 C 
ATOM     27  C   UNL     1      70.083  38.101   6.231  1.00  0.00     0.120 C 
ATOM     28  C   UNL     1      72.523  37.974   5.531  1.00  0.00     0.014 C 
ATOM     29  C   UNL     1      71.916  37.480   7.865  1.00  0.00     0.014 C 
ENDROOT
BRANCH   1  30
ATOM     30  C   UNL     1      74.177  45.667   9.482  1.00  0.00     0.048 C 
ATOM     31  O   UNL     1      75.125  46.218  10.101  1.00  0.00    -0.550 OA
ATOM     32  O   UNL     1      73.724  44.431   9.936  1.00  0.00    -0.550 OA
ENDBRANCH   1  30
BRANCH  27  33
ATOM     33  O   UNL     1      69.815  38.415   4.885  1.00  0.00    -0.393 OA
ATOM     34  H   UNL     1      69.623  39.383   4.823  1.00  0.00     0.210 HD
ENDBRANCH  27  33
TORSDOF 2
ENDMDL
MODEL 3
REMARK VINA RESULT:    -6.048      2.107      7.741
REMARK INTER + INTRA:          -6.888
REMARK INTER:                  -6.871
REMARK INTRA:                  -0.018
REMARK UNBOUND:                -0.310
REMARK SMILES C[C@H]1[C@H]2C3=CC[C@H]4[C@@]5(C)CC[C@@H](O)C(C)(C)[C@H]5CC[C@]4(C)[C@]3(C)CC[C@@]2(C(=O)[O-])CC[C@@H]1C
REMARK SMILES IDX 26 1 30 2 25 3 3 4 31 5 24 6 4 7 2 8 32 9 22 10 5 11 1 12
REMARK SMILES IDX 33 13 23 14 20 15 6 16 7 17 19 18 21 19 8 20 18 21 17 22
REMARK SMILES IDX 10 23 9 24 14 25 11 26 12 27 15 28 16 29 27 30 28 31 29 32
REMARK SMILES IDX 13 33
REMARK H PARENT 13 34
REMARK Flexibility Score: inf
ROOT
ATOM      1  C   UNL     1      70.526  40.866   5.835  1.00  0.00     0.017 C 
ATOM      2  C   UNL     1      70.520  39.597   4.921  1.00  0.00     0.014 C 
ATOM      3  C   UNL     1      70.676  42.105   4.886  1.00  0.00     0.014 C 
ATOM      4  C   UNL     1      71.636  40.802   6.985  1.00  0.00     0.030 C 
ATOM      5  C   UNL     1      71.082  38.355   5.600  1.00  0.00     0.004 C 
ATOM      6  C   UNL     1      71.051  43.428   5.581  1.00  0.00     0.013 C 
ATOM      7  C   UNL     1      72.090  42.193   7.470  1.00  0.00    -0.063 C 
ATOM      8  C   UNL     1      72.767  39.680   6.964  1.00  0.00    -0.003 C 
ATOM      9  C   UNL     1      72.568  38.578   5.886  1.00  0.00    -0.011 C 
ATOM     10  C   UNL     1      72.341  43.334   6.448  1.00  0.00    -0.006 C 
ATOM     11  C   UNL     1      72.051  42.418   8.816  1.00  0.00    -0.027 C 
ATOM     12  C   UNL     1      74.226  40.181   6.962  1.00  0.00     0.008 C 
ATOM     13  C   UNL     1      73.216  37.243   6.301  1.00  0.00     0.008 C 
ATOM     14  C   UNL     1      73.507  42.947   5.478  1.00  0.00     0.017 C 
ATOM     15  C   UNL     1      72.695  44.717   7.214  1.00  0.00    -0.020 C 
ATOM     16  C   UNL     1      72.017  43.783   9.467  1.00  0.00     0.032 C 
ATOM     17  C   UNL     1      71.705  44.876   8.425  1.00  0.00     0.006 C 
ATOM     18  C   UNL     1      72.596  45.983   6.299  1.00  0.00     0.008 C 
ATOM     19  C   UNL     1      74.183  44.621   7.724  1.00  0.00     0.012 C 
ATOM     20  C   UNL     1      71.427  46.355   8.958  1.00  0.00    -0.025 C 
ATOM     21  C   UNL     1      71.246  46.717   6.358  1.00  0.00     0.005 C 
ATOM     22  C   UNL     1      70.798  47.228   7.782  1.00  0.00     0.003 C 
ATOM     23  C   UNL     1      72.707  47.040   9.509  1.00  0.00     0.010 C 
ATOM     24  C   UNL     1      70.399  46.217  10.125  1.00  0.00     0.012 C 
ATOM     25  C   UNL     1      70.778  48.830   8.003  1.00  0.00    -0.006 C 
ATOM     26  C   UNL     1      72.490  48.494   9.928  1.00  0.00     0.033 C 
ATOM     27  C   UNL     1      72.059  49.367   8.738  1.00  0.00     0.120 C 
ATOM     28  C   UNL     1      70.603  49.617   6.669  1.00  0.00     0.014 C 
ATOM     29  C   UNL     1      69.532  49.248   8.854  1.00  0.00     0.014 C 
ENDROOT
BRANCH   1  30
ATOM     30  C   UNL     1      69.144  40.935   6.507  1.00  0.00     0.048 C 
ATOM     31  O   UNL     1      68.397  41.941   6.380  1.00  0.00    -0.550 OA
ATOM     32  O   UNL     1      68.725  39.906   7.345  1.00  0.00    -0.550 OA
ENDBRANCH   1  30
BRANCH  27  33
ATOM     33  O   UNL     1      73.151  49.584   7.875  1.00  0.00    -0.393 OA
ATOM     34  H   UNL     1      73.399  50.540   7.921  1.00  0.00     0.210 HD
ENDBRANCH  27  33
TORSDOF 2
ENDMDL
MODEL 4
REMARK VINA RESULT:    -5.913      2.364      7.503
REMARK INTER + INTRA:          -6.741
REMARK INTER:                  -6.437
REMARK INTRA:                  -0.304
REMARK UNBOUND:                -0.310
REMARK SMILES C[C@H]1[C@H]2C3=CC[C@H]4[C@@]5(C)CC[C@@H](O)C(C)(C)[C@H]5CC[C@]4(C)[C@]3(C)CC[C@@]2(C(=O)[O-])CC[C@@H]1C
REMARK SMILES IDX 26 1 30 2 25 3 3 4 31 5 24 6 4 7 2 8 32 9 22 10 5 11 1 12
REMARK SMILES IDX 33 13 23 14 20 15 6 16 7 17 19 18 21 19 8 20 18 21 17 22
REMARK SMILES IDX 10 23 9 24 14 25 11 26 12 27 15 28 16 29 27 30 28 31 29 32
REMARK SMILES IDX 13 33
REMARK H PARENT 13 34
REMARK Flexibility Score: inf
ROOT
ATOM      1  C   UNL     1      69.814  40.380   6.941  1.00  0.00     0.017 C 
ATOM      2  C   UNL     1      69.456  38.871   6.735  1.00  0.00     0.014 C 
ATOM      3  C   UNL     1      70.111  40.971   5.520  1.00  0.00     0.014 C 
ATOM      4  C   UNL     1      71.002  40.602   7.989  1.00  0.00     0.030 C 
ATOM      5  C   UNL     1      69.823  37.991   7.922  1.00  0.00     0.004 C 
ATOM      6  C   UNL     1      70.816  42.341   5.509  1.00  0.00     0.013 C 
ATOM      7  C   UNL     1      71.775  41.916   7.761  1.00  0.00    -0.063 C 
ATOM      8  C   UNL     1      71.874  39.373   8.505  1.00  0.00    -0.003 C 
ATOM      9  C   UNL     1      71.345  37.976   8.075  1.00  0.00    -0.011 C 
ATOM     10  C   UNL     1      72.144  42.367   6.322  1.00  0.00    -0.006 C 
ATOM     11  C   UNL     1      71.923  42.738   8.840  1.00  0.00    -0.027 C 
ATOM     12  C   UNL     1      73.396  39.470   8.272  1.00  0.00     0.008 C 
ATOM     13  C   UNL     1      71.749  36.875   9.073  1.00  0.00     0.008 C 
ATOM     14  C   UNL     1      73.100  41.322   5.655  1.00  0.00     0.017 C 
ATOM     15  C   UNL     1      72.848  43.826   6.345  1.00  0.00    -0.020 C 
ATOM     16  C   UNL     1      72.233  44.217   8.769  1.00  0.00     0.032 C 
ATOM     17  C   UNL     1      72.043  44.745   7.333  1.00  0.00     0.006 C 
ATOM     18  C   UNL     1      72.912  44.512   4.940  1.00  0.00     0.008 C 
ATOM     19  C   UNL     1      74.331  43.640   6.845  1.00  0.00     0.012 C 
ATOM     20  C   UNL     1      72.126  46.323   7.104  1.00  0.00    -0.025 C 
ATOM     21  C   UNL     1      71.752  45.476   4.639  1.00  0.00     0.005 C 
ATOM     22  C   UNL     1      71.567  46.672   5.652  1.00  0.00     0.003 C 
ATOM     23  C   UNL     1      73.568  46.873   7.270  1.00  0.00     0.010 C 
ATOM     24  C   UNL     1      71.219  46.976   8.193  1.00  0.00     0.012 C 
ATOM     25  C   UNL     1      71.895  48.153   5.089  1.00  0.00    -0.006 C 
ATOM     26  C   UNL     1      73.694  48.363   6.951  1.00  0.00     0.033 C 
ATOM     27  C   UNL     1      73.328  48.661   5.488  1.00  0.00     0.120 C 
ATOM     28  C   UNL     1      71.745  48.253   3.542  1.00  0.00     0.014 C 
ATOM     29  C   UNL     1      70.855  49.187   5.638  1.00  0.00     0.014 C 
ENDROOT
BRANCH   1  30
ATOM     30  C   UNL     1      68.552  41.063   7.495  1.00  0.00     0.048 C 
ATOM     31  O   UNL     1      67.637  41.478   6.735  1.00  0.00    -0.550 OA
ATOM     32  O   UNL     1      68.437  41.310   8.860  1.00  0.00    -0.550 OA
ENDBRANCH   1  30
BRANCH  27  33
ATOM     33  O   UNL     1      74.345  48.202   4.629  1.00  0.00    -0.393 OA
ATOM     34  H   UNL     1      74.231  48.638   3.750  1.00  0.00     0.210 HD
ENDBRANCH  27  33
TORSDOF 2
ENDMDL
MODEL 5
REMARK VINA RESULT:    -5.734      2.500      4.278
REMARK INTER + INTRA:          -6.546
REMARK INTER:                  -6.304
REMARK INTRA:                  -0.242
REMARK UNBOUND:                -0.310
REMARK SMILES C[C@H]1[C@H]2C3=CC[C@H]4[C@@]5(C)CC[C@@H](O)C(C)(C)[C@H]5CC[C@]4(C)[C@]3(C)CC[C@@]2(C(=O)[O-])CC[C@@H]1C
REMARK SMILES IDX 26 1 30 2 25 3 3 4 31 5 24 6 4 7 2 8 32 9 22 10 5 11 1 12
REMARK SMILES IDX 33 13 23 14 20 15 6 16 7 17 19 18 21 19 8 20 18 21 17 22
REMARK SMILES IDX 10 23 9 24 14 25 11 26 12 27 15 28 16 29 27 30 28 31 29 32
REMARK SMILES IDX 13 33
REMARK H PARENT 13 34
REMARK Flexibility Score: inf
ROOT
ATOM      1  C   UNL     1      72.973  45.900   6.361  1.00  0.00     0.017 C 
ATOM      2  C   UNL     1      73.074  47.384   5.878  1.00  0.00     0.014 C 
ATOM      3  C   UNL     1      71.884  45.208   5.470  1.00  0.00     0.014 C 
ATOM      4  C   UNL     1      72.691  45.772   7.931  1.00  0.00     0.030 C 
ATOM      5  C   UNL     1      73.485  48.354   6.977  1.00  0.00     0.004 C 
ATOM      6  C   UNL     1      71.371  43.851   5.987  1.00  0.00     0.013 C 
ATOM      7  C   UNL     1      71.989  44.455   8.317  1.00  0.00    -0.063 C 
ATOM      8  C   UNL     1      72.280  47.047   8.791  1.00  0.00    -0.003 C 
ATOM      9  C   UNL     1      72.381  48.401   8.035  1.00  0.00    -0.011 C 
ATOM     10  C   UNL     1      70.828  43.903   7.446  1.00  0.00    -0.006 C 
ATOM     11  C   UNL     1      72.567  43.717   9.309  1.00  0.00    -0.027 C 
ATOM     12  C   UNL     1      70.942  46.953   9.555  1.00  0.00     0.008 C 
ATOM     13  C   UNL     1      72.639  49.578   8.994  1.00  0.00     0.008 C 
ATOM     14  C   UNL     1      69.628  44.908   7.443  1.00  0.00     0.017 C 
ATOM     15  C   UNL     1      70.340  42.460   7.995  1.00  0.00    -0.020 C 
ATOM     16  C   UNL     1      72.331  42.242   9.543  1.00  0.00     0.032 C 
ATOM     17  C   UNL     1      71.615  41.605   8.335  1.00  0.00     0.006 C 
ATOM     18  C   UNL     1      69.447  41.671   6.979  1.00  0.00     0.008 C 
ATOM     19  C   UNL     1      69.475  42.701   9.290  1.00  0.00     0.012 C 
ATOM     20  C   UNL     1      71.464  40.016   8.311  1.00  0.00    -0.025 C 
ATOM     21  C   UNL     1      70.209  40.672   6.092  1.00  0.00     0.005 C 
ATOM     22  C   UNL     1      71.021  39.553   6.851  1.00  0.00     0.003 C 
ATOM     23  C   UNL     1      70.451  39.499   9.368  1.00  0.00     0.010 C 
ATOM     24  C   UNL     1      72.871  39.434   8.649  1.00  0.00     0.012 C 
ATOM     25  C   UNL     1      70.469  38.039   6.712  1.00  0.00    -0.006 C 
ATOM     26  C   UNL     1      70.208  37.992   9.295  1.00  0.00     0.033 C 
ATOM     27  C   UNL     1      69.605  37.581   7.942  1.00  0.00     0.120 C 
ATOM     28  C   UNL     1      69.637  37.822   5.412  1.00  0.00     0.014 C 
ATOM     29  C   UNL     1      71.662  37.034   6.568  1.00  0.00     0.014 C 
ENDROOT
BRANCH   1  30
ATOM     30  C   UNL     1      74.331  45.242   6.063  1.00  0.00     0.048 C 
ATOM     31  O   UNL     1      74.754  45.104   4.884  1.00  0.00    -0.550 OA
ATOM     32  O   UNL     1      75.090  44.710   7.101  1.00  0.00    -0.550 OA
ENDBRANCH   1  30
BRANCH  27  33
ATOM     33  O   UNL     1      68.260  37.988   7.866  1.00  0.00    -0.393 OA
ATOM     34  H   UNL     1      68.229  38.891   7.464  1.00  0.00     0.210 HD
ENDBRANCH  27  33
TORSDOF 2
ENDMDL
MODEL 6
REMARK VINA RESULT:    -5.454      1.729      7.889
REMARK INTER + INTRA:          -6.242
REMARK INTER:                  -6.201
REMARK INTRA:                  -0.041
REMARK UNBOUND:                -0.310
REMARK SMILES C[C@H]1[C@H]2C3=CC[C@H]4[C@@]5(C)CC[C@@H](O)C(C)(C)[C@H]5CC[C@]4(C)[C@]3(C)CC[C@@]2(C(=O)[O-])CC[C@@H]1C
REMARK SMILES IDX 26 1 30 2 25 3 3 4 31 5 24 6 4 7 2 8 32 9 22 10 5 11 1 12
REMARK SMILES IDX 33 13 23 14 20 15 6 16 7 17 19 18 21 19 8 20 18 21 17 22
REMARK SMILES IDX 10 23 9 24 14 25 11 26 12 27 15 28 16 29 27 30 28 31 29 32
REMARK SMILES IDX 13 33
REMARK H PARENT 13 34
REMARK Flexibility Score: inf
ROOT
ATOM      1  C   UNL     1      72.789  39.678   7.955  1.00  0.00     0.017 C 
ATOM      2  C   UNL     1      72.423  38.162   7.826  1.00  0.00     0.014 C 
ATOM      3  C   UNL     1      71.435  40.458   8.086  1.00  0.00     0.014 C 
ATOM      4  C   UNL     1      73.715  40.200   6.761  1.00  0.00     0.030 C 
ATOM      5  C   UNL     1      73.432  37.361   7.015  1.00  0.00     0.004 C 
ATOM      6  C   UNL     1      71.529  41.983   7.879  1.00  0.00     0.013 C 
ATOM      7  C   UNL     1      73.581  41.714   6.504  1.00  0.00    -0.063 C 
ATOM      8  C   UNL     1      73.960  39.304   5.467  1.00  0.00    -0.003 C 
ATOM      9  C   UNL     1      73.409  37.854   5.567  1.00  0.00    -0.011 C 
ATOM     10  C   UNL     1      72.183  42.390   6.526  1.00  0.00    -0.006 C 
ATOM     11  C   UNL     1      74.737  42.439   6.472  1.00  0.00    -0.027 C 
ATOM     12  C   UNL     1      73.572  39.938   4.114  1.00  0.00     0.008 C 
ATOM     13  C   UNL     1      74.198  36.875   4.679  1.00  0.00     0.008 C 
ATOM     14  C   UNL     1      71.278  41.800   5.394  1.00  0.00     0.017 C 
ATOM     15  C   UNL     1      72.322  43.993   6.344  1.00  0.00    -0.020 C 
ATOM     16  C   UNL     1      74.831  43.934   6.677  1.00  0.00     0.032 C 
ATOM     17  C   UNL     1      73.510  44.490   7.246  1.00  0.00     0.006 C 
ATOM     18  C   UNL     1      71.024  44.782   6.722  1.00  0.00     0.008 C 
ATOM     19  C   UNL     1      72.623  44.284   4.825  1.00  0.00     0.012 C 
ATOM     20  C   UNL     1      73.487  46.014   7.720  1.00  0.00    -0.025 C 
ATOM     21  C   UNL     1      70.989  45.312   8.165  1.00  0.00     0.005 C 
ATOM     22  C   UNL     1      72.167  46.278   8.576  1.00  0.00     0.003 C 
ATOM     23  C   UNL     1      73.562  47.009   6.530  1.00  0.00     0.010 C 
ATOM     24  C   UNL     1      74.749  46.218   8.615  1.00  0.00     0.012 C 
ATOM     25  C   UNL     1      71.776  47.825   8.840  1.00  0.00    -0.006 C 
ATOM     26  C   UNL     1      73.434  48.473   6.949  1.00  0.00     0.033 C 
ATOM     27  C   UNL     1      72.075  48.756   7.610  1.00  0.00     0.120 C 
ATOM     28  C   UNL     1      70.282  48.004   9.247  1.00  0.00     0.014 C 
ATOM     29  C   UNL     1      72.572  48.387  10.066  1.00  0.00     0.014 C 
ENDROOT
BRANCH   1  30
ATOM     30  C   UNL     1      73.568  39.836   9.271  1.00  0.00     0.048 C 
ATOM     31  O   UNL     1      73.663  38.893  10.101  1.00  0.00    -0.550 OA
ATOM     32  O   UNL     1      74.122  41.067   9.608  1.00  0.00    -0.550 OA
ENDBRANCH   1  30
BRANCH  27  33
ATOM     33  O   UNL     1      71.053  48.751   6.641  1.00  0.00    -0.393 OA
ATOM     34  H   UNL     1      71.459  48.553   5.762  1.00  0.00     0.210 HD
ENDBRANCH  27  33
TORSDOF 2
ENDMDL
MODEL 7
REMARK VINA RESULT:    -5.380      1.744      2.314
REMARK INTER + INTRA:          -6.162
REMARK INTER:                  -5.857
REMARK INTRA:                  -0.305
REMARK UNBOUND:                -0.310
REMARK SMILES C[C@H]1[C@H]2C3=CC[C@H]4[C@@]5(C)CC[C@@H](O)C(C)(C)[C@H]5CC[C@]4(C)[C@]3(C)CC[C@@]2(C(=O)[O-])CC[C@@H]1C
REMARK SMILES IDX 26 1 30 2 25 3 3 4 31 5 24 6 4 7 2 8 32 9 22 10 5 11 1 12
REMARK SMILES IDX 33 13 23 14 20 15 6 16 7 17 19 18 21 19 8 20 18 21 17 22
REMARK SMILES IDX 10 23 9 24 14 25 11 26 12 27 15 28 16 29 27 30 28 31 29 32
REMARK SMILES IDX 13 33
REMARK H PARENT 13 34
REMARK Flexibility Score: inf
ROOT
ATOM      1  C   UNL     1      69.096  46.107   9.025  1.00  0.00     0.017 C 
ATOM      2  C   UNL     1      69.016  47.489   9.753  1.00  0.00     0.014 C 
ATOM      3  C   UNL     1      69.422  45.037  10.123  1.00  0.00     0.014 C 
ATOM      4  C   UNL     1      70.127  46.105   7.803  1.00  0.00     0.030 C 
ATOM      5  C   UNL     1      69.413  48.665   8.871  1.00  0.00     0.004 C 
ATOM      6  C   UNL     1      69.886  43.666   9.593  1.00  0.00     0.013 C 
ATOM      7  C   UNL     1      70.688  44.704   7.483  1.00  0.00    -0.063 C 
ATOM      8  C   UNL     1      71.140  47.315   7.588  1.00  0.00    -0.003 C 
ATOM      9  C   UNL     1      70.895  48.539   8.514  1.00  0.00    -0.011 C 
ATOM     10  C   UNL     1      71.109  43.750   8.633  1.00  0.00    -0.006 C 
ATOM     11  C   UNL     1      70.595  44.284   6.188  1.00  0.00    -0.027 C 
ATOM     12  C   UNL     1      72.640  46.953   7.556  1.00  0.00     0.008 C 
ATOM     13  C   UNL     1      71.382  49.852   7.874  1.00  0.00     0.008 C 
ATOM     14  C   UNL     1      72.284  44.377   9.455  1.00  0.00     0.017 C 
ATOM     15  C   UNL     1      71.554  42.309   8.043  1.00  0.00    -0.020 C 
ATOM     16  C   UNL     1      70.659  42.843   5.736  1.00  0.00     0.032 C 
ATOM     17  C   UNL     1      70.518  41.887   6.938  1.00  0.00     0.006 C 
ATOM     18  C   UNL     1      71.634  41.184   9.129  1.00  0.00     0.008 C 
ATOM     19  C   UNL     1      72.993  42.463   7.420  1.00  0.00     0.012 C 
ATOM     20  C   UNL     1      70.357  40.329   6.635  1.00  0.00    -0.025 C 
ATOM     21  C   UNL     1      70.362  40.330   9.268  1.00  0.00     0.005 C 
ATOM     22  C   UNL     1      69.886  39.582   7.963  1.00  0.00     0.003 C 
ATOM     23  C   UNL     1      71.665  39.689   6.096  1.00  0.00     0.010 C 
ATOM     24  C   UNL     1      69.256  40.203   5.537  1.00  0.00     0.012 C 
ATOM     25  C   UNL     1      70.013  37.969   7.968  1.00  0.00    -0.006 C 
ATOM     26  C   UNL     1      71.570  38.176   5.899  1.00  0.00     0.033 C 
ATOM     27  C   UNL     1      71.297  37.449   7.226  1.00  0.00     0.120 C 
ATOM     28  C   UNL     1      69.994  37.370   9.406  1.00  0.00     0.014 C 
ATOM     29  C   UNL     1      68.768  37.322   7.272  1.00  0.00     0.014 C 
ENDROOT
BRANCH   1  30
ATOM     30  C   UNL     1      67.692  45.817   8.468  1.00  0.00     0.048 C 
ATOM     31  O   UNL     1      66.791  45.304   9.183  1.00  0.00    -0.550 OA
ATOM     32  O   UNL     1      67.415  46.047   7.124  1.00  0.00    -0.550 OA
ENDBRANCH   1  30
BRANCH  27  33
ATOM     33  O   UNL     1      72.452  37.458   8.030  1.00  0.00    -0.393 OA
ATOM     34  H   UNL     1      73.235  37.284   7.453  1.00  0.00     0.210 HD
ENDBRANCH  27  33
TORSDOF 2
ENDMDL
MODEL 8
REMARK VINA RESULT:    -5.067      2.301      3.406
REMARK INTER + INTRA:          -5.821
REMARK INTER:                  -5.712
REMARK INTRA:                  -0.109
REMARK UNBOUND:                -0.310
REMARK SMILES C[C@H]1[C@H]2C3=CC[C@H]4[C@@]5(C)CC[C@@H](O)C(C)(C)[C@H]5CC[C@]4(C)[C@]3(C)CC[C@@]2(C(=O)[O-])CC[C@@H]1C
REMARK SMILES IDX 26 1 30 2 25 3 3 4 31 5 24 6 4 7 2 8 32 9 22 10 5 11 1 12
REMARK SMILES IDX 33 13 23 14 20 15 6 16 7 17 19 18 21 19 8 20 18 21 17 22
REMARK SMILES IDX 10 23 9 24 14 25 11 26 12 27 15 28 16 29 27 30 28 31 29 32
REMARK SMILES IDX 13 33
REMARK H PARENT 13 34
REMARK Flexibility Score: inf
ROOT
ATOM      1  C   UNL     1      71.862  46.486   6.005  1.00  0.00     0.017 C 
ATOM      2  C   UNL     1      71.184  47.863   6.303  1.00  0.00     0.014 C 
ATOM      3  C   UNL     1      70.749  45.392   6.156  1.00  0.00     0.014 C 
ATOM      4  C   UNL     1      73.152  46.216   6.912  1.00  0.00     0.030 C 
ATOM      5  C   UNL     1      72.135  48.894   6.894  1.00  0.00     0.004 C 
ATOM      6  C   UNL     1      71.257  43.940   6.248  1.00  0.00     0.013 C 
ATOM      7  C   UNL     1      73.455  44.717   7.106  1.00  0.00    -0.063 C 
ATOM      8  C   UNL     1      73.482  47.150   8.158  1.00  0.00    -0.003 C 
ATOM      9  C   UNL     1      72.589  48.417   8.275  1.00  0.00    -0.011 C 
ATOM     10  C   UNL     1      72.301  43.715   7.380  1.00  0.00    -0.006 C 
ATOM     11  C   UNL     1      74.724  44.303   6.820  1.00  0.00    -0.027 C 
ATOM     12  C   UNL     1      73.603  46.446   9.526  1.00  0.00     0.008 C 
ATOM     13  C   UNL     1      73.310  49.566   9.004  1.00  0.00     0.008 C 
ATOM     14  C   UNL     1      71.586  44.066   8.728  1.00  0.00     0.017 C 
ATOM     15  C   UNL     1      72.865  42.197   7.433  1.00  0.00    -0.020 C 
ATOM     16  C   UNL     1      75.124  42.877   6.514  1.00  0.00     0.032 C 
ATOM     17  C   UNL     1      73.879  42.007   6.247  1.00  0.00     0.006 C 
ATOM     18  C   UNL     1      71.745  41.108   7.332  1.00  0.00     0.008 C 
ATOM     19  C   UNL     1      73.590  41.997   8.818  1.00  0.00     0.012 C 
ATOM     20  C   UNL     1      74.110  40.523   5.706  1.00  0.00    -0.025 C 
ATOM     21  C   UNL     1      71.486  40.579   5.911  1.00  0.00     0.005 C 
ATOM     22  C   UNL     1      72.726  39.935   5.177  1.00  0.00     0.003 C 
ATOM     23  C   UNL     1      74.713  39.584   6.786  1.00  0.00     0.010 C 
ATOM     24  C   UNL     1      75.125  40.635   4.526  1.00  0.00     0.012 C 
ATOM     25  C   UNL     1      72.668  38.339   4.926  1.00  0.00    -0.006 C 
ATOM     26  C   UNL     1      74.845  38.132   6.327  1.00  0.00     0.033 C 
ATOM     27  C   UNL     1      73.476  37.517   5.994  1.00  0.00     0.120 C 
ATOM     28  C   UNL     1      71.210  37.791   4.877  1.00  0.00     0.014 C 
ATOM     29  C   UNL     1      73.251  37.986   3.516  1.00  0.00     0.014 C 
ENDROOT
BRANCH   1  30
ATOM     30  C   UNL     1      72.310  46.520   4.533  1.00  0.00     0.048 C 
ATOM     31  O   UNL     1      73.234  45.779   4.106  1.00  0.00    -0.550 OA
ATOM     32  O   UNL     1      71.746  47.443   3.656  1.00  0.00    -0.550 OA
ENDBRANCH   1  30
BRANCH  27  33
ATOM     33  O   UNL     1      72.754  37.272   7.178  1.00  0.00    -0.393 OA
ATOM     34  H   UNL     1      72.325  38.115   7.462  1.00  0.00     0.210 HD
ENDBRANCH  27  33
TORSDOF 2
ENDMDL
MODEL 9
REMARK VINA RESULT:    -4.544      2.134      7.627
REMARK INTER + INTRA:          -5.253
REMARK INTER:                  -4.942
REMARK INTRA:                  -0.311
REMARK UNBOUND:                -0.310
REMARK SMILES C[C@H]1[C@H]2C3=CC[C@H]4[C@@]5(C)CC[C@@H](O)C(C)(C)[C@H]5CC[C@]4(C)[C@]3(C)CC[C@@]2(C(=O)[O-])CC[C@@H]1C
REMARK SMILES IDX 26 1 30 2 25 3 3 4 31 5 24 6 4 7 2 8 32 9 22 10 5 11 1 12
REMARK SMILES IDX 33 13 23 14 20 15 6 16 7 17 19 18 21 19 8 20 18 21 17 22
REMARK SMILES IDX 10 23 9 24 14 25 11 26 12 27 15 28 16 29 27 30 28 31 29 32
REMARK SMILES IDX 13 33
REMARK H PARENT 13 34
REMARK Flexibility Score: inf
ROOT
ATOM      1  C   UNL     1      69.595  40.517   7.495  1.00  0.00     0.017 C 
ATOM      2  C   UNL     1      68.769  39.289   6.987  1.00  0.00     0.014 C 
ATOM      3  C   UNL     1      68.917  41.797   6.894  1.00  0.00     0.014 C 
ATOM      4  C   UNL     1      71.155  40.401   7.158  1.00  0.00     0.030 C 
ATOM      5  C   UNL     1      69.595  38.019   6.841  1.00  0.00     0.004 C 
ATOM      6  C   UNL     1      69.755  43.087   6.973  1.00  0.00     0.013 C 
ATOM      7  C   UNL     1      71.859  41.769   7.062  1.00  0.00    -0.063 C 
ATOM      8  C   UNL     1      71.693  39.280   6.163  1.00  0.00    -0.003 C 
ATOM      9  C   UNL     1      70.633  38.227   5.737  1.00  0.00    -0.011 C 
ATOM     10  C   UNL     1      71.169  42.954   6.335  1.00  0.00    -0.006 C 
ATOM     11  C   UNL     1      72.988  41.934   7.812  1.00  0.00    -0.027 C 
ATOM     12  C   UNL     1      72.483  39.780   4.935  1.00  0.00     0.008 C 
ATOM     13  C   UNL     1      71.276  36.875   5.376  1.00  0.00     0.008 C 
ATOM     14  C   UNL     1      70.950  42.609   4.824  1.00  0.00     0.017 C 
ATOM     15  C   UNL     1      72.058  44.301   6.471  1.00  0.00    -0.020 C 
ATOM     16  C   UNL     1      73.573  43.269   8.216  1.00  0.00     0.032 C 
ATOM     17  C   UNL     1      72.567  44.408   7.954  1.00  0.00     0.006 C 
ATOM     18  C   UNL     1      71.279  45.607   6.100  1.00  0.00     0.008 C 
ATOM     19  C   UNL     1      73.275  44.182   5.476  1.00  0.00     0.012 C 
ATOM     20  C   UNL     1      72.928  45.861   8.506  1.00  0.00    -0.025 C 
ATOM     21  C   UNL     1      70.642  46.339   7.293  1.00  0.00     0.005 C 
ATOM     22  C   UNL     1      71.631  46.786   8.438  1.00  0.00     0.003 C 
ATOM     23  C   UNL     1      74.098  46.520   7.727  1.00  0.00     0.010 C 
ATOM     24  C   UNL     1      73.368  45.673   9.992  1.00  0.00     0.012 C 
ATOM     25  C   UNL     1      71.869  48.377   8.607  1.00  0.00    -0.006 C 
ATOM     26  C   UNL     1      74.393  47.954   8.166  1.00  0.00     0.033 C 
ATOM     27  C   UNL     1      73.190  48.880   7.922  1.00  0.00     0.120 C 
ATOM     28  C   UNL     1      70.676  49.222   8.069  1.00  0.00     0.014 C 
ATOM     29  C   UNL     1      71.947  48.758  10.125  1.00  0.00     0.014 C 
ENDROOT
BRANCH   1  30
ATOM     30  C   UNL     1      69.436  40.558   9.024  1.00  0.00     0.048 C 
ATOM     31  O   UNL     1      70.310  40.076   9.793  1.00  0.00    -0.550 OA
ATOM     32  O   UNL     1      68.269  41.064   9.589  1.00  0.00    -0.550 OA
ENDBRANCH   1  30
BRANCH  27  33
ATOM     33  O   UNL     1      73.046  49.134   6.544  1.00  0.00    -0.393 OA
ATOM     34  H   UNL     1      72.924  50.107   6.418  1.00  0.00     0.210 HD
ENDBRANCH  27  33
TORSDOF 2
ENDMDL
