MODEL 1
REMARK VINA RESULT:    -3.665      0.000      0.000
REMARK INTER + INTRA:          -3.902
REMARK INTER:                  -3.880
REMARK INTRA:                  -0.022
REMARK UNBOUND:                -0.022
REMARK SMILES O=C([O-])c1cccnc1
REMARK SMILES IDX 4 1 5 2 9 3 6 4 8 5 7 6 2 7 1 8 3 9
REMARK H PARENT
REMARK Flexibility Score: inf
ROOT
ATOM      1  C   UNL     1      26.356  58.413  -9.700  1.00  0.00     0.016 A 
ATOM      2  C   UNL     1      27.220  58.118 -10.767  1.00  0.00     0.013 A 
ATOM      3  C   UNL     1      26.424  59.691  -9.119  1.00  0.00     0.120 A 
ATOM      4  C   UNL     1      28.119  59.081 -11.228  1.00  0.00     0.021 A 
ATOM      5  N   UNL     1      27.308  60.613  -9.588  1.00  0.00    -0.264 NA
ATOM      6  C   UNL     1      28.149  60.336 -10.619  1.00  0.00     0.111 A 
ENDROOT
BRANCH   1   7
ATOM      7  C   UNL     1      25.400  57.400  -9.202  1.00  0.00     0.073 C 
ATOM      8  O   UNL     1      24.322  57.752  -8.652  1.00  0.00    -0.545 OA
ATOM      9  O   UNL     1      25.677  56.044  -9.334  1.00  0.00    -0.545 OA
ENDBRANCH   1   7
TORSDOF 1
ENDMDL
MODEL 2
REMARK VINA RESULT:    -3.563      3.639      4.392
REMARK INTER + INTRA:          -3.793
REMARK INTER:                  -3.773
REMARK INTRA:                  -0.019
REMARK UNBOUND:                -0.022
REMARK SMILES O=C([O-])c1cccnc1
REMARK SMILES IDX 4 1 5 2 9 3 6 4 8 5 7 6 2 7 1 8 3 9
REMARK H PARENT
REMARK Flexibility Score: inf
ROOT
ATOM      1  C   UNL     1      29.601  58.497 -11.733  1.00  0.00     0.016 A 
ATOM      2  C   UNL     1      29.613  57.640 -12.845  1.00  0.00     0.013 A 
ATOM      3  C   UNL     1      30.831  58.871 -11.164  1.00  0.00     0.120 A 
ATOM      4  C   UNL     1      30.825  57.178 -13.361  1.00  0.00     0.021 A 
ATOM      5  N   UNL     1      31.999  58.407 -11.687  1.00  0.00    -0.264 NA
ATOM      6  C   UNL     1      32.021  57.577 -12.762  1.00  0.00     0.111 A 
ENDROOT
BRANCH   1   7
ATOM      7  C   UNL     1      28.323  58.992 -11.177  1.00  0.00     0.073 C 
ATOM      8  O   UNL     1      28.182  60.209 -10.882  1.00  0.00    -0.545 OA
ATOM      9  O   UNL     1      27.260  58.121 -10.973  1.00  0.00    -0.545 OA
ENDBRANCH   1   7
TORSDOF 1
ENDMDL
MODEL 3
REMARK VINA RESULT:    -3.559     19.550     20.526
REMARK INTER + INTRA:          -3.789
REMARK INTER:                  -3.768
REMARK INTRA:                  -0.021
REMARK UNBOUND:                -0.022
REMARK SMILES O=C([O-])c1cccnc1
REMARK SMILES IDX 4 1 5 2 9 3 6 4 8 5 7 6 2 7 1 8 3 9
REMARK H PARENT
REMARK Flexibility Score: inf
ROOT
ATOM      1  C   UNL     1      16.456  44.416   0.318  1.00  0.00     0.016 A 
ATOM      2  C   UNL     1      15.874  44.158   1.569  1.00  0.00     0.013 A 
ATOM      3  C   UNL     1      15.706  45.128  -0.635  1.00  0.00     0.120 A 
ATOM      4  C   UNL     1      14.580  44.605   1.845  1.00  0.00     0.021 A 
ATOM      5  N   UNL     1      14.448  45.553  -0.340  1.00  0.00    -0.264 NA
ATOM      6  C   UNL     1      13.875  45.308   0.868  1.00  0.00     0.111 A 
ENDROOT
BRANCH   1   7
ATOM      7  C   UNL     1      17.826  43.947   0.013  1.00  0.00     0.073 C 
ATOM      8  O   UNL     1      18.603  44.653  -0.683  1.00  0.00    -0.545 OA
ATOM      9  O   UNL     1      18.273  42.721   0.490  1.00  0.00    -0.545 OA
ENDBRANCH   1   7
TORSDOF 1
ENDMDL
MODEL 4
REMARK VINA RESULT:    -3.539      4.535      5.432
REMARK INTER + INTRA:          -3.768
REMARK INTER:                  -3.746
REMARK INTRA:                  -0.022
REMARK UNBOUND:                -0.022
REMARK SMILES O=C([O-])c1cccnc1
REMARK SMILES IDX 4 1 5 2 9 3 6 4 8 5 7 6 2 7 1 8 3 9
REMARK H PARENT
REMARK Flexibility Score: inf
ROOT
ATOM      1  C   UNL     1      30.565  58.171 -12.006  1.00  0.00     0.016 A 
ATOM      2  C   UNL     1      30.158  57.425 -13.124  1.00  0.00     0.013 A 
ATOM      3  C   UNL     1      31.931  58.193 -11.678  1.00  0.00     0.120 A 
ATOM      4  C   UNL     1      31.101  56.727 -13.881  1.00  0.00     0.021 A 
ATOM      5  N   UNL     1      32.830  57.504 -12.433  1.00  0.00    -0.264 NA
ATOM      6  C   UNL     1      32.447  56.779 -13.516  1.00  0.00     0.111 A 
ENDROOT
BRANCH   1   7
ATOM      7  C   UNL     1      29.575  58.914 -11.195  1.00  0.00     0.073 C 
ATOM      8  O   UNL     1      29.937  59.875 -10.466  1.00  0.00    -0.545 OA
ATOM      9  O   UNL     1      28.231  58.560 -11.227  1.00  0.00    -0.545 OA
ENDBRANCH   1   7
TORSDOF 1
ENDMDL
MODEL 5
REMARK VINA RESULT:    -3.526     19.427     20.323
REMARK INTER + INTRA:          -3.754
REMARK INTER:                  -3.738
REMARK INTRA:                  -0.016
REMARK UNBOUND:                -0.022
REMARK SMILES O=C([O-])c1cccnc1
REMARK SMILES IDX 4 1 5 2 9 3 6 4 8 5 7 6 2 7 1 8 3 9
REMARK H PARENT
REMARK Flexibility Score: inf
ROOT
ATOM      1  C   UNL     1      17.883  43.049  -0.228  1.00  0.00     0.016 A 
ATOM      2  C   UNL     1      18.246  44.391  -0.429  1.00  0.00     0.013 A 
ATOM      3  C   UNL     1      16.527  42.698  -0.350  1.00  0.00     0.120 A 
ATOM      4  C   UNL     1      17.272  45.341  -0.741  1.00  0.00     0.021 A 
ATOM      5  N   UNL     1      15.597  43.643  -0.656  1.00  0.00    -0.264 NA
ATOM      6  C   UNL     1      15.938  44.944  -0.852  1.00  0.00     0.111 A 
ENDROOT
BRANCH   1   7
ATOM      7  C   UNL     1      18.906  42.033   0.104  1.00  0.00     0.073 C 
ATOM      8  O   UNL     1      19.296  41.209  -0.766  1.00  0.00    -0.545 OA
ATOM      9  O   UNL     1      19.451  41.974   1.381  1.00  0.00    -0.545 OA
ENDBRANCH   1   7
TORSDOF 1
ENDMDL
MODEL 6
REMARK VINA RESULT:    -3.519      4.837      5.964
REMARK INTER + INTRA:          -3.747
REMARK INTER:                  -3.728
REMARK INTRA:                  -0.019
REMARK UNBOUND:                -0.022
REMARK SMILES O=C([O-])c1cccnc1
REMARK SMILES IDX 4 1 5 2 9 3 6 4 8 5 7 6 2 7 1 8 3 9
REMARK H PARENT
REMARK Flexibility Score: inf
ROOT
ATOM      1  C   UNL     1      31.115  58.043 -12.475  1.00  0.00     0.016 A 
ATOM      2  C   UNL     1      29.728  58.260 -12.447  1.00  0.00     0.013 A 
ATOM      3  C   UNL     1      31.879  58.461 -11.371  1.00  0.00     0.120 A 
ATOM      4  C   UNL     1      29.137  58.878 -11.343  1.00  0.00     0.021 A 
ATOM      5  N   UNL     1      31.278  59.060 -10.307  1.00  0.00    -0.264 NA
ATOM      6  C   UNL     1      29.937  59.275 -10.271  1.00  0.00     0.111 A 
ENDROOT
BRANCH   1   7
ATOM      7  C   UNL     1      31.752  57.390 -13.639  1.00  0.00     0.073 C 
ATOM      8  O   UNL     1      31.317  56.290 -14.074  1.00  0.00    -0.545 OA
ATOM      9  O   UNL     1      32.841  57.981 -14.269  1.00  0.00    -0.545 OA
ENDBRANCH   1   7
TORSDOF 1
ENDMDL
MODEL 7
REMARK VINA RESULT:    -3.386      3.300      4.157
REMARK INTER + INTRA:          -3.606
REMARK INTER:                  -3.586
REMARK INTRA:                  -0.020
REMARK UNBOUND:                -0.022
REMARK SMILES O=C([O-])c1cccnc1
REMARK SMILES IDX 4 1 5 2 9 3 6 4 8 5 7 6 2 7 1 8 3 9
REMARK H PARENT
REMARK Flexibility Score: inf
ROOT
ATOM      1  C   UNL     1      29.300  58.892 -11.248  1.00  0.00     0.016 A 
ATOM      2  C   UNL     1      30.334  59.453 -10.482  1.00  0.00     0.013 A 
ATOM      3  C   UNL     1      29.641  58.164 -12.401  1.00  0.00     0.120 A 
ATOM      4  C   UNL     1      31.665  59.283 -10.870  1.00  0.00     0.021 A 
ATOM      5  N   UNL     1      30.946  58.013 -12.756  1.00  0.00    -0.264 NA
ATOM      6  C   UNL     1      31.954  58.552 -12.022  1.00  0.00     0.111 A 
ENDROOT
BRANCH   1   7
ATOM      7  C   UNL     1      27.886  59.065 -10.848  1.00  0.00     0.073 C 
ATOM      8  O   UNL     1      27.086  58.093 -10.887  1.00  0.00    -0.545 OA
ATOM      9  O   UNL     1      27.422  60.304 -10.423  1.00  0.00    -0.545 OA
ENDBRANCH   1   7
TORSDOF 1
ENDMDL
MODEL 8
REMARK VINA RESULT:    -3.345      2.457      3.132
REMARK INTER + INTRA:          -3.562
REMARK INTER:                  -3.541
REMARK INTRA:                  -0.021
REMARK UNBOUND:                -0.022
REMARK SMILES O=C([O-])c1cccnc1
REMARK SMILES IDX 4 1 5 2 9 3 6 4 8 5 7 6 2 7 1 8 3 9
REMARK H PARENT
REMARK Flexibility Score: inf
ROOT
ATOM      1  C   UNL     1      28.443  59.561 -10.010  1.00  0.00     0.016 A 
ATOM      2  C   UNL     1      28.419  58.896 -11.247  1.00  0.00     0.013 A 
ATOM      3  C   UNL     1      29.690  59.900  -9.457  1.00  0.00     0.120 A 
ATOM      4  C   UNL     1      29.614  58.584 -11.897  1.00  0.00     0.021 A 
ATOM      5  N   UNL     1      30.840  59.585 -10.112  1.00  0.00    -0.264 NA
ATOM      6  C   UNL     1      30.828  58.941 -11.308  1.00  0.00     0.111 A 
ENDROOT
BRANCH   1   7
ATOM      7  C   UNL     1      27.183  59.896  -9.311  1.00  0.00     0.073 C 
ATOM      8  O   UNL     1      26.183  59.134  -9.393  1.00  0.00    -0.545 OA
ATOM      9  O   UNL     1      27.085  61.057  -8.553  1.00  0.00    -0.545 OA
ENDBRANCH   1   7
TORSDOF 1
ENDMDL
MODEL 9
REMARK VINA RESULT:    -3.303     20.756     21.866
REMARK INTER + INTRA:          -3.517
REMARK INTER:                  -3.497
REMARK INTRA:                  -0.020
REMARK UNBOUND:                -0.022
REMARK SMILES O=C([O-])c1cccnc1
REMARK SMILES IDX 4 1 5 2 9 3 6 4 8 5 7 6 2 7 1 8 3 9
REMARK H PARENT
REMARK Flexibility Score: inf
ROOT
ATOM      1  C   UNL     1      16.579  43.066   0.968  1.00  0.00     0.016 A 
ATOM      2  C   UNL     1      15.994  44.272   1.385  1.00  0.00     0.013 A 
ATOM      3  C   UNL     1      15.819  41.887   1.058  1.00  0.00     0.120 A 
ATOM      4  C   UNL     1      14.687  44.283   1.876  1.00  0.00     0.021 A 
ATOM      5  N   UNL     1      14.547  41.925   1.539  1.00  0.00    -0.264 NA
ATOM      6  C   UNL     1      13.971  43.087   1.946  1.00  0.00     0.111 A 
ENDROOT
BRANCH   1   7
ATOM      7  C   UNL     1      17.964  43.041   0.446  1.00  0.00     0.073 C 
ATOM      8  O   UNL     1      18.371  43.943  -0.333  1.00  0.00    -0.545 OA
ATOM      9  O   UNL     1      18.834  42.020   0.810  1.00  0.00    -0.545 OA
ENDBRANCH   1   7
TORSDOF 1
ENDMDL
