MODEL 1
REMARK VINA RESULT:    -1.740      0.000      0.000
REMARK INTER + INTRA:          -1.988
REMARK INTER:                  -1.893
REMARK INTRA:                  -0.096
REMARK UNBOUND:                -0.096
REMARK SMILES C=C(C)[C@@H]1CC[C@@H](C)[C@H](O)C1
REMARK SMILES IDX 8 1 7 2 6 3 5 4 4 5 11 6 9 7 10 8 2 10 1 11 3 12
REMARK H PARENT 10 9
REMARK Flexibility Score: inf
ROOT
ATOM      1  C   UNL     1     -38.118  20.285   8.090  1.00  0.00     0.010 C 
ATOM      2  C   UNL     1     -37.962  21.600   7.316  1.00  0.00     0.015 C 
ATOM      3  C   UNL     1     -38.627  22.754   8.094  1.00  0.00     0.006 C 
ATOM      4  C   UNL     1     -38.508  24.080   7.333  1.00  0.00     0.008 C 
ATOM      5  C   UNL     1     -39.123  23.962   5.926  1.00  0.00     0.017 C 
ATOM      6  C   UNL     1     -38.457  22.820   5.133  1.00  0.00     0.040 C 
ATOM      7  C   UNL     1     -38.566  21.484   5.893  1.00  0.00     0.117 C 
ENDROOT
BRANCH   7   8
ATOM      8  O   UNL     1     -37.944  20.459   5.158  1.00  0.00    -0.393 OA
ATOM      9  H   UNL     1     -37.055  20.292   5.568  1.00  0.00     0.210 HD
ENDBRANCH   7   8
BRANCH   5  10
ATOM     10  C   UNL     1     -39.032  25.281   5.173  1.00  0.00    -0.077 C 
ATOM     11  C   UNL     1     -38.864  25.288   3.841  1.00  0.00     0.008 C 
ATOM     12  C   UNL     1     -39.125  26.605   5.893  1.00  0.00     0.039 C 
ENDBRANCH   5  10
TORSDOF 2
ENDMDL
MODEL 2
REMARK VINA RESULT:    -1.529     19.949     20.895
REMARK INTER + INTRA:          -1.759
REMARK INTER:                  -1.669
REMARK INTRA:                  -0.090
REMARK UNBOUND:                -0.096
REMARK SMILES C=C(C)[C@@H]1CC[C@@H](C)[C@H](O)C1
REMARK SMILES IDX 8 1 7 2 6 3 5 4 4 5 11 6 9 7 10 8 2 10 1 11 3 12
REMARK H PARENT 10 9
REMARK Flexibility Score: inf
ROOT
ATOM      1  C   UNL     1     -32.721  34.367 -12.123  1.00  0.00     0.010 C 
ATOM      2  C   UNL     1     -34.212  34.630 -11.877  1.00  0.00     0.015 C 
ATOM      3  C   UNL     1     -34.387  35.850 -10.950  1.00  0.00     0.006 C 
ATOM      4  C   UNL     1     -35.870  36.125 -10.665  1.00  0.00     0.008 C 
ATOM      5  C   UNL     1     -36.549  34.885 -10.052  1.00  0.00     0.017 C 
ATOM      6  C   UNL     1     -36.392  33.662 -10.976  1.00  0.00     0.040 C 
ATOM      7  C   UNL     1     -34.906  33.383 -11.272  1.00  0.00     0.117 C 
ENDROOT
BRANCH   7   8
ATOM      8  O   UNL     1     -34.785  32.270 -12.125  1.00  0.00    -0.393 OA
ATOM      9  H   UNL     1     -35.245  31.505 -11.688  1.00  0.00     0.210 HD
ENDBRANCH   7   8
BRANCH   5  10
ATOM     10  C   UNL     1     -38.014  35.158  -9.743  1.00  0.00    -0.077 C 
ATOM     11  C   UNL     1     -38.349  36.064  -8.811  1.00  0.00     0.008 C 
ATOM     12  C   UNL     1     -39.119  34.425 -10.464  1.00  0.00     0.039 C 
ENDBRANCH   5  10
TORSDOF 2
ENDMDL
MODEL 3
REMARK VINA RESULT:    -0.007     18.876     20.569
REMARK INTER + INTRA:          -0.104
REMARK INTER:                  -0.007
REMARK INTRA:                  -0.096
REMARK UNBOUND:                -0.096
REMARK SMILES C=C(C)[C@@H]1CC[C@@H](C)[C@H](O)C1
REMARK SMILES IDX 8 1 7 2 6 3 5 4 4 5 11 6 9 7 10 8 2 10 1 11 3 12
REMARK H PARENT 10 9
REMARK Flexibility Score: inf
ROOT
ATOM      1  C   UNL     1     -39.071  33.098  -9.492  1.00  0.00     0.010 C 
ATOM      2  C   UNL     1     -37.695  33.284 -10.144  1.00  0.00     0.015 C 
ATOM      3  C   UNL     1     -36.597  33.310  -9.062  1.00  0.00     0.006 C 
ATOM      4  C   UNL     1     -35.209  33.519  -9.682  1.00  0.00     0.008 C 
ATOM      5  C   UNL     1     -35.170  34.816 -10.513  1.00  0.00     0.017 C 
ATOM      6  C   UNL     1     -36.255  34.796 -11.607  1.00  0.00     0.040 C 
ATOM      7  C   UNL     1     -37.652  34.581 -10.994  1.00  0.00     0.117 C 
ENDROOT
BRANCH   7   8
ATOM      8  O   UNL     1     -38.626  34.556 -12.008  1.00  0.00    -0.393 OA
ATOM      9  H   UNL     1     -38.377  33.838 -12.647  1.00  0.00     0.210 HD
ENDBRANCH   7   8
BRANCH   5  10
ATOM     10  C   UNL     1     -33.789  35.044 -11.111  1.00  0.00    -0.077 C 
ATOM     11  C   UNL     1     -33.358  34.277 -12.125  1.00  0.00     0.008 C 
ATOM     12  C   UNL     1     -32.875  36.124 -10.586  1.00  0.00     0.039 C 
ENDBRANCH   5  10
TORSDOF 2
ENDMDL
