MODEL 1
REMARK VINA RESULT:    -3.503      0.000      0.000
REMARK INTER + INTRA:          -4.079
REMARK INTER:                  -3.913
REMARK INTRA:                  -0.166
REMARK UNBOUND:                -0.166
REMARK SMILES O=C([O-])c1ccccc1C(=O)[O-]
REMARK SMILES IDX 4 1 9 2 5 3 8 4 6 5 7 6 2 7 1 8 3 9 10 10 11 11 12 12
REMARK H PARENT
REMARK Flexibility Score: inf
ROOT
ATOM      1  C   UNL     1      -0.467  -6.506   8.774  1.00  0.00     0.006 A 
ATOM      2  C   UNL     1      -1.640  -7.151   8.291  1.00  0.00     0.006 A 
ATOM      3  C   UNL     1      -0.537  -5.153   9.153  1.00  0.00     0.010 A 
ATOM      4  C   UNL     1      -2.852  -6.437   8.266  1.00  0.00     0.010 A 
ATOM      5  C   UNL     1      -1.746  -4.458   9.099  1.00  0.00     0.001 A 
ATOM      6  C   UNL     1      -2.902  -5.101   8.668  1.00  0.00     0.001 A 
ENDROOT
BRANCH   1   7
ATOM      7  C   UNL     1       0.820  -7.213   8.965  1.00  0.00     0.072 C 
ATOM      8  O   UNL     1       1.252  -7.464  10.121  1.00  0.00    -0.545 OA
ATOM      9  O   UNL     1       1.602  -7.549   7.866  1.00  0.00    -0.545 OA
ENDBRANCH   1   7
BRANCH   2  10
ATOM     10  C   UNL     1      -1.628  -8.526   7.741  1.00  0.00     0.072 C 
ATOM     11  O   UNL     1      -1.850  -9.512   8.494  1.00  0.00    -0.545 OA
ATOM     12  O   UNL     1      -1.439  -8.745   6.381  1.00  0.00    -0.545 OA
ENDBRANCH   2  10
TORSDOF 2
ENDMDL
MODEL 2
REMARK VINA RESULT:    -3.476      0.253      2.873
REMARK INTER + INTRA:          -4.048
REMARK INTER:                  -3.817
REMARK INTRA:                  -0.230
REMARK UNBOUND:                -0.166
REMARK SMILES O=C([O-])c1ccccc1C(=O)[O-]
REMARK SMILES IDX 4 1 9 2 5 3 8 4 6 5 7 6 2 7 1 8 3 9 10 10 11 11 12 12
REMARK H PARENT
REMARK Flexibility Score: inf
ROOT
ATOM      1  C   UNL     1      -1.669  -7.103   8.249  1.00  0.00     0.006 A 
ATOM      2  C   UNL     1      -0.443  -6.585   8.753  1.00  0.00     0.006 A 
ATOM      3  C   UNL     1      -2.808  -6.276   8.237  1.00  0.00     0.010 A 
ATOM      4  C   UNL     1      -0.388  -5.240   9.166  1.00  0.00     0.010 A 
ATOM      5  C   UNL     1      -2.734  -4.953   8.673  1.00  0.00     0.001 A 
ATOM      6  C   UNL     1      -1.525  -4.433   9.125  1.00  0.00     0.001 A 
ENDROOT
BRANCH   1   7
ATOM      7  C   UNL     1      -1.791  -8.459   7.667  1.00  0.00     0.072 C 
ATOM      8  O   UNL     1      -2.119  -9.441   8.384  1.00  0.00    -0.545 OA
ATOM      9  O   UNL     1      -1.478  -8.675   6.330  1.00  0.00    -0.545 OA
ENDBRANCH   1   7
BRANCH   2  10
ATOM     10  C   UNL     1       0.766  -7.421   8.932  1.00  0.00     0.072 C 
ATOM     11  O   UNL     1       0.963  -8.026  10.019  1.00  0.00    -0.545 OA
ATOM     12  O   UNL     1       1.663  -7.604   7.885  1.00  0.00    -0.545 OA
ENDBRANCH   2  10
TORSDOF 2
ENDMDL
MODEL 3
REMARK VINA RESULT:    -3.461      1.883      2.947
REMARK INTER + INTRA:          -4.031
REMARK INTER:                  -3.871
REMARK INTRA:                  -0.160
REMARK UNBOUND:                -0.166
REMARK SMILES O=C([O-])c1ccccc1C(=O)[O-]
REMARK SMILES IDX 4 1 9 2 5 3 8 4 6 5 7 6 2 7 1 8 3 9 10 10 11 11 12 12
REMARK H PARENT
REMARK Flexibility Score: inf
ROOT
ATOM      1  C   UNL     1      -2.206  -7.007   7.992  1.00  0.00     0.006 A 
ATOM      2  C   UNL     1      -3.478  -6.520   8.406  1.00  0.00     0.006 A 
ATOM      3  C   UNL     1      -1.071  -6.195   8.170  1.00  0.00     0.010 A 
ATOM      4  C   UNL     1      -3.556  -5.266   9.041  1.00  0.00     0.010 A 
ATOM      5  C   UNL     1      -1.176  -4.945   8.781  1.00  0.00     0.001 A 
ATOM      6  C   UNL     1      -2.413  -4.487   9.226  1.00  0.00     0.001 A 
ENDROOT
BRANCH   1   7
ATOM      7  C   UNL     1      -2.006  -8.367   7.441  1.00  0.00     0.072 C 
ATOM      8  O   UNL     1      -1.986  -9.373   8.199  1.00  0.00    -0.545 OA
ATOM      9  O   UNL     1      -1.768  -8.542   6.083  1.00  0.00    -0.545 OA
ENDBRANCH   1   7
BRANCH   2  10
ATOM     10  C   UNL     1      -4.740  -7.244   8.134  1.00  0.00     0.072 C 
ATOM     11  O   UNL     1      -5.104  -8.189   8.884  1.00  0.00    -0.545 OA
ATOM     12  O   UNL     1      -5.572  -6.853   7.091  1.00  0.00    -0.545 OA
ENDBRANCH   2  10
TORSDOF 2
ENDMDL
MODEL 4
REMARK VINA RESULT:    -3.434      1.824      3.602
REMARK INTER + INTRA:          -4.001
REMARK INTER:                  -3.824
REMARK INTRA:                  -0.176
REMARK UNBOUND:                -0.166
REMARK SMILES O=C([O-])c1ccccc1C(=O)[O-]
REMARK SMILES IDX 4 1 9 2 5 3 8 4 6 5 7 6 2 7 1 8 3 9 10 10 11 11 12 12
REMARK H PARENT
REMARK Flexibility Score: inf
ROOT
ATOM      1  C   UNL     1      -3.401  -6.503   8.387  1.00  0.00     0.006 A 
ATOM      2  C   UNL     1      -2.116  -6.984   8.009  1.00  0.00     0.006 A 
ATOM      3  C   UNL     1      -3.505  -5.253   9.024  1.00  0.00     0.010 A 
ATOM      4  C   UNL     1      -0.990  -6.167   8.225  1.00  0.00     0.010 A 
ATOM      5  C   UNL     1      -2.371  -4.471   9.249  1.00  0.00     0.001 A 
ATOM      6  C   UNL     1      -1.119  -4.921   8.840  1.00  0.00     0.001 A 
ENDROOT
BRANCH   1   7
ATOM      7  C   UNL     1      -4.655  -7.228   8.077  1.00  0.00     0.072 C 
ATOM      8  O   UNL     1      -5.434  -6.814   7.178  1.00  0.00    -0.545 OA
ATOM      9  O   UNL     1      -5.021  -8.341   8.825  1.00  0.00    -0.545 OA
ENDBRANCH   1   7
BRANCH   2  10
ATOM     10  C   UNL     1      -1.899  -8.342   7.461  1.00  0.00     0.072 C 
ATOM     11  O   UNL     1      -1.831  -9.335   8.234  1.00  0.00    -0.545 OA
ATOM     12  O   UNL     1      -1.834  -8.551   6.088  1.00  0.00    -0.545 OA
ENDBRANCH   2  10
TORSDOF 2
ENDMDL
MODEL 5
REMARK VINA RESULT:    -3.371      1.945      2.961
REMARK INTER + INTRA:          -3.931
REMARK INTER:                  -3.716
REMARK INTRA:                  -0.215
REMARK UNBOUND:                -0.166
REMARK SMILES O=C([O-])c1ccccc1C(=O)[O-]
REMARK SMILES IDX 4 1 9 2 5 3 8 4 6 5 7 6 2 7 1 8 3 9 10 10 11 11 12 12
REMARK H PARENT
REMARK Flexibility Score: inf
ROOT
ATOM      1  C   UNL     1      -2.834  -7.184   8.009  1.00  0.00     0.006 A 
ATOM      2  C   UNL     1      -2.950  -8.416   7.307  1.00  0.00     0.006 A 
ATOM      3  C   UNL     1      -3.984  -6.398   8.208  1.00  0.00     0.010 A 
ATOM      4  C   UNL     1      -4.222  -8.846   6.886  1.00  0.00     0.010 A 
ATOM      5  C   UNL     1      -5.232  -6.834   7.760  1.00  0.00     0.001 A 
ATOM      6  C   UNL     1      -5.352  -8.060   7.112  1.00  0.00     0.001 A 
ENDROOT
BRANCH   1   7
ATOM      7  C   UNL     1      -1.563  -6.716   8.609  1.00  0.00     0.072 C 
ATOM      8  O   UNL     1      -1.314  -6.914   9.828  1.00  0.00    -0.545 OA
ATOM      9  O   UNL     1      -0.657  -5.988   7.846  1.00  0.00    -0.545 OA
ENDBRANCH   1   7
BRANCH   2  10
ATOM     10  C   UNL     1      -1.776  -9.238   6.933  1.00  0.00     0.072 C 
ATOM     11  O   UNL     1      -1.242  -9.103   5.799  1.00  0.00    -0.545 OA
ATOM     12  O   UNL     1      -1.206 -10.118   7.846  1.00  0.00    -0.545 OA
ENDBRANCH   2  10
TORSDOF 2
ENDMDL
MODEL 6
REMARK VINA RESULT:    -3.369      1.979      3.753
REMARK INTER + INTRA:          -3.928
REMARK INTER:                  -3.707
REMARK INTRA:                  -0.221
REMARK UNBOUND:                -0.166
REMARK SMILES O=C([O-])c1ccccc1C(=O)[O-]
REMARK SMILES IDX 4 1 9 2 5 3 8 4 6 5 7 6 2 7 1 8 3 9 10 10 11 11 12 12
REMARK H PARENT
REMARK Flexibility Score: inf
ROOT
ATOM      1  C   UNL     1      -2.935  -8.435   7.258  1.00  0.00     0.006 A 
ATOM      2  C   UNL     1      -2.862  -7.194   7.952  1.00  0.00     0.006 A 
ATOM      3  C   UNL     1      -4.191  -8.914   6.844  1.00  0.00     0.010 A 
ATOM      4  C   UNL     1      -4.040  -6.449   8.147  1.00  0.00     0.010 A 
ATOM      5  C   UNL     1      -5.349  -8.169   7.069  1.00  0.00     0.001 A 
ATOM      6  C   UNL     1      -5.272  -6.934   7.708  1.00  0.00     0.001 A 
ENDROOT
BRANCH   1   7
ATOM      7  C   UNL     1      -1.737  -9.221   6.886  1.00  0.00     0.072 C 
ATOM      8  O   UNL     1      -1.238  -9.130   5.733  1.00  0.00    -0.545 OA
ATOM      9  O   UNL     1      -1.187 -10.124   7.788  1.00  0.00    -0.545 OA
ENDBRANCH   1   7
BRANCH   2  10
ATOM     10  C   UNL     1      -1.605  -6.682   8.544  1.00  0.00     0.072 C 
ATOM     11  O   UNL     1      -1.295  -6.978   9.729  1.00  0.00    -0.545 OA
ATOM     12  O   UNL     1      -0.720  -5.924   7.785  1.00  0.00    -0.545 OA
ENDBRANCH   2  10
TORSDOF 2
ENDMDL
MODEL 7
REMARK VINA RESULT:    -3.324      2.912      4.232
REMARK INTER + INTRA:          -3.878
REMARK INTER:                  -3.673
REMARK INTRA:                  -0.205
REMARK UNBOUND:                -0.166
REMARK SMILES O=C([O-])c1ccccc1C(=O)[O-]
REMARK SMILES IDX 4 1 9 2 5 3 8 4 6 5 7 6 2 7 1 8 3 9 10 10 11 11 12 12
REMARK H PARENT
REMARK Flexibility Score: inf
ROOT
ATOM      1  C   UNL     1      -3.426  -8.158   7.470  1.00  0.00     0.006 A 
ATOM      2  C   UNL     1      -4.365  -7.165   7.866  1.00  0.00     0.006 A 
ATOM      3  C   UNL     1      -3.809  -9.125   6.523  1.00  0.00     0.010 A 
ATOM      4  C   UNL     1      -5.631  -7.139   7.252  1.00  0.00     0.010 A 
ATOM      5  C   UNL     1      -5.078  -9.093   5.944  1.00  0.00     0.001 A 
ATOM      6  C   UNL     1      -5.983  -8.095   6.299  1.00  0.00     0.001 A 
ENDROOT
BRANCH   1   7
ATOM      7  C   UNL     1      -2.027  -8.183   7.958  1.00  0.00     0.072 C 
ATOM      8  O   UNL     1      -1.675  -8.984   8.865  1.00  0.00    -0.545 OA
ATOM      9  O   UNL     1      -1.100  -7.272   7.466  1.00  0.00    -0.545 OA
ENDBRANCH   1   7
BRANCH   2  10
ATOM     10  C   UNL     1      -4.096  -6.197   8.953  1.00  0.00     0.072 C 
ATOM     11  O   UNL     1      -4.497  -6.431  10.125  1.00  0.00    -0.545 OA
ATOM     12  O   UNL     1      -3.344  -5.052   8.714  1.00  0.00    -0.545 OA
ENDBRANCH   2  10
TORSDOF 2
ENDMDL
MODEL 8
REMARK VINA RESULT:    -3.239      3.211      4.642
REMARK INTER + INTRA:          -3.783
REMARK INTER:                  -3.574
REMARK INTRA:                  -0.210
REMARK UNBOUND:                -0.166
REMARK SMILES O=C([O-])c1ccccc1C(=O)[O-]
REMARK SMILES IDX 4 1 9 2 5 3 8 4 6 5 7 6 2 7 1 8 3 9 10 10 11 11 12 12
REMARK H PARENT
REMARK Flexibility Score: inf
ROOT
ATOM      1  C   UNL     1      -3.276  -7.491   7.869  1.00  0.00     0.006 A 
ATOM      2  C   UNL     1      -4.407  -8.001   7.173  1.00  0.00     0.006 A 
ATOM      3  C   UNL     1      -2.011  -8.058   7.628  1.00  0.00     0.010 A 
ATOM      4  C   UNL     1      -4.220  -9.016   6.216  1.00  0.00     0.010 A 
ATOM      5  C   UNL     1      -1.853  -9.079   6.691  1.00  0.00     0.001 A 
ATOM      6  C   UNL     1      -2.952  -9.549   5.978  1.00  0.00     0.001 A 
ENDROOT
BRANCH   1   7
ATOM      7  C   UNL     1      -3.352  -6.334   8.791  1.00  0.00     0.072 C 
ATOM      8  O   UNL     1      -3.003  -5.185   8.414  1.00  0.00    -0.545 OA
ATOM      9  O   UNL     1      -3.748  -6.519  10.111  1.00  0.00    -0.545 OA
ENDBRANCH   1   7
BRANCH   2  10
ATOM     10  C   UNL     1      -5.791  -7.561   7.463  1.00  0.00     0.072 C 
ATOM     11  O   UNL     1      -6.357  -6.717   6.718  1.00  0.00    -0.545 OA
ATOM     12  O   UNL     1      -6.506  -8.119   8.517  1.00  0.00    -0.545 OA
ENDBRANCH   2  10
TORSDOF 2
ENDMDL
MODEL 9
REMARK VINA RESULT:    -2.284      2.924      4.368
REMARK INTER + INTRA:          -2.717
REMARK INTER:                  -2.523
REMARK INTRA:                  -0.193
REMARK UNBOUND:                -0.166
REMARK SMILES O=C([O-])c1ccccc1C(=O)[O-]
REMARK SMILES IDX 4 1 9 2 5 3 8 4 6 5 7 6 2 7 1 8 3 9 10 10 11 11 12 12
REMARK H PARENT
REMARK Flexibility Score: inf
ROOT
ATOM      1  C   UNL     1      -4.362  -7.155   7.874  1.00  0.00     0.006 A 
ATOM      2  C   UNL     1      -3.415  -8.132   7.458  1.00  0.00     0.006 A 
ATOM      3  C   UNL     1      -5.630  -7.128   7.265  1.00  0.00     0.010 A 
ATOM      4  C   UNL     1      -3.794  -9.085   6.495  1.00  0.00     0.010 A 
ATOM      5  C   UNL     1      -5.976  -8.069   6.295  1.00  0.00     0.001 A 
ATOM      6  C   UNL     1      -5.065  -9.053   5.920  1.00  0.00     0.001 A 
ENDROOT
BRANCH   1   7
ATOM      7  C   UNL     1      -4.102  -6.199   8.975  1.00  0.00     0.072 C 
ATOM      8  O   UNL     1      -4.577  -6.396  10.125  1.00  0.00    -0.545 OA
ATOM      9  O   UNL     1      -3.384  -5.034   8.733  1.00  0.00    -0.545 OA
ENDBRANCH   1   7
BRANCH   2  10
ATOM     10  C   UNL     1      -2.016  -8.147   7.942  1.00  0.00     0.072 C 
ATOM     11  O   UNL     1      -1.625  -9.055   8.724  1.00  0.00    -0.545 OA
ATOM     12  O   UNL     1      -1.099  -7.203   7.493  1.00  0.00    -0.545 OA
ENDBRANCH   2  10
TORSDOF 2
ENDMDL
