MODEL 1
REMARK VINA RESULT:    -3.974      0.000      0.000
REMARK INTER + INTRA:         -12.855
REMARK INTER:                 -10.478
REMARK INTRA:                  -2.377
REMARK UNBOUND:                -2.377
REMARK SMILES CCCCCCCCCCCCCCCCCCCCCCCCCCCCCC(=O)[O-]
REMARK SMILES IDX 16 1 17 2 18 3 19 4 20 5 21 6 22 7 23 8 24 9 25 10 26 11
REMARK SMILES IDX 27 12 28 13 29 14 30 15 31 16 32 17 15 18 14 19 13 20 12 21
REMARK SMILES IDX 11 22 10 23 9 24 8 25 7 26 6 27 5 28 4 29 3 30 2 31 1 32
REMARK H PARENT
REMARK Flexibility Score: inf
ROOT
ATOM      1  C   UNL     1      24.117  13.603  14.876  1.00  0.00     0.000 C 
ENDROOT
BRANCH   1   2
ATOM      2  C   UNL     1      25.138  13.487  13.732  1.00  0.00     0.000 C 
BRANCH   2   3
ATOM      3  C   UNL     1      24.999  12.177  12.942  1.00  0.00     0.000 C 
BRANCH   3   4
ATOM      4  C   UNL     1      25.432  10.972  13.786  1.00  0.00     0.000 C 
BRANCH   4   5
ATOM      5  C   UNL     1      24.391   9.844  13.703  1.00  0.00     0.000 C 
BRANCH   5   6
ATOM      6  C   UNL     1      25.027   8.443  13.752  1.00  0.00     0.000 C 
BRANCH   6   7
ATOM      7  C   UNL     1      24.017   7.282  13.847  1.00  0.00     0.000 C 
BRANCH   7   8
ATOM      8  C   UNL     1      23.887   6.498  12.527  1.00  0.00     0.000 C 
BRANCH   8   9
ATOM      9  C   UNL     1      24.594   7.188  11.346  1.00  0.00     0.000 C 
BRANCH   9  10
ATOM     10  C   UNL     1      23.777   7.269  10.043  1.00  0.00     0.000 C 
BRANCH  10  11
ATOM     11  C   UNL     1      23.319   8.696   9.707  1.00  0.00     0.000 C 
BRANCH  11  12
ATOM     12  C   UNL     1      22.190   9.191  10.627  1.00  0.00     0.000 C 
BRANCH  12  13
ATOM     13  C   UNL     1      20.776   8.938  10.060  1.00  0.00     0.006 C 
BRANCH  13  14
ATOM     14  C   UNL     1      20.076   7.764  10.754  1.00  0.00     0.053 C 
BRANCH  14  15
ATOM     15  C   UNL     1      20.022   6.579   9.844  1.00  0.00     0.041 C 
ATOM     16  O   UNL     1      20.689   6.572   8.775  1.00  0.00    -0.550 OA
ATOM     17  O   UNL     1      19.184   5.511  10.141  1.00  0.00    -0.550 OA
ENDBRANCH  14  15
ENDBRANCH  13  14
ENDBRANCH  12  13
ENDBRANCH  11  12
ENDBRANCH  10  11
ENDBRANCH   9  10
ENDBRANCH   8   9
ENDBRANCH   7   8
ENDBRANCH   6   7
ENDBRANCH   5   6
ENDBRANCH   4   5
ENDBRANCH   3   4
ENDBRANCH   2   3
ENDBRANCH   1   2
BRANCH   1  18
ATOM     18  C   UNL     1      23.550  15.026  15.033  1.00  0.00     0.000 C 
BRANCH  18  19
ATOM     19  C   UNL     1      24.447  16.096  14.376  1.00  0.00     0.000 C 
BRANCH  19  20
ATOM     20  C   UNL     1      24.446  17.452  15.112  1.00  0.00     0.000 C 
BRANCH  20  21
ATOM     21  C   UNL     1      23.657  18.579  14.416  1.00  0.00     0.000 C 
BRANCH  21  22
ATOM     22  C   UNL     1      22.314  18.904  15.094  1.00  0.00     0.000 C 
BRANCH  22  23
ATOM     23  C   UNL     1      21.186  17.939  14.669  1.00  0.00     0.000 C 
BRANCH  23  24
ATOM     24  C   UNL     1      20.090  18.630  13.835  1.00  0.00    -0.000 C 
BRANCH  24  25
ATOM     25  C   UNL     1      20.273  20.157  13.682  1.00  0.00    -0.000 C 
BRANCH  25  26
ATOM     26  C   UNL     1      20.364  20.657  12.227  1.00  0.00    -0.000 C 
BRANCH  26  27
ATOM     27  C   UNL     1      21.233  19.750  11.337  1.00  0.00    -0.000 C 
BRANCH  27  28
ATOM     28  C   UNL     1      22.075  20.543  10.319  1.00  0.00    -0.000 C 
BRANCH  28  29
ATOM     29  C   UNL     1      21.364  20.850   8.984  1.00  0.00    -0.000 C 
BRANCH  29  30
ATOM     30  C   UNL     1      21.934  20.117   7.755  1.00  0.00    -0.000 C 
BRANCH  30  31
ATOM     31  C   UNL     1      20.982  20.143   6.551  1.00  0.00    -0.003 C 
ATOM     32  C   UNL     1      21.617  20.862   5.363  1.00  0.00     0.004 C 
ENDBRANCH  30  31
ENDBRANCH  29  30
ENDBRANCH  28  29
ENDBRANCH  27  28
ENDBRANCH  26  27
ENDBRANCH  25  26
ENDBRANCH  24  25
ENDBRANCH  23  24
ENDBRANCH  22  23
ENDBRANCH  21  22
ENDBRANCH  20  21
ENDBRANCH  19  20
ENDBRANCH  18  19
ENDBRANCH   1  18
TORSDOF 28
ENDMDL
MODEL 2
REMARK VINA RESULT:    -3.859      3.501      7.716
REMARK INTER + INTRA:         -12.553
REMARK INTER:                  -9.752
REMARK INTRA:                  -2.801
REMARK UNBOUND:                -2.377
REMARK SMILES CCCCCCCCCCCCCCCCCCCCCCCCCCCCCC(=O)[O-]
REMARK SMILES IDX 16 1 17 2 18 3 19 4 20 5 21 6 22 7 23 8 24 9 25 10 26 11
REMARK SMILES IDX 27 12 28 13 29 14 30 15 31 16 32 17 15 18 14 19 13 20 12 21
REMARK SMILES IDX 11 22 10 23 9 24 8 25 7 26 6 27 5 28 4 29 3 30 2 31 1 32
REMARK H PARENT
REMARK Flexibility Score: inf
ROOT
ATOM      1  C   UNL     1      20.707   8.623   8.552  1.00  0.00     0.000 C 
ENDROOT
BRANCH   1   2
ATOM      2  C   UNL     1      20.056   7.529   7.688  1.00  0.00     0.000 C 
BRANCH   2   3
ATOM      3  C   UNL     1      18.836   6.887   8.364  1.00  0.00     0.000 C 
BRANCH   3   4
ATOM      4  C   UNL     1      19.191   5.522   8.966  1.00  0.00     0.000 C 
BRANCH   4   5
ATOM      5  C   UNL     1      19.629   5.669  10.432  1.00  0.00     0.000 C 
BRANCH   5   6
ATOM      6  C   UNL     1      18.975   6.875  11.130  1.00  0.00     0.000 C 
BRANCH   6   7
ATOM      7  C   UNL     1      19.970   7.931  11.654  1.00  0.00     0.000 C 
BRANCH   7   8
ATOM      8  C   UNL     1      21.423   7.419  11.678  1.00  0.00     0.000 C 
BRANCH   8   9
ATOM      9  C   UNL     1      22.246   8.000  12.842  1.00  0.00     0.000 C 
BRANCH   9  10
ATOM     10  C   UNL     1      23.537   7.233  13.185  1.00  0.00     0.000 C 
BRANCH  10  11
ATOM     11  C   UNL     1      24.394   7.939  14.247  1.00  0.00     0.000 C 
BRANCH  11  12
ATOM     12  C   UNL     1      25.826   7.383  14.320  1.00  0.00     0.000 C 
BRANCH  12  13
ATOM     13  C   UNL     1      26.049   6.132  13.443  1.00  0.00     0.006 C 
BRANCH  13  14
ATOM     14  C   UNL     1      25.774   4.832  14.208  1.00  0.00     0.053 C 
BRANCH  14  15
ATOM     15  C   UNL     1      25.407   3.737  13.258  1.00  0.00     0.041 C 
ATOM     16  O   UNL     1      24.570   2.859  13.599  1.00  0.00    -0.550 OA
ATOM     17  O   UNL     1      26.038   3.648  12.024  1.00  0.00    -0.550 OA
ENDBRANCH  14  15
ENDBRANCH  13  14
ENDBRANCH  12  13
ENDBRANCH  11  12
ENDBRANCH  10  11
ENDBRANCH   9  10
ENDBRANCH   8   9
ENDBRANCH   7   8
ENDBRANCH   6   7
ENDBRANCH   5   6
ENDBRANCH   4   5
ENDBRANCH   3   4
ENDBRANCH   2   3
ENDBRANCH   1   2
BRANCH   1  18
ATOM     18  C   UNL     1      22.143   8.961   8.110  1.00  0.00     0.000 C 
BRANCH  18  19
ATOM     19  C   UNL     1      22.996   9.536   9.260  1.00  0.00     0.000 C 
BRANCH  19  20
ATOM     20  C   UNL     1      24.159   8.620   9.695  1.00  0.00     0.000 C 
BRANCH  20  21
ATOM     21  C   UNL     1      25.235   9.292  10.571  1.00  0.00     0.000 C 
BRANCH  21  22
ATOM     22  C   UNL     1      24.674  10.347  11.541  1.00  0.00     0.000 C 
BRANCH  22  23
ATOM     23  C   UNL     1      25.771  11.271  12.111  1.00  0.00     0.000 C 
BRANCH  23  24
ATOM     24  C   UNL     1      25.542  11.628  13.592  1.00  0.00    -0.000 C 
BRANCH  24  25
ATOM     25  C   UNL     1      25.791  13.114  13.936  1.00  0.00    -0.000 C 
BRANCH  25  26
ATOM     26  C   UNL     1      24.733  13.754  14.856  1.00  0.00    -0.000 C 
BRANCH  26  27
ATOM     27  C   UNL     1      23.921  14.857  14.155  1.00  0.00    -0.000 C 
BRANCH  27  28
ATOM     28  C   UNL     1      24.158  16.251  14.765  1.00  0.00    -0.000 C 
BRANCH  28  29
ATOM     29  C   UNL     1      22.891  17.117  14.926  1.00  0.00    -0.000 C 
BRANCH  29  30
ATOM     30  C   UNL     1      23.060  18.602  14.553  1.00  0.00    -0.000 C 
BRANCH  30  31
ATOM     31  C   UNL     1      21.722  19.349  14.460  1.00  0.00    -0.003 C 
ATOM     32  C   UNL     1      20.552  18.373  14.372  1.00  0.00     0.004 C 
ENDBRANCH  30  31
ENDBRANCH  29  30
ENDBRANCH  28  29
ENDBRANCH  27  28
ENDBRANCH  26  27
ENDBRANCH  25  26
ENDBRANCH  24  25
ENDBRANCH  23  24
ENDBRANCH  22  23
ENDBRANCH  21  22
ENDBRANCH  20  21
ENDBRANCH  19  20
ENDBRANCH  18  19
ENDBRANCH   1  18
TORSDOF 28
ENDMDL
MODEL 3
REMARK VINA RESULT:    -3.665      2.618      6.479
REMARK INTER + INTRA:         -12.042
REMARK INTER:                  -9.626
REMARK INTRA:                  -2.415
REMARK UNBOUND:                -2.377
REMARK SMILES CCCCCCCCCCCCCCCCCCCCCCCCCCCCCC(=O)[O-]
REMARK SMILES IDX 16 1 17 2 18 3 19 4 20 5 21 6 22 7 23 8 24 9 25 10 26 11
REMARK SMILES IDX 27 12 28 13 29 14 30 15 31 16 32 17 15 18 14 19 13 20 12 21
REMARK SMILES IDX 11 22 10 23 9 24 8 25 7 26 6 27 5 28 4 29 3 30 2 31 1 32
REMARK H PARENT
REMARK Flexibility Score: inf
ROOT
ATOM      1  C   UNL     1      23.035   9.536   9.825  1.00  0.00     0.000 C 
ENDROOT
BRANCH   1   2
ATOM      2  C   UNL     1      21.899   8.782   9.114  1.00  0.00     0.000 C 
BRANCH   2   3
ATOM      3  C   UNL     1      20.512   9.136   9.670  1.00  0.00     0.000 C 
BRANCH   3   4
ATOM      4  C   UNL     1      19.404   8.399   8.907  1.00  0.00     0.000 C 
BRANCH   4   5
ATOM      5  C   UNL     1      19.932   7.084   8.314  1.00  0.00     0.000 C 
BRANCH   5   6
ATOM      6  C   UNL     1      19.563   5.856   9.166  1.00  0.00     0.000 C 
BRANCH   6   7
ATOM      7  C   UNL     1      18.982   6.190  10.555  1.00  0.00     0.000 C 
BRANCH   7   8
ATOM      8  C   UNL     1      19.929   5.796  11.705  1.00  0.00     0.000 C 
BRANCH   8   9
ATOM      9  C   UNL     1      21.402   6.139  11.415  1.00  0.00     0.000 C 
BRANCH   9  10
ATOM     10  C   UNL     1      22.042   7.163  12.370  1.00  0.00     0.000 C 
BRANCH  10  11
ATOM     11  C   UNL     1      23.471   6.786  12.789  1.00  0.00     0.000 C 
BRANCH  11  12
ATOM     12  C   UNL     1      23.543   5.420  13.495  1.00  0.00     0.000 C 
BRANCH  12  13
ATOM     13  C   UNL     1      24.975   4.854  13.600  1.00  0.00     0.006 C 
BRANCH  13  14
ATOM     14  C   UNL     1      24.985   3.375  14.001  1.00  0.00     0.053 C 
BRANCH  14  15
ATOM     15  C   UNL     1      25.466   2.531  12.864  1.00  0.00     0.041 C 
ATOM     16  O   UNL     1      26.080   3.061  11.899  1.00  0.00    -0.550 OA
ATOM     17  O   UNL     1      25.178   1.172  12.836  1.00  0.00    -0.550 OA
ENDBRANCH  14  15
ENDBRANCH  13  14
ENDBRANCH  12  13
ENDBRANCH  11  12
ENDBRANCH  10  11
ENDBRANCH   9  10
ENDBRANCH   8   9
ENDBRANCH   7   8
ENDBRANCH   6   7
ENDBRANCH   5   6
ENDBRANCH   4   5
ENDBRANCH   3   4
ENDBRANCH   2   3
ENDBRANCH   1   2
BRANCH   1  18
ATOM     18  C   UNL     1      24.404   8.851   9.663  1.00  0.00     0.000 C 
BRANCH  18  19
ATOM     19  C   UNL     1      25.366   9.166  10.827  1.00  0.00     0.000 C 
BRANCH  19  20
ATOM     20  C   UNL     1      24.806  10.181  11.845  1.00  0.00     0.000 C 
BRANCH  20  21
ATOM     21  C   UNL     1      25.705  11.403  12.120  1.00  0.00     0.000 C 
BRANCH  21  22
ATOM     22  C   UNL     1      25.125  12.377  13.161  1.00  0.00     0.000 C 
BRANCH  22  23
ATOM     23  C   UNL     1      25.708  13.800  13.032  1.00  0.00     0.000 C 
BRANCH  23  24
ATOM     24  C   UNL     1      25.488  14.654  14.295  1.00  0.00    -0.000 C 
BRANCH  24  25
ATOM     25  C   UNL     1      24.030  15.124  14.501  1.00  0.00    -0.000 C 
BRANCH  25  26
ATOM     26  C   UNL     1      23.857  16.645  14.679  1.00  0.00    -0.000 C 
BRANCH  26  27
ATOM     27  C   UNL     1      22.436  17.036  15.125  1.00  0.00    -0.000 C 
BRANCH  27  28
ATOM     28  C   UNL     1      22.118  18.520  14.865  1.00  0.00    -0.000 C 
BRANCH  28  29
ATOM     29  C   UNL     1      20.688  18.800  14.355  1.00  0.00    -0.000 C 
BRANCH  29  30
ATOM     30  C   UNL     1      20.571  19.944  13.330  1.00  0.00    -0.000 C 
BRANCH  30  31
ATOM     31  C   UNL     1      20.482  19.441  11.883  1.00  0.00    -0.003 C 
ATOM     32  C   UNL     1      21.653  19.956  11.049  1.00  0.00     0.004 C 
ENDBRANCH  30  31
ENDBRANCH  29  30
ENDBRANCH  28  29
ENDBRANCH  27  28
ENDBRANCH  26  27
ENDBRANCH  25  26
ENDBRANCH  24  25
ENDBRANCH  23  24
ENDBRANCH  22  23
ENDBRANCH  21  22
ENDBRANCH  20  21
ENDBRANCH  19  20
ENDBRANCH  18  19
ENDBRANCH   1  18
TORSDOF 28
ENDMDL
MODEL 4
REMARK VINA RESULT:    -3.530      1.689      3.920
REMARK INTER + INTRA:         -11.684
REMARK INTER:                  -9.884
REMARK INTRA:                  -1.800
REMARK UNBOUND:                -2.377
REMARK SMILES CCCCCCCCCCCCCCCCCCCCCCCCCCCCCC(=O)[O-]
REMARK SMILES IDX 16 1 17 2 18 3 19 4 20 5 21 6 22 7 23 8 24 9 25 10 26 11
REMARK SMILES IDX 27 12 28 13 29 14 30 15 31 16 32 17 15 18 14 19 13 20 12 21
REMARK SMILES IDX 11 22 10 23 9 24 8 25 7 26 6 27 5 28 4 29 3 30 2 31 1 32
REMARK H PARENT
REMARK Flexibility Score: inf
ROOT
ATOM      1  C   UNL     1      24.704  10.365  11.114  1.00  0.00     0.000 C 
ENDROOT
BRANCH   1   2
ATOM      2  C   UNL     1      24.832   8.974  10.471  1.00  0.00     0.000 C 
BRANCH   2   3
ATOM      3  C   UNL     1      26.062   8.201  10.969  1.00  0.00     0.000 C 
BRANCH   3   4
ATOM      4  C   UNL     1      25.780   7.515  12.311  1.00  0.00     0.000 C 
BRANCH   4   5
ATOM      5  C   UNL     1      24.968   6.226  12.106  1.00  0.00     0.000 C 
BRANCH   5   6
ATOM      6  C   UNL     1      23.598   6.268  12.806  1.00  0.00     0.000 C 
BRANCH   6   7
ATOM      7  C   UNL     1      23.286   7.594  13.529  1.00  0.00     0.000 C 
BRANCH   7   8
ATOM      8  C   UNL     1      22.022   8.286  12.983  1.00  0.00     0.000 C 
BRANCH   8   9
ATOM      9  C   UNL     1      21.548   7.699  11.641  1.00  0.00     0.000 C 
BRANCH   9  10
ATOM     10  C   UNL     1      20.035   7.804  11.372  1.00  0.00     0.000 C 
BRANCH  10  11
ATOM     11  C   UNL     1      19.304   6.459  11.507  1.00  0.00     0.000 C 
BRANCH  11  12
ATOM     12  C   UNL     1      19.547   5.527  10.308  1.00  0.00     0.000 C 
BRANCH  12  13
ATOM     13  C   UNL     1      19.018   6.091   8.971  1.00  0.00     0.006 C 
BRANCH  13  14
ATOM     14  C   UNL     1      20.112   6.805   8.170  1.00  0.00     0.053 C 
BRANCH  14  15
ATOM     15  C   UNL     1      19.551   8.008   7.482  1.00  0.00     0.041 C 
ATOM     16  O   UNL     1      19.268   9.042   8.145  1.00  0.00    -0.550 OA
ATOM     17  O   UNL     1      19.277   7.966   6.120  1.00  0.00    -0.550 OA
ENDBRANCH  14  15
ENDBRANCH  13  14
ENDBRANCH  12  13
ENDBRANCH  11  12
ENDBRANCH  10  11
ENDBRANCH   9  10
ENDBRANCH   8   9
ENDBRANCH   7   8
ENDBRANCH   6   7
ENDBRANCH   5   6
ENDBRANCH   4   5
ENDBRANCH   3   4
ENDBRANCH   2   3
ENDBRANCH   1   2
BRANCH   1  18
ATOM     18  C   UNL     1      25.165  10.392  12.583  1.00  0.00     0.000 C 
BRANCH  18  19
ATOM     19  C   UNL     1      26.031  11.626  12.910  1.00  0.00     0.000 C 
BRANCH  19  20
ATOM     20  C   UNL     1      25.294  12.711  13.723  1.00  0.00     0.000 C 
BRANCH  20  21
ATOM     21  C   UNL     1      25.841  14.143  13.558  1.00  0.00     0.000 C 
BRANCH  21  22
ATOM     22  C   UNL     1      25.246  15.152  14.556  1.00  0.00     0.000 C 
BRANCH  22  23
ATOM     23  C   UNL     1      23.710  15.260  14.446  1.00  0.00     0.000 C 
BRANCH  23  24
ATOM     24  C   UNL     1      23.149  16.525  15.123  1.00  0.00    -0.000 C 
BRANCH  24  25
ATOM     25  C   UNL     1      23.686  17.852  14.541  1.00  0.00    -0.000 C 
BRANCH  25  26
ATOM     26  C   UNL     1      23.000  19.122  15.080  1.00  0.00    -0.000 C 
BRANCH  26  27
ATOM     27  C   UNL     1      22.920  20.247  14.032  1.00  0.00    -0.000 C 
BRANCH  27  28
ATOM     28  C   UNL     1      22.082  19.856  12.800  1.00  0.00    -0.000 C 
BRANCH  28  29
ATOM     29  C   UNL     1      22.070  20.898  11.662  1.00  0.00    -0.000 C 
BRANCH  29  30
ATOM     30  C   UNL     1      21.375  20.444  10.365  1.00  0.00    -0.000 C 
BRANCH  30  31
ATOM     31  C   UNL     1      22.368  20.022   9.273  1.00  0.00    -0.003 C 
ATOM     32  C   UNL     1      21.810  20.310   7.881  1.00  0.00     0.004 C 
ENDBRANCH  30  31
ENDBRANCH  29  30
ENDBRANCH  28  29
ENDBRANCH  27  28
ENDBRANCH  26  27
ENDBRANCH  25  26
ENDBRANCH  24  25
ENDBRANCH  23  24
ENDBRANCH  22  23
ENDBRANCH  21  22
ENDBRANCH  20  21
ENDBRANCH  19  20
ENDBRANCH  18  19
ENDBRANCH   1  18
TORSDOF 28
ENDMDL
MODEL 5
REMARK VINA RESULT:    -3.229      5.821     11.620
REMARK INTER + INTRA:         -10.892
REMARK INTER:                  -7.420
REMARK INTRA:                  -3.472
REMARK UNBOUND:                -2.377
REMARK SMILES CCCCCCCCCCCCCCCCCCCCCCCCCCCCCC(=O)[O-]
REMARK SMILES IDX 16 1 17 2 18 3 19 4 20 5 21 6 22 7 23 8 24 9 25 10 26 11
REMARK SMILES IDX 27 12 28 13 29 14 30 15 31 16 32 17 15 18 14 19 13 20 12 21
REMARK SMILES IDX 11 22 10 23 9 24 8 25 7 26 6 27 5 28 4 29 3 30 2 31 1 32
REMARK H PARENT
REMARK Flexibility Score: inf
ROOT
ATOM      1  C   UNL     1      18.892   5.874   7.422  1.00  0.00     0.000 C 
ENDROOT
BRANCH   1   2
ATOM      2  C   UNL     1      18.338   5.578   8.825  1.00  0.00     0.000 C 
BRANCH   2   3
ATOM      3  C   UNL     1      19.344   5.898   9.941  1.00  0.00     0.000 C 
BRANCH   3   4
ATOM      4  C   UNL     1      18.764   6.908  10.938  1.00  0.00     0.000 C 
BRANCH   4   5
ATOM      5  C   UNL     1      19.870   7.493  11.830  1.00  0.00     0.000 C 
BRANCH   5   6
ATOM      6  C   UNL     1      21.257   6.899  11.524  1.00  0.00     0.000 C 
BRANCH   6   7
ATOM      7  C   UNL     1      22.329   7.186  12.595  1.00  0.00     0.000 C 
BRANCH   7   8
ATOM      8  C   UNL     1      22.434   8.683  12.946  1.00  0.00     0.000 C 
BRANCH   8   9
ATOM      9  C   UNL     1      23.556   8.986  13.955  1.00  0.00     0.000 C 
BRANCH   9  10
ATOM     10  C   UNL     1      24.982   8.654  13.477  1.00  0.00     0.000 C 
BRANCH  10  11
ATOM     11  C   UNL     1      26.036   9.648  13.987  1.00  0.00     0.000 C 
BRANCH  11  12
ATOM     12  C   UNL     1      25.505  10.551  15.114  1.00  0.00     0.000 C 
BRANCH  12  13
ATOM     13  C   UNL     1      26.125  11.965  15.116  1.00  0.00     0.006 C 
BRANCH  13  14
ATOM     14  C   UNL     1      25.087  13.052  14.817  1.00  0.00     0.053 C 
BRANCH  14  15
ATOM     15  C   UNL     1      25.432  13.766  13.549  1.00  0.00     0.041 C 
ATOM     16  O   UNL     1      25.876  13.121  12.561  1.00  0.00    -0.550 OA
ATOM     17  O   UNL     1      25.328  15.149  13.478  1.00  0.00    -0.550 OA
ENDBRANCH  14  15
ENDBRANCH  13  14
ENDBRANCH  12  13
ENDBRANCH  11  12
ENDBRANCH  10  11
ENDBRANCH   9  10
ENDBRANCH   8   9
ENDBRANCH   7   8
ENDBRANCH   6   7
ENDBRANCH   5   6
ENDBRANCH   4   5
ENDBRANCH   3   4
ENDBRANCH   2   3
ENDBRANCH   1   2
BRANCH   1  18
ATOM     18  C   UNL     1      19.206   7.366   7.203  1.00  0.00     0.000 C 
BRANCH  18  19
ATOM     19  C   UNL     1      20.529   7.797   7.869  1.00  0.00     0.000 C 
BRANCH  19  20
ATOM     20  C   UNL     1      20.505   9.229   8.443  1.00  0.00     0.000 C 
BRANCH  20  21
ATOM     21  C   UNL     1      21.618   9.550   9.461  1.00  0.00     0.000 C 
BRANCH  21  22
ATOM     22  C   UNL     1      22.810   8.579   9.401  1.00  0.00     0.000 C 
BRANCH  22  23
ATOM     23  C   UNL     1      24.152   9.267   9.733  1.00  0.00     0.000 C 
BRANCH  23  24
ATOM     24  C   UNL     1      25.299   8.263   9.957  1.00  0.00    -0.000 C 
BRANCH  24  25
ATOM     25  C   UNL     1      24.873   6.780   9.879  1.00  0.00    -0.000 C 
BRANCH  25  26
ATOM     26  C   UNL     1      26.028   5.765   9.992  1.00  0.00    -0.000 C 
BRANCH  26  27
ATOM     27  C   UNL     1      26.123   5.123  11.387  1.00  0.00    -0.000 C 
BRANCH  27  28
ATOM     28  C   UNL     1      24.825   5.273  12.203  1.00  0.00    -0.000 C 
BRANCH  28  29
ATOM     29  C   UNL     1      24.943   4.889  13.693  1.00  0.00    -0.000 C 
BRANCH  29  30
ATOM     30  C   UNL     1      23.884   3.892  14.199  1.00  0.00    -0.000 C 
BRANCH  30  31
ATOM     31  C   UNL     1      24.276   2.429  13.951  1.00  0.00    -0.003 C 
ATOM     32  C   UNL     1      25.439   2.012  14.848  1.00  0.00     0.004 C 
ENDBRANCH  30  31
ENDBRANCH  29  30
ENDBRANCH  28  29
ENDBRANCH  27  28
ENDBRANCH  26  27
ENDBRANCH  25  26
ENDBRANCH  24  25
ENDBRANCH  23  24
ENDBRANCH  22  23
ENDBRANCH  21  22
ENDBRANCH  20  21
ENDBRANCH  19  20
ENDBRANCH  18  19
ENDBRANCH   1  18
TORSDOF 28
ENDMDL
MODEL 6
REMARK VINA RESULT:    -2.681      3.475      7.348
REMARK INTER + INTRA:          -9.446
REMARK INTER:                  -7.780
REMARK INTRA:                  -1.667
REMARK UNBOUND:                -2.377
REMARK SMILES CCCCCCCCCCCCCCCCCCCCCCCCCCCCCC(=O)[O-]
REMARK SMILES IDX 16 1 17 2 18 3 19 4 20 5 21 6 22 7 23 8 24 9 25 10 26 11
REMARK SMILES IDX 27 12 28 13 29 14 30 15 31 16 32 17 15 18 14 19 13 20 12 21
REMARK SMILES IDX 11 22 10 23 9 24 8 25 7 26 6 27 5 28 4 29 3 30 2 31 1 32
REMARK H PARENT
REMARK Flexibility Score: inf
ROOT
ATOM      1  C   UNL     1      21.626   9.002   9.269  1.00  0.00     0.000 C 
ENDROOT
BRANCH   1   2
ATOM      2  C   UNL     1      21.752   8.901   7.740  1.00  0.00     0.000 C 
BRANCH   2   3
ATOM      3  C   UNL     1      20.479   9.352   7.008  1.00  0.00     0.000 C 
BRANCH   3   4
ATOM      4  C   UNL     1      19.402   8.260   7.045  1.00  0.00     0.000 C 
BRANCH   4   5
ATOM      5  C   UNL     1      19.967   6.956   7.629  1.00  0.00     0.000 C 
BRANCH   5   6
ATOM      6  C   UNL     1      18.931   6.177   8.458  1.00  0.00     0.000 C 
BRANCH   6   7
ATOM      7  C   UNL     1      19.459   5.631   9.800  1.00  0.00     0.000 C 
BRANCH   7   8
ATOM      8  C   UNL     1      19.465   6.697  10.913  1.00  0.00     0.000 C 
BRANCH   8   9
ATOM      9  C   UNL     1      20.473   6.388  12.035  1.00  0.00     0.000 C 
BRANCH   9  10
ATOM     10  C   UNL     1      21.892   6.946  11.819  1.00  0.00     0.000 C 
BRANCH  10  11
ATOM     11  C   UNL     1      22.944   6.286  12.724  1.00  0.00     0.000 C 
BRANCH  11  12
ATOM     12  C   UNL     1      23.855   7.310  13.421  1.00  0.00     0.000 C 
BRANCH  12  13
ATOM     13  C   UNL     1      25.337   6.879  13.480  1.00  0.00     0.006 C 
BRANCH  13  14
ATOM     14  C   UNL     1      25.523   5.397  13.131  1.00  0.00     0.053 C 
BRANCH  14  15
ATOM     15  C   UNL     1      25.824   5.241  11.675  1.00  0.00     0.041 C 
ATOM     16  O   UNL     1      25.976   4.092  11.180  1.00  0.00    -0.550 OA
ATOM     17  O   UNL     1      26.004   6.364  10.877  1.00  0.00    -0.550 OA
ENDBRANCH  14  15
ENDBRANCH  13  14
ENDBRANCH  12  13
ENDBRANCH  11  12
ENDBRANCH  10  11
ENDBRANCH   9  10
ENDBRANCH   8   9
ENDBRANCH   7   8
ENDBRANCH   6   7
ENDBRANCH   5   6
ENDBRANCH   4   5
ENDBRANCH   3   4
ENDBRANCH   2   3
ENDBRANCH   1   2
BRANCH   1  18
ATOM     18  C   UNL     1      22.568  10.056   9.880  1.00  0.00     0.000 C 
BRANCH  18  19
ATOM     19  C   UNL     1      23.481   9.470  10.978  1.00  0.00     0.000 C 
BRANCH  19  20
ATOM     20  C   UNL     1      24.987   9.573  10.660  1.00  0.00     0.000 C 
BRANCH  20  21
ATOM     21  C   UNL     1      25.820  10.386  11.672  1.00  0.00     0.000 C 
BRANCH  21  22
ATOM     22  C   UNL     1      24.990  10.970  12.829  1.00  0.00     0.000 C 
BRANCH  22  23
ATOM     23  C   UNL     1      25.653  10.748  14.205  1.00  0.00     0.000 C 
BRANCH  23  24
ATOM     24  C   UNL     1      26.103  12.062  14.872  1.00  0.00    -0.000 C 
BRANCH  24  25
ATOM     25  C   UNL     1      25.659  13.340  14.125  1.00  0.00    -0.000 C 
BRANCH  25  26
ATOM     26  C   UNL     1      24.878  14.355  14.983  1.00  0.00    -0.000 C 
BRANCH  26  27
ATOM     27  C   UNL     1      25.483  15.769  14.932  1.00  0.00    -0.000 C 
BRANCH  27  28
ATOM     28  C   UNL     1      24.512  16.812  14.347  1.00  0.00    -0.000 C 
BRANCH  28  29
ATOM     29  C   UNL     1      23.189  16.980  15.125  1.00  0.00    -0.000 C 
BRANCH  29  30
ATOM     30  C   UNL     1      22.433  18.295  14.857  1.00  0.00    -0.000 C 
BRANCH  30  31
ATOM     31  C   UNL     1      21.114  18.081  14.102  1.00  0.00    -0.003 C 
ATOM     32  C   UNL     1      19.944  18.716  14.849  1.00  0.00     0.004 C 
ENDBRANCH  30  31
ENDBRANCH  29  30
ENDBRANCH  28  29
ENDBRANCH  27  28
ENDBRANCH  26  27
ENDBRANCH  25  26
ENDBRANCH  24  25
ENDBRANCH  23  24
ENDBRANCH  22  23
ENDBRANCH  21  22
ENDBRANCH  20  21
ENDBRANCH  19  20
ENDBRANCH  18  19
ENDBRANCH   1  18
TORSDOF 28
ENDMDL
MODEL 7
REMARK VINA RESULT:    -2.426      1.351      3.864
REMARK INTER + INTRA:          -8.774
REMARK INTER:                  -7.568
REMARK INTRA:                  -1.206
REMARK UNBOUND:                -2.377
REMARK SMILES CCCCCCCCCCCCCCCCCCCCCCCCCCCCCC(=O)[O-]
REMARK SMILES IDX 16 1 17 2 18 3 19 4 20 5 21 6 22 7 23 8 24 9 25 10 26 11
REMARK SMILES IDX 27 12 28 13 29 14 30 15 31 16 32 17 15 18 14 19 13 20 12 21
REMARK SMILES IDX 11 22 10 23 9 24 8 25 7 26 6 27 5 28 4 29 3 30 2 31 1 32
REMARK H PARENT
REMARK Flexibility Score: inf
ROOT
ATOM      1  C   UNL     1      22.040  17.617  14.992  1.00  0.00     0.000 C 
ENDROOT
BRANCH   1   2
ATOM      2  C   UNL     1      22.589  16.193  14.807  1.00  0.00     0.000 C 
BRANCH   2   3
ATOM      3  C   UNL     1      24.084  16.174  14.455  1.00  0.00     0.000 C 
BRANCH   3   4
ATOM      4  C   UNL     1      24.463  14.885  13.715  1.00  0.00     0.000 C 
BRANCH   4   5
ATOM      5  C   UNL     1      25.894  14.451  14.071  1.00  0.00     0.000 C 
BRANCH   5   6
ATOM      6  C   UNL     1      25.972  12.988  14.543  1.00  0.00     0.000 C 
BRANCH   6   7
ATOM      7  C   UNL     1      25.737  11.942  13.434  1.00  0.00     0.000 C 
BRANCH   7   8
ATOM      8  C   UNL     1      25.045  10.669  13.956  1.00  0.00     0.000 C 
BRANCH   8   9
ATOM      9  C   UNL     1      24.879   9.588  12.872  1.00  0.00     0.000 C 
BRANCH   9  10
ATOM     10  C   UNL     1      24.207   8.283  13.338  1.00  0.00     0.000 C 
BRANCH  10  11
ATOM     11  C   UNL     1      22.752   8.152  12.863  1.00  0.00     0.000 C 
BRANCH  11  12
ATOM     12  C   UNL     1      22.617   8.227  11.332  1.00  0.00     0.000 C 
BRANCH  12  13
ATOM     13  C   UNL     1      21.194   8.587  10.855  1.00  0.00     0.006 C 
BRANCH  13  14
ATOM     14  C   UNL     1      21.044   8.463   9.334  1.00  0.00     0.053 C 
BRANCH  14  15
ATOM     15  C   UNL     1      20.044   7.404   8.995  1.00  0.00     0.041 C 
ATOM     16  O   UNL     1      19.565   7.336   7.831  1.00  0.00    -0.550 OA
ATOM     17  O   UNL     1      19.589   6.536   9.979  1.00  0.00    -0.550 OA
ENDBRANCH  14  15
ENDBRANCH  13  14
ENDBRANCH  12  13
ENDBRANCH  11  12
ENDBRANCH  10  11
ENDBRANCH   9  10
ENDBRANCH   8   9
ENDBRANCH   7   8
ENDBRANCH   6   7
ENDBRANCH   5   6
ENDBRANCH   4   5
ENDBRANCH   3   4
ENDBRANCH   2   3
ENDBRANCH   1   2
BRANCH   1  18
ATOM     18  C   UNL     1      20.742  17.867  14.201  1.00  0.00     0.000 C 
BRANCH  18  19
ATOM     19  C   UNL     1      19.989  19.125  14.680  1.00  0.00     0.000 C 
BRANCH  19  20
ATOM     20  C   UNL     1      20.328  20.400  13.880  1.00  0.00     0.000 C 
BRANCH  20  21
ATOM     21  C   UNL     1      21.830  20.637  13.623  1.00  0.00     0.000 C 
BRANCH  21  22
ATOM     22  C   UNL     1      22.147  21.107  12.192  1.00  0.00     0.000 C 
BRANCH  22  23
ATOM     23  C   UNL     1      21.734  20.073  11.123  1.00  0.00     0.000 C 
BRANCH  23  24
ATOM     24  C   UNL     1      22.858  19.780  10.110  1.00  0.00    -0.000 C 
BRANCH  24  25
ATOM     25  C   UNL     1      23.199  20.962   9.177  1.00  0.00    -0.000 C 
BRANCH  25  26
ATOM     26  C   UNL     1      22.638  20.845   7.746  1.00  0.00    -0.000 C 
BRANCH  26  27
ATOM     27  C   UNL     1      21.303  20.082   7.690  1.00  0.00    -0.000 C 
BRANCH  27  28
ATOM     28  C   UNL     1      20.761  19.933   6.255  1.00  0.00    -0.000 C 
BRANCH  28  29
ATOM     29  C   UNL     1      21.227  21.024   5.267  1.00  0.00    -0.000 C 
BRANCH  29  30
ATOM     30  C   UNL     1      22.292  20.574   4.249  1.00  0.00    -0.000 C 
BRANCH  30  31
ATOM     31  C   UNL     1      21.723  19.659   3.156  1.00  0.00    -0.003 C 
ATOM     32  C   UNL     1      22.681  18.511   2.846  1.00  0.00     0.004 C 
ENDBRANCH  30  31
ENDBRANCH  29  30
ENDBRANCH  28  29
ENDBRANCH  27  28
ENDBRANCH  26  27
ENDBRANCH  25  26
ENDBRANCH  24  25
ENDBRANCH  23  24
ENDBRANCH  22  23
ENDBRANCH  21  22
ENDBRANCH  20  21
ENDBRANCH  19  20
ENDBRANCH  18  19
ENDBRANCH   1  18
TORSDOF 28
ENDMDL
MODEL 8
REMARK VINA RESULT:    -1.963      5.814     11.400
REMARK INTER + INTRA:          -7.553
REMARK INTER:                  -5.249
REMARK INTRA:                  -2.304
REMARK UNBOUND:                -2.377
REMARK SMILES CCCCCCCCCCCCCCCCCCCCCCCCCCCCCC(=O)[O-]
REMARK SMILES IDX 16 1 17 2 18 3 19 4 20 5 21 6 22 7 23 8 24 9 25 10 26 11
REMARK SMILES IDX 27 12 28 13 29 14 30 15 31 16 32 17 15 18 14 19 13 20 12 21
REMARK SMILES IDX 11 22 10 23 9 24 8 25 7 26 6 27 5 28 4 29 3 30 2 31 1 32
REMARK H PARENT
REMARK Flexibility Score: inf
ROOT
ATOM      1  C   UNL     1      19.168   7.118   7.400  1.00  0.00     0.000 C 
ENDROOT
BRANCH   1   2
ATOM      2  C   UNL     1      18.867   8.594   7.711  1.00  0.00     0.000 C 
BRANCH   2   3
ATOM      3  C   UNL     1      19.337   9.543   6.599  1.00  0.00     0.000 C 
BRANCH   3   4
ATOM      4  C   UNL     1      20.759   9.196   6.139  1.00  0.00     0.000 C 
BRANCH   4   5
ATOM      5  C   UNL     1      21.802   9.987   6.945  1.00  0.00     0.000 C 
BRANCH   5   6
ATOM      6  C   UNL     1      22.068   9.378   8.333  1.00  0.00     0.000 C 
BRANCH   6   7
ATOM      7  C   UNL     1      23.512   9.551   8.845  1.00  0.00     0.000 C 
BRANCH   7   8
ATOM      8  C   UNL     1      23.770   8.795  10.162  1.00  0.00     0.000 C 
BRANCH   8   9
ATOM      9  C   UNL     1      25.145   8.102  10.198  1.00  0.00     0.000 C 
BRANCH   9  10
ATOM     10  C   UNL     1      26.075   8.538  11.345  1.00  0.00     0.000 C 
BRANCH  10  11
ATOM     11  C   UNL     1      26.122  10.062  11.536  1.00  0.00     0.000 C 
BRANCH  11  12
ATOM     12  C   UNL     1      25.242  10.542  12.703  1.00  0.00     0.000 C 
BRANCH  12  13
ATOM     13  C   UNL     1      26.009  11.380  13.750  1.00  0.00     0.006 C 
BRANCH  13  14
ATOM     14  C   UNL     1      25.064  12.124  14.701  1.00  0.00     0.053 C 
BRANCH  14  15
ATOM     15  C   UNL     1      24.586  13.393  14.071  1.00  0.00     0.041 C 
ATOM     16  O   UNL     1      25.118  13.810  13.007  1.00  0.00    -0.550 OA
ATOM     17  O   UNL     1      23.600  14.149  14.691  1.00  0.00    -0.550 OA
ENDBRANCH  14  15
ENDBRANCH  13  14
ENDBRANCH  12  13
ENDBRANCH  11  12
ENDBRANCH  10  11
ENDBRANCH   9  10
ENDBRANCH   8   9
ENDBRANCH   7   8
ENDBRANCH   6   7
ENDBRANCH   5   6
ENDBRANCH   4   5
ENDBRANCH   3   4
ENDBRANCH   2   3
ENDBRANCH   1   2
BRANCH   1  18
ATOM     18  C   UNL     1      20.172   6.490   8.384  1.00  0.00     0.000 C 
BRANCH  18  19
ATOM     19  C   UNL     1      19.572   5.303   9.166  1.00  0.00     0.000 C 
BRANCH  19  20
ATOM     20  C   UNL     1      18.615   5.720  10.302  1.00  0.00     0.000 C 
BRANCH  20  21
ATOM     21  C   UNL     1      19.291   6.030  11.653  1.00  0.00     0.000 C 
BRANCH  21  22
ATOM     22  C   UNL     1      20.650   6.740  11.516  1.00  0.00     0.000 C 
BRANCH  22  23
ATOM     23  C   UNL     1      20.622   8.183  12.064  1.00  0.00     0.000 C 
BRANCH  23  24
ATOM     24  C   UNL     1      22.031   8.778  12.252  1.00  0.00    -0.000 C 
BRANCH  24  25
ATOM     25  C   UNL     1      22.674   8.471  13.623  1.00  0.00    -0.000 C 
BRANCH  25  26
ATOM     26  C   UNL     1      23.720   7.340  13.611  1.00  0.00    -0.000 C 
BRANCH  26  27
ATOM     27  C   UNL     1      24.776   7.491  14.720  1.00  0.00    -0.000 C 
BRANCH  27  28
ATOM     28  C   UNL     1      25.950   6.506  14.564  1.00  0.00    -0.000 C 
BRANCH  28  29
ATOM     29  C   UNL     1      25.553   5.085  14.111  1.00  0.00    -0.000 C 
BRANCH  29  30
ATOM     30  C   UNL     1      25.856   3.965  15.124  1.00  0.00    -0.000 C 
BRANCH  30  31
ATOM     31  C   UNL     1      24.969   2.728  14.929  1.00  0.00    -0.003 C 
ATOM     32  C   UNL     1      24.665   2.497  13.451  1.00  0.00     0.004 C 
ENDBRANCH  30  31
ENDBRANCH  29  30
ENDBRANCH  28  29
ENDBRANCH  27  28
ENDBRANCH  26  27
ENDBRANCH  25  26
ENDBRANCH  24  25
ENDBRANCH  23  24
ENDBRANCH  22  23
ENDBRANCH  21  22
ENDBRANCH  20  21
ENDBRANCH  19  20
ENDBRANCH  18  19
ENDBRANCH   1  18
TORSDOF 28
ENDMDL
