MODEL 1
REMARK VINA RESULT:    -4.504      0.000      0.000
REMARK INTER + INTRA:          -5.481
REMARK INTER:                  -5.163
REMARK INTRA:                  -0.318
REMARK UNBOUND:                -0.318
REMARK SMILES COc1ccc(C(C)=O)c(O)c1
REMARK SMILES IDX 6 1 10 2 12 3 3 4 4 5 5 6 7 7 8 8 9 9 11 10 2 12 1 13
REMARK H PARENT 11 11
REMARK Flexibility Score: inf
ROOT
ATOM      1  C   UNL     1      -5.597   6.646  -3.373  1.00  0.00     0.059 A 
ATOM      2  C   UNL     1      -5.897   7.962  -2.950  1.00  0.00     0.130 A 
ATOM      3  C   UNL     1      -7.213   8.302  -2.603  1.00  0.00     0.093 A 
ATOM      4  C   UNL     1      -8.238   7.353  -2.652  1.00  0.00     0.122 A 
ATOM      5  C   UNL     1      -7.937   6.041  -3.053  1.00  0.00     0.047 A 
ATOM      6  C   UNL     1      -6.631   5.694  -3.406  1.00  0.00     0.019 A 
ENDROOT
BRANCH   1   7
ATOM      7  C   UNL     1      -4.226   6.227  -3.771  1.00  0.00     0.163 C 
ATOM      8  C   UNL     1      -3.485   5.128  -3.071  1.00  0.00     0.093 C 
ATOM      9  O   UNL     1      -3.656   6.810  -4.733  1.00  0.00    -0.294 OA
ENDBRANCH   1   7
BRANCH   2  10
ATOM     10  O   UNL     1      -4.895   8.927  -2.851  1.00  0.00    -0.507 OA
ATOM     11  H   UNL     1      -4.446   9.316  -3.672  1.00  0.00     0.293 HD
ENDBRANCH   2  10
BRANCH   4  12
ATOM     12  O   UNL     1      -9.534   7.752  -2.292  1.00  0.00    -0.497 OA
ATOM     13  C   UNL     1     -10.125   7.510  -1.020  1.00  0.00     0.278 C 
ENDBRANCH   4  12
TORSDOF 3
ENDMDL
MODEL 2
REMARK VINA RESULT:    -4.325     17.499     18.841
REMARK INTER + INTRA:          -5.275
REMARK INTER:                  -5.026
REMARK INTRA:                  -0.249
REMARK UNBOUND:                -0.318
REMARK SMILES COc1ccc(C(C)=O)c(O)c1
REMARK SMILES IDX 6 1 10 2 12 3 3 4 4 5 5 6 7 7 8 8 9 9 11 10 2 12 1 13
REMARK H PARENT 11 11
REMARK Flexibility Score: inf
ROOT
ATOM      1  C   UNL     1       0.345  -7.982   4.517  1.00  0.00     0.059 A 
ATOM      2  C   UNL     1       0.818  -6.763   5.055  1.00  0.00     0.130 A 
ATOM      3  C   UNL     1       2.198  -6.520   5.126  1.00  0.00     0.093 A 
ATOM      4  C   UNL     1       3.120  -7.460   4.656  1.00  0.00     0.122 A 
ATOM      5  C   UNL     1       2.649  -8.662   4.104  1.00  0.00     0.047 A 
ATOM      6  C   UNL     1       1.278  -8.916   4.033  1.00  0.00     0.019 A 
ENDROOT
BRANCH   1   7
ATOM      7  C   UNL     1      -1.105  -8.308   4.429  1.00  0.00     0.163 C 
ATOM      8  C   UNL     1      -1.772  -9.264   5.370  1.00  0.00     0.093 C 
ATOM      9  O   UNL     1      -1.808  -7.764   3.534  1.00  0.00    -0.294 OA
ENDBRANCH   1   7
BRANCH   2  10
ATOM     10  O   UNL     1      -0.069  -5.783   5.498  1.00  0.00    -0.507 OA
ATOM     11  H   UNL     1      -0.643  -5.918   6.323  1.00  0.00     0.293 HD
ENDBRANCH   2  10
BRANCH   4  12
ATOM     12  O   UNL     1       4.487  -7.160   4.753  1.00  0.00    -0.497 OA
ATOM     13  C   UNL     1       5.523  -7.926   4.148  1.00  0.00     0.278 C 
ENDBRANCH   4  12
TORSDOF 3
ENDMDL
MODEL 3
REMARK VINA RESULT:    -4.252     17.736     19.260
REMARK INTER + INTRA:          -5.191
REMARK INTER:                  -5.018
REMARK INTRA:                  -0.173
REMARK UNBOUND:                -0.318
REMARK SMILES COc1ccc(C(C)=O)c(O)c1
REMARK SMILES IDX 6 1 10 2 12 3 3 4 4 5 5 6 7 7 8 8 9 9 11 10 2 12 1 13
REMARK H PARENT 11 11
REMARK Flexibility Score: inf
ROOT
ATOM      1  C   UNL     1       0.547  -8.040   4.530  1.00  0.00     0.059 A 
ATOM      2  C   UNL     1       1.492  -8.932   3.970  1.00  0.00     0.130 A 
ATOM      3  C   UNL     1       2.861  -8.630   4.032  1.00  0.00     0.093 A 
ATOM      4  C   UNL     1       3.313  -7.463   4.656  1.00  0.00     0.122 A 
ATOM      5  C   UNL     1       2.377  -6.587   5.229  1.00  0.00     0.047 A 
ATOM      6  C   UNL     1       1.012  -6.876   5.168  1.00  0.00     0.019 A 
ENDROOT
BRANCH   1   7
ATOM      7  C   UNL     1      -0.918  -8.293   4.481  1.00  0.00     0.163 C 
ATOM      8  C   UNL     1      -1.627  -9.115   5.515  1.00  0.00     0.093 C 
ATOM      9  O   UNL     1      -1.600  -7.802   3.540  1.00  0.00    -0.294 OA
ENDBRANCH   1   7
BRANCH   2  10
ATOM     10  O   UNL     1       1.084 -10.124   3.373  1.00  0.00    -0.507 OA
ATOM     11  H   UNL     1       0.390 -10.141   2.634  1.00  0.00     0.293 HD
ENDBRANCH   2  10
BRANCH   4  12
ATOM     12  O   UNL     1       4.693  -7.217   4.687  1.00  0.00    -0.497 OA
ATOM     13  C   UNL     1       5.668  -8.017   4.027  1.00  0.00     0.278 C 
ENDBRANCH   4  12
TORSDOF 3
ENDMDL
MODEL 4
REMARK VINA RESULT:    -4.218      1.907      4.889
REMARK INTER + INTRA:          -5.153
REMARK INTER:                  -4.847
REMARK INTRA:                  -0.305
REMARK UNBOUND:                -0.318
REMARK SMILES COc1ccc(C(C)=O)c(O)c1
REMARK SMILES IDX 6 1 10 2 12 3 3 4 4 5 5 6 7 7 8 8 9 9 11 10 2 12 1 13
REMARK H PARENT 11 11
REMARK Flexibility Score: inf
ROOT
ATOM      1  C   UNL     1      -7.079   7.832  -4.069  1.00  0.00     0.059 A 
ATOM      2  C   UNL     1      -7.085   6.506  -3.579  1.00  0.00     0.130 A 
ATOM      3  C   UNL     1      -5.879   5.798  -3.464  1.00  0.00     0.093 A 
ATOM      4  C   UNL     1      -4.661   6.389  -3.812  1.00  0.00     0.122 A 
ATOM      5  C   UNL     1      -4.653   7.713  -4.280  1.00  0.00     0.047 A 
ATOM      6  C   UNL     1      -5.848   8.425  -4.403  1.00  0.00     0.019 A 
ENDROOT
BRANCH   1   7
ATOM      7  C   UNL     1      -8.325   8.630  -4.231  1.00  0.00     0.163 C 
ATOM      8  C   UNL     1      -8.458   9.714  -5.257  1.00  0.00     0.093 C 
ATOM      9  O   UNL     1      -9.312   8.394  -3.483  1.00  0.00    -0.294 OA
ENDBRANCH   1   7
BRANCH   2  10
ATOM     10  O   UNL     1      -8.274   5.893  -3.185  1.00  0.00    -0.507 OA
ATOM     11  H   UNL     1      -8.573   5.883  -2.216  1.00  0.00     0.293 HD
ENDBRANCH   2  10
BRANCH   4  12
ATOM     12  O   UNL     1      -3.489   5.632  -3.674  1.00  0.00    -0.497 OA
ATOM     13  C   UNL     1      -3.182   4.824  -2.543  1.00  0.00     0.278 C 
ENDBRANCH   4  12
TORSDOF 3
ENDMDL
MODEL 5
REMARK VINA RESULT:    -4.061     13.108     14.449
REMARK INTER + INTRA:          -4.972
REMARK INTER:                  -4.638
REMARK INTRA:                  -0.334
REMARK UNBOUND:                -0.318
REMARK SMILES COc1ccc(C(C)=O)c(O)c1
REMARK SMILES IDX 6 1 10 2 12 3 3 4 4 5 5 6 7 7 8 8 9 9 11 10 2 12 1 13
REMARK H PARENT 11 11
REMARK Flexibility Score: inf
ROOT
ATOM      1  C   UNL     1       3.803   2.879   6.274  1.00  0.00     0.059 A 
ATOM      2  C   UNL     1       3.355   3.583   5.133  1.00  0.00     0.130 A 
ATOM      3  C   UNL     1       3.583   4.964   5.029  1.00  0.00     0.093 A 
ATOM      4  C   UNL     1       4.265   5.658   6.032  1.00  0.00     0.122 A 
ATOM      5  C   UNL     1       4.728   4.956   7.157  1.00  0.00     0.047 A 
ATOM      6  C   UNL     1       4.501   3.583   7.272  1.00  0.00     0.019 A 
ENDROOT
BRANCH   1   7
ATOM      7  C   UNL     1       3.578   1.419   6.453  1.00  0.00     0.163 C 
ATOM      8  C   UNL     1       2.942   0.848   7.684  1.00  0.00     0.093 C 
ATOM      9  O   UNL     1       3.930   0.623   5.540  1.00  0.00    -0.294 OA
ENDBRANCH   1   7
BRANCH   2  10
ATOM     10  O   UNL     1       2.705   2.921   4.092  1.00  0.00    -0.507 OA
ATOM     11  H   UNL     1       2.811   3.211   3.127  1.00  0.00     0.293 HD
ENDBRANCH   2  10
BRANCH   4  12
ATOM     12  O   UNL     1       4.464   7.037   5.871  1.00  0.00    -0.497 OA
ATOM     13  C   UNL     1       3.541   8.037   6.289  1.00  0.00     0.278 C 
ENDBRANCH   4  12
TORSDOF 3
ENDMDL
MODEL 6
REMARK VINA RESULT:    -3.950     13.021     15.024
REMARK INTER + INTRA:          -4.845
REMARK INTER:                  -4.507
REMARK INTRA:                  -0.338
REMARK UNBOUND:                -0.318
REMARK SMILES COc1ccc(C(C)=O)c(O)c1
REMARK SMILES IDX 6 1 10 2 12 3 3 4 4 5 5 6 7 7 8 8 9 9 11 10 2 12 1 13
REMARK H PARENT 11 11
REMARK Flexibility Score: inf
ROOT
ATOM      1  C   UNL     1       5.528   6.506   6.318  1.00  0.00     0.059 A 
ATOM      2  C   UNL     1       6.251   5.512   5.618  1.00  0.00     0.130 A 
ATOM      3  C   UNL     1       5.565   4.458   4.994  1.00  0.00     0.093 A 
ATOM      4  C   UNL     1       4.170   4.382   5.037  1.00  0.00     0.122 A 
ATOM      5  C   UNL     1       3.451   5.379   5.715  1.00  0.00     0.047 A 
ATOM      6  C   UNL     1       4.124   6.429   6.344  1.00  0.00     0.019 A 
ENDROOT
BRANCH   1   7
ATOM      7  C   UNL     1       6.196   7.638   7.015  1.00  0.00     0.163 C 
ATOM      8  C   UNL     1       5.684   9.044   6.940  1.00  0.00     0.093 C 
ATOM      9  O   UNL     1       7.233   7.417   7.700  1.00  0.00    -0.294 OA
ENDBRANCH   1   7
BRANCH   2  10
ATOM     10  O   UNL     1       7.640   5.573   5.519  1.00  0.00    -0.507 OA
ATOM     11  H   UNL     1       8.100   5.957   4.701  1.00  0.00     0.293 HD
ENDBRANCH   2  10
BRANCH   4  12
ATOM     12  O   UNL     1       3.541   3.306   4.394  1.00  0.00    -0.497 OA
ATOM     13  C   UNL     1       2.364   2.662   4.868  1.00  0.00     0.278 C 
ENDBRANCH   4  12
TORSDOF 3
ENDMDL
MODEL 7
REMARK VINA RESULT:    -3.920     13.519     14.719
REMARK INTER + INTRA:          -4.810
REMARK INTER:                  -4.518
REMARK INTRA:                  -0.292
REMARK UNBOUND:                -0.318
REMARK SMILES COc1ccc(C(C)=O)c(O)c1
REMARK SMILES IDX 6 1 10 2 12 3 3 4 4 5 5 6 7 7 8 8 9 9 11 10 2 12 1 13
REMARK H PARENT 11 11
REMARK Flexibility Score: inf
ROOT
ATOM      1  C   UNL     1       3.956   4.860   5.886  1.00  0.00     0.059 A 
ATOM      2  C   UNL     1       5.219   5.352   5.481  1.00  0.00     0.130 A 
ATOM      3  C   UNL     1       5.623   6.640   5.864  1.00  0.00     0.093 A 
ATOM      4  C   UNL     1       4.802   7.445   6.658  1.00  0.00     0.122 A 
ATOM      5  C   UNL     1       3.557   6.950   7.076  1.00  0.00     0.047 A 
ATOM      6  C   UNL     1       3.143   5.672   6.696  1.00  0.00     0.019 A 
ENDROOT
BRANCH   1   7
ATOM      7  C   UNL     1       3.462   3.511   5.498  1.00  0.00     0.163 C 
ATOM      8  C   UNL     1       3.276   2.406   6.493  1.00  0.00     0.093 C 
ATOM      9  O   UNL     1       3.185   3.278   4.290  1.00  0.00    -0.294 OA
ENDBRANCH   1   7
BRANCH   2  10
ATOM     10  O   UNL     1       6.084   4.565   4.721  1.00  0.00    -0.507 OA
ATOM     11  H   UNL     1       7.091   4.628   4.822  1.00  0.00     0.293 HD
ENDBRANCH   2  10
BRANCH   4  12
ATOM     12  O   UNL     1       5.261   8.723   7.010  1.00  0.00    -0.497 OA
ATOM     13  C   UNL     1       6.633   9.105   7.038  1.00  0.00     0.278 C 
ENDBRANCH   4  12
TORSDOF 3
ENDMDL
MODEL 8
REMARK VINA RESULT:    -3.870      1.685      2.391
REMARK INTER + INTRA:          -4.754
REMARK INTER:                  -4.590
REMARK INTRA:                  -0.163
REMARK UNBOUND:                -0.318
REMARK SMILES COc1ccc(C(C)=O)c(O)c1
REMARK SMILES IDX 6 1 10 2 12 3 3 4 4 5 5 6 7 7 8 8 9 9 11 10 2 12 1 13
REMARK H PARENT 11 11
REMARK Flexibility Score: inf
ROOT
ATOM      1  C   UNL     1      -5.708   7.738  -3.061  1.00  0.00     0.059 A 
ATOM      2  C   UNL     1      -7.079   7.428  -3.211  1.00  0.00     0.130 A 
ATOM      3  C   UNL     1      -8.037   8.103  -2.438  1.00  0.00     0.093 A 
ATOM      4  C   UNL     1      -7.658   9.094  -1.528  1.00  0.00     0.122 A 
ATOM      5  C   UNL     1      -6.298   9.415  -1.393  1.00  0.00     0.047 A 
ATOM      6  C   UNL     1      -5.337   8.746  -2.154  1.00  0.00     0.019 A 
ENDROOT
BRANCH   1   7
ATOM      7  C   UNL     1      -4.642   7.047  -3.837  1.00  0.00     0.163 C 
ATOM      8  C   UNL     1      -4.072   5.725  -3.421  1.00  0.00     0.093 C 
ATOM      9  O   UNL     1      -4.195   7.584  -4.888  1.00  0.00    -0.294 OA
ENDBRANCH   1   7
BRANCH   2  10
ATOM     10  O   UNL     1      -7.501   6.473  -4.136  1.00  0.00    -0.507 OA
ATOM     11  H   UNL     1      -6.848   5.842  -4.586  1.00  0.00     0.293 HD
ENDBRANCH   2  10
BRANCH   4  12
ATOM     12  O   UNL     1      -8.661   9.734  -0.785  1.00  0.00    -0.497 OA
ATOM     13  C   UNL     1      -9.077   9.334   0.516  1.00  0.00     0.278 C 
ENDBRANCH   4  12
TORSDOF 3
ENDMDL
MODEL 9
REMARK VINA RESULT:    -3.832     13.312     14.672
REMARK INTER + INTRA:          -4.710
REMARK INTER:                  -4.398
REMARK INTRA:                  -0.311
REMARK UNBOUND:                -0.318
REMARK SMILES COc1ccc(C(C)=O)c(O)c1
REMARK SMILES IDX 6 1 10 2 12 3 3 4 4 5 5 6 7 7 8 8 9 9 11 10 2 12 1 13
REMARK H PARENT 11 11
REMARK Flexibility Score: inf
ROOT
ATOM      1  C   UNL     1       5.412   3.551   5.501  1.00  0.00     0.059 A 
ATOM      2  C   UNL     1       4.059   3.774   5.152  1.00  0.00     0.130 A 
ATOM      3  C   UNL     1       3.524   5.069   5.221  1.00  0.00     0.093 A 
ATOM      4  C   UNL     1       4.312   6.153   5.616  1.00  0.00     0.122 A 
ATOM      5  C   UNL     1       5.660   5.936   5.944  1.00  0.00     0.047 A 
ATOM      6  C   UNL     1       6.201   4.650   5.884  1.00  0.00     0.019 A 
ENDROOT
BRANCH   1   7
ATOM      7  C   UNL     1       6.034   2.200   5.466  1.00  0.00     0.163 C 
ATOM      8  C   UNL     1       7.489   1.992   5.174  1.00  0.00     0.093 C 
ATOM      9  O   UNL     1       5.320   1.184   5.690  1.00  0.00    -0.294 OA
ENDBRANCH   1   7
BRANCH   2  10
ATOM     10  O   UNL     1       3.250   2.725   4.716  1.00  0.00    -0.507 OA
ATOM     11  H   UNL     1       2.951   2.648   3.750  1.00  0.00     0.293 HD
ENDBRANCH   2  10
BRANCH   4  12
ATOM     12  O   UNL     1       3.721   7.425   5.664  1.00  0.00    -0.497 OA
ATOM     13  C   UNL     1       2.960   7.916   6.762  1.00  0.00     0.278 C 
ENDBRANCH   4  12
TORSDOF 3
ENDMDL
