MODEL 1
REMARK VINA RESULT:    -6.368      0.000      0.000
REMARK INTER + INTRA:          -9.912
REMARK INTER:                  -8.415
REMARK INTRA:                  -1.497
REMARK UNBOUND:                -1.497
REMARK SMILES CC[C@@H](C=C[C@@H](C)[C@@H]1CC[C@@H]2[C@H]3CC=C4C[C@H](O)CC[C@@]4(C)[C@H]3CC[C@]21C)C(C)C
REMARK SMILES IDX 6 1 7 2 5 3 4 4 3 5 2 6 1 7 28 8 29 9 30 10 8 11 9 12 26 13
REMARK SMILES IDX 10 14 11 15 25 16 27 17 12 18 24 19 23 20 13 21 21 22 14 23
REMARK SMILES IDX 15 24 20 25 22 26 16 27 19 28 17 29 18 30
REMARK H PARENT 18 31
REMARK Flexibility Score: inf
ROOT
ATOM      1  C   UNL     1      18.724 -12.206  19.148  1.00  0.00     0.012 C 
ATOM      2  C   UNL     1      19.581 -12.896  18.072  1.00  0.00     0.012 C 
ENDROOT
BRANCH   1   3
ATOM      3  C   UNL     1      19.577 -11.157  19.831  1.00  0.00    -0.028 C 
ATOM      4  C   UNL     1      19.258  -9.848  19.961  1.00  0.00    -0.027 C 
BRANCH   4   5
ATOM      5  C   UNL     1      18.010  -9.190  19.386  1.00  0.00     0.014 C 
BRANCH   5   6
ATOM      6  C   UNL     1      18.384  -8.526  18.037  1.00  0.00     0.004 C 
ATOM      7  C   UNL     1      17.180  -8.097  17.194  1.00  0.00     0.004 C 
ENDBRANCH   5   6
BRANCH   5   8
ATOM      8  C   UNL     1      17.365  -8.228  20.450  1.00  0.00    -0.011 C 
ATOM      9  C   UNL     1      17.281  -8.808  21.875  1.00  0.00     0.008 C 
ATOM     10  C   UNL     1      18.017  -6.834  20.460  1.00  0.00     0.008 C 
ENDBRANCH   5   8
ENDBRANCH   4   5
ENDBRANCH   1   3
BRANCH   1  11
ATOM     11  C   UNL     1      18.086 -13.275  20.116  1.00  0.00     0.002 C 
ATOM     12  C   UNL     1      18.207 -14.712  19.551  1.00  0.00     0.005 C 
ATOM     13  C   UNL     1      16.596 -13.190  20.599  1.00  0.00    -0.026 C 
ATOM     14  C   UNL     1      17.090 -15.539  20.209  1.00  0.00     0.005 C 
ATOM     15  C   UNL     1      16.445 -14.589  21.216  1.00  0.00    -0.001 C 
ATOM     16  C   UNL     1      16.340 -12.143  21.722  1.00  0.00     0.007 C 
ATOM     17  C   UNL     1      15.610 -12.976  19.404  1.00  0.00     0.012 C 
ATOM     18  C   UNL     1      15.005 -14.919  21.705  1.00  0.00     0.000 C 
ATOM     19  C   UNL     1      15.420 -12.641  22.876  1.00  0.00     0.005 C 
ATOM     20  C   UNL     1      14.334 -13.674  22.429  1.00  0.00     0.003 C 
ATOM     21  C   UNL     1      15.024 -16.224  22.550  1.00  0.00     0.031 C 
ATOM     22  C   UNL     1      13.321 -14.105  23.572  1.00  0.00    -0.008 C 
ATOM     23  C   UNL     1      14.852 -16.014  24.025  1.00  0.00    -0.027 C 
ATOM     24  C   UNL     1      14.000 -15.104  24.517  1.00  0.00    -0.065 C 
ATOM     25  C   UNL     1      12.792 -12.873  24.384  1.00  0.00     0.014 C 
ATOM     26  C   UNL     1      12.094 -14.792  22.915  1.00  0.00     0.016 C 
ATOM     27  C   UNL     1      13.491 -15.320  25.933  1.00  0.00     0.063 C 
ATOM     28  C   UNL     1      12.048 -13.256  25.667  1.00  0.00     0.033 C 
ATOM     29  C   UNL     1      12.992 -14.031  26.600  1.00  0.00     0.118 C 
BRANCH  29  30
ATOM     30  O   UNL     1      12.357 -14.315  27.823  1.00  0.00    -0.393 OA
ATOM     31  H   UNL     1      13.058 -14.386  28.525  1.00  0.00     0.210 HD
ENDBRANCH  29  30
ENDBRANCH   1  11
TORSDOF 6
ENDMDL
MODEL 2
REMARK VINA RESULT:    -6.203      2.841      7.604
REMARK INTER + INTRA:          -9.695
REMARK INTER:                  -8.184
REMARK INTRA:                  -1.511
REMARK UNBOUND:                -1.497
REMARK SMILES CC[C@@H](C=C[C@@H](C)[C@@H]1CC[C@@H]2[C@H]3CC=C4C[C@H](O)CC[C@@]4(C)[C@H]3CC[C@]21C)C(C)C
REMARK SMILES IDX 6 1 7 2 5 3 4 4 3 5 2 6 1 7 28 8 29 9 30 10 8 11 9 12 26 13
REMARK SMILES IDX 10 14 11 15 25 16 27 17 12 18 24 19 23 20 13 21 21 22 14 23
REMARK SMILES IDX 15 24 20 25 22 26 16 27 19 28 17 29 18 30
REMARK H PARENT 18 31
REMARK Flexibility Score: inf
ROOT
ATOM      1  C   UNL     1      14.118 -14.611  25.646  1.00  0.00     0.012 C 
ATOM      2  C   UNL     1      14.374 -16.086  26.000  1.00  0.00     0.012 C 
ENDROOT
BRANCH   1   3
ATOM      3  C   UNL     1      12.705 -14.262  26.065  1.00  0.00    -0.028 C 
ATOM      4  C   UNL     1      12.125 -13.045  25.938  1.00  0.00    -0.027 C 
BRANCH   4   5
ATOM      5  C   UNL     1      12.818 -11.797  25.405  1.00  0.00     0.014 C 
BRANCH   5   6
ATOM      6  C   UNL     1      12.785 -10.710  26.509  1.00  0.00     0.004 C 
ATOM      7  C   UNL     1      11.636 -10.867  27.509  1.00  0.00     0.004 C 
ENDBRANCH   5   6
BRANCH   5   8
ATOM      8  C   UNL     1      12.187 -11.374  24.028  1.00  0.00    -0.011 C 
ATOM      9  C   UNL     1      11.375 -12.478  23.325  1.00  0.00     0.008 C 
ATOM     10  C   UNL     1      11.375 -10.069  24.125  1.00  0.00     0.008 C 
ENDBRANCH   5   8
ENDBRANCH   4   5
ENDBRANCH   1   3
BRANCH   1  11
ATOM     11  C   UNL     1      14.442 -14.342  24.126  1.00  0.00     0.002 C 
ATOM     12  C   UNL     1      14.383 -15.641  23.284  1.00  0.00     0.005 C 
ATOM     13  C   UNL     1      15.774 -13.657  23.658  1.00  0.00    -0.026 C 
ATOM     14  C   UNL     1      15.260 -15.403  22.043  1.00  0.00     0.005 C 
ATOM     15  C   UNL     1      15.694 -13.942  22.150  1.00  0.00    -0.001 C 
ATOM     16  C   UNL     1      15.808 -12.113  23.852  1.00  0.00     0.007 C 
ATOM     17  C   UNL     1      17.031 -14.327  24.306  1.00  0.00     0.012 C 
ATOM     18  C   UNL     1      16.953 -13.499  21.349  1.00  0.00     0.000 C 
ATOM     19  C   UNL     1      16.393 -11.321  22.645  1.00  0.00     0.005 C 
ATOM     20  C   UNL     1      17.496 -12.092  21.846  1.00  0.00     0.003 C 
ATOM     21  C   UNL     1      16.657 -13.575  19.825  1.00  0.00     0.031 C 
ATOM     22  C   UNL     1      18.178 -11.255  20.683  1.00  0.00    -0.008 C 
ATOM     23  C   UNL     1      16.479 -12.244  19.157  1.00  0.00    -0.027 C 
ATOM     24  C   UNL     1      17.236 -11.185  19.474  1.00  0.00    -0.065 C 
ATOM     25  C   UNL     1      18.562  -9.807  21.147  1.00  0.00     0.014 C 
ATOM     26  C   UNL     1      19.487 -11.970  20.257  1.00  0.00     0.016 C 
ATOM     27  C   UNL     1      17.375 -10.089  18.429  1.00  0.00     0.063 C 
ATOM     28  C   UNL     1      18.951  -8.875  19.996  1.00  0.00     0.033 C 
ATOM     29  C   UNL     1      17.768  -8.731  19.025  1.00  0.00     0.118 C 
BRANCH  29  30
ATOM     30  O   UNL     1      18.072  -7.808  18.007  1.00  0.00    -0.393 OA
ATOM     31  H   UNL     1      17.260  -7.693  17.443  1.00  0.00     0.210 HD
ENDBRANCH  29  30
ENDBRANCH   1  11
TORSDOF 6
ENDMDL
MODEL 3
REMARK VINA RESULT:    -6.152      2.991      7.726
REMARK INTER + INTRA:          -9.627
REMARK INTER:                  -7.845
REMARK INTRA:                  -1.782
REMARK UNBOUND:                -1.497
REMARK SMILES CC[C@@H](C=C[C@@H](C)[C@@H]1CC[C@@H]2[C@H]3CC=C4C[C@H](O)CC[C@@]4(C)[C@H]3CC[C@]21C)C(C)C
REMARK SMILES IDX 6 1 7 2 5 3 4 4 3 5 2 6 1 7 28 8 29 9 30 10 8 11 9 12 26 13
REMARK SMILES IDX 10 14 11 15 25 16 27 17 12 18 24 19 23 20 13 21 21 22 14 23
REMARK SMILES IDX 15 24 20 25 22 26 16 27 19 28 17 29 18 30
REMARK H PARENT 18 31
REMARK Flexibility Score: inf
ROOT
ATOM      1  C   UNL     1      15.453 -14.590  26.244  1.00  0.00     0.012 C 
ATOM      2  C   UNL     1      16.376 -15.699  26.778  1.00  0.00     0.012 C 
ENDROOT
BRANCH   1   3
ATOM      3  C   UNL     1      14.024 -15.091  26.311  1.00  0.00    -0.028 C 
ATOM      4  C   UNL     1      12.941 -14.444  25.820  1.00  0.00    -0.027 C 
BRANCH   4   5
ATOM      5  C   UNL     1      12.966 -13.068  25.167  1.00  0.00     0.014 C 
BRANCH   5   6
ATOM      6  C   UNL     1      12.228 -12.072  26.096  1.00  0.00     0.004 C 
ATOM      7  C   UNL     1      12.988 -10.766  26.346  1.00  0.00     0.004 C 
ENDBRANCH   5   6
BRANCH   5   8
ATOM      8  C   UNL     1      12.408 -13.154  23.699  1.00  0.00    -0.011 C 
ATOM      9  C   UNL     1      11.285 -12.149  23.376  1.00  0.00     0.008 C 
ATOM     10  C   UNL     1      13.523 -13.095  22.638  1.00  0.00     0.008 C 
ENDBRANCH   5   8
ENDBRANCH   4   5
ENDBRANCH   1   3
BRANCH   1  11
ATOM     11  C   UNL     1      15.923 -14.120  24.814  1.00  0.00     0.002 C 
ATOM     12  C   UNL     1      16.632 -15.257  24.037  1.00  0.00     0.005 C 
ATOM     13  C   UNL     1      16.864 -12.882  24.603  1.00  0.00    -0.026 C 
ATOM     14  C   UNL     1      17.539 -14.579  22.995  1.00  0.00     0.005 C 
ATOM     15  C   UNL     1      17.232 -13.088  23.125  1.00  0.00    -0.001 C 
ATOM     16  C   UNL     1      16.154 -11.503  24.731  1.00  0.00     0.007 C 
ATOM     17  C   UNL     1      18.125 -12.947  25.527  1.00  0.00     0.012 C 
ATOM     18  C   UNL     1      18.287 -12.080  22.584  1.00  0.00     0.000 C 
ATOM     19  C   UNL     1      16.549 -10.466  23.638  1.00  0.00     0.005 C 
ATOM     20  C   UNL     1      18.019 -10.610  23.120  1.00  0.00     0.003 C 
ATOM     21  C   UNL     1      18.377 -12.197  21.036  1.00  0.00     0.031 C 
ATOM     22  C   UNL     1      18.468  -9.491  22.088  1.00  0.00    -0.008 C 
ATOM     23  C   UNL     1      17.755 -11.055  20.288  1.00  0.00    -0.027 C 
ATOM     24  C   UNL     1      17.867  -9.787  20.709  1.00  0.00    -0.065 C 
ATOM     25  C   UNL     1      18.051  -8.055  22.558  1.00  0.00     0.014 C 
ATOM     26  C   UNL     1      20.016  -9.513  21.975  1.00  0.00     0.016 C 
ATOM     27  C   UNL     1      17.705  -8.691  19.668  1.00  0.00     0.063 C 
ATOM     28  C   UNL     1      18.202  -6.985  21.472  1.00  0.00     0.033 C 
ATOM     29  C   UNL     1      17.308  -7.337  20.272  1.00  0.00     0.118 C 
BRANCH  29  30
ATOM     30  O   UNL     1      17.362  -6.322  19.299  1.00  0.00    -0.393 OA
ATOM     31  H   UNL     1      17.841  -5.543  19.692  1.00  0.00     0.210 HD
ENDBRANCH  29  30
ENDBRANCH   1  11
TORSDOF 6
ENDMDL
MODEL 4
REMARK VINA RESULT:    -6.056      2.844      7.703
REMARK INTER + INTRA:          -9.499
REMARK INTER:                  -7.639
REMARK INTRA:                  -1.860
REMARK UNBOUND:                -1.497
REMARK SMILES CC[C@@H](C=C[C@@H](C)[C@@H]1CC[C@@H]2[C@H]3CC=C4C[C@H](O)CC[C@@]4(C)[C@H]3CC[C@]21C)C(C)C
REMARK SMILES IDX 6 1 7 2 5 3 4 4 3 5 2 6 1 7 28 8 29 9 30 10 8 11 9 12 26 13
REMARK SMILES IDX 10 14 11 15 25 16 27 17 12 18 24 19 23 20 13 21 21 22 14 23
REMARK SMILES IDX 15 24 20 25 22 26 16 27 19 28 17 29 18 30
REMARK H PARENT 18 31
REMARK Flexibility Score: inf
ROOT
ATOM      1  C   UNL     1      14.025 -14.657  22.913  1.00  0.00     0.012 C 
ATOM      2  C   UNL     1      14.265 -16.023  22.248  1.00  0.00     0.012 C 
ENDROOT
BRANCH   1   3
ATOM      3  C   UNL     1      12.531 -14.472  23.085  1.00  0.00    -0.028 C 
ATOM      4  C   UNL     1      11.935 -13.782  24.086  1.00  0.00    -0.027 C 
BRANCH   4   5
ATOM      5  C   UNL     1      12.665 -13.121  25.249  1.00  0.00     0.014 C 
BRANCH   5   6
ATOM      6  C   UNL     1      12.529 -14.035  26.493  1.00  0.00     0.004 C 
ATOM      7  C   UNL     1      13.499 -15.220  26.509  1.00  0.00     0.004 C 
ENDBRANCH   5   6
BRANCH   5   8
ATOM      8  C   UNL     1      12.155 -11.646  25.441  1.00  0.00    -0.011 C 
ATOM      9  C   UNL     1      13.116 -10.730  26.224  1.00  0.00     0.008 C 
ATOM     10  C   UNL     1      11.727 -10.990  24.115  1.00  0.00     0.008 C 
ENDBRANCH   5   8
ENDBRANCH   4   5
ENDBRANCH   1   3
BRANCH   1  11
ATOM     11  C   UNL     1      14.744 -13.512  22.101  1.00  0.00     0.002 C 
ATOM     12  C   UNL     1      15.140 -13.975  20.677  1.00  0.00     0.005 C 
ATOM     13  C   UNL     1      16.034 -12.790  22.629  1.00  0.00    -0.026 C 
ATOM     14  C   UNL     1      16.301 -13.072  20.228  1.00  0.00     0.005 C 
ATOM     15  C   UNL     1      16.454 -12.047  21.350  1.00  0.00    -0.001 C 
ATOM     16  C   UNL     1      15.770 -11.727  23.734  1.00  0.00     0.007 C 
ATOM     17  C   UNL     1      17.125 -13.812  23.089  1.00  0.00     0.012 C 
ATOM     18  C   UNL     1      17.811 -11.295  21.467  1.00  0.00     0.000 C 
ATOM     19  C   UNL     1      16.561 -10.397  23.556  1.00  0.00     0.005 C 
ATOM     20  C   UNL     1      17.957 -10.568  22.871  1.00  0.00     0.003 C 
ATOM     21  C   UNL     1      18.002 -10.365  20.235  1.00  0.00     0.031 C 
ATOM     22  C   UNL     1      18.819  -9.238  22.784  1.00  0.00    -0.008 C 
ATOM     23  C   UNL     1      17.829  -8.904  20.525  1.00  0.00    -0.027 C 
ATOM     24  C   UNL     1      18.284  -8.347  21.656  1.00  0.00    -0.065 C 
ATOM     25  C   UNL     1      18.819  -8.447  24.138  1.00  0.00     0.014 C 
ATOM     26  C   UNL     1      20.290  -9.619  22.467  1.00  0.00     0.016 C 
ATOM     27  C   UNL     1      18.560  -6.852  21.635  1.00  0.00     0.063 C 
ATOM     28  C   UNL     1      19.388  -7.030  24.022  1.00  0.00     0.033 C 
ATOM     29  C   UNL     1      18.543  -6.213  23.031  1.00  0.00     0.118 C 
BRANCH  29  30
ATOM     30  O   UNL     1      18.992  -4.882  22.976  1.00  0.00    -0.393 OA
ATOM     31  H   UNL     1      18.257  -4.323  22.605  1.00  0.00     0.210 HD
ENDBRANCH  29  30
ENDBRANCH   1  11
TORSDOF 6
ENDMDL
MODEL 5
REMARK VINA RESULT:    -5.903      3.034      4.620
REMARK INTER + INTRA:          -9.298
REMARK INTER:                  -7.453
REMARK INTRA:                  -1.845
REMARK UNBOUND:                -1.497
REMARK SMILES CC[C@@H](C=C[C@@H](C)[C@@H]1CC[C@@H]2[C@H]3CC=C4C[C@H](O)CC[C@@]4(C)[C@H]3CC[C@]21C)C(C)C
REMARK SMILES IDX 6 1 7 2 5 3 4 4 3 5 2 6 1 7 28 8 29 9 30 10 8 11 9 12 26 13
REMARK SMILES IDX 10 14 11 15 25 16 27 17 12 18 24 19 23 20 13 21 21 22 14 23
REMARK SMILES IDX 15 24 20 25 22 26 16 27 19 28 17 29 18 30
REMARK H PARENT 18 31
REMARK Flexibility Score: inf
ROOT
ATOM      1  C   UNL     1      18.757 -15.932  20.992  1.00  0.00     0.012 C 
ATOM      2  C   UNL     1      19.824 -16.884  21.561  1.00  0.00     0.012 C 
ENDROOT
BRANCH   1   3
ATOM      3  C   UNL     1      19.420 -15.042  19.960  1.00  0.00    -0.028 C 
ATOM      4  C   UNL     1      18.920 -14.752  18.736  1.00  0.00    -0.027 C 
BRANCH   4   5
ATOM      5  C   UNL     1      17.630 -15.322  18.160  1.00  0.00     0.014 C 
BRANCH   5   6
ATOM      6  C   UNL     1      17.994 -16.478  17.195  1.00  0.00     0.004 C 
ATOM      7  C   UNL     1      18.642 -16.021  15.885  1.00  0.00     0.004 C 
ENDBRANCH   5   6
BRANCH   5   8
ATOM      8  C   UNL     1      16.762 -14.171  17.530  1.00  0.00    -0.011 C 
ATOM      9  C   UNL     1      15.241 -14.411  17.579  1.00  0.00     0.008 C 
ATOM     10  C   UNL     1      17.120 -12.784  18.095  1.00  0.00     0.008 C 
ENDBRANCH   5   8
ENDBRANCH   4   5
ENDBRANCH   1   3
BRANCH   1  11
ATOM     11  C   UNL     1      18.025 -15.163  22.158  1.00  0.00     0.002 C 
ATOM     12  C   UNL     1      18.456 -15.681  23.553  1.00  0.00     0.005 C 
ATOM     13  C   UNL     1      16.461 -15.080  22.259  1.00  0.00    -0.026 C 
ATOM     14  C   UNL     1      17.314 -15.335  24.523  1.00  0.00     0.005 C 
ATOM     15  C   UNL     1      16.324 -14.526  23.686  1.00  0.00    -0.001 C 
ATOM     16  C   UNL     1      15.805 -14.059  21.285  1.00  0.00     0.007 C 
ATOM     17  C   UNL     1      15.795 -16.489  22.120  1.00  0.00     0.012 C 
ATOM     18  C   UNL     1      14.857 -14.426  24.193  1.00  0.00     0.000 C 
ATOM     19  C   UNL     1      14.686 -13.183  21.922  1.00  0.00     0.005 C 
ATOM     20  C   UNL     1      13.881 -13.896  23.057  1.00  0.00     0.003 C 
ATOM     21  C   UNL     1      14.814 -13.607  25.514  1.00  0.00     0.031 C 
ATOM     22  C   UNL     1      12.667 -13.054  23.638  1.00  0.00    -0.008 C 
ATOM     23  C   UNL     1      14.247 -12.225  25.373  1.00  0.00    -0.027 C 
ATOM     24  C   UNL     1      13.195 -11.968  24.583  1.00  0.00    -0.065 C 
ATOM     25  C   UNL     1      11.806 -12.403  22.501  1.00  0.00     0.014 C 
ATOM     26  C   UNL     1      11.739 -14.006  24.439  1.00  0.00     0.016 C 
ATOM     27  C   UNL     1      12.371 -10.731  24.902  1.00  0.00     0.063 C 
ATOM     28  C   UNL     1      10.810 -11.356  23.008  1.00  0.00     0.033 C 
ATOM     29  C   UNL     1      11.569 -10.212  23.700  1.00  0.00     0.118 C 
BRANCH  29  30
ATOM     30  O   UNL     1      10.681  -9.195  24.095  1.00  0.00    -0.393 OA
ATOM     31  H   UNL     1      10.924  -8.365  23.603  1.00  0.00     0.210 HD
ENDBRANCH  29  30
ENDBRANCH   1  11
TORSDOF 6
ENDMDL
MODEL 6
REMARK VINA RESULT:    -5.896     10.559     13.733
REMARK INTER + INTRA:          -9.289
REMARK INTER:                  -7.523
REMARK INTRA:                  -1.766
REMARK UNBOUND:                -1.497
REMARK SMILES CC[C@@H](C=C[C@@H](C)[C@@H]1CC[C@@H]2[C@H]3CC=C4C[C@H](O)CC[C@@]4(C)[C@H]3CC[C@]21C)C(C)C
REMARK SMILES IDX 6 1 7 2 5 3 4 4 3 5 2 6 1 7 28 8 29 9 30 10 8 11 9 12 26 13
REMARK SMILES IDX 10 14 11 15 25 16 27 17 12 18 24 19 23 20 13 21 21 22 14 23
REMARK SMILES IDX 15 24 20 25 22 26 16 27 19 28 17 29 18 30
REMARK H PARENT 18 31
REMARK Flexibility Score: inf
ROOT
ATOM      1  C   UNL     1      13.623   0.461  24.288  1.00  0.00     0.012 C 
ATOM      2  C   UNL     1      13.667   1.691  23.365  1.00  0.00     0.012 C 
ENDROOT
BRANCH   1   3
ATOM      3  C   UNL     1      12.294   0.462  25.015  1.00  0.00    -0.028 C 
ATOM      4  C   UNL     1      11.951  -0.370  26.027  1.00  0.00    -0.027 C 
BRANCH   4   5
ATOM      5  C   UNL     1      12.825  -1.494  26.569  1.00  0.00     0.014 C 
BRANCH   5   6
ATOM      6  C   UNL     1      12.205  -2.847  26.135  1.00  0.00     0.004 C 
ATOM      7  C   UNL     1      12.874  -4.073  26.764  1.00  0.00     0.004 C 
ENDBRANCH   5   6
BRANCH   5   8
ATOM      8  C   UNL     1      13.035  -1.319  28.118  1.00  0.00    -0.011 C 
ATOM      9  C   UNL     1      14.501  -1.121  28.550  1.00  0.00     0.008 C 
ATOM     10  C   UNL     1      12.131  -0.228  28.718  1.00  0.00     0.008 C 
ENDBRANCH   5   8
ENDBRANCH   4   5
ENDBRANCH   1   3
BRANCH   1  11
ATOM     11  C   UNL     1      14.891   0.427  25.226  1.00  0.00     0.002 C 
ATOM     12  C   UNL     1      15.587   1.809  25.305  1.00  0.00     0.005 C 
ATOM     13  C   UNL     1      16.077  -0.575  25.001  1.00  0.00    -0.026 C 
ATOM     14  C   UNL     1      17.049   1.542  25.702  1.00  0.00     0.005 C 
ATOM     15  C   UNL     1      17.115   0.037  25.955  1.00  0.00    -0.001 C 
ATOM     16  C   UNL     1      15.792  -2.029  25.474  1.00  0.00     0.007 C 
ATOM     17  C   UNL     1      16.576  -0.560  23.518  1.00  0.00     0.012 C 
ATOM     18  C   UNL     1      18.512  -0.647  25.902  1.00  0.00     0.000 C 
ATOM     19  C   UNL     1      16.963  -2.700  26.252  1.00  0.00     0.005 C 
ATOM     20  C   UNL     1      18.385  -2.227  25.802  1.00  0.00     0.003 C 
ATOM     21  C   UNL     1      19.387  -0.143  27.084  1.00  0.00     0.031 C 
ATOM     22  C   UNL     1      19.588  -2.983  26.509  1.00  0.00    -0.008 C 
ATOM     23  C   UNL     1      19.583  -1.143  28.185  1.00  0.00    -0.027 C 
ATOM     24  C   UNL     1      19.771  -2.446  27.934  1.00  0.00    -0.065 C 
ATOM     25  C   UNL     1      19.368  -4.535  26.545  1.00  0.00     0.014 C 
ATOM     26  C   UNL     1      20.886  -2.715  25.702  1.00  0.00     0.016 C 
ATOM     27  C   UNL     1      20.482  -3.265  28.999  1.00  0.00     0.063 C 
ATOM     28  C   UNL     1      20.347  -5.273  27.463  1.00  0.00     0.033 C 
ATOM     29  C   UNL     1      20.185  -4.768  28.905  1.00  0.00     0.118 C 
BRANCH  29  30
ATOM     30  O   UNL     1      21.012  -5.495  29.781  1.00  0.00    -0.393 OA
ATOM     31  H   UNL     1      21.936  -5.137  29.702  1.00  0.00     0.210 HD
ENDBRANCH  29  30
ENDBRANCH   1  11
TORSDOF 6
ENDMDL
MODEL 7
REMARK VINA RESULT:    -5.831      1.885      3.206
REMARK INTER + INTRA:          -9.202
REMARK INTER:                  -7.268
REMARK INTRA:                  -1.934
REMARK UNBOUND:                -1.497
REMARK SMILES CC[C@@H](C=C[C@@H](C)[C@@H]1CC[C@@H]2[C@H]3CC=C4C[C@H](O)CC[C@@]4(C)[C@H]3CC[C@]21C)C(C)C
REMARK SMILES IDX 6 1 7 2 5 3 4 4 3 5 2 6 1 7 28 8 29 9 30 10 8 11 9 12 26 13
REMARK SMILES IDX 10 14 11 15 25 16 27 17 12 18 24 19 23 20 13 21 21 22 14 23
REMARK SMILES IDX 15 24 20 25 22 26 16 27 19 28 17 29 18 30
REMARK H PARENT 18 31
REMARK Flexibility Score: inf
ROOT
ATOM      1  C   UNL     1      18.683 -14.551  21.664  1.00  0.00     0.012 C 
ATOM      2  C   UNL     1      19.664 -15.733  21.760  1.00  0.00     0.012 C 
ENDROOT
BRANCH   1   3
ATOM      3  C   UNL     1      19.477 -13.267  21.798  1.00  0.00    -0.028 C 
ATOM      4  C   UNL     1      19.371 -12.189  20.985  1.00  0.00    -0.027 C 
BRANCH   4   5
ATOM      5  C   UNL     1      18.475 -12.106  19.755  1.00  0.00     0.014 C 
BRANCH   5   6
ATOM      6  C   UNL     1      19.376 -12.099  18.494  1.00  0.00     0.004 C 
ATOM      7  C   UNL     1      19.215 -13.333  17.602  1.00  0.00     0.004 C 
ENDBRANCH   5   6
BRANCH   5   8
ATOM      8  C   UNL     1      17.490 -10.886  19.882  1.00  0.00    -0.011 C 
ATOM      9  C   UNL     1      17.854  -9.878  20.989  1.00  0.00     0.008 C 
ATOM     10  C   UNL     1      17.258 -10.170  18.539  1.00  0.00     0.008 C 
ENDBRANCH   5   8
ENDBRANCH   4   5
ENDBRANCH   1   3
BRANCH   1  11
ATOM     11  C   UNL     1      17.512 -14.717  22.707  1.00  0.00     0.002 C 
ATOM     12  C   UNL     1      17.029 -16.185  22.804  1.00  0.00     0.005 C 
ATOM     13  C   UNL     1      16.180 -13.892  22.615  1.00  0.00    -0.026 C 
ATOM     14  C   UNL     1      15.585 -16.139  23.331  1.00  0.00     0.005 C 
ATOM     15  C   UNL     1      15.329 -14.664  23.635  1.00  0.00    -0.001 C 
ATOM     16  C   UNL     1      16.298 -12.420  23.106  1.00  0.00     0.007 C 
ATOM     17  C   UNL     1      15.559 -13.952  21.180  1.00  0.00     0.012 C 
ATOM     18  C   UNL     1      13.850 -14.187  23.722  1.00  0.00     0.000 C 
ATOM     19  C   UNL     1      15.117 -11.940  24.001  1.00  0.00     0.005 C 
ATOM     20  C   UNL     1      13.742 -12.604  23.659  1.00  0.00     0.003 C 
ATOM     21  C   UNL     1      13.164 -14.833  24.959  1.00  0.00     0.031 C 
ATOM     22  C   UNL     1      12.511 -12.042  24.489  1.00  0.00    -0.008 C 
ATOM     23  C   UNL     1      12.926 -13.892  26.102  1.00  0.00    -0.027 C 
ATOM     24  C   UNL     1      12.533 -12.625  25.908  1.00  0.00    -0.065 C 
ATOM     25  C   UNL     1      12.512 -10.475  24.553  1.00  0.00     0.014 C 
ATOM     26  C   UNL     1      11.198 -12.480  23.788  1.00  0.00     0.016 C 
ATOM     27  C   UNL     1      11.812 -11.936  27.054  1.00  0.00     0.063 C 
ATOM     28  C   UNL     1      11.523  -9.902  25.573  1.00  0.00     0.033 C 
ATOM     29  C   UNL     1      11.882 -10.404  26.981  1.00  0.00     0.118 C 
BRANCH  29  30
ATOM     30  O   UNL     1      11.042  -9.819  27.945  1.00  0.00    -0.393 OA
ATOM     31  H   UNL     1      10.930  -8.857  27.715  1.00  0.00     0.210 HD
ENDBRANCH  29  30
ENDBRANCH   1  11
TORSDOF 6
ENDMDL
MODEL 8
REMARK VINA RESULT:    -5.791      8.863     13.246
REMARK INTER + INTRA:          -9.150
REMARK INTER:                  -7.417
REMARK INTRA:                  -1.733
REMARK UNBOUND:                -1.497
REMARK SMILES CC[C@@H](C=C[C@@H](C)[C@@H]1CC[C@@H]2[C@H]3CC=C4C[C@H](O)CC[C@@]4(C)[C@H]3CC[C@]21C)C(C)C
REMARK SMILES IDX 6 1 7 2 5 3 4 4 3 5 2 6 1 7 28 8 29 9 30 10 8 11 9 12 26 13
REMARK SMILES IDX 10 14 11 15 25 16 27 17 12 18 24 19 23 20 13 21 21 22 14 23
REMARK SMILES IDX 15 24 20 25 22 26 16 27 19 28 17 29 18 30
REMARK H PARENT 18 31
REMARK Flexibility Score: inf
ROOT
ATOM      1  C   UNL     1      14.426   0.464  28.031  1.00  0.00     0.012 C 
ATOM      2  C   UNL     1      14.688   1.765  28.808  1.00  0.00     0.012 C 
ENDROOT
BRANCH   1   3
ATOM      3  C   UNL     1      13.042  -0.033  28.394  1.00  0.00    -0.028 C 
ATOM      4  C   UNL     1      12.173  -0.629  27.543  1.00  0.00    -0.027 C 
BRANCH   4   5
ATOM      5  C   UNL     1      12.417  -0.849  26.056  1.00  0.00     0.014 C 
BRANCH   5   6
ATOM      6  C   UNL     1      11.466   0.082  25.262  1.00  0.00     0.004 C 
ATOM      7  C   UNL     1      12.072   1.444  24.911  1.00  0.00     0.004 C 
ENDBRANCH   5   6
BRANCH   5   8
ATOM      8  C   UNL     1      12.302  -2.379  25.708  1.00  0.00    -0.011 C 
ATOM      9  C   UNL     1      12.821  -3.329  26.804  1.00  0.00     0.008 C 
ATOM     10  C   UNL     1      10.885  -2.778  25.256  1.00  0.00     0.008 C 
ENDBRANCH   5   8
ENDBRANCH   4   5
ENDBRANCH   1   3
BRANCH   1  11
ATOM     11  C   UNL     1      15.588  -0.573  28.281  1.00  0.00     0.002 C 
ATOM     12  C   UNL     1      16.527  -0.124  29.428  1.00  0.00     0.005 C 
ATOM     13  C   UNL     1      16.576  -1.020  27.146  1.00  0.00    -0.026 C 
ATOM     14  C   UNL     1      17.876  -0.823  29.193  1.00  0.00     0.005 C 
ATOM     15  C   UNL     1      17.635  -1.741  27.996  1.00  0.00    -0.001 C 
ATOM     16  C   UNL     1      15.983  -2.052  26.144  1.00  0.00     0.007 C 
ATOM     17  C   UNL     1      17.182   0.208  26.388  1.00  0.00     0.012 C 
ATOM     18  C   UNL     1      18.875  -2.226  27.191  1.00  0.00     0.000 C 
ATOM     19  C   UNL     1      16.942  -3.223  25.777  1.00  0.00     0.005 C 
ATOM     20  C   UNL     1      18.458  -2.838  25.786  1.00  0.00     0.003 C 
ATOM     21  C   UNL     1      19.736  -3.171  28.077  1.00  0.00     0.031 C 
ATOM     22  C   UNL     1      19.437  -3.991  25.307  1.00  0.00    -0.008 C 
ATOM     23  C   UNL     1      19.653  -4.621  27.705  1.00  0.00    -0.027 C 
ATOM     24  C   UNL     1      19.608  -5.024  26.427  1.00  0.00    -0.065 C 
ATOM     25  C   UNL     1      18.923  -4.695  24.003  1.00  0.00     0.014 C 
ATOM     26  C   UNL     1      20.821  -3.367  24.985  1.00  0.00     0.016 C 
ATOM     27  C   UNL     1      20.065  -6.443  26.128  1.00  0.00     0.063 C 
ATOM     28  C   UNL     1      19.670  -5.989  23.668  1.00  0.00     0.033 C 
ATOM     29  C   UNL     1      19.496  -6.998  24.815  1.00  0.00     0.118 C 
BRANCH  29  30
ATOM     30  O   UNL     1      20.099  -8.227  24.490  1.00  0.00    -0.393 OA
ATOM     31  H   UNL     1      20.413  -8.650  25.335  1.00  0.00     0.210 HD
ENDBRANCH  29  30
ENDBRANCH   1  11
TORSDOF 6
ENDMDL
MODEL 9
REMARK VINA RESULT:    -5.786     10.489     14.547
REMARK INTER + INTRA:          -9.143
REMARK INTER:                  -7.522
REMARK INTRA:                  -1.620
REMARK UNBOUND:                -1.497
REMARK SMILES CC[C@@H](C=C[C@@H](C)[C@@H]1CC[C@@H]2[C@H]3CC=C4C[C@H](O)CC[C@@]4(C)[C@H]3CC[C@]21C)C(C)C
REMARK SMILES IDX 6 1 7 2 5 3 4 4 3 5 2 6 1 7 28 8 29 9 30 10 8 11 9 12 26 13
REMARK SMILES IDX 10 14 11 15 25 16 27 17 12 18 24 19 23 20 13 21 21 22 14 23
REMARK SMILES IDX 15 24 20 25 22 26 16 27 19 28 17 29 18 30
REMARK H PARENT 18 31
REMARK Flexibility Score: inf
ROOT
ATOM      1  C   UNL     1      20.228  -1.527  29.283  1.00  0.00     0.012 C 
ATOM      2  C   UNL     1      21.122  -0.883  30.357  1.00  0.00     0.012 C 
ENDROOT
BRANCH   1   3
ATOM      3  C   UNL     1      21.125  -2.130  28.221  1.00  0.00    -0.028 C 
ATOM      4  C   UNL     1      20.943  -3.335  27.631  1.00  0.00    -0.027 C 
BRANCH   4   5
ATOM      5  C   UNL     1      19.834  -4.321  27.978  1.00  0.00     0.014 C 
BRANCH   5   6
ATOM      6  C   UNL     1      20.437  -5.446  28.856  1.00  0.00     0.004 C 
ATOM      7  C   UNL     1      20.512  -5.104  30.347  1.00  0.00     0.004 C 
ENDBRANCH   5   6
BRANCH   5   8
ATOM      8  C   UNL     1      19.111  -4.807  26.668  1.00  0.00    -0.011 C 
ATOM      9  C   UNL     1      18.030  -5.883  26.891  1.00  0.00     0.008 C 
ATOM     10  C   UNL     1      18.563  -3.640  25.827  1.00  0.00     0.008 C 
ENDBRANCH   5   8
ENDBRANCH   4   5
ENDBRANCH   1   3
BRANCH   1  11
ATOM     11  C   UNL     1      19.173  -0.486  28.744  1.00  0.00     0.002 C 
ATOM     12  C   UNL     1      19.426   0.936  29.303  1.00  0.00     0.005 C 
ATOM     13  C   UNL     1      17.627  -0.686  28.925  1.00  0.00    -0.026 C 
ATOM     14  C   UNL     1      18.084   1.683  29.231  1.00  0.00     0.005 C 
ATOM     15  C   UNL     1      17.138   0.715  28.524  1.00  0.00    -0.001 C 
ATOM     16  C   UNL     1      16.990  -1.714  27.945  1.00  0.00     0.007 C 
ATOM     17  C   UNL     1      17.254  -1.026  30.406  1.00  0.00     0.012 C 
ATOM     18  C   UNL     1      15.608   0.932  28.706  1.00  0.00     0.000 C 
ATOM     19  C   UNL     1      15.638  -1.260  27.318  1.00  0.00     0.005 C 
ATOM     20  C   UNL     1      14.778  -0.341  28.247  1.00  0.00     0.003 C 
ATOM     21  C   UNL     1      15.183   2.262  28.021  1.00  0.00     0.031 C 
ATOM     22  C   UNL     1      13.350   0.037  27.665  1.00  0.00    -0.008 C 
ATOM     23  C   UNL     1      14.418   2.087  26.743  1.00  0.00    -0.027 C 
ATOM     24  C   UNL     1      13.499   1.123  26.592  1.00  0.00    -0.065 C 
ATOM     25  C   UNL     1      12.610  -1.209  27.067  1.00  0.00     0.014 C 
ATOM     26  C   UNL     1      12.473   0.591  28.819  1.00  0.00     0.016 C 
ATOM     27  C   UNL     1      12.427   1.341  25.537  1.00  0.00     0.063 C 
ATOM     28  C   UNL     1      11.370  -0.850  26.242  1.00  0.00     0.033 C 
ATOM     29  C   UNL     1      11.779   0.036  25.054  1.00  0.00     0.118 C 
BRANCH  29  30
ATOM     30  O   UNL     1      10.669   0.304  24.232  1.00  0.00    -0.393 OA
ATOM     31  H   UNL     1      10.586  -0.438  23.574  1.00  0.00     0.210 HD
ENDBRANCH  29  30
ENDBRANCH   1  11
TORSDOF 6
ENDMDL
