MODEL 1
REMARK VINA RESULT:    -3.261      0.000      0.000
REMARK INTER + INTRA:          -3.175
REMARK INTER:                  -4.024
REMARK INTRA:                   0.849
REMARK UNBOUND:                 0.849
REMARK SMILES CC1=CC=CC(C)(C)CC1=O
REMARK SMILES IDX 1 1 2 2 3 3 10 4 11 5 9 6 4 8 5 9 6 10 7 11 8 12
REMARK H PARENT
REMARK Flexibility Score: 80.00
ROOT
ATOM      1  C   UNL     1      -7.372  34.340   5.293  1.00  0.00     0.048 C 
ATOM      2  C   UNL     1      -5.897  34.334   5.621  1.00  0.00    -0.008 C 
ATOM      3  C   UNL     1      -5.539  34.167   6.913  1.00  0.00     0.007 C 
ENDROOT
BRANCH   2   4
ATOM      4  C   UNL     1      -4.958  34.457   4.475  1.00  0.00     0.159 C 
ATOM      5  O   UNL     1      -5.433  34.665   3.324  1.00  0.00    -0.295 OA
BRANCH   4   6
ATOM      6  C   UNL     1      -3.469  34.313   4.589  1.00  0.00     0.091 CG0
ATOM      7  G   UNL     1      -2.833  35.206   5.677  1.00  0.00     0.000 G0
ENDBRANCH   4   6
ENDBRANCH   2   4
BRANCH   3   8
ATOM      8  C   UNL     1      -4.191  34.131   7.524  1.00  0.00    -0.003 C 
ATOM      9  C   UNL     1      -3.037  34.593   7.029  1.00  0.00    -0.020 C 
BRANCH   9  10
ATOM     10  C   UNL     1      -2.837  35.213   5.666  1.00  0.00    -0.010 CG0
ATOM     11  C   UNL     1      -1.319  35.284   5.385  1.00  0.00     0.016 C 
ATOM     12  C   UNL     1      -3.393  36.655   5.646  1.00  0.00     0.016 C 
ATOM     13  G   UNL     1      -3.483  34.310   4.591  1.00  0.00     0.000 G0
ENDBRANCH   9  10
ENDBRANCH   3   8
TORSDOF 0
ENDMDL
MODEL 2
REMARK VINA RESULT:    -3.201      2.280      3.014
REMARK INTER + INTRA:          -3.101
REMARK INTER:                  -3.975
REMARK INTRA:                   0.874
REMARK UNBOUND:                 0.849
REMARK SMILES CC1=CC=CC(C)(C)CC1=O
REMARK SMILES IDX 1 1 2 2 3 3 10 4 11 5 9 6 4 8 5 9 6 10 7 11 8 12
REMARK H PARENT
REMARK Flexibility Score: 80.00
ROOT
ATOM      1  C   UNL     1      -5.086  30.785   3.970  1.00  0.00     0.048 C 
ATOM      2  C   UNL     1      -4.969  32.123   4.663  1.00  0.00    -0.008 C 
ATOM      3  C   UNL     1      -5.452  33.209   4.022  1.00  0.00     0.007 C 
ENDROOT
BRANCH   2   4
ATOM      4  C   UNL     1      -4.377  32.119   6.027  1.00  0.00     0.159 C 
ATOM      5  O   UNL     1      -3.946  31.029   6.496  1.00  0.00    -0.295 OA
BRANCH   4   6
ATOM      6  C   UNL     1      -4.290  33.329   6.910  1.00  0.00     0.091 CG0
ATOM      7  G   UNL     1      -3.661  34.563   6.223  1.00  0.00     0.000 G0
ENDBRANCH   4   6
ENDBRANCH   2   4
BRANCH   3   8
ATOM      8  C   UNL     1      -5.466  34.629   4.444  1.00  0.00    -0.003 C 
ATOM      9  C   UNL     1      -4.700  35.236   5.358  1.00  0.00    -0.020 C 
BRANCH   9  10
ATOM     10  C   UNL     1      -3.667  34.572   6.237  1.00  0.00    -0.010 CG0
ATOM     11  C   UNL     1      -3.254  35.573   7.339  1.00  0.00     0.016 C 
ATOM     12  C   UNL     1      -2.406  34.225   5.413  1.00  0.00     0.016 C 
ATOM     13  G   UNL     1      -4.292  33.335   6.920  1.00  0.00     0.000 G0
ENDBRANCH   9  10
ENDBRANCH   3   8
TORSDOF 0
ENDMDL
MODEL 3
REMARK VINA RESULT:    -3.158      7.650      8.745
REMARK INTER + INTRA:          -3.048
REMARK INTER:                  -3.893
REMARK INTRA:                   0.845
REMARK UNBOUND:                 0.849
REMARK SMILES CC1=CC=CC(C)(C)CC1=O
REMARK SMILES IDX 1 1 2 2 3 3 10 4 11 5 9 6 4 8 5 9 6 10 7 11 8 12
REMARK H PARENT
REMARK Flexibility Score: 80.00
ROOT
ATOM      1  C   UNL     1      -9.883  34.380  -0.419  1.00  0.00     0.048 C 
ATOM      2  C   UNL     1      -8.935  35.445  -0.922  1.00  0.00    -0.008 C 
ATOM      3  C   UNL     1      -7.680  35.458  -0.423  1.00  0.00     0.007 C 
ENDROOT
BRANCH   2   4
ATOM      4  C   UNL     1      -9.455  36.359  -1.973  1.00  0.00     0.159 C 
ATOM      5  O   UNL     1     -10.665  36.257  -2.318  1.00  0.00    -0.295 OA
BRANCH   4   6
ATOM      6  C   UNL     1      -8.620  37.381  -2.687  1.00  0.00     0.091 CG0
ATOM      7  G   UNL     1      -7.832  38.317  -1.743  1.00  0.00     0.000 G0
ENDBRANCH   4   6
ENDBRANCH   2   4
BRANCH   3   8
ATOM      8  C   UNL     1      -6.555  36.375  -0.716  1.00  0.00    -0.003 C 
ATOM      9  C   UNL     1      -6.595  37.602  -1.249  1.00  0.00    -0.020 C 
BRANCH   9  10
ATOM     10  C   UNL     1      -7.828  38.317  -1.747  1.00  0.00    -0.010 CG0
ATOM     11  C   UNL     1      -7.376  39.538  -2.579  1.00  0.00     0.016 C 
ATOM     12  C   UNL     1      -8.664  38.837  -0.556  1.00  0.00     0.016 C 
ATOM     13  G   UNL     1      -8.630  37.374  -2.673  1.00  0.00     0.000 G0
ENDBRANCH   9  10
ENDBRANCH   3   8
TORSDOF 0
ENDMDL
MODEL 4
REMARK VINA RESULT:    -3.102     12.195     14.126
REMARK INTER + INTRA:          -2.979
REMARK INTER:                  -3.819
REMARK INTRA:                   0.840
REMARK UNBOUND:                 0.849
REMARK SMILES CC1=CC=CC(C)(C)CC1=O
REMARK SMILES IDX 1 1 2 2 3 3 10 4 11 5 9 6 4 8 5 9 6 10 7 11 8 12
REMARK H PARENT
REMARK Flexibility Score: 80.00
ROOT
ATOM      1  C   UNL     1     -15.596  36.904   7.139  1.00  0.00     0.048 C 
ATOM      2  C   UNL     1     -16.818  36.151   6.664  1.00  0.00    -0.008 C 
ATOM      3  C   UNL     1     -18.011  36.481   7.203  1.00  0.00     0.007 C 
ENDROOT
BRANCH   2   4
ATOM      4  C   UNL     1     -16.605  35.140   5.595  1.00  0.00     0.159 C 
ATOM      5  O   UNL     1     -15.424  34.897   5.220  1.00  0.00    -0.295 OA
BRANCH   4   6
ATOM      6  C   UNL     1     -17.712  34.407   4.898  1.00  0.00     0.091 CG0
ATOM      7  G   UNL     1     -18.704  33.709   5.855  1.00  0.00     0.000 G0
ENDBRANCH   4   6
ENDBRANCH   2   4
BRANCH   3   8
ATOM      8  C   UNL     1     -19.355  35.916   6.944  1.00  0.00    -0.003 C 
ATOM      9  C   UNL     1     -19.674  34.735   6.402  1.00  0.00    -0.020 C 
BRANCH   9  10
ATOM     10  C   UNL     1     -18.704  33.715   5.856  1.00  0.00    -0.010 CG0
ATOM     11  C   UNL     1     -19.503  32.684   5.026  1.00  0.00     0.016 C 
ATOM     12  C   UNL     1     -18.011  32.960   7.013  1.00  0.00     0.016 C 
ATOM     13  G   UNL     1     -17.699  34.415   4.913  1.00  0.00     0.000 G0
ENDBRANCH   9  10
ENDBRANCH   3   8
TORSDOF 0
ENDMDL
MODEL 5
REMARK VINA RESULT:    -3.075     12.171     13.851
REMARK INTER + INTRA:          -2.946
REMARK INTER:                  -3.805
REMARK INTRA:                   0.860
REMARK UNBOUND:                 0.849
REMARK SMILES CC1=CC=CC(C)(C)CC1=O
REMARK SMILES IDX 1 1 2 2 3 3 10 4 11 5 9 6 4 8 5 9 6 10 7 11 8 12
REMARK H PARENT
REMARK Flexibility Score: 80.00
ROOT
ATOM      1  C   UNL     1     -19.175  32.148   4.775  1.00  0.00     0.048 C 
ATOM      2  C   UNL     1     -18.722  33.520   5.219  1.00  0.00    -0.008 C 
ATOM      3  C   UNL     1     -18.859  34.542   4.347  1.00  0.00     0.007 C 
ENDROOT
BRANCH   2   4
ATOM      4  C   UNL     1     -18.210  33.636   6.610  1.00  0.00     0.159 C 
ATOM      5  O   UNL     1     -18.136  32.592   7.315  1.00  0.00    -0.295 OA
BRANCH   4   6
ATOM      6  C   UNL     1     -17.807  34.930   7.252  1.00  0.00     0.091 CG0
ATOM      7  G   UNL     1     -16.832  35.776   6.403  1.00  0.00     0.000 G0
ENDBRANCH   4   6
ENDBRANCH   2   4
BRANCH   3   8
ATOM      8  C   UNL     1     -18.497  35.970   4.498  1.00  0.00    -0.003 C 
ATOM      9  C   UNL     1     -17.623  36.524   5.346  1.00  0.00    -0.020 C 
BRANCH   9  10
ATOM     10  C   UNL     1     -16.838  35.802   6.415  1.00  0.00    -0.010 CG0
ATOM     11  C   UNL     1     -16.208  36.859   7.350  1.00  0.00     0.016 C 
ATOM     12  C   UNL     1     -15.691  34.985   5.779  1.00  0.00     0.016 C 
ATOM     13  G   UNL     1     -17.798  34.929   7.255  1.00  0.00     0.000 G0
ENDBRANCH   9  10
ENDBRANCH   3   8
TORSDOF 0
ENDMDL
MODEL 6
REMARK VINA RESULT:    -2.996      7.588      9.012
REMARK INTER + INTRA:          -2.848
REMARK INTER:                  -3.696
REMARK INTRA:                   0.848
REMARK UNBOUND:                 0.849
REMARK SMILES CC1=CC=CC(C)(C)CC1=O
REMARK SMILES IDX 1 1 2 2 3 3 10 4 11 5 9 6 4 8 5 9 6 10 7 11 8 12
REMARK H PARENT
REMARK Flexibility Score: 80.00
ROOT
ATOM      1  C   UNL     1      -5.003  37.148  -2.847  1.00  0.00     0.048 C 
ATOM      2  C   UNL     1      -6.460  37.012  -2.466  1.00  0.00    -0.008 C 
ATOM      3  C   UNL     1      -7.383  37.506  -3.319  1.00  0.00     0.007 C 
ENDROOT
BRANCH   2   4
ATOM      4  C   UNL     1      -6.754  36.291  -1.200  1.00  0.00     0.159 C 
ATOM      5  O   UNL     1      -5.787  35.918  -0.478  1.00  0.00    -0.295 OA
BRANCH   4   6
ATOM      6  C   UNL     1      -8.136  35.941  -0.733  1.00  0.00     0.091 CG0
ATOM      7  G   UNL     1      -9.113  37.137  -0.709  1.00  0.00     0.000 G0
ENDBRANCH   4   6
ENDBRANCH   2   4
BRANCH   3   8
ATOM      8  C   UNL     1      -8.859  37.527  -3.208  1.00  0.00    -0.003 C 
ATOM      9  C   UNL     1      -9.615  37.399  -2.111  1.00  0.00    -0.020 C 
BRANCH   9  10
ATOM     10  C   UNL     1      -9.116  37.128  -0.711  1.00  0.00    -0.010 CG0
ATOM     11  C   UNL     1     -10.324  36.724   0.164  1.00  0.00     0.016 C 
ATOM     12  C   UNL     1      -8.497  38.409  -0.106  1.00  0.00     0.016 C 
ATOM     13  G   UNL     1      -8.125  35.943  -0.739  1.00  0.00     0.000 G0
ENDBRANCH   9  10
ENDBRANCH   3   8
TORSDOF 0
ENDMDL
MODEL 7
REMARK VINA RESULT:    -2.987     13.462     14.861
REMARK INTER + INTRA:          -2.837
REMARK INTER:                  -3.696
REMARK INTRA:                   0.859
REMARK UNBOUND:                 0.849
REMARK SMILES CC1=CC=CC(C)(C)CC1=O
REMARK SMILES IDX 1 1 2 2 3 3 10 4 11 5 9 6 4 8 5 9 6 10 7 11 8 12
REMARK H PARENT
REMARK Flexibility Score: 80.00
ROOT
ATOM      1  C   UNL     1     -17.729  32.630   7.581  1.00  0.00     0.048 C 
ATOM      2  C   UNL     1     -17.898  33.765   6.597  1.00  0.00    -0.008 C 
ATOM      3  C   UNL     1     -16.820  34.534   6.329  1.00  0.00     0.007 C 
ENDROOT
BRANCH   2   4
ATOM      4  C   UNL     1     -19.235  33.904   5.961  1.00  0.00     0.159 C 
ATOM      5  O   UNL     1     -20.166  33.141   6.339  1.00  0.00    -0.295 OA
BRANCH   4   6
ATOM      6  C   UNL     1     -19.546  34.877   4.862  1.00  0.00     0.091 CG0
ATOM      7  G   UNL     1     -19.142  36.334   5.179  1.00  0.00     0.000 G0
ENDBRANCH   4   6
ENDBRANCH   2   4
BRANCH   3   8
ATOM      8  C   UNL     1     -16.691  35.704   5.431  1.00  0.00    -0.003 C 
ATOM      9  C   UNL     1     -17.655  36.498   4.951  1.00  0.00    -0.020 C 
BRANCH   9  10
ATOM     10  C   UNL     1     -19.140  36.329   5.171  1.00  0.00    -0.010 CG0
ATOM     11  C   UNL     1     -19.884  37.256   4.183  1.00  0.00     0.016 C 
ATOM     12  C   UNL     1     -19.521  36.759   6.606  1.00  0.00     0.016 C 
ATOM     13  G   UNL     1     -19.543  34.871   4.858  1.00  0.00     0.000 G0
ENDBRANCH   9  10
ENDBRANCH   3   8
TORSDOF 0
ENDMDL
MODEL 8
REMARK VINA RESULT:    -2.978      8.105      9.629
REMARK INTER + INTRA:          -2.826
REMARK INTER:                  -3.678
REMARK INTRA:                   0.852
REMARK UNBOUND:                 0.849
REMARK SMILES CC1=CC=CC(C)(C)CC1=O
REMARK SMILES IDX 1 1 2 2 3 3 10 4 11 5 9 6 4 8 5 9 6 10 7 11 8 12
REMARK H PARENT
REMARK Flexibility Score: 80.00
ROOT
ATOM      1  C   UNL     1      -6.574  35.569   0.174  1.00  0.00     0.048 C 
ATOM      2  C   UNL     1      -7.261  36.195  -1.018  1.00  0.00    -0.008 C 
ATOM      3  C   UNL     1      -6.490  36.811  -1.939  1.00  0.00     0.007 C 
ENDROOT
BRANCH   2   4
ATOM      4  C   UNL     1      -8.737  36.028  -1.101  1.00  0.00     0.159 C 
ATOM      5  O   UNL     1      -9.338  35.481  -0.135  1.00  0.00    -0.295 OA
BRANCH   4   6
ATOM      6  C   UNL     1      -9.564  36.438  -2.283  1.00  0.00     0.091 CG0
ATOM      7  G   UNL     1      -9.358  37.907  -2.715  1.00  0.00     0.000 G0
ENDBRANCH   4   6
ENDBRANCH   2   4
BRANCH   3   8
ATOM      8  C   UNL     1      -6.879  37.511  -3.184  1.00  0.00    -0.003 C 
ATOM      9  C   UNL     1      -8.074  38.009  -3.523  1.00  0.00    -0.020 C 
BRANCH   9  10
ATOM     10  C   UNL     1      -9.345  37.904  -2.714  1.00  0.00    -0.010 CG0
ATOM     11  C   UNL     1     -10.530  38.309  -3.620  1.00  0.00     0.016 C 
ATOM     12  C   UNL     1      -9.303  38.885  -1.520  1.00  0.00     0.016 C 
ATOM     13  G   UNL     1      -9.555  36.438  -2.275  1.00  0.00     0.000 G0
ENDBRANCH   9  10
ENDBRANCH   3   8
TORSDOF 0
ENDMDL
MODEL 9
REMARK VINA RESULT:    -2.878      1.973      3.004
REMARK INTER + INTRA:          -2.703
REMARK INTER:                  -3.565
REMARK INTRA:                   0.862
REMARK UNBOUND:                 0.849
REMARK SMILES CC1=CC=CC(C)(C)CC1=O
REMARK SMILES IDX 1 1 2 2 3 3 10 4 11 5 9 6 4 8 5 9 6 10 7 11 8 12
REMARK H PARENT
REMARK Flexibility Score: 80.00
ROOT
ATOM      1  C   UNL     1      -5.341  32.783   4.775  1.00  0.00     0.048 C 
ATOM      2  C   UNL     1      -4.769  34.157   4.510  1.00  0.00    -0.008 C 
ATOM      3  C   UNL     1      -5.296  34.875   3.494  1.00  0.00     0.007 C 
ENDROOT
BRANCH   2   4
ATOM      4  C   UNL     1      -3.703  34.626   5.434  1.00  0.00     0.159 C 
ATOM      5  O   UNL     1      -3.274  33.830   6.315  1.00  0.00    -0.295 OA
BRANCH   4   6
ATOM      6  C   UNL     1      -3.123  36.009   5.416  1.00  0.00     0.091 CG0
ATOM      7  G   UNL     1      -2.629  36.465   4.025  1.00  0.00     0.000 G0
ENDBRANCH   4   6
ENDBRANCH   2   4
BRANCH   3   8
ATOM      8  C   UNL     1      -4.936  36.223   3.001  1.00  0.00    -0.003 C 
ATOM      9  C   UNL     1      -3.800  36.906   3.191  1.00  0.00    -0.020 C 
BRANCH   9  10
ATOM     10  C   UNL     1      -2.626  36.464   4.032  1.00  0.00    -0.010 CG0
ATOM     11  C   UNL     1      -1.691  37.679   4.232  1.00  0.00     0.016 C 
ATOM     12  C   UNL     1      -1.826  35.364   3.300  1.00  0.00     0.016 C 
ATOM     13  G   UNL     1      -3.130  36.012   5.421  1.00  0.00     0.000 G0
ENDBRANCH   9  10
ENDBRANCH   3   8
TORSDOF 0
ENDMDL
