MODEL 1
REMARK VINA RESULT:    -3.337      0.000      0.000
REMARK INTER + INTRA:          -6.015
REMARK INTER:                  -5.288
REMARK INTRA:                  -0.727
REMARK UNBOUND:                -0.727
REMARK SMILES CCCCCCCCCCCC(=O)[O-]
REMARK SMILES IDX 7 1 8 2 9 3 10 4 11 5 12 6 13 7 14 8 6 9 5 10 4 11 3 12 2 13
REMARK SMILES IDX 1 14
REMARK H PARENT
REMARK Flexibility Score: inf
ROOT
ATOM      1  C   UNL     1      -2.844   6.919   1.705  1.00  0.00     0.000 C 
ENDROOT
BRANCH   1   2
ATOM      2  C   UNL     1      -4.251   6.331   1.899  1.00  0.00     0.000 C 
BRANCH   2   3
ATOM      3  C   UNL     1      -4.268   4.797   1.821  1.00  0.00     0.000 C 
BRANCH   3   4
ATOM      4  C   UNL     1      -3.398   4.182   2.924  1.00  0.00     0.006 C 
BRANCH   4   5
ATOM      5  C   UNL     1      -3.519   2.655   2.933  1.00  0.00     0.053 C 
BRANCH   5   6
ATOM      6  C   UNL     1      -3.369   2.126   4.324  1.00  0.00     0.041 C 
ATOM      7  O   UNL     1      -3.968   2.683   5.283  1.00  0.00    -0.550 OA
ATOM      8  O   UNL     1      -2.529   1.047   4.571  1.00  0.00    -0.550 OA
ENDBRANCH   5   6
ENDBRANCH   4   5
ENDBRANCH   3   4
ENDBRANCH   2   3
ENDBRANCH   1   2
BRANCH   1   9
ATOM      9  C   UNL     1      -2.726   8.358   2.238  1.00  0.00     0.000 C 
BRANCH   9  10
ATOM     10  C   UNL     1      -4.011   8.838   2.930  1.00  0.00    -0.000 C 
BRANCH  10  11
ATOM     11  C   UNL     1      -3.732   9.752   4.133  1.00  0.00    -0.000 C 
BRANCH  11  12
ATOM     12  C   UNL     1      -2.947   9.006   5.219  1.00  0.00    -0.000 C 
BRANCH  12  13
ATOM     13  C   UNL     1      -3.812   7.929   5.883  1.00  0.00    -0.003 C 
ATOM     14  C   UNL     1      -3.124   7.351   7.116  1.00  0.00     0.004 C 
ENDBRANCH  12  13
ENDBRANCH  11  12
ENDBRANCH  10  11
ENDBRANCH   9  10
ENDBRANCH   1   9
TORSDOF 10
ENDMDL
MODEL 2
REMARK VINA RESULT:    -3.203      2.099      4.037
REMARK INTER + INTRA:          -5.802
REMARK INTER:                  -4.866
REMARK INTRA:                  -0.937
REMARK UNBOUND:                -0.727
REMARK SMILES CCCCCCCCCCCC(=O)[O-]
REMARK SMILES IDX 7 1 8 2 9 3 10 4 11 5 12 6 13 7 14 8 6 9 5 10 4 11 3 12 2 13
REMARK SMILES IDX 1 14
REMARK H PARENT
REMARK Flexibility Score: inf
ROOT
ATOM      1  C   UNL     1      -4.143   7.310   2.471  1.00  0.00     0.000 C 
ENDROOT
BRANCH   1   2
ATOM      2  C   UNL     1      -3.289   6.303   1.684  1.00  0.00     0.000 C 
BRANCH   2   3
ATOM      3  C   UNL     1      -3.842   4.872   1.754  1.00  0.00     0.000 C 
BRANCH   3   4
ATOM      4  C   UNL     1      -3.373   4.165   3.031  1.00  0.00     0.006 C 
BRANCH   4   5
ATOM      5  C   UNL     1      -3.551   2.648   2.917  1.00  0.00     0.053 C 
BRANCH   5   6
ATOM      6  C   UNL     1      -3.268   1.987   4.230  1.00  0.00     0.041 C 
ATOM      7  O   UNL     1      -2.447   1.034   4.295  1.00  0.00    -0.550 OA
ATOM      8  O   UNL     1      -3.947   2.391   5.372  1.00  0.00    -0.550 OA
ENDBRANCH   5   6
ENDBRANCH   4   5
ENDBRANCH   3   4
ENDBRANCH   2   3
ENDBRANCH   1   2
BRANCH   1   9
ATOM      9  C   UNL     1      -4.467   8.575   1.657  1.00  0.00     0.000 C 
BRANCH   9  10
ATOM     10  C   UNL     1      -5.966   8.707   1.343  1.00  0.00    -0.000 C 
BRANCH  10  11
ATOM     11  C   UNL     1      -6.783   7.499   1.826  1.00  0.00    -0.000 C 
BRANCH  11  12
ATOM     12  C   UNL     1      -7.542   6.848   0.664  1.00  0.00    -0.000 C 
BRANCH  12  13
ATOM     13  C   UNL     1      -6.588   6.074  -0.252  1.00  0.00    -0.003 C 
ATOM     14  C   UNL     1      -6.568   6.667  -1.658  1.00  0.00     0.004 C 
ENDBRANCH  12  13
ENDBRANCH  11  12
ENDBRANCH  10  11
ENDBRANCH   9  10
ENDBRANCH   1   9
TORSDOF 10
ENDMDL
MODEL 3
REMARK VINA RESULT:    -2.873      5.991      7.837
REMARK INTER + INTRA:          -5.278
REMARK INTER:                  -4.099
REMARK INTRA:                  -1.180
REMARK UNBOUND:                -0.727
REMARK SMILES CCCCCCCCCCCC(=O)[O-]
REMARK SMILES IDX 7 1 8 2 9 3 10 4 11 5 12 6 13 7 14 8 6 9 5 10 4 11 3 12 2 13
REMARK SMILES IDX 1 14
REMARK H PARENT
REMARK Flexibility Score: inf
ROOT
ATOM      1  C   UNL     1       1.450   5.980   9.652  1.00  0.00     0.000 C 
ENDROOT
BRANCH   1   2
ATOM      2  C   UNL     1       1.794   4.483   9.737  1.00  0.00     0.000 C 
BRANCH   2   3
ATOM      3  C   UNL     1       0.869   3.716  10.694  1.00  0.00     0.000 C 
BRANCH   3   4
ATOM      4  C   UNL     1       0.421   2.386  10.074  1.00  0.00     0.006 C 
BRANCH   4   5
ATOM      5  C   UNL     1       0.799   1.206  10.973  1.00  0.00     0.053 C 
BRANCH   5   6
ATOM      6  C   UNL     1       1.617   0.209  10.214  1.00  0.00     0.041 C 
ATOM      7  O   UNL     1       2.779   0.506   9.827  1.00  0.00    -0.550 OA
ATOM      8  O   UNL     1       1.078  -1.029   9.890  1.00  0.00    -0.550 OA
ENDBRANCH   5   6
ENDBRANCH   4   5
ENDBRANCH   3   4
ENDBRANCH   2   3
ENDBRANCH   1   2
BRANCH   1   9
ATOM      9  C   UNL     1      -0.048   6.256   9.870  1.00  0.00     0.000 C 
BRANCH   9  10
ATOM     10  C   UNL     1      -0.728   6.839   8.622  1.00  0.00    -0.000 C 
BRANCH  10  11
ATOM     11  C   UNL     1      -2.127   6.251   8.378  1.00  0.00    -0.000 C 
BRANCH  11  12
ATOM     12  C   UNL     1      -2.194   4.789   8.834  1.00  0.00    -0.000 C 
BRANCH  12  13
ATOM     13  C   UNL     1      -3.335   4.575   9.835  1.00  0.00    -0.003 C 
ATOM     14  C   UNL     1      -2.808   4.070  11.174  1.00  0.00     0.004 C 
ENDBRANCH  12  13
ENDBRANCH  11  12
ENDBRANCH  10  11
ENDBRANCH   9  10
ENDBRANCH   1   9
TORSDOF 10
ENDMDL
MODEL 4
REMARK VINA RESULT:    -2.870      4.791      7.402
REMARK INTER + INTRA:          -5.274
REMARK INTER:                  -3.630
REMARK INTRA:                  -1.644
REMARK UNBOUND:                -0.727
REMARK SMILES CCCCCCCCCCCC(=O)[O-]
REMARK SMILES IDX 7 1 8 2 9 3 10 4 11 5 12 6 13 7 14 8 6 9 5 10 4 11 3 12 2 13
REMARK SMILES IDX 1 14
REMARK H PARENT
REMARK Flexibility Score: inf
ROOT
ATOM      1  C   UNL     1      -1.590   4.149  10.605  1.00  0.00     0.000 C 
ENDROOT
BRANCH   1   2
ATOM      2  C   UNL     1      -1.633   4.766   9.198  1.00  0.00     0.000 C 
BRANCH   2   3
ATOM      3  C   UNL     1      -0.718   5.992   9.058  1.00  0.00     0.000 C 
BRANCH   3   4
ATOM      4  C   UNL     1      -1.435   7.130   8.321  1.00  0.00     0.006 C 
BRANCH   4   5
ATOM      5  C   UNL     1      -2.816   6.684   7.831  1.00  0.00     0.053 C 
BRANCH   5   6
ATOM      6  C   UNL     1      -3.361   7.662   6.839  1.00  0.00     0.041 C 
ATOM      7  O   UNL     1      -4.543   7.545   6.417  1.00  0.00    -0.550 OA
ATOM      8  O   UNL     1      -2.549   8.673   6.341  1.00  0.00    -0.550 OA
ENDBRANCH   5   6
ENDBRANCH   4   5
ENDBRANCH   3   4
ENDBRANCH   2   3
ENDBRANCH   1   2
BRANCH   1   9
ATOM      9  C   UNL     1      -2.985   4.035  11.245  1.00  0.00     0.000 C 
BRANCH   9  10
ATOM     10  C   UNL     1      -4.111   4.434  10.278  1.00  0.00    -0.000 C 
BRANCH  10  11
ATOM     11  C   UNL     1      -4.926   5.637  10.778  1.00  0.00    -0.000 C 
BRANCH  11  12
ATOM     12  C   UNL     1      -4.182   6.377  11.896  1.00  0.00    -0.000 C 
BRANCH  12  13
ATOM     13  C   UNL     1      -3.555   7.675  11.375  1.00  0.00    -0.003 C 
ATOM     14  C   UNL     1      -2.158   7.883  11.951  1.00  0.00     0.004 C 
ENDBRANCH  12  13
ENDBRANCH  11  12
ENDBRANCH  10  11
ENDBRANCH   9  10
ENDBRANCH   1   9
TORSDOF 10
ENDMDL
MODEL 5
REMARK VINA RESULT:    -2.847      6.060      8.559
REMARK INTER + INTRA:          -5.237
REMARK INTER:                  -4.041
REMARK INTRA:                  -1.197
REMARK UNBOUND:                -0.727
REMARK SMILES CCCCCCCCCCCC(=O)[O-]
REMARK SMILES IDX 7 1 8 2 9 3 10 4 11 5 12 6 13 7 14 8 6 9 5 10 4 11 3 12 2 13
REMARK SMILES IDX 1 14
REMARK H PARENT
REMARK Flexibility Score: inf
ROOT
ATOM      1  C   UNL     1       1.992   5.579   9.576  1.00  0.00     0.000 C 
ENDROOT
BRANCH   1   2
ATOM      2  C   UNL     1       0.505   5.714   9.943  1.00  0.00     0.000 C 
BRANCH   2   3
ATOM      3  C   UNL     1      -0.260   6.643   8.988  1.00  0.00     0.000 C 
BRANCH   3   4
ATOM      4  C   UNL     1      -1.595   6.017   8.566  1.00  0.00     0.006 C 
BRANCH   4   5
ATOM      5  C   UNL     1      -1.785   4.641   9.210  1.00  0.00     0.053 C 
BRANCH   5   6
ATOM      6  C   UNL     1      -3.095   4.576   9.930  1.00  0.00     0.041 C 
ATOM      7  O   UNL     1      -3.202   3.907  10.992  1.00  0.00    -0.550 OA
ATOM      8  O   UNL     1      -4.211   5.214   9.403  1.00  0.00    -0.550 OA
ENDBRANCH   5   6
ENDBRANCH   4   5
ENDBRANCH   3   4
ENDBRANCH   2   3
ENDBRANCH   1   2
BRANCH   1   9
ATOM      9  C   UNL     1       2.630   4.304  10.155  1.00  0.00     0.000 C 
BRANCH   9  10
ATOM     10  C   UNL     1       2.809   3.202   9.098  1.00  0.00    -0.000 C 
BRANCH  10  11
ATOM     11  C   UNL     1       2.244   1.847   9.551  1.00  0.00    -0.000 C 
BRANCH  11  12
ATOM     12  C   UNL     1       0.734   1.938   9.802  1.00  0.00    -0.000 C 
BRANCH  12  13
ATOM     13  C   UNL     1       0.383   1.490  11.225  1.00  0.00    -0.003 C 
ATOM     14  C   UNL     1      -0.103   2.663  12.071  1.00  0.00     0.004 C 
ENDBRANCH  12  13
ENDBRANCH  11  12
ENDBRANCH  10  11
ENDBRANCH   9  10
ENDBRANCH   1   9
TORSDOF 10
ENDMDL
MODEL 6
REMARK VINA RESULT:    -2.824      5.719      8.488
REMARK INTER + INTRA:          -5.201
REMARK INTER:                  -4.480
REMARK INTRA:                  -0.721
REMARK UNBOUND:                -0.727
REMARK SMILES CCCCCCCCCCCC(=O)[O-]
REMARK SMILES IDX 7 1 8 2 9 3 10 4 11 5 12 6 13 7 14 8 6 9 5 10 4 11 3 12 2 13
REMARK SMILES IDX 1 14
REMARK H PARENT
REMARK Flexibility Score: inf
ROOT
ATOM      1  C   UNL     1      -0.520   4.390   9.923  1.00  0.00     0.000 C 
ENDROOT
BRANCH   1   2
ATOM      2  C   UNL     1       0.444   5.585   9.847  1.00  0.00     0.000 C 
BRANCH   2   3
ATOM      3  C   UNL     1      -0.089   6.723   8.963  1.00  0.00     0.000 C 
BRANCH   3   4
ATOM      4  C   UNL     1      -1.540   6.457   8.544  1.00  0.00     0.006 C 
BRANCH   4   5
ATOM      5  C   UNL     1      -2.107   7.636   7.748  1.00  0.00     0.053 C 
BRANCH   5   6
ATOM      6  C   UNL     1      -3.541   7.390   7.397  1.00  0.00     0.041 C 
ATOM      7  O   UNL     1      -4.411   7.314   8.305  1.00  0.00    -0.550 OA
ATOM      8  O   UNL     1      -3.908   7.196   6.072  1.00  0.00    -0.550 OA
ENDBRANCH   5   6
ENDBRANCH   4   5
ENDBRANCH   3   4
ENDBRANCH   2   3
ENDBRANCH   1   2
BRANCH   1   9
ATOM      9  C   UNL     1       0.216   3.040   9.999  1.00  0.00     0.000 C 
BRANCH   9  10
ATOM     10  C   UNL     1       1.743   3.204  10.046  1.00  0.00    -0.000 C 
BRANCH  10  11
ATOM     11  C   UNL     1       2.475   2.225   9.114  1.00  0.00    -0.000 C 
BRANCH  11  12
ATOM     12  C   UNL     1       3.705   2.885   8.481  1.00  0.00    -0.000 C 
BRANCH  12  13
ATOM     13  C   UNL     1       3.775   4.375   8.837  1.00  0.00    -0.003 C 
ATOM     14  C   UNL     1       4.731   5.120   7.910  1.00  0.00     0.004 C 
ENDBRANCH  12  13
ENDBRANCH  11  12
ENDBRANCH  10  11
ENDBRANCH   9  10
ENDBRANCH   1   9
TORSDOF 10
ENDMDL
MODEL 7
REMARK VINA RESULT:    -2.818      4.195      7.219
REMARK INTER + INTRA:          -5.191
REMARK INTER:                  -4.131
REMARK INTRA:                  -1.061
REMARK UNBOUND:                -0.727
REMARK SMILES CCCCCCCCCCCC(=O)[O-]
REMARK SMILES IDX 7 1 8 2 9 3 10 4 11 5 12 6 13 7 14 8 6 9 5 10 4 11 3 12 2 13
REMARK SMILES IDX 1 14
REMARK H PARENT
REMARK Flexibility Score: inf
ROOT
ATOM      1  C   UNL     1      -2.370   6.039   8.438  1.00  0.00     0.000 C 
ENDROOT
BRANCH   1   2
ATOM      2  C   UNL     1      -1.022   6.774   8.524  1.00  0.00     0.000 C 
BRANCH   2   3
ATOM      3  C   UNL     1      -1.085   8.197   7.950  1.00  0.00     0.000 C 
BRANCH   3   4
ATOM      4  C   UNL     1      -2.527   8.585   7.601  1.00  0.00     0.006 C 
BRANCH   4   5
ATOM      5  C   UNL     1      -2.693   8.787   6.093  1.00  0.00     0.053 C 
BRANCH   5   6
ATOM      6  C   UNL     1      -3.887   8.038   5.592  1.00  0.00     0.041 C 
ATOM      7  O   UNL     1      -4.786   7.668   6.394  1.00  0.00    -0.550 OA
ATOM      8  O   UNL     1      -3.985   7.704   4.247  1.00  0.00    -0.550 OA
ENDBRANCH   5   6
ENDBRANCH   4   5
ENDBRANCH   3   4
ENDBRANCH   2   3
ENDBRANCH   1   2
BRANCH   1   9
ATOM      9  C   UNL     1      -2.261   4.556   8.835  1.00  0.00     0.000 C 
BRANCH   9  10
ATOM     10  C   UNL     1      -0.938   4.231   9.545  1.00  0.00    -0.000 C 
BRANCH  10  11
ATOM     11  C   UNL     1      -1.104   4.069  11.065  1.00  0.00    -0.000 C 
BRANCH  11  12
ATOM     12  C   UNL     1      -0.193   5.043  11.823  1.00  0.00    -0.000 C 
BRANCH  12  13
ATOM     13  C   UNL     1      -0.981   6.258  12.323  1.00  0.00    -0.003 C 
ATOM     14  C   UNL     1      -2.477   5.963  12.378  1.00  0.00     0.004 C 
ENDBRANCH  12  13
ENDBRANCH  11  12
ENDBRANCH  10  11
ENDBRANCH   9  10
ENDBRANCH   1   9
TORSDOF 10
ENDMDL
MODEL 8
REMARK VINA RESULT:    -2.806      6.384      9.122
REMARK INTER + INTRA:          -5.173
REMARK INTER:                  -4.049
REMARK INTRA:                  -1.124
REMARK UNBOUND:                -0.727
REMARK SMILES CCCCCCCCCCCC(=O)[O-]
REMARK SMILES IDX 7 1 8 2 9 3 10 4 11 5 12 6 13 7 14 8 6 9 5 10 4 11 3 12 2 13
REMARK SMILES IDX 1 14
REMARK H PARENT
REMARK Flexibility Score: inf
ROOT
ATOM      1  C   UNL     1       0.032   3.089  11.161  1.00  0.00     0.000 C 
ENDROOT
BRANCH   1   2
ATOM      2  C   UNL     1      -0.146   3.586   9.717  1.00  0.00     0.000 C 
BRANCH   2   3
ATOM      3  C   UNL     1      -0.020   5.112   9.595  1.00  0.00     0.000 C 
BRANCH   3   4
ATOM      4  C   UNL     1      -1.325   5.729   9.076  1.00  0.00     0.006 C 
BRANCH   4   5
ATOM      5  C   UNL     1      -2.368   4.647   8.785  1.00  0.00     0.053 C 
BRANCH   5   6
ATOM      6  C   UNL     1      -3.502   4.736   9.757  1.00  0.00     0.041 C 
ATOM      7  O   UNL     1      -4.468   5.513   9.535  1.00  0.00    -0.550 OA
ATOM      8  O   UNL     1      -3.468   3.998  10.933  1.00  0.00    -0.550 OA
ENDBRANCH   5   6
ENDBRANCH   4   5
ENDBRANCH   3   4
ENDBRANCH   2   3
ENDBRANCH   1   2
BRANCH   1   9
ATOM      9  C   UNL     1       0.374   1.590  11.232  1.00  0.00     0.000 C 
BRANCH   9  10
ATOM     10  C   UNL     1       0.960   1.055   9.916  1.00  0.00    -0.000 C 
BRANCH  10  11
ATOM     11  C   UNL     1       2.384   0.501  10.081  1.00  0.00    -0.000 C 
BRANCH  11  12
ATOM     12  C   UNL     1       3.427   1.616   9.940  1.00  0.00    -0.000 C 
BRANCH  12  13
ATOM     13  C   UNL     1       3.167   2.459   8.687  1.00  0.00    -0.003 C 
ATOM     14  C   UNL     1       3.506   3.926   8.927  1.00  0.00     0.004 C 
ENDBRANCH  12  13
ENDBRANCH  11  12
ENDBRANCH  10  11
ENDBRANCH   9  10
ENDBRANCH   1   9
TORSDOF 10
ENDMDL
MODEL 9
REMARK VINA RESULT:    -2.709      6.417      8.893
REMARK INTER + INTRA:          -5.019
REMARK INTER:                  -3.530
REMARK INTRA:                  -1.488
REMARK UNBOUND:                -0.727
REMARK SMILES CCCCCCCCCCCC(=O)[O-]
REMARK SMILES IDX 7 1 8 2 9 3 10 4 11 5 12 6 13 7 14 8 6 9 5 10 4 11 3 12 2 13
REMARK SMILES IDX 1 14
REMARK H PARENT
REMARK Flexibility Score: inf
ROOT
ATOM      1  C   UNL     1       0.767   1.770   9.936  1.00  0.00     0.000 C 
ENDROOT
BRANCH   1   2
ATOM      2  C   UNL     1       0.194   2.304  11.259  1.00  0.00     0.000 C 
BRANCH   2   3
ATOM      3  C   UNL     1      -0.625   3.590  11.076  1.00  0.00     0.000 C 
BRANCH   3   4
ATOM      4  C   UNL     1      -0.790   3.928   9.589  1.00  0.00     0.006 C 
BRANCH   4   5
ATOM      5  C   UNL     1      -0.965   5.435   9.384  1.00  0.00     0.053 C 
BRANCH   5   6
ATOM      6  C   UNL     1      -2.149   5.712   8.513  1.00  0.00     0.041 C 
ATOM      7  O   UNL     1      -2.973   4.794   8.254  1.00  0.00    -0.550 OA
ATOM      8  O   UNL     1      -2.318   6.969   7.947  1.00  0.00    -0.550 OA
ENDBRANCH   5   6
ENDBRANCH   4   5
ENDBRANCH   3   4
ENDBRANCH   2   3
ENDBRANCH   1   2
BRANCH   1   9
ATOM      9  C   UNL     1       2.306   1.749   9.924  1.00  0.00     0.000 C 
BRANCH   9  10
ATOM     10  C   UNL     1       2.897   2.544   8.749  1.00  0.00    -0.000 C 
BRANCH  10  11
ATOM     11  C   UNL     1       3.680   3.785   9.205  1.00  0.00    -0.000 C 
BRANCH  11  12
ATOM     12  C   UNL     1       2.730   4.944   9.532  1.00  0.00    -0.000 C 
BRANCH  12  13
ATOM     13  C   UNL     1       3.151   5.655  10.823  1.00  0.00    -0.003 C 
ATOM     14  C   UNL     1       2.761   4.843  12.054  1.00  0.00     0.004 C 
ENDBRANCH  12  13
ENDBRANCH  11  12
ENDBRANCH  10  11
ENDBRANCH   9  10
ENDBRANCH   1   9
TORSDOF 10
ENDMDL
