MODEL 1
REMARK VINA RESULT:    -3.693      0.000      0.000
REMARK INTER + INTRA:          -6.256
REMARK INTER:                  -5.636
REMARK INTRA:                  -0.620
REMARK UNBOUND:                -0.620
REMARK SMILES CCCCCCCCCCC(=O)[O-]
REMARK SMILES IDX 7 1 8 2 9 3 10 4 11 5 12 6 13 7 6 8 5 9 4 10 3 11 2 12 1 13
REMARK H PARENT
REMARK Flexibility Score: inf
ROOT
ATOM      1  C   UNL     1      58.708  29.177  51.176  1.00  0.00     0.000 C 
ENDROOT
BRANCH   1   2
ATOM      2  C   UNL     1      59.233  28.762  49.791  1.00  0.00     0.000 C 
BRANCH   2   3
ATOM      3  C   UNL     1      59.860  27.356  49.781  1.00  0.00     0.006 C 
BRANCH   3   4
ATOM      4  C   UNL     1      59.749  26.614  51.125  1.00  0.00     0.053 C 
BRANCH   4   5
ATOM      5  C   UNL     1      59.029  25.304  51.002  1.00  0.00     0.041 C 
ATOM      6  O   UNL     1      57.778  25.280  50.862  1.00  0.00    -0.550 OA
ATOM      7  O   UNL     1      59.734  24.109  51.078  1.00  0.00    -0.550 OA
ENDBRANCH   4   5
ENDBRANCH   3   4
ENDBRANCH   2   3
ENDBRANCH   1   2
BRANCH   1   8
ATOM      8  C   UNL     1      57.231  29.605  51.139  1.00  0.00     0.000 C 
BRANCH   8   9
ATOM      9  C   UNL     1      56.283  28.420  50.887  1.00  0.00    -0.000 C 
BRANCH   9  10
ATOM     10  C   UNL     1      54.816  28.853  50.706  1.00  0.00    -0.000 C 
BRANCH  10  11
ATOM     11  C   UNL     1      53.853  27.731  50.275  1.00  0.00    -0.000 C 
BRANCH  11  12
ATOM     12  C   UNL     1      54.548  26.369  50.132  1.00  0.00    -0.003 C 
ATOM     13  C   UNL     1      53.658  25.374  49.393  1.00  0.00     0.004 C 
ENDBRANCH  11  12
ENDBRANCH  10  11
ENDBRANCH   9  10
ENDBRANCH   8   9
ENDBRANCH   1   8
TORSDOF 9
ENDMDL
MODEL 2
REMARK VINA RESULT:    -3.530      0.827      1.415
REMARK INTER + INTRA:          -6.006
REMARK INTER:                  -5.377
REMARK INTRA:                  -0.630
REMARK UNBOUND:                -0.620
REMARK SMILES CCCCCCCCCCC(=O)[O-]
REMARK SMILES IDX 7 1 8 2 9 3 10 4 11 5 12 6 13 7 6 8 5 9 4 10 3 11 2 12 1 13
REMARK H PARENT
REMARK Flexibility Score: inf
ROOT
ATOM      1  C   UNL     1      58.907  29.021  49.718  1.00  0.00     0.000 C 
ENDROOT
BRANCH   1   2
ATOM      2  C   UNL     1      59.972  27.911  49.721  1.00  0.00     0.000 C 
BRANCH   2   3
ATOM      3  C   UNL     1      59.384  26.514  49.991  1.00  0.00     0.006 C 
BRANCH   3   4
ATOM      4  C   UNL     1      59.843  25.889  51.321  1.00  0.00     0.053 C 
BRANCH   4   5
ATOM      5  C   UNL     1      59.118  24.617  51.640  1.00  0.00     0.041 C 
ATOM      6  O   UNL     1      59.709  23.509  51.541  1.00  0.00    -0.550 OA
ATOM      7  O   UNL     1      57.779  24.649  52.014  1.00  0.00    -0.550 OA
ENDBRANCH   4   5
ENDBRANCH   3   4
ENDBRANCH   2   3
ENDBRANCH   1   2
BRANCH   1   8
ATOM      8  C   UNL     1      58.270  29.227  51.102  1.00  0.00     0.000 C 
BRANCH   8   9
ATOM      9  C   UNL     1      56.737  29.348  51.031  1.00  0.00    -0.000 C 
BRANCH   9  10
ATOM     10  C   UNL     1      56.039  27.993  50.811  1.00  0.00    -0.000 C 
BRANCH  10  11
ATOM     11  C   UNL     1      54.503  28.059  50.720  1.00  0.00    -0.000 C 
BRANCH  11  12
ATOM     12  C   UNL     1      53.900  26.887  49.933  1.00  0.00    -0.003 C 
ATOM     13  C   UNL     1      54.858  25.700  49.896  1.00  0.00     0.004 C 
ENDBRANCH  11  12
ENDBRANCH  10  11
ENDBRANCH   9  10
ENDBRANCH   8   9
ENDBRANCH   1   8
TORSDOF 9
ENDMDL
MODEL 3
REMARK VINA RESULT:    -3.505      3.036      5.765
REMARK INTER + INTRA:          -5.968
REMARK INTER:                  -5.264
REMARK INTRA:                  -0.705
REMARK UNBOUND:                -0.620
REMARK SMILES CCCCCCCCCCC(=O)[O-]
REMARK SMILES IDX 7 1 8 2 9 3 10 4 11 5 12 6 13 7 6 8 5 9 4 10 3 11 2 12 1 13
REMARK H PARENT
REMARK Flexibility Score: inf
ROOT
ATOM      1  C   UNL     1      55.655  27.884  50.797  1.00  0.00     0.000 C 
ENDROOT
BRANCH   1   2
ATOM      2  C   UNL     1      54.329  28.580  50.440  1.00  0.00     0.000 C 
BRANCH   2   3
ATOM      3  C   UNL     1      54.166  29.950  51.122  1.00  0.00     0.006 C 
BRANCH   3   4
ATOM      4  C   UNL     1      55.279  30.956  50.778  1.00  0.00     0.053 C 
BRANCH   4   5
ATOM      5  C   UNL     1      55.980  31.478  51.996  1.00  0.00     0.041 C 
ATOM      6  O   UNL     1      56.909  30.812  52.525  1.00  0.00    -0.550 OA
ATOM      7  O   UNL     1      55.586  32.681  52.568  1.00  0.00    -0.550 OA
ENDBRANCH   4   5
ENDBRANCH   3   4
ENDBRANCH   2   3
ENDBRANCH   1   2
BRANCH   1   8
ATOM      8  C   UNL     1      55.635  26.382  50.471  1.00  0.00     0.000 C 
BRANCH   8   9
ATOM      9  C   UNL     1      56.961  25.686  50.827  1.00  0.00    -0.000 C 
BRANCH   9  10
ATOM     10  C   UNL     1      58.119  26.678  51.042  1.00  0.00    -0.000 C 
BRANCH  10  11
ATOM     11  C   UNL     1      59.324  26.487  50.102  1.00  0.00    -0.000 C 
BRANCH  11  12
ATOM     12  C   UNL     1      59.929  27.816  49.627  1.00  0.00    -0.003 C 
ATOM     13  C   UNL     1      58.955  28.971  49.845  1.00  0.00     0.004 C 
ENDBRANCH  11  12
ENDBRANCH  10  11
ENDBRANCH   9  10
ENDBRANCH   8   9
ENDBRANCH   1   8
TORSDOF 9
ENDMDL
MODEL 4
REMARK VINA RESULT:    -3.484      2.229      3.032
REMARK INTER + INTRA:          -5.936
REMARK INTER:                  -4.967
REMARK INTRA:                  -0.970
REMARK UNBOUND:                -0.620
REMARK SMILES CCCCCCCCCCC(=O)[O-]
REMARK SMILES IDX 7 1 8 2 9 3 10 4 11 5 12 6 13 7 6 8 5 9 4 10 3 11 2 12 1 13
REMARK H PARENT
REMARK Flexibility Score: inf
ROOT
ATOM      1  C   UNL     1      57.913  27.630  51.765  1.00  0.00     0.000 C 
ENDROOT
BRANCH   1   2
ATOM      2  C   UNL     1      57.699  28.710  50.691  1.00  0.00     0.000 C 
BRANCH   2   3
ATOM      3  C   UNL     1      58.881  28.827  49.711  1.00  0.00     0.006 C 
BRANCH   3   4
ATOM      4  C   UNL     1      59.866  27.646  49.776  1.00  0.00     0.053 C 
BRANCH   4   5
ATOM      5  C   UNL     1      61.248  28.070  50.175  1.00  0.00     0.041 C 
ATOM      6  O   UNL     1      61.435  29.193  50.713  1.00  0.00    -0.550 OA
ATOM      7  O   UNL     1      62.334  27.241  49.921  1.00  0.00    -0.550 OA
ENDBRANCH   4   5
ENDBRANCH   3   4
ENDBRANCH   2   3
ENDBRANCH   1   2
BRANCH   1   8
ATOM      8  C   UNL     1      56.783  26.587  51.781  1.00  0.00     0.000 C 
BRANCH   8   9
ATOM      9  C   UNL     1      56.456  26.054  50.375  1.00  0.00    -0.000 C 
BRANCH   9  10
ATOM     10  C   UNL     1      54.957  25.770  50.175  1.00  0.00    -0.000 C 
BRANCH  10  11
ATOM     11  C   UNL     1      54.007  26.708  50.944  1.00  0.00    -0.000 C 
BRANCH  11  12
ATOM     12  C   UNL     1      53.572  27.926  50.117  1.00  0.00    -0.003 C 
ATOM     13  C   UNL     1      54.118  29.219  50.716  1.00  0.00     0.004 C 
ENDBRANCH  11  12
ENDBRANCH  10  11
ENDBRANCH   9  10
ENDBRANCH   8   9
ENDBRANCH   1   8
TORSDOF 9
ENDMDL
MODEL 5
REMARK VINA RESULT:    -3.480      3.079      5.590
REMARK INTER + INTRA:          -5.931
REMARK INTER:                  -4.895
REMARK INTRA:                  -1.035
REMARK UNBOUND:                -0.620
REMARK SMILES CCCCCCCCCCC(=O)[O-]
REMARK SMILES IDX 7 1 8 2 9 3 10 4 11 5 12 6 13 7 6 8 5 9 4 10 3 11 2 12 1 13
REMARK H PARENT
REMARK Flexibility Score: inf
ROOT
ATOM      1  C   UNL     1      56.625  26.288  51.913  1.00  0.00     0.000 C 
ENDROOT
BRANCH   1   2
ATOM      2  C   UNL     1      55.606  25.872  50.838  1.00  0.00     0.000 C 
BRANCH   2   3
ATOM      3  C   UNL     1      54.832  27.064  50.248  1.00  0.00     0.006 C 
BRANCH   3   4
ATOM      4  C   UNL     1      55.262  28.430  50.813  1.00  0.00     0.053 C 
BRANCH   4   5
ATOM      5  C   UNL     1      54.212  29.484  50.636  1.00  0.00     0.041 C 
ATOM      6  O   UNL     1      54.426  30.663  51.025  1.00  0.00    -0.550 OA
ATOM      7  O   UNL     1      52.982  29.159  50.076  1.00  0.00    -0.550 OA
ENDBRANCH   4   5
ENDBRANCH   3   4
ENDBRANCH   2   3
ENDBRANCH   1   2
BRANCH   1   8
ATOM      8  C   UNL     1      57.962  25.542  51.774  1.00  0.00     0.000 C 
BRANCH   8   9
ATOM      9  C   UNL     1      58.625  25.777  50.405  1.00  0.00    -0.000 C 
BRANCH   9  10
ATOM     10  C   UNL     1      59.852  26.704  50.485  1.00  0.00    -0.000 C 
BRANCH  10  11
ATOM     11  C   UNL     1      59.800  27.934  49.559  1.00  0.00    -0.000 C 
BRANCH  11  12
ATOM     12  C   UNL     1      58.742  28.960  49.986  1.00  0.00    -0.003 C 
ATOM     13  C   UNL     1      58.918  29.354  51.450  1.00  0.00     0.004 C 
ENDBRANCH  11  12
ENDBRANCH  10  11
ENDBRANCH   9  10
ENDBRANCH   8   9
ENDBRANCH   1   8
TORSDOF 9
ENDMDL
MODEL 6
REMARK VINA RESULT:    -3.454      2.040      4.433
REMARK INTER + INTRA:          -5.891
REMARK INTER:                  -4.922
REMARK INTRA:                  -0.969
REMARK UNBOUND:                -0.620
REMARK SMILES CCCCCCCCCCC(=O)[O-]
REMARK SMILES IDX 7 1 8 2 9 3 10 4 11 5 12 6 13 7 6 8 5 9 4 10 3 11 2 12 1 13
REMARK H PARENT
REMARK Flexibility Score: inf
ROOT
ATOM      1  C   UNL     1      56.443  28.423  52.090  1.00  0.00     0.000 C 
ENDROOT
BRANCH   1   2
ATOM      2  C   UNL     1      55.383  28.972  51.119  1.00  0.00     0.000 C 
BRANCH   2   3
ATOM      3  C   UNL     1      54.628  27.864  50.362  1.00  0.00     0.006 C 
BRANCH   3   4
ATOM      4  C   UNL     1      55.361  26.510  50.344  1.00  0.00     0.053 C 
BRANCH   4   5
ATOM      5  C   UNL     1      54.433  25.349  50.541  1.00  0.00     0.041 C 
ATOM      6  O   UNL     1      53.808  24.865  49.561  1.00  0.00    -0.550 OA
ATOM      7  O   UNL     1      54.229  24.825  51.812  1.00  0.00    -0.550 OA
ENDBRANCH   4   5
ENDBRANCH   3   4
ENDBRANCH   2   3
ENDBRANCH   1   2
BRANCH   1   8
ATOM      8  C   UNL     1      57.828  29.051  51.860  1.00  0.00     0.000 C 
BRANCH   8   9
ATOM      9  C   UNL     1      58.074  29.405  50.383  1.00  0.00    -0.000 C 
BRANCH   9  10
ATOM     10  C   UNL     1      59.193  28.563  49.743  1.00  0.00    -0.000 C 
BRANCH  10  11
ATOM     11  C   UNL     1      59.645  27.344  50.569  1.00  0.00    -0.000 C 
BRANCH  11  12
ATOM     12  C   UNL     1      58.987  26.035  50.110  1.00  0.00    -0.003 C 
ATOM     13  C   UNL     1      59.292  24.898  51.082  1.00  0.00     0.004 C 
ENDBRANCH  11  12
ENDBRANCH  10  11
ENDBRANCH   9  10
ENDBRANCH   8   9
ENDBRANCH   1   8
TORSDOF 9
ENDMDL
MODEL 7
REMARK VINA RESULT:    -3.430      2.185      3.448
REMARK INTER + INTRA:          -5.854
REMARK INTER:                  -4.932
REMARK INTRA:                  -0.922
REMARK UNBOUND:                -0.620
REMARK SMILES CCCCCCCCCCC(=O)[O-]
REMARK SMILES IDX 7 1 8 2 9 3 10 4 11 5 12 6 13 7 6 8 5 9 4 10 3 11 2 12 1 13
REMARK H PARENT
REMARK Flexibility Score: inf
ROOT
ATOM      1  C   UNL     1      59.338  26.381  49.993  1.00  0.00     0.000 C 
ENDROOT
BRANCH   1   2
ATOM      2  C   UNL     1      60.334  27.271  50.757  1.00  0.00     0.000 C 
BRANCH   2   3
ATOM      3  C   UNL     1      60.073  28.775  50.556  1.00  0.00     0.006 C 
BRANCH   3   4
ATOM      4  C   UNL     1      58.674  29.098  50.002  1.00  0.00     0.053 C 
BRANCH   4   5
ATOM      5  C   UNL     1      57.733  29.586  51.062  1.00  0.00     0.041 C 
ATOM      6  O   UNL     1      57.912  29.261  52.266  1.00  0.00    -0.550 OA
ATOM      7  O   UNL     1      56.637  30.369  50.718  1.00  0.00    -0.550 OA
ENDBRANCH   4   5
ENDBRANCH   3   4
ENDBRANCH   2   3
ENDBRANCH   1   2
BRANCH   1   8
ATOM      8  C   UNL     1      58.711  25.300  50.889  1.00  0.00     0.000 C 
BRANCH   8   9
ATOM      9  C   UNL     1      57.344  25.727  51.454  1.00  0.00    -0.000 C 
BRANCH   9  10
ATOM     10  C   UNL     1      56.344  26.138  50.358  1.00  0.00    -0.000 C 
BRANCH  10  11
ATOM     11  C   UNL     1      55.126  26.940  50.854  1.00  0.00    -0.000 C 
BRANCH  11  12
ATOM     12  C   UNL     1      53.916  26.831  49.916  1.00  0.00    -0.003 C 
ATOM     13  C   UNL     1      53.753  25.406  49.395  1.00  0.00     0.004 C 
ENDBRANCH  11  12
ENDBRANCH  10  11
ENDBRANCH   9  10
ENDBRANCH   8   9
ENDBRANCH   1   8
TORSDOF 9
ENDMDL
MODEL 8
REMARK VINA RESULT:    -3.395      3.162      4.410
REMARK INTER + INTRA:          -5.800
REMARK INTER:                  -4.533
REMARK INTRA:                  -1.267
REMARK UNBOUND:                -0.620
REMARK SMILES CCCCCCCCCCC(=O)[O-]
REMARK SMILES IDX 7 1 8 2 9 3 10 4 11 5 12 6 13 7 6 8 5 9 4 10 3 11 2 12 1 13
REMARK H PARENT
REMARK Flexibility Score: inf
ROOT
ATOM      1  C   UNL     1      59.356  27.993  49.622  1.00  0.00     0.000 C 
ENDROOT
BRANCH   1   2
ATOM      2  C   UNL     1      59.081  29.129  50.623  1.00  0.00     0.000 C 
BRANCH   2   3
ATOM      3  C   UNL     1      57.631  29.641  50.568  1.00  0.00     0.006 C 
BRANCH   3   4
ATOM      4  C   UNL     1      57.027  29.957  51.949  1.00  0.00     0.053 C 
BRANCH   4   5
ATOM      5  C   UNL     1      55.729  30.700  51.854  1.00  0.00     0.041 C 
ATOM      6  O   UNL     1      55.429  31.319  50.798  1.00  0.00    -0.550 OA
ATOM      7  O   UNL     1      54.865  30.742  52.942  1.00  0.00    -0.550 OA
ENDBRANCH   4   5
ENDBRANCH   3   4
ENDBRANCH   2   3
ENDBRANCH   1   2
BRANCH   1   8
ATOM      8  C   UNL     1      59.660  26.657  50.320  1.00  0.00     0.000 C 
BRANCH   8   9
ATOM      9  C   UNL     1      58.407  25.776  50.473  1.00  0.00    -0.000 C 
BRANCH   9  10
ATOM     10  C   UNL     1      57.757  25.892  51.864  1.00  0.00    -0.000 C 
BRANCH  10  11
ATOM     11  C   UNL     1      56.263  26.268  51.856  1.00  0.00    -0.000 C 
BRANCH  11  12
ATOM     12  C   UNL     1      55.687  26.397  50.440  1.00  0.00    -0.003 C 
ATOM     13  C   UNL     1      54.591  27.459  50.388  1.00  0.00     0.004 C 
ENDBRANCH  11  12
ENDBRANCH  10  11
ENDBRANCH   9  10
ENDBRANCH   8   9
ENDBRANCH   1   8
TORSDOF 9
ENDMDL
MODEL 9
REMARK VINA RESULT:    -3.394      2.321      4.717
REMARK INTER + INTRA:          -5.799
REMARK INTER:                  -4.511
REMARK INTRA:                  -1.288
REMARK UNBOUND:                -0.620
REMARK SMILES CCCCCCCCCCC(=O)[O-]
REMARK SMILES IDX 7 1 8 2 9 3 10 4 11 5 12 6 13 7 6 8 5 9 4 10 3 11 2 12 1 13
REMARK H PARENT
REMARK Flexibility Score: inf
ROOT
ATOM      1  C   UNL     1      58.941  29.349  51.149  1.00  0.00     0.000 C 
ENDROOT
BRANCH   1   2
ATOM      2  C   UNL     1      57.498  29.301  51.683  1.00  0.00     0.000 C 
BRANCH   2   3
ATOM      3  C   UNL     1      56.520  28.614  50.713  1.00  0.00     0.006 C 
BRANCH   3   4
ATOM      4  C   UNL     1      55.225  28.116  51.380  1.00  0.00     0.053 C 
BRANCH   4   5
ATOM      5  C   UNL     1      54.136  27.837  50.388  1.00  0.00     0.041 C 
ATOM      6  O   UNL     1      54.074  26.718  49.815  1.00  0.00    -0.550 OA
ATOM      7  O   UNL     1      53.211  28.825  50.069  1.00  0.00    -0.550 OA
ENDBRANCH   4   5
ENDBRANCH   3   4
ENDBRANCH   2   3
ENDBRANCH   1   2
BRANCH   1   8
ATOM      8  C   UNL     1      59.065  28.740  49.742  1.00  0.00     0.000 C 
BRANCH   8   9
ATOM      9  C   UNL     1      60.142  27.643  49.671  1.00  0.00    -0.000 C 
BRANCH   9  10
ATOM     10  C   UNL     1      59.899  26.498  50.671  1.00  0.00    -0.000 C 
BRANCH  10  11
ATOM     11  C   UNL     1      58.653  25.639  50.388  1.00  0.00    -0.000 C 
BRANCH  11  12
ATOM     12  C   UNL     1      57.879  25.270  51.662  1.00  0.00    -0.003 C 
ATOM     13  C   UNL     1      58.499  25.930  52.890  1.00  0.00     0.004 C 
ENDBRANCH  11  12
ENDBRANCH  10  11
ENDBRANCH   9  10
ENDBRANCH   8   9
ENDBRANCH   1   8
TORSDOF 9
ENDMDL
