MODEL 1
REMARK VINA RESULT:    -5.668      0.000      0.000
REMARK INTER + INTRA:         -14.841
REMARK INTER:                 -12.295
REMARK INTRA:                  -2.546
REMARK UNBOUND:                -2.546
REMARK SMILES CCCCCCCCCCCCCCCCCCCCCC(=O)[O-]
REMARK SMILES IDX 12 1 11 2 10 3 9 4 8 5 7 6 6 7 5 8 4 9 3 10 2 11 1 12 13 13
REMARK SMILES IDX 14 14 15 15 16 16 17 17 18 18 19 19 20 20 21 21 22 22 23 23
REMARK SMILES IDX 24 24
REMARK H PARENT
REMARK Flexibility Score: inf
ROOT
ATOM      1  C   UNL     1      12.620  46.662   7.606  1.00  0.00     0.000 C 
ENDROOT
BRANCH   1   2
ATOM      2  C   UNL     1      11.614  45.621   8.121  1.00  0.00     0.000 C 
BRANCH   2   3
ATOM      3  C   UNL     1      12.299  44.455   8.855  1.00  0.00     0.000 C 
BRANCH   3   4
ATOM      4  C   UNL     1      13.316  43.717   7.970  1.00  0.00    -0.000 C 
BRANCH   4   5
ATOM      5  C   UNL     1      14.390  42.971   8.782  1.00  0.00    -0.000 C 
BRANCH   5   6
ATOM      6  C   UNL     1      14.899  41.679   8.109  1.00  0.00    -0.000 C 
BRANCH   6   7
ATOM      7  C   UNL     1      16.130  41.093   8.823  1.00  0.00    -0.000 C 
BRANCH   7   8
ATOM      8  C   UNL     1      15.862  39.696   9.424  1.00  0.00    -0.000 C 
BRANCH   8   9
ATOM      9  C   UNL     1      14.380  39.278   9.394  1.00  0.00    -0.000 C 
BRANCH   9  10
ATOM     10  C   UNL     1      13.782  38.881  10.757  1.00  0.00    -0.000 C 
BRANCH  10  11
ATOM     11  C   UNL     1      12.708  37.778  10.701  1.00  0.00    -0.003 C 
ATOM     12  C   UNL     1      12.504  37.069  12.039  1.00  0.00     0.004 C 
ENDBRANCH  10  11
ENDBRANCH   9  10
ENDBRANCH   8   9
ENDBRANCH   7   8
ENDBRANCH   6   7
ENDBRANCH   5   6
ENDBRANCH   4   5
ENDBRANCH   3   4
ENDBRANCH   2   3
ENDBRANCH   1   2
BRANCH   1  13
ATOM     13  C   UNL     1      12.271  47.106   6.177  1.00  0.00     0.000 C 
BRANCH  13  14
ATOM     14  C   UNL     1      13.420  46.861   5.185  1.00  0.00     0.000 C 
BRANCH  14  15
ATOM     15  C   UNL     1      12.997  45.983   3.996  1.00  0.00     0.000 C 
BRANCH  15  16
ATOM     16  C   UNL     1      12.554  44.577   4.436  1.00  0.00     0.000 C 
BRANCH  16  17
ATOM     17  C   UNL     1      13.178  43.439   3.597  1.00  0.00     0.000 C 
BRANCH  17  18
ATOM     18  C   UNL     1      14.712  43.535   3.475  1.00  0.00     0.000 C 
BRANCH  18  19
ATOM     19  C   UNL     1      15.486  43.201   4.763  1.00  0.00     0.000 C 
BRANCH  19  20
ATOM     20  C   UNL     1      16.760  44.039   5.002  1.00  0.00     0.006 C 
BRANCH  20  21
ATOM     21  C   UNL     1      17.452  43.760   6.348  1.00  0.00     0.053 C 
BRANCH  21  22
ATOM     22  C   UNL     1      17.017  44.706   7.426  1.00  0.00     0.041 C 
ATOM     23  O   UNL     1      16.188  45.621   7.174  1.00  0.00    -0.550 OA
ATOM     24  O   UNL     1      17.543  44.595   8.707  1.00  0.00    -0.550 OA
ENDBRANCH  21  22
ENDBRANCH  20  21
ENDBRANCH  19  20
ENDBRANCH  18  19
ENDBRANCH  17  18
ENDBRANCH  16  17
ENDBRANCH  15  16
ENDBRANCH  14  15
ENDBRANCH  13  14
ENDBRANCH   1  13
TORSDOF 20
ENDMDL
MODEL 2
REMARK VINA RESULT:    -5.577      1.721      3.757
REMARK INTER + INTRA:         -14.644
REMARK INTER:                 -12.013
REMARK INTRA:                  -2.632
REMARK UNBOUND:                -2.546
REMARK SMILES CCCCCCCCCCCCCCCCCCCCCC(=O)[O-]
REMARK SMILES IDX 12 1 11 2 10 3 9 4 8 5 7 6 6 7 5 8 4 9 3 10 2 11 1 12 13 13
REMARK SMILES IDX 14 14 15 15 16 16 17 17 18 18 19 19 20 20 21 21 22 22 23 23
REMARK SMILES IDX 24 24
REMARK H PARENT
REMARK Flexibility Score: inf
ROOT
ATOM      1  C   UNL     1      16.580  45.167   8.306  1.00  0.00     0.000 C 
ENDROOT
BRANCH   1   2
ATOM      2  C   UNL     1      16.405  43.796   8.979  1.00  0.00     0.000 C 
BRANCH   2   3
ATOM      3  C   UNL     1      14.940  43.328   8.986  1.00  0.00     0.000 C 
BRANCH   3   4
ATOM      4  C   UNL     1      14.752  41.969   8.294  1.00  0.00    -0.000 C 
BRANCH   4   5
ATOM      5  C   UNL     1      15.977  41.048   8.435  1.00  0.00    -0.000 C 
BRANCH   5   6
ATOM      6  C   UNL     1      15.751  39.843   9.373  1.00  0.00    -0.000 C 
BRANCH   6   7
ATOM      7  C   UNL     1      14.258  39.531   9.575  1.00  0.00    -0.000 C 
BRANCH   7   8
ATOM      8  C   UNL     1      13.983  38.752  10.880  1.00  0.00    -0.000 C 
BRANCH   8   9
ATOM      9  C   UNL     1      12.807  37.761  10.778  1.00  0.00    -0.000 C 
BRANCH   9  10
ATOM     10  C   UNL     1      12.542  36.924  12.044  1.00  0.00    -0.000 C 
BRANCH  10  11
ATOM     11  C   UNL     1      13.273  35.570  12.094  1.00  0.00    -0.003 C 
ATOM     12  C   UNL     1      14.625  35.642  12.804  1.00  0.00     0.004 C 
ENDBRANCH  10  11
ENDBRANCH   9  10
ENDBRANCH   8   9
ENDBRANCH   7   8
ENDBRANCH   6   7
ENDBRANCH   5   6
ENDBRANCH   4   5
ENDBRANCH   3   4
ENDBRANCH   2   3
ENDBRANCH   1   2
BRANCH   1  13
ATOM     13  C   UNL     1      16.713  45.020   6.783  1.00  0.00     0.000 C 
BRANCH  13  14
ATOM     14  C   UNL     1      17.516  43.772   6.378  1.00  0.00     0.000 C 
BRANCH  14  15
ATOM     15  C   UNL     1      17.040  43.170   5.046  1.00  0.00     0.000 C 
BRANCH  15  16
ATOM     16  C   UNL     1      16.192  44.158   4.227  1.00  0.00     0.000 C 
BRANCH  16  17
ATOM     17  C   UNL     1      14.778  43.633   3.893  1.00  0.00     0.000 C 
BRANCH  17  18
ATOM     18  C   UNL     1      14.081  42.944   5.082  1.00  0.00     0.000 C 
BRANCH  18  19
ATOM     19  C   UNL     1      12.543  42.964   5.032  1.00  0.00     0.000 C 
BRANCH  19  20
ATOM     20  C   UNL     1      11.883  44.262   5.543  1.00  0.00     0.006 C 
BRANCH  20  21
ATOM     21  C   UNL     1      12.754  45.063   6.528  1.00  0.00     0.053 C 
BRANCH  21  22
ATOM     22  C   UNL     1      12.984  46.474   6.077  1.00  0.00     0.041 C 
ATOM     23  O   UNL     1      13.922  46.742   5.280  1.00  0.00    -0.550 OA
ATOM     24  O   UNL     1      12.178  47.499   6.555  1.00  0.00    -0.550 OA
ENDBRANCH  21  22
ENDBRANCH  20  21
ENDBRANCH  19  20
ENDBRANCH  18  19
ENDBRANCH  17  18
ENDBRANCH  16  17
ENDBRANCH  15  16
ENDBRANCH  14  15
ENDBRANCH  13  14
ENDBRANCH   1  13
TORSDOF 20
ENDMDL
MODEL 3
REMARK VINA RESULT:    -5.541      1.898      3.979
REMARK INTER + INTRA:         -14.565
REMARK INTER:                 -12.116
REMARK INTRA:                  -2.449
REMARK UNBOUND:                -2.546
REMARK SMILES CCCCCCCCCCCCCCCCCCCCCC(=O)[O-]
REMARK SMILES IDX 12 1 11 2 10 3 9 4 8 5 7 6 6 7 5 8 4 9 3 10 2 11 1 12 13 13
REMARK SMILES IDX 14 14 15 15 16 16 17 17 18 18 19 19 20 20 21 21 22 22 23 23
REMARK SMILES IDX 24 24
REMARK H PARENT
REMARK Flexibility Score: inf
ROOT
ATOM      1  C   UNL     1      17.459  44.995   6.993  1.00  0.00     0.000 C 
ENDROOT
BRANCH   1   2
ATOM      2  C   UNL     1      16.528  45.136   8.207  1.00  0.00     0.000 C 
BRANCH   2   3
ATOM      3  C   UNL     1      16.205  43.782   8.861  1.00  0.00     0.000 C 
BRANCH   3   4
ATOM      4  C   UNL     1      14.781  43.300   8.547  1.00  0.00    -0.000 C 
BRANCH   4   5
ATOM      5  C   UNL     1      14.694  41.777   8.340  1.00  0.00    -0.000 C 
BRANCH   5   6
ATOM      6  C   UNL     1      15.855  40.989   8.984  1.00  0.00    -0.000 C 
BRANCH   6   7
ATOM      7  C   UNL     1      15.425  39.585   9.443  1.00  0.00    -0.000 C 
BRANCH   7   8
ATOM      8  C   UNL     1      14.092  39.593  10.221  1.00  0.00    -0.000 C 
BRANCH   8   9
ATOM      9  C   UNL     1      13.926  38.404  11.187  1.00  0.00    -0.000 C 
BRANCH   9  10
ATOM     10  C   UNL     1      12.608  37.620  11.041  1.00  0.00    -0.000 C 
BRANCH  10  11
ATOM     11  C   UNL     1      11.912  37.263  12.368  1.00  0.00    -0.003 C 
ATOM     12  C   UNL     1      11.849  35.757  12.627  1.00  0.00     0.004 C 
ENDBRANCH  10  11
ENDBRANCH   9  10
ENDBRANCH   8   9
ENDBRANCH   7   8
ENDBRANCH   6   7
ENDBRANCH   5   6
ENDBRANCH   4   5
ENDBRANCH   3   4
ENDBRANCH   2   3
ENDBRANCH   1   2
BRANCH   1  13
ATOM     13  C   UNL     1      17.580  43.526   6.559  1.00  0.00     0.000 C 
BRANCH  13  14
ATOM     14  C   UNL     1      17.151  43.304   5.099  1.00  0.00     0.000 C 
BRANCH  14  15
ATOM     15  C   UNL     1      15.624  43.222   4.938  1.00  0.00     0.000 C 
BRANCH  15  16
ATOM     16  C   UNL     1      15.152  43.731   3.565  1.00  0.00     0.000 C 
BRANCH  16  17
ATOM     17  C   UNL     1      14.926  45.259   3.515  1.00  0.00     0.000 C 
BRANCH  17  18
ATOM     18  C   UNL     1      13.714  45.729   4.343  1.00  0.00     0.000 C 
BRANCH  18  19
ATOM     19  C   UNL     1      14.067  46.429   5.668  1.00  0.00     0.000 C 
BRANCH  19  20
ATOM     20  C   UNL     1      13.096  46.155   6.836  1.00  0.00     0.006 C 
BRANCH  20  21
ATOM     21  C   UNL     1      11.648  45.871   6.397  1.00  0.00     0.053 C 
BRANCH  21  22
ATOM     22  C   UNL     1      11.252  44.441   6.608  1.00  0.00     0.041 C 
ATOM     23  O   UNL     1      10.142  44.158   7.132  1.00  0.00    -0.550 OA
ATOM     24  O   UNL     1      12.118  43.417   6.247  1.00  0.00    -0.550 OA
ENDBRANCH  21  22
ENDBRANCH  20  21
ENDBRANCH  19  20
ENDBRANCH  18  19
ENDBRANCH  17  18
ENDBRANCH  16  17
ENDBRANCH  15  16
ENDBRANCH  14  15
ENDBRANCH  13  14
ENDBRANCH   1  13
TORSDOF 20
ENDMDL
MODEL 4
REMARK VINA RESULT:    -5.483      3.239      5.871
REMARK INTER + INTRA:         -14.440
REMARK INTER:                 -11.678
REMARK INTRA:                  -2.761
REMARK UNBOUND:                -2.546
REMARK SMILES CCCCCCCCCCCCCCCCCCCCCC(=O)[O-]
REMARK SMILES IDX 12 1 11 2 10 3 9 4 8 5 7 6 6 7 5 8 4 9 3 10 2 11 1 12 13 13
REMARK SMILES IDX 14 14 15 15 16 16 17 17 18 18 19 19 20 20 21 21 22 22 23 23
REMARK SMILES IDX 24 24
REMARK H PARENT
REMARK Flexibility Score: inf
ROOT
ATOM      1  C   UNL     1      15.209  44.085   3.584  1.00  0.00     0.000 C 
ENDROOT
BRANCH   1   2
ATOM      2  C   UNL     1      16.616  43.616   3.987  1.00  0.00     0.000 C 
BRANCH   2   3
ATOM      3  C   UNL     1      16.657  43.040   5.412  1.00  0.00     0.000 C 
BRANCH   3   4
ATOM      4  C   UNL     1      17.683  43.751   6.307  1.00  0.00    -0.000 C 
BRANCH   4   5
ATOM      5  C   UNL     1      17.125  45.025   6.967  1.00  0.00    -0.000 C 
BRANCH   5   6
ATOM      6  C   UNL     1      16.276  44.756   8.229  1.00  0.00    -0.000 C 
BRANCH   6   7
ATOM      7  C   UNL     1      14.777  44.626   7.909  1.00  0.00    -0.000 C 
BRANCH   7   8
ATOM      8  C   UNL     1      14.124  43.408   8.597  1.00  0.00    -0.000 C 
BRANCH   8   9
ATOM      9  C   UNL     1      14.635  42.050   8.078  1.00  0.00    -0.000 C 
BRANCH   9  10
ATOM     10  C   UNL     1      15.876  41.495   8.803  1.00  0.00    -0.000 C 
BRANCH  10  11
ATOM     11  C   UNL     1      15.806  40.000   9.162  1.00  0.00    -0.003 C 
ATOM     12  C   UNL     1      14.569  39.636   9.982  1.00  0.00     0.004 C 
ENDBRANCH  10  11
ENDBRANCH   9  10
ENDBRANCH   8   9
ENDBRANCH   7   8
ENDBRANCH   6   7
ENDBRANCH   5   6
ENDBRANCH   4   5
ENDBRANCH   3   4
ENDBRANCH   2   3
ENDBRANCH   1   2
BRANCH   1  13
ATOM     13  C   UNL     1      14.127  43.284   4.325  1.00  0.00     0.000 C 
BRANCH  13  14
ATOM     14  C   UNL     1      12.911  44.146   4.703  1.00  0.00     0.000 C 
BRANCH  14  15
ATOM     15  C   UNL     1      13.178  45.650   4.537  1.00  0.00     0.000 C 
BRANCH  15  16
ATOM     16  C   UNL     1      12.018  46.512   5.065  1.00  0.00     0.000 C 
BRANCH  16  17
ATOM     17  C   UNL     1      12.269  47.095   6.474  1.00  0.00     0.000 C 
BRANCH  17  18
ATOM     18  C   UNL     1      11.590  46.293   7.601  1.00  0.00     0.000 C 
BRANCH  18  19
ATOM     19  C   UNL     1      10.116  45.933   7.343  1.00  0.00     0.000 C 
BRANCH  19  20
ATOM     20  C   UNL     1       9.779  44.430   7.430  1.00  0.00     0.006 C 
BRANCH  20  21
ATOM     21  C   UNL     1       8.555  44.110   8.307  1.00  0.00     0.053 C 
BRANCH  21  22
ATOM     22  C   UNL     1       7.259  44.434   7.628  1.00  0.00     0.041 C 
ATOM     23  O   UNL     1       6.500  45.324   8.096  1.00  0.00    -0.550 OA
ATOM     24  O   UNL     1       6.875  43.738   6.489  1.00  0.00    -0.550 OA
ENDBRANCH  21  22
ENDBRANCH  20  21
ENDBRANCH  19  20
ENDBRANCH  18  19
ENDBRANCH  17  18
ENDBRANCH  16  17
ENDBRANCH  15  16
ENDBRANCH  14  15
ENDBRANCH  13  14
ENDBRANCH   1  13
TORSDOF 20
ENDMDL
MODEL 5
REMARK VINA RESULT:    -5.481      2.886      6.195
REMARK INTER + INTRA:         -14.435
REMARK INTER:                 -11.080
REMARK INTRA:                  -3.355
REMARK UNBOUND:                -2.546
REMARK SMILES CCCCCCCCCCCCCCCCCCCCCC(=O)[O-]
REMARK SMILES IDX 12 1 11 2 10 3 9 4 8 5 7 6 6 7 5 8 4 9 3 10 2 11 1 12 13 13
REMARK SMILES IDX 14 14 15 15 16 16 17 17 18 18 19 19 20 20 21 21 22 22 23 23
REMARK SMILES IDX 24 24
REMARK H PARENT
REMARK Flexibility Score: inf
ROOT
ATOM      1  C   UNL     1      13.986  42.649   7.792  1.00  0.00     0.000 C 
ENDROOT
BRANCH   1   2
ATOM      2  C   UNL     1      13.386  43.864   8.516  1.00  0.00     0.000 C 
BRANCH   2   3
ATOM      3  C   UNL     1      12.598  44.783   7.568  1.00  0.00     0.000 C 
BRANCH   3   4
ATOM      4  C   UNL     1      12.924  46.270   7.782  1.00  0.00    -0.000 C 
BRANCH   4   5
ATOM      5  C   UNL     1      12.467  47.159   6.611  1.00  0.00    -0.000 C 
BRANCH   5   6
ATOM      6  C   UNL     1      11.222  46.627   5.869  1.00  0.00    -0.000 C 
BRANCH   6   7
ATOM      7  C   UNL     1       9.947  47.410   6.229  1.00  0.00    -0.000 C 
BRANCH   7   8
ATOM      8  C   UNL     1       9.271  46.890   7.516  1.00  0.00    -0.000 C 
BRANCH   8   9
ATOM      9  C   UNL     1       8.401  45.636   7.300  1.00  0.00    -0.000 C 
BRANCH   9  10
ATOM     10  C   UNL     1       9.040  44.309   7.752  1.00  0.00    -0.000 C 
BRANCH  10  11
ATOM     11  C   UNL     1       8.804  43.942   9.229  1.00  0.00    -0.003 C 
ATOM     12  C   UNL     1      10.041  44.148  10.104  1.00  0.00     0.004 C 
ENDBRANCH  10  11
ENDBRANCH   9  10
ENDBRANCH   8   9
ENDBRANCH   7   8
ENDBRANCH   6   7
ENDBRANCH   5   6
ENDBRANCH   4   5
ENDBRANCH   3   4
ENDBRANCH   2   3
ENDBRANCH   1   2
BRANCH   1  13
ATOM     13  C   UNL     1      15.030  41.943   8.671  1.00  0.00     0.000 C 
BRANCH  13  14
ATOM     14  C   UNL     1      16.408  41.854   7.994  1.00  0.00     0.000 C 
BRANCH  14  15
ATOM     15  C   UNL     1      17.481  42.676   8.727  1.00  0.00     0.000 C 
BRANCH  15  16
ATOM     16  C   UNL     1      17.176  44.183   8.709  1.00  0.00     0.000 C 
BRANCH  16  17
ATOM     17  C   UNL     1      17.467  44.858   7.350  1.00  0.00     0.000 C 
BRANCH  17  18
ATOM     18  C   UNL     1      16.196  45.225   6.560  1.00  0.00     0.000 C 
BRANCH  18  19
ATOM     19  C   UNL     1      16.031  44.489   5.219  1.00  0.00     0.000 C 
BRANCH  19  20
ATOM     20  C   UNL     1      14.634  44.598   4.574  1.00  0.00     0.006 C 
BRANCH  20  21
ATOM     21  C   UNL     1      14.395  43.608   3.419  1.00  0.00     0.053 C 
BRANCH  21  22
ATOM     22  C   UNL     1      13.021  43.010   3.449  1.00  0.00     0.041 C 
ATOM     23  O   UNL     1      12.630  42.265   2.511  1.00  0.00    -0.550 OA
ATOM     24  O   UNL     1      12.159  43.293   4.501  1.00  0.00    -0.550 OA
ENDBRANCH  21  22
ENDBRANCH  20  21
ENDBRANCH  19  20
ENDBRANCH  18  19
ENDBRANCH  17  18
ENDBRANCH  16  17
ENDBRANCH  15  16
ENDBRANCH  14  15
ENDBRANCH  13  14
ENDBRANCH   1  13
TORSDOF 20
ENDMDL
MODEL 6
REMARK VINA RESULT:    -5.471      2.093      3.942
REMARK INTER + INTRA:         -14.413
REMARK INTER:                 -11.638
REMARK INTRA:                  -2.775
REMARK UNBOUND:                -2.546
REMARK SMILES CCCCCCCCCCCCCCCCCCCCCC(=O)[O-]
REMARK SMILES IDX 12 1 11 2 10 3 9 4 8 5 7 6 6 7 5 8 4 9 3 10 2 11 1 12 13 13
REMARK SMILES IDX 14 14 15 15 16 16 17 17 18 18 19 19 20 20 21 21 22 22 23 23
REMARK SMILES IDX 24 24
REMARK H PARENT
REMARK Flexibility Score: inf
ROOT
ATOM      1  C   UNL     1      16.616  43.424   4.680  1.00  0.00     0.000 C 
ENDROOT
BRANCH   1   2
ATOM      2  C   UNL     1      17.585  43.501   5.870  1.00  0.00     0.000 C 
BRANCH   2   3
ATOM      3  C   UNL     1      17.068  44.419   6.990  1.00  0.00     0.000 C 
BRANCH   3   4
ATOM      4  C   UNL     1      17.269  43.814   8.389  1.00  0.00    -0.000 C 
BRANCH   4   5
ATOM      5  C   UNL     1      16.029  43.059   8.900  1.00  0.00    -0.000 C 
BRANCH   5   6
ATOM      6  C   UNL     1      16.068  41.539   8.636  1.00  0.00    -0.000 C 
BRANCH   6   7
ATOM      7  C   UNL     1      14.726  40.855   8.955  1.00  0.00    -0.000 C 
BRANCH   7   8
ATOM      8  C   UNL     1      14.854  39.772  10.048  1.00  0.00    -0.000 C 
BRANCH   8   9
ATOM      9  C   UNL     1      13.501  39.250  10.570  1.00  0.00    -0.000 C 
BRANCH   9  10
ATOM     10  C   UNL     1      13.542  37.853  11.217  1.00  0.00    -0.000 C 
BRANCH  10  11
ATOM     11  C   UNL     1      12.179  37.315  11.692  1.00  0.00    -0.003 C 
ATOM     12  C   UNL     1      12.297  36.303  12.832  1.00  0.00     0.004 C 
ENDBRANCH  10  11
ENDBRANCH   9  10
ENDBRANCH   8   9
ENDBRANCH   7   8
ENDBRANCH   6   7
ENDBRANCH   5   6
ENDBRANCH   4   5
ENDBRANCH   3   4
ENDBRANCH   2   3
ENDBRANCH   1   2
BRANCH   1  13
ATOM     13  C   UNL     1      16.035  44.808   4.351  1.00  0.00     0.000 C 
BRANCH  13  14
ATOM     14  C   UNL     1      14.817  44.730   3.415  1.00  0.00     0.000 C 
BRANCH  14  15
ATOM     15  C   UNL     1      14.157  43.342   3.421  1.00  0.00     0.000 C 
BRANCH  15  16
ATOM     16  C   UNL     1      12.760  43.361   4.066  1.00  0.00     0.000 C 
BRANCH  16  17
ATOM     17  C   UNL     1      12.696  42.635   5.429  1.00  0.00     0.000 C 
BRANCH  17  18
ATOM     18  C   UNL     1      13.429  43.383   6.559  1.00  0.00     0.000 C 
BRANCH  18  19
ATOM     19  C   UNL     1      12.529  44.275   7.434  1.00  0.00     0.000 C 
BRANCH  19  20
ATOM     20  C   UNL     1      13.024  45.724   7.625  1.00  0.00     0.006 C 
BRANCH  20  21
ATOM     21  C   UNL     1      13.376  46.446   6.312  1.00  0.00     0.053 C 
BRANCH  21  22
ATOM     22  C   UNL     1      12.161  46.880   5.550  1.00  0.00     0.041 C 
ATOM     23  O   UNL     1      12.152  46.845   4.291  1.00  0.00    -0.550 OA
ATOM     24  O   UNL     1      11.042  47.347   6.228  1.00  0.00    -0.550 OA
ENDBRANCH  21  22
ENDBRANCH  20  21
ENDBRANCH  19  20
ENDBRANCH  18  19
ENDBRANCH  17  18
ENDBRANCH  16  17
ENDBRANCH  15  16
ENDBRANCH  14  15
ENDBRANCH  13  14
ENDBRANCH   1  13
TORSDOF 20
ENDMDL
MODEL 7
REMARK VINA RESULT:    -5.459      2.940      5.196
REMARK INTER + INTRA:         -14.386
REMARK INTER:                 -10.890
REMARK INTRA:                  -3.497
REMARK UNBOUND:                -2.546
REMARK SMILES CCCCCCCCCCCCCCCCCCCCCC(=O)[O-]
REMARK SMILES IDX 12 1 11 2 10 3 9 4 8 5 7 6 6 7 5 8 4 9 3 10 2 11 1 12 13 13
REMARK SMILES IDX 14 14 15 15 16 16 17 17 18 18 19 19 20 20 21 21 22 22 23 23
REMARK SMILES IDX 24 24
REMARK H PARENT
REMARK Flexibility Score: inf
ROOT
ATOM      1  C   UNL     1      11.494  44.093   6.946  1.00  0.00     0.000 C 
ENDROOT
BRANCH   1   2
ATOM      2  C   UNL     1      12.950  44.191   7.426  1.00  0.00     0.000 C 
BRANCH   2   3
ATOM      3  C   UNL     1      13.479  45.636   7.405  1.00  0.00     0.000 C 
BRANCH   3   4
ATOM      4  C   UNL     1      12.357  46.677   7.549  1.00  0.00    -0.000 C 
BRANCH   4   5
ATOM      5  C   UNL     1      12.064  47.427   6.237  1.00  0.00    -0.000 C 
BRANCH   5   6
ATOM      6  C   UNL     1      10.562  47.522   5.892  1.00  0.00    -0.000 C 
BRANCH   6   7
ATOM      7  C   UNL     1       9.664  47.330   7.127  1.00  0.00    -0.000 C 
BRANCH   7   8
ATOM      8  C   UNL     1       8.426  46.455   6.834  1.00  0.00    -0.000 C 
BRANCH   8   9
ATOM      9  C   UNL     1       7.983  45.583   8.025  1.00  0.00    -0.000 C 
BRANCH   9  10
ATOM     10  C   UNL     1       8.980  45.516   9.197  1.00  0.00    -0.000 C 
BRANCH  10  11
ATOM     11  C   UNL     1       9.217  44.107   9.771  1.00  0.00    -0.003 C 
ATOM     12  C   UNL     1      10.536  43.982  10.534  1.00  0.00     0.004 C 
ENDBRANCH  10  11
ENDBRANCH   9  10
ENDBRANCH   8   9
ENDBRANCH   7   8
ENDBRANCH   6   7
ENDBRANCH   5   6
ENDBRANCH   4   5
ENDBRANCH   3   4
ENDBRANCH   2   3
ENDBRANCH   1   2
BRANCH   1  13
ATOM     13  C   UNL     1      11.407  43.368   5.594  1.00  0.00     0.000 C 
BRANCH  13  14
ATOM     14  C   UNL     1      12.742  42.723   5.183  1.00  0.00     0.000 C 
BRANCH  14  15
ATOM     15  C   UNL     1      12.898  42.611   3.658  1.00  0.00     0.000 C 
BRANCH  15  16
ATOM     16  C   UNL     1      14.123  43.384   3.138  1.00  0.00     0.000 C 
BRANCH  16  17
ATOM     17  C   UNL     1      14.320  44.760   3.811  1.00  0.00     0.000 C 
BRANCH  17  18
ATOM     18  C   UNL     1      15.702  44.931   4.471  1.00  0.00     0.000 C 
BRANCH  18  19
ATOM     19  C   UNL     1      16.569  43.659   4.496  1.00  0.00     0.000 C 
BRANCH  19  20
ATOM     20  C   UNL     1      17.203  43.321   5.861  1.00  0.00     0.006 C 
BRANCH  20  21
ATOM     21  C   UNL     1      16.260  42.579   6.826  1.00  0.00     0.053 C 
BRANCH  21  22
ATOM     22  C   UNL     1      16.592  42.834   8.265  1.00  0.00     0.041 C 
ATOM     23  O   UNL     1      15.683  43.140   9.083  1.00  0.00    -0.550 OA
ATOM     24  O   UNL     1      17.908  42.759   8.702  1.00  0.00    -0.550 OA
ENDBRANCH  21  22
ENDBRANCH  20  21
ENDBRANCH  19  20
ENDBRANCH  18  19
ENDBRANCH  17  18
ENDBRANCH  16  17
ENDBRANCH  15  16
ENDBRANCH  14  15
ENDBRANCH  13  14
ENDBRANCH   1  13
TORSDOF 20
ENDMDL
MODEL 8
REMARK VINA RESULT:    -5.434      3.714      6.830
REMARK INTER + INTRA:         -14.334
REMARK INTER:                 -11.140
REMARK INTRA:                  -3.194
REMARK UNBOUND:                -2.546
REMARK SMILES CCCCCCCCCCCCCCCCCCCCCC(=O)[O-]
REMARK SMILES IDX 12 1 11 2 10 3 9 4 8 5 7 6 6 7 5 8 4 9 3 10 2 11 1 12 13 13
REMARK SMILES IDX 14 14 15 15 16 16 17 17 18 18 19 19 20 20 21 21 22 22 23 23
REMARK SMILES IDX 24 24
REMARK H PARENT
REMARK Flexibility Score: inf
ROOT
ATOM      1  C   UNL     1      12.594  44.457   7.980  1.00  0.00     0.000 C 
ENDROOT
BRANCH   1   2
ATOM      2  C   UNL     1      13.785  43.582   7.556  1.00  0.00     0.000 C 
BRANCH   2   3
ATOM      3  C   UNL     1      15.066  43.916   8.338  1.00  0.00     0.000 C 
BRANCH   3   4
ATOM      4  C   UNL     1      16.338  43.455   7.609  1.00  0.00    -0.000 C 
BRANCH   4   5
ATOM      5  C   UNL     1      16.041  42.627   6.346  1.00  0.00    -0.000 C 
BRANCH   5   6
ATOM      6  C   UNL     1      16.717  43.169   5.068  1.00  0.00    -0.000 C 
BRANCH   6   7
ATOM      7  C   UNL     1      16.265  44.600   4.729  1.00  0.00    -0.000 C 
BRANCH   7   8
ATOM      8  C   UNL     1      15.173  44.638   3.638  1.00  0.00    -0.000 C 
BRANCH   8   9
ATOM      9  C   UNL     1      13.857  45.298   4.094  1.00  0.00    -0.000 C 
BRANCH   9  10
ATOM     10  C   UNL     1      12.638  44.359   4.156  1.00  0.00    -0.000 C 
BRANCH  10  11
ATOM     11  C   UNL     1      12.962  42.861   4.010  1.00  0.00    -0.003 C 
ATOM     12  C   UNL     1      12.593  42.297   2.638  1.00  0.00     0.004 C 
ENDBRANCH  10  11
ENDBRANCH   9  10
ENDBRANCH   8   9
ENDBRANCH   7   8
ENDBRANCH   6   7
ENDBRANCH   5   6
ENDBRANCH   4   5
ENDBRANCH   3   4
ENDBRANCH   2   3
ENDBRANCH   1   2
BRANCH   1  13
ATOM     13  C   UNL     1      13.020  45.924   8.147  1.00  0.00     0.000 C 
BRANCH  13  14
ATOM     14  C   UNL     1      12.403  46.842   7.078  1.00  0.00     0.000 C 
BRANCH  14  15
ATOM     15  C   UNL     1      10.988  46.403   6.668  1.00  0.00     0.000 C 
BRANCH  15  16
ATOM     16  C   UNL     1      10.141  47.575   6.143  1.00  0.00     0.000 C 
BRANCH  16  17
ATOM     17  C   UNL     1       8.813  47.772   6.909  1.00  0.00     0.000 C 
BRANCH  17  18
ATOM     18  C   UNL     1       8.719  46.939   8.202  1.00  0.00     0.000 C 
BRANCH  18  19
ATOM     19  C   UNL     1       7.450  46.076   8.326  1.00  0.00     0.000 C 
BRANCH  19  20
ATOM     20  C   UNL     1       7.691  44.553   8.366  1.00  0.00     0.006 C 
BRANCH  20  21
ATOM     21  C   UNL     1       9.050  44.146   8.964  1.00  0.00     0.053 C 
BRANCH  21  22
ATOM     22  C   UNL     1       8.946  43.734  10.402  1.00  0.00     0.041 C 
ATOM     23  O   UNL     1       9.970  43.722  11.136  1.00  0.00    -0.550 OA
ATOM     24  O   UNL     1       7.722  43.341  10.928  1.00  0.00    -0.550 OA
ENDBRANCH  21  22
ENDBRANCH  20  21
ENDBRANCH  19  20
ENDBRANCH  18  19
ENDBRANCH  17  18
ENDBRANCH  16  17
ENDBRANCH  15  16
ENDBRANCH  14  15
ENDBRANCH  13  14
ENDBRANCH   1  13
TORSDOF 20
ENDMDL
MODEL 9
REMARK VINA RESULT:    -5.371      3.822      6.831
REMARK INTER + INTRA:         -14.196
REMARK INTER:                 -11.433
REMARK INTRA:                  -2.763
REMARK UNBOUND:                -2.546
REMARK SMILES CCCCCCCCCCCCCCCCCCCCCC(=O)[O-]
REMARK SMILES IDX 12 1 11 2 10 3 9 4 8 5 7 6 6 7 5 8 4 9 3 10 2 11 1 12 13 13
REMARK SMILES IDX 14 14 15 15 16 16 17 17 18 18 19 19 20 20 21 21 22 22 23 23
REMARK SMILES IDX 24 24
REMARK H PARENT
REMARK Flexibility Score: inf
ROOT
ATOM      1  C   UNL     1      13.422  45.514   7.132  1.00  0.00     0.000 C 
ENDROOT
BRANCH   1   2
ATOM      2  C   UNL     1      13.061  44.022   7.062  1.00  0.00     0.000 C 
BRANCH   2   3
ATOM      3  C   UNL     1      11.940  43.737   6.048  1.00  0.00     0.000 C 
BRANCH   3   4
ATOM      4  C   UNL     1      12.308  42.616   5.062  1.00  0.00    -0.000 C 
BRANCH   4   5
ATOM      5  C   UNL     1      12.611  43.138   3.646  1.00  0.00    -0.000 C 
BRANCH   5   6
ATOM      6  C   UNL     1      14.116  43.316   3.352  1.00  0.00    -0.000 C 
BRANCH   6   7
ATOM      7  C   UNL     1      14.602  44.750   3.634  1.00  0.00    -0.000 C 
BRANCH   7   8
ATOM      8  C   UNL     1      15.943  44.786   4.399  1.00  0.00    -0.000 C 
BRANCH   8   9
ATOM      9  C   UNL     1      16.519  43.392   4.713  1.00  0.00    -0.000 C 
BRANCH   9  10
ATOM     10  C   UNL     1      16.370  42.934   6.176  1.00  0.00    -0.000 C 
BRANCH  10  11
ATOM     11  C   UNL     1      17.434  43.486   7.143  1.00  0.00    -0.003 C 
ATOM     12  C   UNL     1      17.123  44.899   7.636  1.00  0.00     0.004 C 
ENDBRANCH  10  11
ENDBRANCH   9  10
ENDBRANCH   8   9
ENDBRANCH   7   8
ENDBRANCH   6   7
ENDBRANCH   5   6
ENDBRANCH   4   5
ENDBRANCH   3   4
ENDBRANCH   2   3
ENDBRANCH   1   2
BRANCH   1  13
ATOM     13  C   UNL     1      12.172  46.374   7.371  1.00  0.00     0.000 C 
BRANCH  13  14
ATOM     14  C   UNL     1      11.933  47.394   6.245  1.00  0.00     0.000 C 
BRANCH  14  15
ATOM     15  C   UNL     1      10.454  47.486   5.837  1.00  0.00     0.000 C 
BRANCH  15  16
ATOM     16  C   UNL     1       9.504  47.130   6.993  1.00  0.00     0.000 C 
BRANCH  16  17
ATOM     17  C   UNL     1       8.466  48.231   7.305  1.00  0.00     0.000 C 
BRANCH  17  18
ATOM     18  C   UNL     1       7.346  47.770   8.257  1.00  0.00     0.000 C 
BRANCH  18  19
ATOM     19  C   UNL     1       7.800  46.816   9.377  1.00  0.00     0.000 C 
BRANCH  19  20
ATOM     20  C   UNL     1       7.018  45.488   9.469  1.00  0.00     0.006 C 
BRANCH  20  21
ATOM     21  C   UNL     1       7.872  44.286   9.912  1.00  0.00     0.053 C 
BRANCH  21  22
ATOM     22  C   UNL     1       9.042  44.046   9.008  1.00  0.00     0.041 C 
ATOM     23  O   UNL     1       8.860  43.712   7.806  1.00  0.00    -0.550 OA
ATOM     24  O   UNL     1      10.337  44.167   9.495  1.00  0.00    -0.550 OA
ENDBRANCH  21  22
ENDBRANCH  20  21
ENDBRANCH  19  20
ENDBRANCH  18  19
ENDBRANCH  17  18
ENDBRANCH  16  17
ENDBRANCH  15  16
ENDBRANCH  14  15
ENDBRANCH  13  14
ENDBRANCH   1  13
TORSDOF 20
ENDMDL
