MODEL 1
REMARK VINA RESULT:    -7.006      0.000      0.000
REMARK INTER + INTRA:          -7.518
REMARK INTER:                  -7.620
REMARK INTRA:                   0.102
REMARK UNBOUND:                 0.102
REMARK SMILES C[C@@H]1[C@H](C)CC[C@]2(C(=O)[O-])CC[C@]3(C)C(=CC[C@@H]4[C@@]5(C)CC[C@@H](O)C(C)(C)[C@H]5CC[C@@]43C)[C@@H]12
REMARK SMILES IDX 7 1 6 2 11 3 33 4 5 5 12 6 15 7 2 8 3 9 13 10 16 11 1 12
REMARK SMILES IDX 4 13 14 14 31 15 17 16 18 17 30 18 32 19 19 20 29 21 28 22
REMARK SMILES IDX 21 23 20 24 25 25 22 26 23 27 26 28 27 29 8 30 9 31 10 32
REMARK SMILES IDX 24 33
REMARK H PARENT 24 34
REMARK Flexibility Score: inf
ROOT
ATOM      1  C   UNL     1      55.984  43.793  40.723  1.00  0.00     0.017 C 
ATOM      2  C   UNL     1      56.764  42.918  41.742  1.00  0.00     0.014 C 
ATOM      3  C   UNL     1      57.006  44.666  39.971  1.00  0.00     0.014 C 
ATOM      4  C   UNL     1      54.969  44.711  41.510  1.00  0.00     0.030 C 
ATOM      5  C   UNL     1      55.831  42.025  42.575  1.00  0.00     0.004 C 
ATOM      6  C   UNL     1      56.317  45.509  38.898  1.00  0.00     0.013 C 
ATOM      7  C   UNL     1      54.404  45.870  40.622  1.00  0.00    -0.063 C 
ATOM      8  C   UNL     1      53.960  43.753  42.287  1.00  0.00    -0.003 C 
ATOM      9  C   UNL     1      54.736  42.836  43.291  1.00  0.00    -0.011 C 
ATOM     10  C   UNL     1      55.232  46.496  39.467  1.00  0.00    -0.006 C 
ATOM     11  C   UNL     1      53.453  46.696  41.122  1.00  0.00    -0.027 C 
ATOM     12  C   UNL     1      52.736  44.369  42.995  1.00  0.00     0.008 C 
ATOM     13  C   UNL     1      55.314  43.564  44.529  1.00  0.00     0.008 C 
ATOM     14  C   UNL     1      56.085  47.634  40.145  1.00  0.00     0.017 C 
ATOM     15  C   UNL     1      54.246  47.075  38.292  1.00  0.00    -0.020 C 
ATOM     16  C   UNL     1      52.856  47.832  40.342  1.00  0.00     0.032 C 
ATOM     17  C   UNL     1      52.802  47.522  38.827  1.00  0.00     0.006 C 
ATOM     18  C   UNL     1      54.046  46.045  37.149  1.00  0.00     0.008 C 
ATOM     19  C   UNL     1      54.934  48.312  37.621  1.00  0.00     0.012 C 
ATOM     20  C   UNL     1      51.472  46.700  38.390  1.00  0.00    -0.025 C 
ATOM     21  C   UNL     1      52.861  46.354  36.238  1.00  0.00     0.005 C 
ATOM     22  C   UNL     1      51.557  45.990  36.957  1.00  0.00     0.003 C 
ATOM     23  C   UNL     1      50.268  47.707  38.419  1.00  0.00     0.010 C 
ATOM     24  C   UNL     1      51.170  45.582  39.430  1.00  0.00     0.012 C 
ATOM     25  C   UNL     1      50.271  46.115  36.028  1.00  0.00    -0.006 C 
ATOM     26  C   UNL     1      50.121  48.486  37.113  1.00  0.00     0.033 C 
ATOM     27  C   UNL     1      49.766  47.603  35.910  1.00  0.00     0.120 C 
ATOM     28  C   UNL     1      50.539  45.527  34.609  1.00  0.00     0.014 C 
ATOM     29  C   UNL     1      49.122  45.220  36.587  1.00  0.00     0.014 C 
ENDROOT
BRANCH   1  30
ATOM     30  C   UNL     1      55.300  42.871  39.703  1.00  0.00     0.048 C 
ATOM     31  O   UNL     1      55.920  41.878  39.235  1.00  0.00    -0.550 OA
ATOM     32  O   UNL     1      54.031  43.153  39.217  1.00  0.00    -0.550 OA
ENDBRANCH   1  30
BRANCH  27  33
ATOM     33  O   UNL     1      50.281  48.235  34.760  1.00  0.00    -0.393 OA
ATOM     34  H   UNL     1      50.935  47.612  34.346  1.00  0.00     0.210 HD
ENDBRANCH  27  33
TORSDOF 2
ENDMDL
MODEL 2
REMARK VINA RESULT:    -6.941      1.974      7.288
REMARK INTER + INTRA:          -7.448
REMARK INTER:                  -7.505
REMARK INTRA:                   0.057
REMARK UNBOUND:                 0.102
REMARK SMILES C[C@@H]1[C@H](C)CC[C@]2(C(=O)[O-])CC[C@]3(C)C(=CC[C@@H]4[C@@]5(C)CC[C@@H](O)C(C)(C)[C@H]5CC[C@@]43C)[C@@H]12
REMARK SMILES IDX 7 1 6 2 11 3 33 4 5 5 12 6 15 7 2 8 3 9 13 10 16 11 1 12
REMARK SMILES IDX 4 13 14 14 31 15 17 16 18 17 30 18 32 19 19 20 29 21 28 22
REMARK SMILES IDX 21 23 20 24 25 25 22 26 23 27 26 28 27 29 8 30 9 31 10 32
REMARK SMILES IDX 24 33
REMARK H PARENT 24 34
REMARK Flexibility Score: inf
ROOT
ATOM      1  C   UNL     1      50.281  47.980  36.353  1.00  0.00     0.017 C 
ATOM      2  C   UNL     1      49.214  48.298  35.271  1.00  0.00     0.014 C 
ATOM      3  C   UNL     1      51.433  48.989  36.192  1.00  0.00     0.014 C 
ATOM      4  C   UNL     1      50.817  46.511  36.125  1.00  0.00     0.030 C 
ATOM      5  C   UNL     1      48.027  47.323  35.320  1.00  0.00     0.004 C 
ATOM      6  C   UNL     1      52.495  48.781  37.272  1.00  0.00     0.013 C 
ATOM      7  C   UNL     1      52.134  46.229  36.924  1.00  0.00    -0.063 C 
ATOM      8  C   UNL     1      49.579  45.521  36.275  1.00  0.00    -0.003 C 
ATOM      9  C   UNL     1      48.475  45.854  35.215  1.00  0.00    -0.011 C 
ATOM     10  C   UNL     1      53.156  47.354  37.244  1.00  0.00    -0.006 C 
ATOM     11  C   UNL     1      52.675  44.987  36.906  1.00  0.00    -0.027 C 
ATOM     12  C   UNL     1      49.833  44.000  36.290  1.00  0.00     0.008 C 
ATOM     13  C   UNL     1      48.842  45.495  33.755  1.00  0.00     0.008 C 
ATOM     14  C   UNL     1      54.108  47.410  35.989  1.00  0.00     0.017 C 
ATOM     15  C   UNL     1      53.971  47.023  38.627  1.00  0.00    -0.020 C 
ATOM     16  C   UNL     1      53.934  44.627  37.642  1.00  0.00     0.032 C 
ATOM     17  C   UNL     1      54.098  45.454  38.939  1.00  0.00     0.006 C 
ATOM     18  C   UNL     1      53.324  47.715  39.856  1.00  0.00     0.008 C 
ATOM     19  C   UNL     1      55.412  47.627  38.520  1.00  0.00     0.012 C 
ATOM     20  C   UNL     1      53.327  44.804  40.212  1.00  0.00    -0.025 C 
ATOM     21  C   UNL     1      53.784  47.150  41.197  1.00  0.00     0.005 C 
ATOM     22  C   UNL     1      53.099  45.801  41.444  1.00  0.00     0.003 C 
ATOM     23  C   UNL     1      54.162  43.558  40.678  1.00  0.00     0.010 C 
ATOM     24  C   UNL     1      51.923  44.291  39.781  1.00  0.00     0.012 C 
ATOM     25  C   UNL     1      53.380  45.209  42.895  1.00  0.00    -0.006 C 
ATOM     26  C   UNL     1      55.284  43.930  41.645  1.00  0.00     0.033 C 
ATOM     27  C   UNL     1      54.780  44.491  42.981  1.00  0.00     0.120 C 
ATOM     28  C   UNL     1      53.280  46.318  43.986  1.00  0.00     0.014 C 
ATOM     29  C   UNL     1      52.255  44.203  43.286  1.00  0.00     0.014 C 
ENDROOT
BRANCH   1  30
ATOM     30  C   UNL     1      49.654  48.186  37.739  1.00  0.00     0.048 C 
ATOM     31  O   UNL     1      49.080  49.273  38.017  1.00  0.00    -0.550 OA
ATOM     32  O   UNL     1      49.777  47.225  38.734  1.00  0.00    -0.550 OA
ENDBRANCH   1  30
BRANCH  27  33
ATOM     33  O   UNL     1      55.777  45.356  43.474  1.00  0.00    -0.393 OA
ATOM     34  H   UNL     1      55.366  45.905  44.194  1.00  0.00     0.210 HD
ENDBRANCH  27  33
TORSDOF 2
ENDMDL
MODEL 3
REMARK VINA RESULT:    -6.482      1.548      2.623
REMARK INTER + INTRA:          -6.948
REMARK INTER:                  -7.005
REMARK INTRA:                   0.057
REMARK UNBOUND:                 0.102
REMARK SMILES C[C@@H]1[C@H](C)CC[C@]2(C(=O)[O-])CC[C@]3(C)C(=CC[C@@H]4[C@@]5(C)CC[C@@H](O)C(C)(C)[C@H]5CC[C@@]43C)[C@@H]12
REMARK SMILES IDX 7 1 6 2 11 3 33 4 5 5 12 6 15 7 2 8 3 9 13 10 16 11 1 12
REMARK SMILES IDX 4 13 14 14 31 15 17 16 18 17 30 18 32 19 19 20 29 21 28 22
REMARK SMILES IDX 21 23 20 24 25 25 22 26 23 27 26 28 27 29 8 30 9 31 10 32
REMARK SMILES IDX 24 33
REMARK H PARENT 24 34
REMARK Flexibility Score: inf
ROOT
ATOM      1  C   UNL     1      57.076  42.455  41.397  1.00  0.00     0.017 C 
ATOM      2  C   UNL     1      57.803  41.202  41.957  1.00  0.00     0.014 C 
ATOM      3  C   UNL     1      57.928  43.690  41.743  1.00  0.00     0.014 C 
ATOM      4  C   UNL     1      55.657  42.571  42.082  1.00  0.00     0.030 C 
ATOM      5  C   UNL     1      57.017  39.908  41.694  1.00  0.00     0.004 C 
ATOM      6  C   UNL     1      57.308  44.960  41.161  1.00  0.00     0.013 C 
ATOM      7  C   UNL     1      55.004  43.976  41.860  1.00  0.00    -0.063 C 
ATOM      8  C   UNL     1      54.838  41.256  41.712  1.00  0.00    -0.003 C 
ATOM      9  C   UNL     1      55.578  39.980  42.236  1.00  0.00    -0.011 C 
ATOM     10  C   UNL     1      55.860  45.262  41.698  1.00  0.00    -0.006 C 
ATOM     11  C   UNL     1      53.747  44.210  42.310  1.00  0.00    -0.027 C 
ATOM     12  C   UNL     1      53.344  41.173  42.087  1.00  0.00     0.008 C 
ATOM     13  C   UNL     1      55.561  39.800  43.773  1.00  0.00     0.008 C 
ATOM     14  C   UNL     1      56.109  45.776  43.168  1.00  0.00     0.017 C 
ATOM     15  C   UNL     1      55.078  46.369  40.777  1.00  0.00    -0.020 C 
ATOM     16  C   UNL     1      53.044  45.526  42.142  1.00  0.00     0.032 C 
ATOM     17  C   UNL     1      53.480  46.248  40.845  1.00  0.00     0.006 C 
ATOM     18  C   UNL     1      55.511  46.290  39.289  1.00  0.00     0.008 C 
ATOM     19  C   UNL     1      55.489  47.803  41.254  1.00  0.00     0.012 C 
ATOM     20  C   UNL     1      52.634  45.782  39.539  1.00  0.00    -0.025 C 
ATOM     21  C   UNL     1      54.564  47.005  38.331  1.00  0.00     0.005 C 
ATOM     22  C   UNL     1      53.301  46.157  38.133  1.00  0.00     0.003 C 
ATOM     23  C   UNL     1      51.209  46.434  39.647  1.00  0.00     0.010 C 
ATOM     24  C   UNL     1      52.443  44.238  39.550  1.00  0.00     0.012 C 
ATOM     25  C   UNL     1      52.324  46.734  37.017  1.00  0.00    -0.006 C 
ATOM     26  C   UNL     1      51.165  47.849  39.075  1.00  0.00     0.033 C 
ATOM     27  C   UNL     1      51.426  47.907  37.564  1.00  0.00     0.120 C 
ATOM     28  C   UNL     1      53.118  47.209  35.762  1.00  0.00     0.014 C 
ATOM     29  C   UNL     1      51.413  45.595  36.468  1.00  0.00     0.014 C 
ENDROOT
BRANCH   1  30
ATOM     30  C   UNL     1      57.001  42.338  39.868  1.00  0.00     0.048 C 
ATOM     31  O   UNL     1      58.047  42.118  39.200  1.00  0.00    -0.550 OA
ATOM     32  O   UNL     1      55.811  42.553  39.188  1.00  0.00    -0.550 OA
ENDBRANCH   1  30
BRANCH  27  33
ATOM     33  O   UNL     1      51.992  49.167  37.286  1.00  0.00    -0.393 OA
ATOM     34  H   UNL     1      51.781  49.386  36.340  1.00  0.00     0.210 HD
ENDBRANCH  27  33
TORSDOF 2
ENDMDL
MODEL 4
REMARK VINA RESULT:    -6.358      2.394      7.168
REMARK INTER + INTRA:          -6.814
REMARK INTER:                  -6.888
REMARK INTRA:                   0.074
REMARK UNBOUND:                 0.102
REMARK SMILES C[C@@H]1[C@H](C)CC[C@]2(C(=O)[O-])CC[C@]3(C)C(=CC[C@@H]4[C@@]5(C)CC[C@@H](O)C(C)(C)[C@H]5CC[C@@]43C)[C@@H]12
REMARK SMILES IDX 7 1 6 2 11 3 33 4 5 5 12 6 15 7 2 8 3 9 13 10 16 11 1 12
REMARK SMILES IDX 4 13 14 14 31 15 17 16 18 17 30 18 32 19 19 20 29 21 28 22
REMARK SMILES IDX 21 23 20 24 25 25 22 26 23 27 26 28 27 29 8 30 9 31 10 32
REMARK SMILES IDX 24 33
REMARK H PARENT 24 34
REMARK Flexibility Score: inf
ROOT
ATOM      1  C   UNL     1      52.695  47.236  38.576  1.00  0.00     0.017 C 
ATOM      2  C   UNL     1      52.386  47.843  37.180  1.00  0.00     0.014 C 
ATOM      3  C   UNL     1      53.614  48.218  39.326  1.00  0.00     0.014 C 
ATOM      4  C   UNL     1      53.433  45.853  38.378  1.00  0.00     0.030 C 
ATOM      5  C   UNL     1      51.496  46.923  36.329  1.00  0.00     0.004 C 
ATOM      6  C   UNL     1      53.907  47.718  40.740  1.00  0.00     0.013 C 
ATOM      7  C   UNL     1      54.101  45.343  39.699  1.00  0.00    -0.063 C 
ATOM      8  C   UNL     1      52.446  44.894  37.575  1.00  0.00    -0.003 C 
ATOM      9  C   UNL     1      52.093  45.512  36.180  1.00  0.00    -0.011 C 
ATOM     10  C   UNL     1      54.631  46.322  40.781  1.00  0.00    -0.006 C 
ATOM     11  C   UNL     1      54.700  44.127  39.721  1.00  0.00    -0.027 C 
ATOM     12  C   UNL     1      52.823  43.409  37.398  1.00  0.00     0.008 C 
ATOM     13  C   UNL     1      53.252  45.512  35.154  1.00  0.00     0.008 C 
ATOM     14  C   UNL     1      56.108  46.657  40.341  1.00  0.00     0.017 C 
ATOM     15  C   UNL     1      54.567  45.637  42.268  1.00  0.00    -0.020 C 
ATOM     16  C   UNL     1      55.364  43.559  40.942  1.00  0.00     0.032 C 
ATOM     17  C   UNL     1      54.678  44.036  42.244  1.00  0.00     0.006 C 
ATOM     18  C   UNL     1      53.268  46.024  43.026  1.00  0.00     0.008 C 
ATOM     19  C   UNL     1      55.740  46.204  43.137  1.00  0.00     0.012 C 
ATOM     20  C   UNL     1      53.410  43.117  42.671  1.00  0.00    -0.025 C 
ATOM     21  C   UNL     1      52.964  45.133  44.226  1.00  0.00     0.005 C 
ATOM     22  C   UNL     1      52.418  43.786  43.736  1.00  0.00     0.003 C 
ATOM     23  C   UNL     1      53.979  41.769  43.243  1.00  0.00     0.010 C 
ATOM     24  C   UNL     1      52.557  42.769  41.418  1.00  0.00     0.012 C 
ATOM     25  C   UNL     1      51.908  42.848  44.916  1.00  0.00    -0.006 C 
ATOM     26  C   UNL     1      54.318  41.858  44.729  1.00  0.00     0.033 C 
ATOM     27  C   UNL     1      53.093  42.087  45.624  1.00  0.00     0.120 C 
ATOM     28  C   UNL     1      51.088  43.656  45.966  1.00  0.00     0.014 C 
ATOM     29  C   UNL     1      50.882  41.811  44.365  1.00  0.00     0.014 C 
ENDROOT
BRANCH   1  30
ATOM     30  C   UNL     1      51.382  47.114  39.362  1.00  0.00     0.048 C 
ATOM     31  O   UNL     1      50.665  48.132  39.554  1.00  0.00    -0.550 OA
ATOM     32  O   UNL     1      51.001  45.912  39.943  1.00  0.00    -0.550 OA
ENDBRANCH   1  30
BRANCH  27  33
ATOM     33  O   UNL     1      53.536  42.774  46.772  1.00  0.00    -0.393 OA
ATOM     34  H   UNL     1      52.976  43.589  46.866  1.00  0.00     0.210 HD
ENDBRANCH  27  33
TORSDOF 2
ENDMDL
MODEL 5
REMARK VINA RESULT:    -6.307      2.553      5.373
REMARK INTER + INTRA:          -6.758
REMARK INTER:                  -6.814
REMARK INTRA:                   0.056
REMARK UNBOUND:                 0.102
REMARK SMILES C[C@@H]1[C@H](C)CC[C@]2(C(=O)[O-])CC[C@]3(C)C(=CC[C@@H]4[C@@]5(C)CC[C@@H](O)C(C)(C)[C@H]5CC[C@@]43C)[C@@H]12
REMARK SMILES IDX 7 1 6 2 11 3 33 4 5 5 12 6 15 7 2 8 3 9 13 10 16 11 1 12
REMARK SMILES IDX 4 13 14 14 31 15 17 16 18 17 30 18 32 19 19 20 29 21 28 22
REMARK SMILES IDX 21 23 20 24 25 25 22 26 23 27 26 28 27 29 8 30 9 31 10 32
REMARK SMILES IDX 24 33
REMARK H PARENT 24 34
REMARK Flexibility Score: inf
ROOT
ATOM      1  C   UNL     1      56.657  41.301  44.275  1.00  0.00     0.017 C 
ATOM      2  C   UNL     1      57.531  40.132  44.805  1.00  0.00     0.014 C 
ATOM      3  C   UNL     1      56.045  42.022  45.490  1.00  0.00     0.014 C 
ATOM      4  C   UNL     1      55.509  40.709  43.366  1.00  0.00     0.030 C 
ATOM      5  C   UNL     1      58.168  39.319  43.667  1.00  0.00     0.004 C 
ATOM      6  C   UNL     1      55.223  43.233  45.048  1.00  0.00     0.013 C 
ATOM      7  C   UNL     1      54.377  41.753  43.084  1.00  0.00    -0.063 C 
ATOM      8  C   UNL     1      56.204  39.954  42.148  1.00  0.00    -0.003 C 
ATOM      9  C   UNL     1      57.120  38.795  42.668  1.00  0.00    -0.011 C 
ATOM     10  C   UNL     1      54.020  42.871  44.101  1.00  0.00    -0.006 C 
ATOM     11  C   UNL     1      53.361  41.430  42.247  1.00  0.00    -0.027 C 
ATOM     12  C   UNL     1      55.327  39.433  40.990  1.00  0.00     0.008 C 
ATOM     13  C   UNL     1      56.365  37.578  43.254  1.00  0.00     0.008 C 
ATOM     14  C   UNL     1      52.967  42.216  45.074  1.00  0.00     0.017 C 
ATOM     15  C   UNL     1      53.421  44.187  43.332  1.00  0.00    -0.020 C 
ATOM     16  C   UNL     1      52.235  42.369  41.920  1.00  0.00     0.032 C 
ATOM     17  C   UNL     1      52.693  43.846  41.944  1.00  0.00     0.006 C 
ATOM     18  C   UNL     1      54.523  45.246  43.058  1.00  0.00     0.008 C 
ATOM     19  C   UNL     1      52.389  44.896  44.274  1.00  0.00     0.012 C 
ATOM     20  C   UNL     1      53.334  44.338  40.536  1.00  0.00    -0.025 C 
ATOM     21  C   UNL     1      54.127  46.297  42.025  1.00  0.00     0.005 C 
ATOM     22  C   UNL     1      54.198  45.684  40.621  1.00  0.00     0.003 C 
ATOM     23  C   UNL     1      52.150  44.526  39.522  1.00  0.00     0.010 C 
ATOM     24  C   UNL     1      54.270  43.237  39.961  1.00  0.00     0.012 C 
ATOM     25  C   UNL     1      53.970  46.747  39.459  1.00  0.00    -0.006 C 
ATOM     26  C   UNL     1      51.503  45.905  39.621  1.00  0.00     0.033 C 
ATOM     27  C   UNL     1      52.442  47.052  39.225  1.00  0.00     0.120 C 
ATOM     28  C   UNL     1      54.743  48.070  39.744  1.00  0.00     0.014 C 
ATOM     29  C   UNL     1      54.605  46.228  38.132  1.00  0.00     0.014 C 
ENDROOT
BRANCH   1  30
ATOM     30  C   UNL     1      57.562  42.295  43.534  1.00  0.00     0.048 C 
ATOM     31  O   UNL     1      58.600  42.741  44.093  1.00  0.00    -0.550 OA
ATOM     32  O   UNL     1      57.219  42.784  42.281  1.00  0.00    -0.550 OA
ENDBRANCH   1  30
BRANCH  27  33
ATOM     33  O   UNL     1      52.029  48.197  39.936  1.00  0.00    -0.393 OA
ATOM     34  H   UNL     1      52.181  48.983  39.349  1.00  0.00     0.210 HD
ENDBRANCH  27  33
TORSDOF 2
ENDMDL
MODEL 6
REMARK VINA RESULT:    -6.164      5.493      9.370
REMARK INTER + INTRA:          -6.602
REMARK INTER:                  -6.754
REMARK INTRA:                   0.152
REMARK UNBOUND:                 0.102
REMARK SMILES C[C@@H]1[C@H](C)CC[C@]2(C(=O)[O-])CC[C@]3(C)C(=CC[C@@H]4[C@@]5(C)CC[C@@H](O)C(C)(C)[C@H]5CC[C@@]43C)[C@@H]12
REMARK SMILES IDX 7 1 6 2 11 3 33 4 5 5 12 6 15 7 2 8 3 9 13 10 16 11 1 12
REMARK SMILES IDX 4 13 14 14 31 15 17 16 18 17 30 18 32 19 19 20 29 21 28 22
REMARK SMILES IDX 21 23 20 24 25 25 22 26 23 27 26 28 27 29 8 30 9 31 10 32
REMARK SMILES IDX 24 33
REMARK H PARENT 24 34
REMARK Flexibility Score: inf
ROOT
ATOM      1  C   UNL     1      49.491  40.260  46.107  1.00  0.00     0.017 C 
ATOM      2  C   UNL     1      47.977  40.122  46.422  1.00  0.00     0.014 C 
ATOM      3  C   UNL     1      50.208  39.024  46.683  1.00  0.00     0.014 C 
ATOM      4  C   UNL     1      50.039  41.570  46.798  1.00  0.00     0.030 C 
ATOM      5  C   UNL     1      47.166  41.326  45.917  1.00  0.00     0.004 C 
ATOM      6  C   UNL     1      51.700  39.055  46.350  1.00  0.00     0.013 C 
ATOM      7  C   UNL     1      51.604  41.607  46.845  1.00  0.00    -0.063 C 
ATOM      8  C   UNL     1      49.242  42.805  46.183  1.00  0.00    -0.003 C 
ATOM      9  C   UNL     1      47.707  42.661  46.458  1.00  0.00    -0.011 C 
ATOM     10  C   UNL     1      52.452  40.309  46.931  1.00  0.00    -0.006 C 
ATOM     11  C   UNL     1      52.234  42.705  47.327  1.00  0.00    -0.027 C 
ATOM     12  C   UNL     1      49.694  44.237  46.532  1.00  0.00     0.008 C 
ATOM     13  C   UNL     1      47.286  42.865  47.934  1.00  0.00     0.008 C 
ATOM     14  C   UNL     1      52.563  39.994  48.471  1.00  0.00     0.017 C 
ATOM     15  C   UNL     1      53.919  40.526  46.234  1.00  0.00    -0.020 C 
ATOM     16  C   UNL     1      53.729  42.826  47.409  1.00  0.00     0.032 C 
ATOM     17  C   UNL     1      54.432  42.045  46.273  1.00  0.00     0.006 C 
ATOM     18  C   UNL     1      53.934  40.044  44.759  1.00  0.00     0.008 C 
ATOM     19  C   UNL     1      54.968  39.628  46.975  1.00  0.00     0.012 C 
ATOM     20  C   UNL     1      54.572  42.902  44.901  1.00  0.00    -0.025 C 
ATOM     21  C   UNL     1      55.120  40.562  43.951  1.00  0.00     0.005 C 
ATOM     22  C   UNL     1      54.889  42.035  43.593  1.00  0.00     0.003 C 
ATOM     23  C   UNL     1      55.705  43.966  45.127  1.00  0.00     0.010 C 
ATOM     24  C   UNL     1      53.254  43.678  44.619  1.00  0.00     0.012 C 
ATOM     25  C   UNL     1      55.989  42.622  42.604  1.00  0.00    -0.006 C 
ATOM     26  C   UNL     1      57.098  43.412  44.833  1.00  0.00     0.033 C 
ATOM     27  C   UNL     1      57.309  43.033  43.361  1.00  0.00     0.120 C 
ATOM     28  C   UNL     1      56.320  41.612  41.463  1.00  0.00     0.014 C 
ATOM     29  C   UNL     1      55.418  43.859  41.846  1.00  0.00     0.014 C 
ENDROOT
BRANCH   1  30
ATOM     30  C   UNL     1      49.680  40.255  44.583  1.00  0.00     0.048 C 
ATOM     31  O   UNL     1      48.976  39.498  43.862  1.00  0.00    -0.550 OA
ATOM     32  O   UNL     1      50.674  41.013  43.980  1.00  0.00    -0.550 OA
ENDBRANCH   1  30
BRANCH  27  33
ATOM     33  O   UNL     1      58.268  42.002  43.327  1.00  0.00    -0.393 OA
ATOM     34  H   UNL     1      58.847  42.160  42.535  1.00  0.00     0.210 HD
ENDBRANCH  27  33
TORSDOF 2
ENDMDL
MODEL 7
REMARK VINA RESULT:    -6.135      3.433      8.173
REMARK INTER + INTRA:          -6.571
REMARK INTER:                  -6.629
REMARK INTRA:                   0.058
REMARK UNBOUND:                 0.102
REMARK SMILES C[C@@H]1[C@H](C)CC[C@]2(C(=O)[O-])CC[C@]3(C)C(=CC[C@@H]4[C@@]5(C)CC[C@@H](O)C(C)(C)[C@H]5CC[C@@]43C)[C@@H]12
REMARK SMILES IDX 7 1 6 2 11 3 33 4 5 5 12 6 15 7 2 8 3 9 13 10 16 11 1 12
REMARK SMILES IDX 4 13 14 14 31 15 17 16 18 17 30 18 32 19 19 20 29 21 28 22
REMARK SMILES IDX 21 23 20 24 25 25 22 26 23 27 26 28 27 29 8 30 9 31 10 32
REMARK SMILES IDX 24 33
REMARK H PARENT 24 34
REMARK Flexibility Score: inf
ROOT
ATOM      1  C   UNL     1      55.480  46.022  41.753  1.00  0.00     0.017 C 
ATOM      2  C   UNL     1      55.772  47.080  40.654  1.00  0.00     0.014 C 
ATOM      3  C   UNL     1      56.824  45.408  42.186  1.00  0.00     0.014 C 
ATOM      4  C   UNL     1      54.547  44.900  41.148  1.00  0.00     0.030 C 
ATOM      5  C   UNL     1      54.487  47.735  40.123  1.00  0.00     0.004 C 
ATOM      6  C   UNL     1      56.624  44.402  43.320  1.00  0.00     0.013 C 
ATOM      7  C   UNL     1      54.493  43.622  42.050  1.00  0.00    -0.063 C 
ATOM      8  C   UNL     1      53.190  45.600  40.694  1.00  0.00    -0.003 C 
ATOM      9  C   UNL     1      53.471  46.698  39.613  1.00  0.00    -0.011 C 
ATOM     10  C   UNL     1      55.693  43.193  42.938  1.00  0.00    -0.006 C 
ATOM     11  C   UNL     1      53.668  42.600  41.716  1.00  0.00    -0.027 C 
ATOM     12  C   UNL     1      52.009  44.720  40.236  1.00  0.00     0.008 C 
ATOM     13  C   UNL     1      53.891  46.155  38.225  1.00  0.00     0.008 C 
ATOM     14  C   UNL     1      56.600  42.309  41.999  1.00  0.00     0.017 C 
ATOM     15  C   UNL     1      55.176  42.370  44.257  1.00  0.00    -0.020 C 
ATOM     16  C   UNL     1      53.552  41.338  42.523  1.00  0.00     0.032 C 
ATOM     17  C   UNL     1      53.789  41.596  44.030  1.00  0.00     0.006 C 
ATOM     18  C   UNL     1      55.021  43.298  45.491  1.00  0.00     0.008 C 
ATOM     19  C   UNL     1      56.270  41.323  44.659  1.00  0.00     0.012 C 
ATOM     20  C   UNL     1      52.448  42.063  44.817  1.00  0.00    -0.025 C 
ATOM     21  C   UNL     1      54.191  42.693  46.619  1.00  0.00     0.005 C 
ATOM     22  C   UNL     1      52.705  42.744  46.243  1.00  0.00     0.003 C 
ATOM     23  C   UNL     1      51.538  40.794  44.984  1.00  0.00     0.010 C 
ATOM     24  C   UNL     1      51.658  43.094  43.960  1.00  0.00     0.012 C 
ATOM     25  C   UNL     1      51.741  42.293  47.426  1.00  0.00    -0.006 C 
ATOM     26  C   UNL     1      51.890  39.978  46.226  1.00  0.00     0.033 C 
ATOM     27  C   UNL     1      51.637  40.725  47.543  1.00  0.00     0.120 C 
ATOM     28  C   UNL     1      52.196  42.901  48.788  1.00  0.00     0.014 C 
ATOM     29  C   UNL     1      50.318  42.893  47.211  1.00  0.00     0.014 C 
ENDROOT
BRANCH   1  30
ATOM     30  C   UNL     1      54.864  46.730  42.968  1.00  0.00     0.048 C 
ATOM     31  O   UNL     1      55.440  47.730  43.475  1.00  0.00    -0.550 OA
ATOM     32  O   UNL     1      53.718  46.242  43.579  1.00  0.00    -0.550 OA
ENDBRANCH   1  30
BRANCH  27  33
ATOM     33  O   UNL     1      52.542  40.215  48.494  1.00  0.00    -0.393 OA
ATOM     34  H   UNL     1      52.006  39.824  49.235  1.00  0.00     0.210 HD
ENDBRANCH  27  33
TORSDOF 2
ENDMDL
MODEL 8
REMARK VINA RESULT:    -6.064      2.773      6.595
REMARK INTER + INTRA:          -6.494
REMARK INTER:                  -6.549
REMARK INTRA:                   0.055
REMARK UNBOUND:                 0.102
REMARK SMILES C[C@@H]1[C@H](C)CC[C@]2(C(=O)[O-])CC[C@]3(C)C(=CC[C@@H]4[C@@]5(C)CC[C@@H](O)C(C)(C)[C@H]5CC[C@@]43C)[C@@H]12
REMARK SMILES IDX 7 1 6 2 11 3 33 4 5 5 12 6 15 7 2 8 3 9 13 10 16 11 1 12
REMARK SMILES IDX 4 13 14 14 31 15 17 16 18 17 30 18 32 19 19 20 29 21 28 22
REMARK SMILES IDX 21 23 20 24 25 25 22 26 23 27 26 28 27 29 8 30 9 31 10 32
REMARK SMILES IDX 24 33
REMARK H PARENT 24 34
REMARK Flexibility Score: inf
ROOT
ATOM      1  C   UNL     1      56.076  48.808  39.511  1.00  0.00     0.017 C 
ATOM      2  C   UNL     1      56.513  50.295  39.405  1.00  0.00     0.014 C 
ATOM      3  C   UNL     1      55.127  48.510  38.336  1.00  0.00     0.014 C 
ATOM      4  C   UNL     1      55.320  48.595  40.881  1.00  0.00     0.030 C 
ATOM      5  C   UNL     1      57.443  50.712  40.556  1.00  0.00     0.004 C 
ATOM      6  C   UNL     1      54.707  47.040  38.334  1.00  0.00     0.013 C 
ATOM      7  C   UNL     1      54.534  47.241  40.921  1.00  0.00    -0.063 C 
ATOM      8  C   UNL     1      56.342  48.946  42.052  1.00  0.00    -0.003 C 
ATOM      9  C   UNL     1      56.822  50.432  41.936  1.00  0.00    -0.011 C 
ATOM     10  C   UNL     1      53.945  46.597  39.637  1.00  0.00    -0.006 C 
ATOM     11  C   UNL     1      53.903  46.866  42.060  1.00  0.00    -0.027 C 
ATOM     12  C   UNL     1      55.940  48.648  43.511  1.00  0.00     0.008 C 
ATOM     13  C   UNL     1      55.750  51.493  42.281  1.00  0.00     0.008 C 
ATOM     14  C   UNL     1      52.518  47.247  39.471  1.00  0.00     0.017 C 
ATOM     15  C   UNL     1      53.872  44.967  39.785  1.00  0.00    -0.020 C 
ATOM     16  C   UNL     1      53.128  45.586  42.187  1.00  0.00     0.032 C 
ATOM     17  C   UNL     1      53.720  44.465  41.301  1.00  0.00     0.006 C 
ATOM     18  C   UNL     1      55.115  44.275  39.164  1.00  0.00     0.008 C 
ATOM     19  C   UNL     1      52.648  44.440  38.961  1.00  0.00     0.012 C 
ATOM     20  C   UNL     1      54.925  43.649  42.022  1.00  0.00    -0.025 C 
ATOM     21  C   UNL     1      55.298  42.825  39.601  1.00  0.00     0.005 C 
ATOM     22  C   UNL     1      55.844  42.789  41.034  1.00  0.00     0.003 C 
ATOM     23  C   UNL     1      54.275  42.712  43.102  1.00  0.00     0.010 C 
ATOM     24  C   UNL     1      55.866  44.638  42.768  1.00  0.00     0.012 C 
ATOM     25  C   UNL     1      56.233  41.325  41.522  1.00  0.00    -0.006 C 
ATOM     26  C   UNL     1      53.820  41.374  42.522  1.00  0.00     0.033 C 
ATOM     27  C   UNL     1      54.975  40.507  42.003  1.00  0.00     0.120 C 
ATOM     28  C   UNL     1      56.988  40.539  40.407  1.00  0.00     0.014 C 
ATOM     29  C   UNL     1      57.272  41.410  42.682  1.00  0.00     0.014 C 
ENDROOT
BRANCH   1  30
ATOM     30  C   UNL     1      57.318  47.919  39.360  1.00  0.00     0.048 C 
ATOM     31  O   UNL     1      58.104  48.090  38.390  1.00  0.00    -0.550 OA
ATOM     32  O   UNL     1      57.556  46.864  40.231  1.00  0.00    -0.550 OA
ENDBRANCH   1  30
BRANCH  27  33
ATOM     33  O   UNL     1      54.460  39.696  40.973  1.00  0.00    -0.393 OA
ATOM     34  H   UNL     1      54.927  38.820  41.022  1.00  0.00     0.210 HD
ENDBRANCH  27  33
TORSDOF 2
ENDMDL
