MODEL 1
REMARK VINA RESULT:    -3.988      0.000      0.000
REMARK INTER + INTRA:          -6.260
REMARK INTER:                  -5.620
REMARK INTRA:                  -0.640
REMARK UNBOUND:                -0.640
REMARK SMILES CCCCCCCCC(=O)[O-]
REMARK SMILES IDX 6 1 7 2 8 3 9 4 10 5 11 6 5 7 4 8 3 9 2 10 1 11
REMARK H PARENT
REMARK Flexibility Score: inf
ROOT
ATOM      1  C   UNL     1       8.377   2.211  -7.948  1.00  0.00     0.000 C 
ENDROOT
BRANCH   1   2
ATOM      2  C   UNL     1       9.344   2.095  -6.758  1.00  0.00     0.006 C 
BRANCH   2   3
ATOM      3  C   UNL     1       9.720   0.641  -6.443  1.00  0.00     0.053 C 
BRANCH   3   4
ATOM      4  C   UNL     1       9.231   0.260  -5.081  1.00  0.00     0.041 C 
ATOM      5  O   UNL     1       8.650   1.110  -4.356  1.00  0.00    -0.550 OA
ATOM      6  O   UNL     1       9.372  -1.047  -4.633  1.00  0.00    -0.550 OA
ENDBRANCH   3   4
ENDBRANCH   2   3
ENDBRANCH   1   2
BRANCH   1   7
ATOM      7  C   UNL     1       6.929   1.864  -7.569  1.00  0.00     0.000 C 
BRANCH   7   8
ATOM      8  C   UNL     1       6.136   3.130  -7.221  1.00  0.00    -0.000 C 
BRANCH   8   9
ATOM      9  C   UNL     1       5.898   3.232  -5.710  1.00  0.00    -0.000 C 
BRANCH   9  10
ATOM     10  C   UNL     1       6.756   4.343  -5.091  1.00  0.00    -0.003 C 
ATOM     11  C   UNL     1       6.631   5.641  -5.882  1.00  0.00     0.004 C 
ENDBRANCH   9  10
ENDBRANCH   8   9
ENDBRANCH   7   8
ENDBRANCH   1   7
TORSDOF 7
ENDMDL
MODEL 2
REMARK VINA RESULT:    -3.914      1.181      2.578
REMARK INTER + INTRA:          -6.156
REMARK INTER:                  -5.632
REMARK INTRA:                  -0.524
REMARK UNBOUND:                -0.640
REMARK SMILES CCCCCCCCC(=O)[O-]
REMARK SMILES IDX 6 1 7 2 8 3 9 4 10 5 11 6 5 7 4 8 3 9 2 10 1 11
REMARK H PARENT
REMARK Flexibility Score: inf
ROOT
ATOM      1  C   UNL     1       8.031   3.451  -4.232  1.00  0.00     0.000 C 
ENDROOT
BRANCH   1   2
ATOM      2  C   UNL     1       8.944   2.779  -5.271  1.00  0.00     0.006 C 
BRANCH   2   3
ATOM      3  C   UNL     1       9.683   1.558  -4.705  1.00  0.00     0.053 C 
BRANCH   3   4
ATOM      4  C   UNL     1       8.923   0.305  -5.002  1.00  0.00     0.041 C 
ATOM      5  O   UNL     1       7.801   0.364  -5.571  1.00  0.00    -0.550 OA
ATOM      6  O   UNL     1       9.476  -0.932  -4.696  1.00  0.00    -0.550 OA
ENDBRANCH   3   4
ENDBRANCH   2   3
ENDBRANCH   1   2
BRANCH   1   7
ATOM      7  C   UNL     1       6.922   4.296  -4.878  1.00  0.00     0.000 C 
BRANCH   7   8
ATOM      8  C   UNL     1       5.949   3.411  -5.667  1.00  0.00    -0.000 C 
BRANCH   8   9
ATOM      9  C   UNL     1       5.992   3.744  -7.163  1.00  0.00    -0.000 C 
BRANCH   9  10
ATOM     10  C   UNL     1       6.414   2.521  -7.987  1.00  0.00    -0.003 C 
ATOM     11  C   UNL     1       7.452   2.898  -9.040  1.00  0.00     0.004 C 
ENDBRANCH   9  10
ENDBRANCH   8   9
ENDBRANCH   7   8
ENDBRANCH   1   7
TORSDOF 7
ENDMDL
MODEL 3
REMARK VINA RESULT:    -3.787      1.070      1.529
REMARK INTER + INTRA:          -5.976
REMARK INTER:                  -5.139
REMARK INTRA:                  -0.838
REMARK UNBOUND:                -0.640
REMARK SMILES CCCCCCCCC(=O)[O-]
REMARK SMILES IDX 6 1 7 2 8 3 9 4 10 5 11 6 5 7 4 8 3 9 2 10 1 11
REMARK H PARENT
REMARK Flexibility Score: inf
ROOT
ATOM      1  C   UNL     1       8.030   2.848  -8.638  1.00  0.00     0.000 C 
ENDROOT
BRANCH   1   2
ATOM      2  C   UNL     1       8.113   1.487  -7.928  1.00  0.00     0.006 C 
BRANCH   2   3
ATOM      3  C   UNL     1       9.031   1.518  -6.699  1.00  0.00     0.053 C 
BRANCH   3   4
ATOM      4  C   UNL     1       8.351   0.890  -5.524  1.00  0.00     0.041 C 
ATOM      5  O   UNL     1       7.140   0.551  -5.599  1.00  0.00    -0.550 OA
ATOM      6  O   UNL     1       9.067   0.633  -4.361  1.00  0.00    -0.550 OA
ENDBRANCH   3   4
ENDBRANCH   2   3
ENDBRANCH   1   2
BRANCH   1   7
ATOM      7  C   UNL     1       7.321   3.916  -7.790  1.00  0.00     0.000 C 
BRANCH   7   8
ATOM      8  C   UNL     1       5.961   3.408  -7.296  1.00  0.00    -0.000 C 
BRANCH   8   9
ATOM      9  C   UNL     1       5.757   3.736  -5.812  1.00  0.00    -0.000 C 
BRANCH   9  10
ATOM     10  C   UNL     1       6.873   4.650  -5.292  1.00  0.00    -0.003 C 
ATOM     11  C   UNL     1       7.578   4.031  -4.090  1.00  0.00     0.004 C 
ENDBRANCH   9  10
ENDBRANCH   8   9
ENDBRANCH   7   8
ENDBRANCH   1   7
TORSDOF 7
ENDMDL
MODEL 4
REMARK VINA RESULT:    -3.749      1.732      2.929
REMARK INTER + INTRA:          -5.923
REMARK INTER:                  -5.335
REMARK INTRA:                  -0.588
REMARK UNBOUND:                -0.640
REMARK SMILES CCCCCCCCC(=O)[O-]
REMARK SMILES IDX 6 1 7 2 8 3 9 4 10 5 11 6 5 7 4 8 3 9 2 10 1 11
REMARK H PARENT
REMARK Flexibility Score: inf
ROOT
ATOM      1  C   UNL     1       7.455   4.163  -4.240  1.00  0.00     0.000 C 
ENDROOT
BRANCH   1   2
ATOM      2  C   UNL     1       8.555   3.101  -4.402  1.00  0.00     0.006 C 
BRANCH   2   3
ATOM      3  C   UNL     1       8.427   2.313  -5.713  1.00  0.00     0.053 C 
BRANCH   3   4
ATOM      4  C   UNL     1       7.938   0.926  -5.441  1.00  0.00     0.041 C 
ATOM      5  O   UNL     1       6.757   0.601  -5.732  1.00  0.00    -0.550 OA
ATOM      6  O   UNL     1       8.803  -0.024  -4.910  1.00  0.00    -0.550 OA
ENDBRANCH   3   4
ENDBRANCH   2   3
ENDBRANCH   1   2
BRANCH   1   7
ATOM      7  C   UNL     1       6.628   4.358  -5.521  1.00  0.00     0.000 C 
BRANCH   7   8
ATOM      8  C   UNL     1       6.577   5.838  -5.919  1.00  0.00    -0.000 C 
BRANCH   8   9
ATOM      9  C   UNL     1       6.618   5.999  -7.443  1.00  0.00    -0.000 C 
BRANCH   9  10
ATOM     10  C   UNL     1       7.730   5.141  -8.059  1.00  0.00    -0.003 C 
ATOM     11  C   UNL     1       7.184   4.238  -9.159  1.00  0.00     0.004 C 
ENDBRANCH   9  10
ENDBRANCH   8   9
ENDBRANCH   7   8
ENDBRANCH   1   7
TORSDOF 7
ENDMDL
MODEL 5
REMARK VINA RESULT:    -3.648     16.196     17.270
REMARK INTER + INTRA:          -5.781
REMARK INTER:                  -5.044
REMARK INTRA:                  -0.736
REMARK UNBOUND:                -0.640
REMARK SMILES CCCCCCCCC(=O)[O-]
REMARK SMILES IDX 6 1 7 2 8 3 9 4 10 5 11 6 5 7 4 8 3 9 2 10 1 11
REMARK H PARENT
REMARK Flexibility Score: inf
ROOT
ATOM      1  C   UNL     1      -5.408  12.505  -6.725  1.00  0.00     0.000 C 
ENDROOT
BRANCH   1   2
ATOM      2  C   UNL     1      -6.766  12.221  -6.063  1.00  0.00     0.006 C 
BRANCH   2   3
ATOM      3  C   UNL     1      -6.710  11.042  -5.082  1.00  0.00     0.053 C 
BRANCH   3   4
ATOM      4  C   UNL     1      -7.853  10.108  -5.326  1.00  0.00     0.041 C 
ATOM      5  O   UNL     1      -8.185   9.805  -6.502  1.00  0.00    -0.550 OA
ATOM      6  O   UNL     1      -8.520   9.531  -4.251  1.00  0.00    -0.550 OA
ENDBRANCH   3   4
ENDBRANCH   2   3
ENDBRANCH   1   2
BRANCH   1   7
ATOM      7  C   UNL     1      -4.238  11.841  -5.983  1.00  0.00     0.000 C 
BRANCH   7   8
ATOM      8  C   UNL     1      -3.435  12.877  -5.187  1.00  0.00    -0.000 C 
BRANCH   8   9
ATOM      9  C   UNL     1      -3.708  12.748  -3.684  1.00  0.00    -0.000 C 
BRANCH   9  10
ATOM     10  C   UNL     1      -4.362  14.020  -3.132  1.00  0.00    -0.003 C 
ATOM     11  C   UNL     1      -5.797  13.754  -2.688  1.00  0.00     0.004 C 
ENDBRANCH   9  10
ENDBRANCH   8   9
ENDBRANCH   7   8
ENDBRANCH   1   7
TORSDOF 7
ENDMDL
MODEL 6
REMARK VINA RESULT:    -3.619     14.020     15.857
REMARK INTER + INTRA:          -5.739
REMARK INTER:                  -5.325
REMARK INTRA:                  -0.414
REMARK UNBOUND:                -0.640
REMARK SMILES CCCCCCCCC(=O)[O-]
REMARK SMILES IDX 6 1 7 2 8 3 9 4 10 5 11 6 5 7 4 8 3 9 2 10 1 11
REMARK H PARENT
REMARK Flexibility Score: inf
ROOT
ATOM      1  C   UNL     1      -2.980  13.618  -5.789  1.00  0.00     0.000 C 
ENDROOT
BRANCH   1   2
ATOM      2  C   UNL     1      -2.123  13.122  -6.965  1.00  0.00     0.006 C 
BRANCH   2   3
ATOM      3  C   UNL     1      -2.719  11.885  -7.649  1.00  0.00     0.053 C 
BRANCH   3   4
ATOM      4  C   UNL     1      -1.972  11.575  -8.908  1.00  0.00     0.041 C 
ATOM      5  O   UNL     1      -0.714  11.523  -8.903  1.00  0.00    -0.550 OA
ATOM      6  O   UNL     1      -2.669  11.295 -10.078  1.00  0.00    -0.550 OA
ENDBRANCH   3   4
ENDBRANCH   2   3
ENDBRANCH   1   2
BRANCH   1   7
ATOM      7  C   UNL     1      -4.473  13.302  -5.970  1.00  0.00     0.000 C 
BRANCH   7   8
ATOM      8  C   UNL     1      -5.010  12.496  -4.782  1.00  0.00    -0.000 C 
BRANCH   8   9
ATOM      9  C   UNL     1      -4.185  12.763  -3.518  1.00  0.00    -0.000 C 
BRANCH   9  10
ATOM     10  C   UNL     1      -4.920  13.720  -2.572  1.00  0.00    -0.003 C 
ATOM     11  C   UNL     1      -6.413  13.758  -2.878  1.00  0.00     0.004 C 
ENDBRANCH   9  10
ENDBRANCH   8   9
ENDBRANCH   7   8
ENDBRANCH   1   7
TORSDOF 7
ENDMDL
MODEL 7
REMARK VINA RESULT:    -3.604     15.788     17.771
REMARK INTER + INTRA:          -5.719
REMARK INTER:                  -5.028
REMARK INTRA:                  -0.692
REMARK UNBOUND:                -0.640
REMARK SMILES CCCCCCCCC(=O)[O-]
REMARK SMILES IDX 6 1 7 2 8 3 9 4 10 5 11 6 5 7 4 8 3 9 2 10 1 11
REMARK H PARENT
REMARK Flexibility Score: inf
ROOT
ATOM      1  C   UNL     1      -6.124  14.090  -3.593  1.00  0.00     0.000 C 
ENDROOT
BRANCH   1   2
ATOM      2  C   UNL     1      -4.792  13.783  -2.890  1.00  0.00     0.006 C 
BRANCH   2   3
ATOM      3  C   UNL     1      -4.189  12.441  -3.328  1.00  0.00     0.053 C 
BRANCH   3   4
ATOM      4  C   UNL     1      -3.680  12.533  -4.732  1.00  0.00     0.041 C 
ATOM      5  O   UNL     1      -4.064  11.706  -5.601  1.00  0.00    -0.550 OA
ATOM      6  O   UNL     1      -2.819  13.562  -5.093  1.00  0.00    -0.550 OA
ENDBRANCH   3   4
ENDBRANCH   2   3
ENDBRANCH   1   2
BRANCH   1   7
ATOM      7  C   UNL     1      -7.344  13.782  -2.711  1.00  0.00     0.000 C 
BRANCH   7   8
ATOM      8  C   UNL     1      -8.309  12.828  -3.426  1.00  0.00    -0.000 C 
BRANCH   8   9
ATOM      9  C   UNL     1      -7.652  12.205  -4.663  1.00  0.00    -0.000 C 
BRANCH   9  10
ATOM     10  C   UNL     1      -7.491  10.689  -4.496  1.00  0.00    -0.003 C 
ATOM     11  C   UNL     1      -8.706  10.078  -3.805  1.00  0.00     0.004 C 
ENDBRANCH   9  10
ENDBRANCH   8   9
ENDBRANCH   7   8
ENDBRANCH   1   7
TORSDOF 7
ENDMDL
MODEL 8
REMARK VINA RESULT:    -3.563      1.828      3.195
REMARK INTER + INTRA:          -5.660
REMARK INTER:                  -5.199
REMARK INTRA:                  -0.462
REMARK UNBOUND:                -0.640
REMARK SMILES CCCCCCCCC(=O)[O-]
REMARK SMILES IDX 6 1 7 2 8 3 9 4 10 5 11 6 5 7 4 8 3 9 2 10 1 11
REMARK H PARENT
REMARK Flexibility Score: inf
ROOT
ATOM      1  C   UNL     1       6.290   4.111  -5.696  1.00  0.00     0.000 C 
ENDROOT
BRANCH   1   2
ATOM      2  C   UNL     1       7.442   3.629  -4.799  1.00  0.00     0.006 C 
BRANCH   2   3
ATOM      3  C   UNL     1       8.432   2.725  -5.546  1.00  0.00     0.053 C 
BRANCH   3   4
ATOM      4  C   UNL     1       8.151   1.286  -5.247  1.00  0.00     0.041 C 
ATOM      5  O   UNL     1       8.954   0.615  -4.548  1.00  0.00    -0.550 OA
ATOM      6  O   UNL     1       6.975   0.699  -5.700  1.00  0.00    -0.550 OA
ENDBRANCH   3   4
ENDBRANCH   2   3
ENDBRANCH   1   2
BRANCH   1   7
ATOM      7  C   UNL     1       6.654   5.364  -6.506  1.00  0.00     0.000 C 
BRANCH   7   8
ATOM      8  C   UNL     1       6.417   5.137  -8.003  1.00  0.00    -0.000 C 
BRANCH   8   9
ATOM      9  C   UNL     1       6.137   3.658  -8.298  1.00  0.00    -0.000 C 
BRANCH   9  10
ATOM     10  C   UNL     1       4.849   3.494  -9.114  1.00  0.00    -0.003 C 
ATOM     11  C   UNL     1       4.841   4.421 -10.324  1.00  0.00     0.004 C 
ENDBRANCH   9  10
ENDBRANCH   8   9
ENDBRANCH   7   8
ENDBRANCH   1   7
TORSDOF 7
ENDMDL
MODEL 9
REMARK VINA RESULT:    -3.546      2.201      3.642
REMARK INTER + INTRA:          -5.636
REMARK INTER:                  -5.177
REMARK INTRA:                  -0.459
REMARK UNBOUND:                -0.640
REMARK SMILES CCCCCCCCC(=O)[O-]
REMARK SMILES IDX 6 1 7 2 8 3 9 4 10 5 11 6 5 7 4 8 3 9 2 10 1 11
REMARK H PARENT
REMARK Flexibility Score: inf
ROOT
ATOM      1  C   UNL     1       6.049   3.333  -6.920  1.00  0.00     0.000 C 
ENDROOT
BRANCH   1   2
ATOM      2  C   UNL     1       6.219   2.899  -5.455  1.00  0.00     0.006 C 
BRANCH   2   3
ATOM      3  C   UNL     1       7.419   3.571  -4.775  1.00  0.00     0.053 C 
BRANCH   3   4
ATOM      4  C   UNL     1       8.612   2.671  -4.814  1.00  0.00     0.041 C 
ATOM      5  O   UNL     1       9.620   2.984  -5.501  1.00  0.00    -0.550 OA
ATOM      6  O   UNL     1       8.632   1.509  -4.053  1.00  0.00    -0.550 OA
ENDBRANCH   3   4
ENDBRANCH   2   3
ENDBRANCH   1   2
BRANCH   1   7
ATOM      7  C   UNL     1       6.699   4.695  -7.212  1.00  0.00     0.000 C 
BRANCH   7   8
ATOM      8  C   UNL     1       6.241   5.240  -8.570  1.00  0.00    -0.000 C 
BRANCH   8   9
ATOM      9  C   UNL     1       5.796   4.103  -9.498  1.00  0.00    -0.000 C 
BRANCH   9  10
ATOM     10  C   UNL     1       4.392   4.366 -10.057  1.00  0.00    -0.003 C 
ATOM     11  C   UNL     1       3.419   3.269  -9.641  1.00  0.00     0.004 C 
ENDBRANCH   9  10
ENDBRANCH   8   9
ENDBRANCH   7   8
ENDBRANCH   1   7
TORSDOF 7
ENDMDL
