MODEL 1
REMARK VINA RESULT:    -6.281      0.000      0.000
REMARK INTER + INTRA:          -8.070
REMARK INTER:                  -7.750
REMARK INTRA:                  -0.320
REMARK UNBOUND:                -0.320
REMARK SMILES O=c1c(O)c(-c2cc(O)c(O)c(O)c2)oc2cc(O)cc(O)c12
REMARK SMILES IDX 5 1 3 2 2 3 1 4 23 5 21 6 20 7 18 8 17 9 16 10 15 11 6 12
REMARK SMILES IDX 7 13 8 14 14 15 10 16 12 17 9 18 11 20 13 22 4 24 22 26
REMARK SMILES IDX 19 28
REMARK H PARENT 9 19 11 21 13 23 4 25 22 27 19 29
REMARK Flexibility Score: inf
ROOT
ATOM      1  C   UNL     1      -2.924  52.133  11.933  1.00  0.00     0.180 A 
ATOM      2  C   UNL     1      -3.294  53.443  11.579  1.00  0.00     0.208 A 
ATOM      3  C   UNL     1      -3.373  53.784  10.220  1.00  0.00     0.238 A 
ATOM      4  O   UNL     1      -3.757  54.942   9.910  1.00  0.00    -0.285 OA
ATOM      5  C   UNL     1      -3.066  52.819   9.231  1.00  0.00     0.111 A 
ATOM      6  C   UNL     1      -3.075  53.067   7.826  1.00  0.00     0.134 A 
ATOM      7  C   UNL     1      -2.882  52.002   6.936  1.00  0.00     0.093 A 
ATOM      8  C   UNL     1      -2.616  50.715   7.400  1.00  0.00     0.123 A 
ATOM      9  C   UNL     1      -2.546  50.472   8.772  1.00  0.00     0.094 A 
ATOM     10  C   UNL     1      -2.771  51.506   9.685  1.00  0.00     0.146 A 
ATOM     11  O   UNL     1      -2.705  51.232  10.982  1.00  0.00    -0.452 OA
ENDROOT
BRANCH   1  12
ATOM     12  C   UNL     1      -2.793  51.705  13.345  1.00  0.00     0.029 A 
ATOM     13  C   UNL     1      -1.535  51.572  13.955  1.00  0.00     0.062 A 
ATOM     14  C   UNL     1      -1.431  51.144  15.286  1.00  0.00     0.162 A 
ATOM     15  C   UNL     1      -3.945  51.371  14.074  1.00  0.00     0.062 A 
ATOM     16  C   UNL     1      -2.592  50.833  16.016  1.00  0.00     0.200 A 
ATOM     17  C   UNL     1      -3.851  50.945  15.402  1.00  0.00     0.162 A 
BRANCH  14  18
ATOM     18  O   UNL     1      -0.178  51.021  15.885  1.00  0.00    -0.504 OA
ATOM     19  H   UNL     1       0.502  51.772  15.852  1.00  0.00     0.293 HD
ENDBRANCH  14  18
BRANCH  16  20
ATOM     20  O   UNL     1      -2.506  50.409  17.342  1.00  0.00    -0.502 OA
ATOM     21  H   UNL     1      -3.323  50.314  17.933  1.00  0.00     0.293 HD
ENDBRANCH  16  20
BRANCH  17  22
ATOM     22  O   UNL     1      -5.021  50.635  16.096  1.00  0.00    -0.504 OA
ATOM     23  H   UNL     1      -5.694  51.344  16.358  1.00  0.00     0.293 HD
ENDBRANCH  17  22
ENDBRANCH   1  12
BRANCH   2  24
ATOM     24  O   UNL     1      -3.613  54.374  12.571  1.00  0.00    -0.502 OA
ATOM     25  H   UNL     1      -3.252  55.321  12.565  1.00  0.00     0.293 HD
ENDBRANCH   2  24
BRANCH   6  26
ATOM     26  O   UNL     1      -3.239  54.333   7.258  1.00  0.00    -0.507 OA
ATOM     27  H   UNL     1      -3.303  54.516   6.269  1.00  0.00     0.293 HD
ENDBRANCH   6  26
BRANCH   8  28
ATOM     28  O   UNL     1      -2.413  49.683   6.485  1.00  0.00    -0.508 OA
ATOM     29  H   UNL     1      -2.498  48.711   6.757  1.00  0.00     0.293 HD
ENDBRANCH   8  28
TORSDOF 7
ENDMDL
MODEL 2
REMARK VINA RESULT:    -6.273      0.099      1.758
REMARK INTER + INTRA:          -8.060
REMARK INTER:                  -7.740
REMARK INTRA:                  -0.320
REMARK UNBOUND:                -0.320
REMARK SMILES O=c1c(O)c(-c2cc(O)c(O)c(O)c2)oc2cc(O)cc(O)c12
REMARK SMILES IDX 5 1 3 2 2 3 1 4 23 5 21 6 20 7 18 8 17 9 16 10 15 11 6 12
REMARK SMILES IDX 7 13 8 14 14 15 10 16 12 17 9 18 11 20 13 22 4 24 22 26
REMARK SMILES IDX 19 28
REMARK H PARENT 9 19 11 21 13 23 4 25 22 27 19 29
REMARK Flexibility Score: inf
ROOT
ATOM      1  C   UNL     1      -2.978  52.101  11.859  1.00  0.00     0.180 A 
ATOM      2  C   UNL     1      -3.325  53.422  11.524  1.00  0.00     0.208 A 
ATOM      3  C   UNL     1      -3.369  53.792  10.171  1.00  0.00     0.238 A 
ATOM      4  O   UNL     1      -3.732  54.960   9.876  1.00  0.00    -0.285 OA
ATOM      5  C   UNL     1      -3.050  52.843   9.170  1.00  0.00     0.111 A 
ATOM      6  C   UNL     1      -3.023  53.120   7.770  1.00  0.00     0.134 A 
ATOM      7  C   UNL     1      -2.821  52.072   6.863  1.00  0.00     0.093 A 
ATOM      8  C   UNL     1      -2.582  50.772   7.305  1.00  0.00     0.123 A 
ATOM      9  C   UNL     1      -2.547  50.501   8.674  1.00  0.00     0.094 A 
ATOM     10  C   UNL     1      -2.780  51.518   9.602  1.00  0.00     0.146 A 
ATOM     11  O   UNL     1      -2.748  51.217  10.895  1.00  0.00    -0.452 OA
ENDROOT
BRANCH   1  12
ATOM     12  C   UNL     1      -2.886  51.642  13.264  1.00  0.00     0.029 A 
ATOM     13  C   UNL     1      -4.036  51.336  14.011  1.00  0.00     0.062 A 
ATOM     14  C   UNL     1      -3.929  50.925  15.347  1.00  0.00     0.162 A 
ATOM     15  C   UNL     1      -1.629  51.566  13.884  1.00  0.00     0.062 A 
ATOM     16  C   UNL     1      -2.664  50.830  15.953  1.00  0.00     0.200 A 
ATOM     17  C   UNL     1      -1.513  51.156  15.216  1.00  0.00     0.162 A 
BRANCH  14  18
ATOM     18  O   UNL     1      -5.076  50.617  16.077  1.00  0.00    -0.504 OA
ATOM     19  H   UNL     1      -5.342  51.149  16.898  1.00  0.00     0.293 HD
ENDBRANCH  14  18
BRANCH  16  20
ATOM     20  O   UNL     1      -2.540  50.420  17.280  1.00  0.00    -0.502 OA
ATOM     21  H   UNL     1      -2.855  50.991  18.055  1.00  0.00     0.293 HD
ENDBRANCH  16  20
BRANCH  17  22
ATOM     22  O   UNL     1      -0.244  51.081  15.791  1.00  0.00    -0.504 OA
ATOM     23  H   UNL     1       0.393  50.319  15.590  1.00  0.00     0.293 HD
ENDBRANCH  17  22
ENDBRANCH   1  12
BRANCH   2  24
ATOM     24  O   UNL     1      -3.656  54.336  12.528  1.00  0.00    -0.502 OA
ATOM     25  H   UNL     1      -3.703  55.334  12.360  1.00  0.00     0.293 HD
ENDBRANCH   2  24
BRANCH   6  26
ATOM     26  O   UNL     1      -3.159  54.400   7.225  1.00  0.00    -0.507 OA
ATOM     27  H   UNL     1      -2.937  55.257   7.708  1.00  0.00     0.293 HD
ENDBRANCH   6  26
BRANCH   8  28
ATOM     28  O   UNL     1      -2.370  49.757   6.374  1.00  0.00    -0.508 OA
ATOM     29  H   UNL     1      -1.747  49.883   5.586  1.00  0.00     0.293 HD
ENDBRANCH   8  28
TORSDOF 7
ENDMDL
MODEL 3
REMARK VINA RESULT:    -6.095      1.478      7.170
REMARK INTER + INTRA:          -7.840
REMARK INTER:                  -7.670
REMARK INTRA:                  -0.170
REMARK UNBOUND:                -0.320
REMARK SMILES O=c1c(O)c(-c2cc(O)c(O)c(O)c2)oc2cc(O)cc(O)c12
REMARK SMILES IDX 5 1 3 2 2 3 1 4 23 5 21 6 20 7 18 8 17 9 16 10 15 11 6 12
REMARK SMILES IDX 7 13 8 14 14 15 10 16 12 17 9 18 11 20 13 22 4 24 22 26
REMARK SMILES IDX 19 28
REMARK H PARENT 9 19 11 21 13 23 4 25 22 27 19 29
REMARK Flexibility Score: inf
ROOT
ATOM      1  C   UNL     1      -2.266  51.588  11.084  1.00  0.00     0.180 A 
ATOM      2  C   UNL     1      -0.927  51.892  11.384  1.00  0.00     0.208 A 
ATOM      3  C   UNL     1      -0.533  51.976  12.729  1.00  0.00     0.238 A 
ATOM      4  O   UNL     1       0.679  52.196  12.990  1.00  0.00    -0.285 OA
ATOM      5  C   UNL     1      -1.484  51.772  13.757  1.00  0.00     0.111 A 
ATOM      6  C   UNL     1      -1.204  51.873  15.153  1.00  0.00     0.134 A 
ATOM      7  C   UNL     1      -2.191  51.521  16.082  1.00  0.00     0.093 A 
ATOM      8  C   UNL     1      -3.465  51.136  15.669  1.00  0.00     0.123 A 
ATOM      9  C   UNL     1      -3.769  51.091  14.307  1.00  0.00     0.094 A 
ATOM     10  C   UNL     1      -2.794  51.401  13.355  1.00  0.00     0.146 A 
ATOM     11  O   UNL     1      -3.120  51.337  12.070  1.00  0.00    -0.452 OA
ENDROOT
BRANCH   1  12
ATOM     12  C   UNL     1      -2.763  51.507   9.691  1.00  0.00     0.029 A 
ATOM     13  C   UNL     1      -3.761  52.376   9.219  1.00  0.00     0.062 A 
ATOM     14  C   UNL     1      -4.235  52.269   7.904  1.00  0.00     0.162 A 
ATOM     15  C   UNL     1      -2.269  50.506   8.840  1.00  0.00     0.062 A 
ATOM     16  C   UNL     1      -3.718  51.278   7.051  1.00  0.00     0.200 A 
ATOM     17  C   UNL     1      -2.735  50.394   7.525  1.00  0.00     0.162 A 
BRANCH  14  18
ATOM     18  O   UNL     1      -5.221  53.140   7.444  1.00  0.00    -0.504 OA
ATOM     19  H   UNL     1      -5.300  54.086   7.798  1.00  0.00     0.293 HD
ENDBRANCH  14  18
BRANCH  16  20
ATOM     20  O   UNL     1      -4.176  51.160   5.738  1.00  0.00    -0.502 OA
ATOM     21  H   UNL     1      -4.294  51.964   5.133  1.00  0.00     0.293 HD
ENDBRANCH  16  20
BRANCH  17  22
ATOM     22  O   UNL     1      -2.208  49.394   6.707  1.00  0.00    -0.504 OA
ATOM     23  H   UNL     1      -2.799  48.736   6.214  1.00  0.00     0.293 HD
ENDBRANCH  17  22
ENDBRANCH   1  12
BRANCH   2  24
ATOM     24  O   UNL     1       0.001  52.070  10.354  1.00  0.00    -0.502 OA
ATOM     25  H   UNL     1       0.979  52.263  10.530  1.00  0.00     0.293 HD
ENDBRANCH   2  24
BRANCH   6  26
ATOM     26  O   UNL     1       0.008  52.335  15.674  1.00  0.00    -0.507 OA
ATOM     27  H   UNL     1       0.445  53.208  15.424  1.00  0.00     0.293 HD
ENDBRANCH   6  26
BRANCH   8  28
ATOM     28  O   UNL     1      -4.428  50.809  16.622  1.00  0.00    -0.508 OA
ATOM     29  H   UNL     1      -4.286  50.051  17.279  1.00  0.00     0.293 HD
ENDBRANCH   8  28
TORSDOF 7
ENDMDL
MODEL 4
REMARK VINA RESULT:    -6.060      1.470      7.062
REMARK INTER + INTRA:          -7.798
REMARK INTER:                  -7.644
REMARK INTRA:                  -0.153
REMARK UNBOUND:                -0.320
REMARK SMILES O=c1c(O)c(-c2cc(O)c(O)c(O)c2)oc2cc(O)cc(O)c12
REMARK SMILES IDX 5 1 3 2 2 3 1 4 23 5 21 6 20 7 18 8 17 9 16 10 15 11 6 12
REMARK SMILES IDX 7 13 8 14 14 15 10 16 12 17 9 18 11 20 13 22 4 24 22 26
REMARK SMILES IDX 19 28
REMARK H PARENT 9 19 11 21 13 23 4 25 22 27 19 29
REMARK Flexibility Score: inf
ROOT
ATOM      1  C   UNL     1      -2.257  51.536  11.042  1.00  0.00     0.180 A 
ATOM      2  C   UNL     1      -0.911  51.832  11.322  1.00  0.00     0.208 A 
ATOM      3  C   UNL     1      -0.498  51.919  12.660  1.00  0.00     0.238 A 
ATOM      4  O   UNL     1       0.718  52.131  12.905  1.00  0.00    -0.285 OA
ATOM      5  C   UNL     1      -1.437  51.727  13.702  1.00  0.00     0.111 A 
ATOM      6  C   UNL     1      -1.137  51.832  15.094  1.00  0.00     0.134 A 
ATOM      7  C   UNL     1      -2.114  51.493  16.038  1.00  0.00     0.093 A 
ATOM      8  C   UNL     1      -3.397  51.116  15.644  1.00  0.00     0.123 A 
ATOM      9  C   UNL     1      -3.719  51.067  14.287  1.00  0.00     0.094 A 
ATOM     10  C   UNL     1      -2.756  51.365  13.321  1.00  0.00     0.146 A 
ATOM     11  O   UNL     1      -3.099  51.296  12.040  1.00  0.00    -0.452 OA
ENDROOT
BRANCH   1  12
ATOM     12  C   UNL     1      -2.773  51.452   9.656  1.00  0.00     0.029 A 
ATOM     13  C   UNL     1      -2.273  50.507   8.745  1.00  0.00     0.062 A 
ATOM     14  C   UNL     1      -2.758  50.458   7.430  1.00  0.00     0.162 A 
ATOM     15  C   UNL     1      -3.741  52.372   9.223  1.00  0.00     0.062 A 
ATOM     16  C   UNL     1      -3.744  51.368   7.013  1.00  0.00     0.200 A 
ATOM     17  C   UNL     1      -4.232  52.329   7.914  1.00  0.00     0.162 A 
BRANCH  14  18
ATOM     18  O   UNL     1      -2.259  49.512   6.536  1.00  0.00    -0.504 OA
ATOM     19  H   UNL     1      -1.418  49.683   5.997  1.00  0.00     0.293 HD
ENDBRANCH  14  18
BRANCH  16  20
ATOM     20  O   UNL     1      -4.240  51.331   5.709  1.00  0.00    -0.502 OA
ATOM     21  H   UNL     1      -4.496  50.464   5.252  1.00  0.00     0.293 HD
ENDBRANCH  16  20
BRANCH  17  22
ATOM     22  O   UNL     1      -5.204  53.253   7.528  1.00  0.00    -0.504 OA
ATOM     23  H   UNL     1      -5.189  53.701   6.621  1.00  0.00     0.293 HD
ENDBRANCH  17  22
ENDBRANCH   1  12
BRANCH   2  24
ATOM     24  O   UNL     1       0.004  51.997  10.278  1.00  0.00    -0.502 OA
ATOM     25  H   UNL     1       0.998  51.846  10.398  1.00  0.00     0.293 HD
ENDBRANCH   2  24
BRANCH   6  26
ATOM     26  O   UNL     1       0.085  52.287  15.596  1.00  0.00    -0.507 OA
ATOM     27  H   UNL     1       0.317  52.348  16.575  1.00  0.00     0.293 HD
ENDBRANCH   6  26
BRANCH   8  28
ATOM     28  O   UNL     1      -4.350  50.801  16.612  1.00  0.00    -0.508 OA
ATOM     29  H   UNL     1      -4.222  50.021  17.245  1.00  0.00     0.293 HD
ENDBRANCH   8  28
TORSDOF 7
ENDMDL
MODEL 5
REMARK VINA RESULT:    -5.986      2.834      5.710
REMARK INTER + INTRA:          -7.706
REMARK INTER:                  -7.353
REMARK INTRA:                  -0.353
REMARK UNBOUND:                -0.320
REMARK SMILES O=c1c(O)c(-c2cc(O)c(O)c(O)c2)oc2cc(O)cc(O)c12
REMARK SMILES IDX 5 1 3 2 2 3 1 4 23 5 21 6 20 7 18 8 17 9 16 10 15 11 6 12
REMARK SMILES IDX 7 13 8 14 14 15 10 16 12 17 9 18 11 20 13 22 4 24 22 26
REMARK SMILES IDX 19 28
REMARK H PARENT 9 19 11 21 13 23 4 25 22 27 19 29
REMARK Flexibility Score: inf
ROOT
ATOM      1  C   UNL     1      -4.378  51.617  15.112  1.00  0.00     0.180 A 
ATOM      2  C   UNL     1      -3.394  51.402  16.092  1.00  0.00     0.208 A 
ATOM      3  C   UNL     1      -2.050  51.315  15.700  1.00  0.00     0.238 A 
ATOM      4  O   UNL     1      -1.169  51.176  16.589  1.00  0.00    -0.285 OA
ATOM      5  C   UNL     1      -1.705  51.428  14.332  1.00  0.00     0.111 A 
ATOM      6  C   UNL     1      -0.379  51.315  13.817  1.00  0.00     0.134 A 
ATOM      7  C   UNL     1      -0.140  51.575  12.462  1.00  0.00     0.093 A 
ATOM      8  C   UNL     1      -1.185  51.878  11.591  1.00  0.00     0.123 A 
ATOM      9  C   UNL     1      -2.494  51.932  12.071  1.00  0.00     0.094 A 
ATOM     10  C   UNL     1      -2.760  51.714  13.425  1.00  0.00     0.146 A 
ATOM     11  O   UNL     1      -4.018  51.784  13.844  1.00  0.00    -0.452 OA
ENDROOT
BRANCH   1  12
ATOM     12  C   UNL     1      -5.819  51.695  15.445  1.00  0.00     0.029 A 
ATOM     13  C   UNL     1      -6.443  52.925  15.715  1.00  0.00     0.062 A 
ATOM     14  C   UNL     1      -7.803  52.975  16.051  1.00  0.00     0.162 A 
ATOM     15  C   UNL     1      -6.568  50.512  15.550  1.00  0.00     0.062 A 
ATOM     16  C   UNL     1      -8.550  51.787  16.131  1.00  0.00     0.200 A 
ATOM     17  C   UNL     1      -7.926  50.553  15.882  1.00  0.00     0.162 A 
BRANCH  14  18
ATOM     18  O   UNL     1      -8.413  54.201  16.310  1.00  0.00    -0.504 OA
ATOM     19  H   UNL     1      -7.960  54.910  16.876  1.00  0.00     0.293 HD
ENDBRANCH  14  18
BRANCH  16  20
ATOM     20  O   UNL     1      -9.905  51.820  16.460  1.00  0.00    -0.502 OA
ATOM     21  H   UNL     1     -10.452  52.672  16.415  1.00  0.00     0.293 HD
ENDBRANCH  16  20
BRANCH  17  22
ATOM     22  O   UNL     1      -8.637  49.356  15.963  1.00  0.00    -0.504 OA
ATOM     23  H   UNL     1      -9.420  49.154  15.353  1.00  0.00     0.293 HD
ENDBRANCH  17  22
ENDBRANCH   1  12
BRANCH   2  24
ATOM     24  O   UNL     1      -3.754  51.314  17.440  1.00  0.00    -0.502 OA
ATOM     25  H   UNL     1      -4.708  51.150  17.739  1.00  0.00     0.293 HD
ENDBRANCH   2  24
BRANCH   6  26
ATOM     26  O   UNL     1       0.725  50.929  14.583  1.00  0.00    -0.507 OA
ATOM     27  H   UNL     1       1.654  51.306  14.483  1.00  0.00     0.293 HD
ENDBRANCH   6  26
BRANCH   8  28
ATOM     28  O   UNL     1      -0.912  52.114  10.244  1.00  0.00    -0.508 OA
ATOM     29  H   UNL     1      -0.224  51.569   9.741  1.00  0.00     0.293 HD
ENDBRANCH   8  28
TORSDOF 7
ENDMDL
MODEL 6
REMARK VINA RESULT:    -5.425      1.579      3.019
REMARK INTER + INTRA:          -7.013
REMARK INTER:                  -6.680
REMARK INTRA:                  -0.333
REMARK UNBOUND:                -0.320
REMARK SMILES O=c1c(O)c(-c2cc(O)c(O)c(O)c2)oc2cc(O)cc(O)c12
REMARK SMILES IDX 5 1 3 2 2 3 1 4 23 5 21 6 20 7 18 8 17 9 16 10 15 11 6 12
REMARK SMILES IDX 7 13 8 14 14 15 10 16 12 17 9 18 11 20 13 22 4 24 22 26
REMARK SMILES IDX 19 28
REMARK H PARENT 9 19 11 21 13 23 4 25 22 27 19 29
REMARK Flexibility Score: inf
ROOT
ATOM      1  C   UNL     1      -1.953  52.302  11.953  1.00  0.00     0.180 A 
ATOM      2  C   UNL     1      -1.321  51.585  10.922  1.00  0.00     0.208 A 
ATOM      3  C   UNL     1      -1.659  51.867   9.589  1.00  0.00     0.238 A 
ATOM      4  O   UNL     1      -1.050  51.260   8.670  1.00  0.00    -0.285 OA
ATOM      5  C   UNL     1      -2.636  52.851   9.303  1.00  0.00     0.111 A 
ATOM      6  C   UNL     1      -3.085  53.190   7.991  1.00  0.00     0.134 A 
ATOM      7  C   UNL     1      -3.960  54.269   7.819  1.00  0.00     0.093 A 
ATOM      8  C   UNL     1      -4.453  54.979   8.913  1.00  0.00     0.123 A 
ATOM      9  C   UNL     1      -4.068  54.618  10.205  1.00  0.00     0.094 A 
ATOM     10  C   UNL     1      -3.167  53.569  10.406  1.00  0.00     0.146 A 
ATOM     11  O   UNL     1      -2.818  53.263  11.650  1.00  0.00    -0.452 OA
ENDROOT
BRANCH   1  12
ATOM     12  C   UNL     1      -1.668  52.042  13.383  1.00  0.00     0.029 A 
ATOM     13  C   UNL     1      -0.539  52.591  14.015  1.00  0.00     0.062 A 
ATOM     14  C   UNL     1      -0.273  52.315  15.363  1.00  0.00     0.162 A 
ATOM     15  C   UNL     1      -2.509  51.186  14.110  1.00  0.00     0.062 A 
ATOM     16  C   UNL     1      -1.134  51.474  16.090  1.00  0.00     0.200 A 
ATOM     17  C   UNL     1      -2.253  50.907  15.456  1.00  0.00     0.162 A 
BRANCH  14  18
ATOM     18  O   UNL     1       0.846  52.870  15.983  1.00  0.00    -0.504 OA
ATOM     19  H   UNL     1       1.459  53.511  15.493  1.00  0.00     0.293 HD
ENDBRANCH  14  18
BRANCH  16  20
ATOM     20  O   UNL     1      -0.887  51.193  17.434  1.00  0.00    -0.502 OA
ATOM     21  H   UNL     1      -1.188  50.329  17.870  1.00  0.00     0.293 HD
ENDBRANCH  16  20
BRANCH  17  22
ATOM     22  O   UNL     1      -3.121  50.061  16.147  1.00  0.00    -0.504 OA
ATOM     23  H   UNL     1      -3.391  50.235  17.107  1.00  0.00     0.293 HD
ENDBRANCH  17  22
ENDBRANCH   1  12
BRANCH   2  24
ATOM     24  O   UNL     1      -0.343  50.633  11.226  1.00  0.00    -0.502 OA
ATOM     25  H   UNL     1       0.170  50.132  10.510  1.00  0.00     0.293 HD
ENDBRANCH   2  24
BRANCH   6  26
ATOM     26  O   UNL     1      -2.726  52.487   6.838  1.00  0.00    -0.507 OA
ATOM     27  H   UNL     1      -2.339  52.906   6.007  1.00  0.00     0.293 HD
ENDBRANCH   6  26
BRANCH   8  28
ATOM     28  O   UNL     1      -5.336  56.037   8.706  1.00  0.00    -0.508 OA
ATOM     29  H   UNL     1      -5.765  56.199   7.803  1.00  0.00     0.293 HD
ENDBRANCH   8  28
TORSDOF 7
ENDMDL
MODEL 7
REMARK VINA RESULT:    -5.382      2.107      3.965
REMARK INTER + INTRA:          -6.960
REMARK INTER:                  -6.702
REMARK INTRA:                  -0.258
REMARK UNBOUND:                -0.320
REMARK SMILES O=c1c(O)c(-c2cc(O)c(O)c(O)c2)oc2cc(O)cc(O)c12
REMARK SMILES IDX 5 1 3 2 2 3 1 4 23 5 21 6 20 7 18 8 17 9 16 10 15 11 6 12
REMARK SMILES IDX 7 13 8 14 14 15 10 16 12 17 9 18 11 20 13 22 4 24 22 26
REMARK SMILES IDX 19 28
REMARK H PARENT 9 19 11 21 13 23 4 25 22 27 19 29
REMARK Flexibility Score: inf
ROOT
ATOM      1  C   UNL     1      -1.818  52.141  10.549  1.00  0.00     0.180 A 
ATOM      2  C   UNL     1      -1.512  51.007   9.776  1.00  0.00     0.208 A 
ATOM      3  C   UNL     1      -2.200  50.798   8.571  1.00  0.00     0.238 A 
ATOM      4  O   UNL     1      -1.884  49.811   7.857  1.00  0.00    -0.285 OA
ATOM      5  C   UNL     1      -3.199  51.715   8.161  1.00  0.00     0.111 A 
ATOM      6  C   UNL     1      -3.987  51.580   6.979  1.00  0.00     0.134 A 
ATOM      7  C   UNL     1      -4.853  52.615   6.606  1.00  0.00     0.093 A 
ATOM      8  C   UNL     1      -5.009  53.748   7.403  1.00  0.00     0.123 A 
ATOM      9  C   UNL     1      -4.287  53.863   8.592  1.00  0.00     0.094 A 
ATOM     10  C   UNL     1      -3.388  52.864   8.972  1.00  0.00     0.146 A 
ATOM     11  O   UNL     1      -2.713  53.017  10.106  1.00  0.00    -0.452 OA
ENDROOT
BRANCH   1  12
ATOM     12  C   UNL     1      -1.152  52.416  11.843  1.00  0.00     0.029 A 
ATOM     13  C   UNL     1      -1.375  51.602  12.967  1.00  0.00     0.062 A 
ATOM     14  C   UNL     1      -0.753  51.892  14.190  1.00  0.00     0.162 A 
ATOM     15  C   UNL     1      -0.327  53.544  11.968  1.00  0.00     0.062 A 
ATOM     16  C   UNL     1       0.090  53.011  14.300  1.00  0.00     0.200 A 
ATOM     17  C   UNL     1       0.299  53.839  13.184  1.00  0.00     0.162 A 
BRANCH  14  18
ATOM     18  O   UNL     1      -0.976  51.075  15.297  1.00  0.00    -0.504 OA
ATOM     19  H   UNL     1      -1.800  51.180  15.877  1.00  0.00     0.293 HD
ENDBRANCH  14  18
BRANCH  16  20
ATOM     20  O   UNL     1       0.720  53.311  15.508  1.00  0.00    -0.502 OA
ATOM     21  H   UNL     1       0.383  52.958  16.396  1.00  0.00     0.293 HD
ENDBRANCH  16  20
BRANCH  17  22
ATOM     22  O   UNL     1       1.123  54.962  13.263  1.00  0.00    -0.504 OA
ATOM     23  H   UNL     1       1.888  55.022  13.924  1.00  0.00     0.293 HD
ENDBRANCH  17  22
ENDBRANCH   1  12
BRANCH   2  24
ATOM     24  O   UNL     1      -0.508  50.126  10.189  1.00  0.00    -0.502 OA
ATOM     25  H   UNL     1      -0.479  49.735  11.123  1.00  0.00     0.293 HD
ENDBRANCH   2  24
BRANCH   6  26
ATOM     26  O   UNL     1      -3.977  50.448   6.159  1.00  0.00    -0.507 OA
ATOM     27  H   UNL     1      -4.793  50.045   5.725  1.00  0.00     0.293 HD
ENDBRANCH   6  26
BRANCH   8  28
ATOM     28  O   UNL     1      -5.892  54.751   7.008  1.00  0.00    -0.508 OA
ATOM     29  H   UNL     1      -6.748  54.932   7.518  1.00  0.00     0.293 HD
ENDBRANCH   8  28
TORSDOF 7
ENDMDL
MODEL 8
REMARK VINA RESULT:    -5.200      4.531      7.776
REMARK INTER + INTRA:          -6.737
REMARK INTER:                  -6.527
REMARK INTRA:                  -0.210
REMARK UNBOUND:                -0.320
REMARK SMILES O=c1c(O)c(-c2cc(O)c(O)c(O)c2)oc2cc(O)cc(O)c12
REMARK SMILES IDX 5 1 3 2 2 3 1 4 23 5 21 6 20 7 18 8 17 9 16 10 15 11 6 12
REMARK SMILES IDX 7 13 8 14 14 15 10 16 12 17 9 18 11 20 13 22 4 24 22 26
REMARK SMILES IDX 19 28
REMARK H PARENT 9 19 11 21 13 23 4 25 22 27 19 29
REMARK Flexibility Score: inf
ROOT
ATOM      1  C   UNL     1      -6.323  52.657  15.887  1.00  0.00     0.180 A 
ATOM      2  C   UNL     1      -6.680  53.982  15.585  1.00  0.00     0.208 A 
ATOM      3  C   UNL     1      -8.008  54.391  15.780  1.00  0.00     0.238 A 
ATOM      4  O   UNL     1      -8.310  55.593  15.559  1.00  0.00    -0.285 OA
ATOM      5  C   UNL     1      -8.968  53.466  16.259  1.00  0.00     0.111 A 
ATOM      6  C   UNL     1     -10.350  53.761  16.456  1.00  0.00     0.134 A 
ATOM      7  C   UNL     1     -11.180  52.807  17.058  1.00  0.00     0.093 A 
ATOM      8  C   UNL     1     -10.694  51.549  17.410  1.00  0.00     0.123 A 
ATOM      9  C   UNL     1      -9.358  51.228  17.168  1.00  0.00     0.094 A 
ATOM     10  C   UNL     1      -8.497  52.172  16.602  1.00  0.00     0.146 A 
ATOM     11  O   UNL     1      -7.230  51.831  16.397  1.00  0.00    -0.452 OA
ENDROOT
BRANCH   1  12
ATOM     12  C   UNL     1      -4.948  52.145  15.684  1.00  0.00     0.029 A 
ATOM     13  C   UNL     1      -4.376  52.075  14.402  1.00  0.00     0.062 A 
ATOM     14  C   UNL     1      -3.082  51.566  14.227  1.00  0.00     0.162 A 
ATOM     15  C   UNL     1      -4.220  51.666  16.784  1.00  0.00     0.062 A 
ATOM     16  C   UNL     1      -2.351  51.110  15.338  1.00  0.00     0.200 A 
ATOM     17  C   UNL     1      -2.927  51.159  16.618  1.00  0.00     0.162 A 
BRANCH  14  18
ATOM     18  O   UNL     1      -2.521  51.507  12.952  1.00  0.00    -0.504 OA
ATOM     19  H   UNL     1      -1.800  52.157  12.659  1.00  0.00     0.293 HD
ENDBRANCH  14  18
BRANCH  16  20
ATOM     20  O   UNL     1      -1.060  50.605  15.181  1.00  0.00    -0.502 OA
ATOM     21  H   UNL     1      -0.413  50.976  14.496  1.00  0.00     0.293 HD
ENDBRANCH  16  20
BRANCH  17  22
ATOM     22  O   UNL     1      -2.232  50.706  17.739  1.00  0.00    -0.504 OA
ATOM     23  H   UNL     1      -2.621  50.018  18.372  1.00  0.00     0.293 HD
ENDBRANCH  17  22
ENDBRANCH   1  12
BRANCH   2  24
ATOM     24  O   UNL     1      -5.713  54.884  15.133  1.00  0.00    -0.502 OA
ATOM     25  H   UNL     1      -4.763  54.886  15.487  1.00  0.00     0.293 HD
ENDBRANCH   2  24
BRANCH   6  26
ATOM     26  O   UNL     1     -10.958  54.954  16.056  1.00  0.00    -0.507 OA
ATOM     27  H   UNL     1     -11.196  55.714  16.675  1.00  0.00     0.293 HD
ENDBRANCH   6  26
BRANCH   8  28
ATOM     28  O   UNL     1     -11.553  50.618  17.993  1.00  0.00    -0.508 OA
ATOM     29  H   UNL     1     -12.138  50.860  18.783  1.00  0.00     0.293 HD
ENDBRANCH   8  28
TORSDOF 7
ENDMDL
MODEL 9
REMARK VINA RESULT:    -5.128      4.582      8.330
REMARK INTER + INTRA:          -6.647
REMARK INTER:                  -6.365
REMARK INTRA:                  -0.282
REMARK UNBOUND:                -0.320
REMARK SMILES O=c1c(O)c(-c2cc(O)c(O)c(O)c2)oc2cc(O)cc(O)c12
REMARK SMILES IDX 5 1 3 2 2 3 1 4 23 5 21 6 20 7 18 8 17 9 16 10 15 11 6 12
REMARK SMILES IDX 7 13 8 14 14 15 10 16 12 17 9 18 11 20 13 22 4 24 22 26
REMARK SMILES IDX 19 28
REMARK H PARENT 9 19 11 21 13 23 4 25 22 27 19 29
REMARK Flexibility Score: inf
ROOT
ATOM      1  C   UNL     1      -6.382  52.522  15.894  1.00  0.00     0.180 A 
ATOM      2  C   UNL     1      -7.042  51.281  15.884  1.00  0.00     0.208 A 
ATOM      3  C   UNL     1      -8.402  51.230  16.228  1.00  0.00     0.238 A 
ATOM      4  O   UNL     1      -9.000  50.124  16.164  1.00  0.00    -0.285 OA
ATOM      5  C   UNL     1      -9.081  52.416  16.594  1.00  0.00     0.111 A 
ATOM      6  C   UNL     1     -10.449  52.475  17.000  1.00  0.00     0.134 A 
ATOM      7  C   UNL     1     -11.052  53.721  17.214  1.00  0.00     0.093 A 
ATOM      8  C   UNL     1     -10.323  54.904  17.101  1.00  0.00     0.123 A 
ATOM      9  C   UNL     1      -8.970  54.855  16.763  1.00  0.00     0.094 A 
ATOM     10  C   UNL     1      -8.349  53.629  16.508  1.00  0.00     0.146 A 
ATOM     11  O   UNL     1      -7.063  53.627  16.179  1.00  0.00    -0.452 OA
ENDROOT
BRANCH   1  12
ATOM     12  C   UNL     1      -4.943  52.652  15.568  1.00  0.00     0.029 A 
ATOM     13  C   UNL     1      -4.517  53.171  14.334  1.00  0.00     0.062 A 
ATOM     14  C   UNL     1      -3.151  53.265  14.035  1.00  0.00     0.162 A 
ATOM     15  C   UNL     1      -3.984  52.196  16.486  1.00  0.00     0.062 A 
ATOM     16  C   UNL     1      -2.196  52.827  14.969  1.00  0.00     0.200 A 
ATOM     17  C   UNL     1      -2.618  52.288  16.196  1.00  0.00     0.162 A 
BRANCH  14  18
ATOM     18  O   UNL     1      -2.738  53.788  12.810  1.00  0.00    -0.504 OA
ATOM     19  H   UNL     1      -1.997  54.477  12.750  1.00  0.00     0.293 HD
ENDBRANCH  14  18
BRANCH  16  20
ATOM     20  O   UNL     1      -0.832  52.917  14.689  1.00  0.00    -0.502 OA
ATOM     21  H   UNL     1      -0.144  52.346  15.164  1.00  0.00     0.293 HD
ENDBRANCH  16  20
BRANCH  17  22
ATOM     22  O   UNL     1      -1.697  51.836  17.141  1.00  0.00    -0.504 OA
ATOM     23  H   UNL     1      -1.794  52.041  18.128  1.00  0.00     0.293 HD
ENDBRANCH  17  22
ENDBRANCH   1  12
BRANCH   2  24
ATOM     24  O   UNL     1      -6.357  50.125  15.498  1.00  0.00    -0.502 OA
ATOM     25  H   UNL     1      -6.769  49.425  14.892  1.00  0.00     0.293 HD
ENDBRANCH   2  24
BRANCH   6  26
ATOM     26  O   UNL     1     -11.243  51.349  17.232  1.00  0.00    -0.507 OA
ATOM     27  H   UNL     1     -11.442  50.963  18.142  1.00  0.00     0.293 HD
ENDBRANCH   6  26
BRANCH   8  28
ATOM     28  O   UNL     1     -10.952  56.125  17.337  1.00  0.00    -0.508 OA
ATOM     29  H   UNL     1     -11.486  56.593  16.615  1.00  0.00     0.293 HD
ENDBRANCH   8  28
TORSDOF 7
ENDMDL
