MODEL 1
REMARK VINA RESULT:    -4.140      0.000      0.000
REMARK INTER + INTRA:          -5.666
REMARK INTER:                  -5.350
REMARK INTRA:                  -0.316
REMARK UNBOUND:                -0.316
REMARK SMILES CCO[C@H]1O[C@@H](CO)[C@@H](O)[C@@H](O)[C@@H]1O
REMARK SMILES IDX 4 1 13 2 11 3 9 4 6 5 5 6 3 7 2 8 1 9 14 10 12 12 7 14 8 15
REMARK SMILES IDX 10 17
REMARK H PARENT 14 11 12 13 8 16 10 18
REMARK Flexibility Score: inf
ROOT
ATOM      1  C   UNL     1       8.847  -3.871   3.655  1.00  0.00     0.281 C 
ATOM      2  C   UNL     1      10.133  -3.812   2.789  1.00  0.00     0.202 C 
ATOM      3  C   UNL     1      10.009  -4.665   1.497  1.00  0.00     0.179 C 
ATOM      4  C   UNL     1       9.109  -5.915   1.689  1.00  0.00     0.177 C 
ATOM      5  C   UNL     1       8.936  -6.232   3.196  1.00  0.00     0.178 C 
ATOM      6  O   UNL     1       8.307  -5.174   3.900  1.00  0.00    -0.341 OA
ENDROOT
BRANCH   1   7
ATOM      7  O   UNL     1       7.855  -3.065   3.042  1.00  0.00    -0.350 OA
BRANCH   7   8
ATOM      8  C   UNL     1       6.760  -2.840   3.912  1.00  0.00     0.160 C 
ATOM      9  C   UNL     1       5.515  -3.538   3.379  1.00  0.00     0.035 C 
ENDBRANCH   7   8
ENDBRANCH   1   7
BRANCH   2  10
ATOM     10  O   UNL     1      11.223  -4.255   3.560  1.00  0.00    -0.385 OA
ATOM     11  H   UNL     1      12.048  -4.009   3.065  1.00  0.00     0.211 HD
ENDBRANCH   2  10
BRANCH   3  12
ATOM     12  O   UNL     1       9.594  -3.890   0.398  1.00  0.00    -0.387 OA
ATOM     13  H   UNL     1      10.383  -3.405   0.047  1.00  0.00     0.211 HD
ENDBRANCH   3  12
BRANCH   5  14
ATOM     14  C   UNL     1       8.144  -7.531   3.421  1.00  0.00     0.191 C 
BRANCH  14  15
ATOM     15  O   UNL     1       6.761  -7.295   3.436  1.00  0.00    -0.394 OA
ATOM     16  H   UNL     1       6.418  -7.661   4.294  1.00  0.00     0.210 HD
ENDBRANCH  14  15
ENDBRANCH   5  14
BRANCH   4  17
ATOM     17  O   UNL     1       7.870  -5.779   1.035  1.00  0.00    -0.387 OA
ATOM     18  H   UNL     1       7.743  -4.823   0.806  1.00  0.00     0.211 HD
ENDBRANCH   4  17
TORSDOF 7
ENDMDL
MODEL 2
REMARK VINA RESULT:    -4.091      2.522      4.907
REMARK INTER + INTRA:          -5.603
REMARK INTER:                  -5.212
REMARK INTRA:                  -0.391
REMARK UNBOUND:                -0.316
REMARK SMILES CCO[C@H]1O[C@@H](CO)[C@@H](O)[C@@H](O)[C@@H]1O
REMARK SMILES IDX 4 1 13 2 11 3 9 4 6 5 5 6 3 7 2 8 1 9 14 10 12 12 7 14 8 15
REMARK SMILES IDX 10 17
REMARK H PARENT 14 11 12 13 8 16 10 18
REMARK Flexibility Score: inf
ROOT
ATOM      1  C   UNL     1      11.060  -5.488   2.903  1.00  0.00     0.281 C 
ATOM      2  C   UNL     1       9.897  -4.488   2.670  1.00  0.00     0.202 C 
ATOM      3  C   UNL     1      10.198  -3.499   1.511  1.00  0.00     0.179 C 
ATOM      4  C   UNL     1      11.708  -3.167   1.384  1.00  0.00     0.177 C 
ATOM      5  C   UNL     1      12.456  -3.538   2.691  1.00  0.00     0.178 C 
ATOM      6  O   UNL     1      12.373  -4.923   2.983  1.00  0.00    -0.341 OA
ENDROOT
BRANCH   1   7
ATOM      7  O   UNL     1      11.034  -6.459   1.872  1.00  0.00    -0.350 OA
BRANCH   7   8
ATOM      8  C   UNL     1       9.936  -7.341   2.018  1.00  0.00     0.160 C 
ATOM      9  C   UNL     1      10.416  -8.786   1.983  1.00  0.00     0.035 C 
ENDBRANCH   7   8
ENDBRANCH   1   7
BRANCH   2  10
ATOM     10  O   UNL     1       9.656  -3.781   3.861  1.00  0.00    -0.385 OA
ATOM     11  H   UNL     1      10.487  -3.280   4.074  1.00  0.00     0.211 HD
ENDBRANCH   2  10
BRANCH   3  12
ATOM     12  O   UNL     1       9.660  -3.947   0.289  1.00  0.00    -0.387 OA
ATOM     13  H   UNL     1       8.818  -4.431   0.482  1.00  0.00     0.211 HD
ENDBRANCH   3  12
BRANCH   5  14
ATOM     14  C   UNL     1      13.935  -3.118   2.643  1.00  0.00     0.191 C 
BRANCH  14  15
ATOM     15  O   UNL     1      14.170  -2.171   1.636  1.00  0.00    -0.394 OA
ATOM     16  H   UNL     1      13.471  -2.311   0.944  1.00  0.00     0.210 HD
ENDBRANCH  14  15
ENDBRANCH   5  14
BRANCH   4  17
ATOM     17  O   UNL     1      12.291  -3.775   0.255  1.00  0.00    -0.387 OA
ATOM     18  H   UNL     1      13.226  -4.013   0.479  1.00  0.00     0.211 HD
ENDBRANCH   4  17
TORSDOF 7
ENDMDL
MODEL 3
REMARK VINA RESULT:    -3.938      2.333      4.104
REMARK INTER + INTRA:          -5.404
REMARK INTER:                  -4.992
REMARK INTRA:                  -0.412
REMARK UNBOUND:                -0.316
REMARK SMILES CCO[C@H]1O[C@@H](CO)[C@@H](O)[C@@H](O)[C@@H]1O
REMARK SMILES IDX 4 1 13 2 11 3 9 4 6 5 5 6 3 7 2 8 1 9 14 10 12 12 7 14 8 15
REMARK SMILES IDX 10 17
REMARK H PARENT 14 11 12 13 8 16 10 18
REMARK Flexibility Score: inf
ROOT
ATOM      1  C   UNL     1      11.961  -3.220   3.578  1.00  0.00     0.281 C 
ATOM      2  C   UNL     1      12.439  -4.353   2.630  1.00  0.00     0.202 C 
ATOM      3  C   UNL     1      11.533  -4.487   1.376  1.00  0.00     0.179 C 
ATOM      4  C   UNL     1      10.054  -4.119   1.663  1.00  0.00     0.177 C 
ATOM      5  C   UNL     1       9.774  -4.147   3.187  1.00  0.00     0.178 C 
ATOM      6  O   UNL     1      10.566  -3.208   3.897  1.00  0.00    -0.341 OA
ENDROOT
BRANCH   1   7
ATOM      7  O   UNL     1      12.317  -1.974   3.006  1.00  0.00    -0.350 OA
BRANCH   7   8
ATOM      8  C   UNL     1      13.715  -1.880   2.798  1.00  0.00     0.160 C 
ATOM      9  C   UNL     1      14.428  -1.649   4.125  1.00  0.00     0.035 C 
ENDBRANCH   7   8
ENDBRANCH   1   7
BRANCH   2  10
ATOM     10  O   UNL     1      12.464  -5.565   3.343  1.00  0.00    -0.385 OA
ATOM     11  H   UNL     1      12.362  -5.337   4.305  1.00  0.00     0.211 HD
ENDBRANCH   2  10
BRANCH   3  12
ATOM     12  O   UNL     1      12.046  -3.764   0.282  1.00  0.00    -0.387 OA
ATOM     13  H   UNL     1      11.688  -4.167  -0.550  1.00  0.00     0.211 HD
ENDBRANCH   3  12
BRANCH   5  14
ATOM     14  C   UNL     1       8.289  -3.897   3.502  1.00  0.00     0.191 C 
BRANCH  14  15
ATOM     15  O   UNL     1       7.459  -4.351   2.466  1.00  0.00    -0.394 OA
ATOM     16  H   UNL     1       6.935  -5.111   2.832  1.00  0.00     0.210 HD
ENDBRANCH  14  15
ENDBRANCH   5  14
BRANCH   4  17
ATOM     17  O   UNL     1       9.695  -2.885   1.086  1.00  0.00    -0.387 OA
ATOM     18  H   UNL     1      10.353  -2.671   0.376  1.00  0.00     0.211 HD
ENDBRANCH   4  17
TORSDOF 7
ENDMDL
MODEL 4
REMARK VINA RESULT:    -3.870      1.499      3.627
REMARK INTER + INTRA:          -5.317
REMARK INTER:                  -5.094
REMARK INTRA:                  -0.223
REMARK UNBOUND:                -0.316
REMARK SMILES CCO[C@H]1O[C@@H](CO)[C@@H](O)[C@@H](O)[C@@H]1O
REMARK SMILES IDX 4 1 13 2 11 3 9 4 6 5 5 6 3 7 2 8 1 9 14 10 12 12 7 14 8 15
REMARK SMILES IDX 10 17
REMARK H PARENT 14 11 12 13 8 16 10 18
REMARK Flexibility Score: inf
ROOT
ATOM      1  C   UNL     1       7.817  -4.530   2.430  1.00  0.00     0.281 C 
ATOM      2  C   UNL     1       7.749  -5.913   1.730  1.00  0.00     0.202 C 
ATOM      3  C   UNL     1       9.042  -6.745   1.949  1.00  0.00     0.179 C 
ATOM      4  C   UNL     1      10.310  -5.859   2.070  1.00  0.00     0.177 C 
ATOM      5  C   UNL     1      10.038  -4.442   1.505  1.00  0.00     0.178 C 
ATOM      6  O   UNL     1       9.010  -3.769   2.214  1.00  0.00    -0.341 OA
ENDROOT
BRANCH   1   7
ATOM      7  O   UNL     1       7.634  -4.721   3.822  1.00  0.00    -0.350 OA
BRANCH   7   8
ATOM      8  C   UNL     1       6.299  -5.083   4.124  1.00  0.00     0.160 C 
ATOM      9  C   UNL     1       5.371  -3.895   3.904  1.00  0.00     0.035 C 
ENDBRANCH   7   8
ENDBRANCH   1   7
BRANCH   2  10
ATOM     10  O   UNL     1       7.524  -5.718   0.355  1.00  0.00    -0.385 OA
ATOM     11  H   UNL     1       6.553  -5.543   0.242  1.00  0.00     0.211 HD
ENDBRANCH   2  10
BRANCH   3  12
ATOM     12  O   UNL     1       8.917  -7.626   3.040  1.00  0.00    -0.387 OA
ATOM     13  H   UNL     1       9.282  -8.506   2.769  1.00  0.00     0.211 HD
ENDBRANCH   3  12
BRANCH   5  14
ATOM     14  C   UNL     1      11.306  -3.572   1.505  1.00  0.00     0.191 C 
BRANCH  14  15
ATOM     15  O   UNL     1      12.048  -3.742   0.327  1.00  0.00    -0.394 OA
ATOM     16  H   UNL     1      12.994  -3.871   0.600  1.00  0.00     0.210 HD
ENDBRANCH  14  15
ENDBRANCH   5  14
BRANCH   4  17
ATOM     17  O   UNL     1      10.798  -5.814   3.390  1.00  0.00    -0.387 OA
ATOM     18  H   UNL     1      11.708  -6.208   3.399  1.00  0.00     0.211 HD
ENDBRANCH   4  17
TORSDOF 7
ENDMDL
MODEL 5
REMARK VINA RESULT:    -3.669      1.618      3.272
REMARK INTER + INTRA:          -5.057
REMARK INTER:                  -4.738
REMARK INTRA:                  -0.319
REMARK UNBOUND:                -0.316
REMARK SMILES CCO[C@H]1O[C@@H](CO)[C@@H](O)[C@@H](O)[C@@H]1O
REMARK SMILES IDX 4 1 13 2 11 3 9 4 6 5 5 6 3 7 2 8 1 9 14 10 12 12 7 14 8 15
REMARK SMILES IDX 10 17
REMARK H PARENT 14 11 12 13 8 16 10 18
REMARK Flexibility Score: inf
ROOT
ATOM      1  C   UNL     1       9.939  -4.097   2.350  1.00  0.00     0.281 C 
ATOM      2  C   UNL     1      10.329  -5.552   2.723  1.00  0.00     0.202 C 
ATOM      3  C   UNL     1       9.319  -6.591   2.165  1.00  0.00     0.179 C 
ATOM      4  C   UNL     1       7.871  -6.039   2.091  1.00  0.00     0.177 C 
ATOM      5  C   UNL     1       7.723  -4.785   2.990  1.00  0.00     0.178 C 
ATOM      6  O   UNL     1       8.576  -3.728   2.583  1.00  0.00    -0.341 OA
ENDROOT
BRANCH   1   7
ATOM      7  O   UNL     1      10.250  -3.884   0.984  1.00  0.00    -0.350 OA
BRANCH   7   8
ATOM      8  C   UNL     1      11.649  -3.891   0.764  1.00  0.00     0.160 C 
ATOM      9  C   UNL     1      12.339  -2.954   1.748  1.00  0.00     0.035 C 
ENDBRANCH   7   8
ENDBRANCH   1   7
BRANCH   2  10
ATOM     10  O   UNL     1      10.410  -5.658   4.124  1.00  0.00    -0.385 OA
ATOM     11  H   UNL     1      11.139  -5.050   4.419  1.00  0.00     0.211 HD
ENDBRANCH   2  10
BRANCH   3  12
ATOM     12  O   UNL     1       9.740  -7.115   0.927  1.00  0.00    -0.387 OA
ATOM     13  H   UNL     1       8.942  -7.222   0.350  1.00  0.00     0.211 HD
ENDBRANCH   3  12
BRANCH   5  14
ATOM     14  C   UNL     1       6.271  -4.277   3.030  1.00  0.00     0.191 C 
BRANCH  14  15
ATOM     15  O   UNL     1       5.370  -5.261   2.597  1.00  0.00    -0.394 OA
ATOM     16  H   UNL     1       4.738  -4.816   1.973  1.00  0.00     0.210 HD
ENDBRANCH  14  15
ENDBRANCH   5  14
BRANCH   4  17
ATOM     17  O   UNL     1       7.470  -5.785   0.765  1.00  0.00    -0.387 OA
ATOM     18  H   UNL     1       7.689  -4.843   0.549  1.00  0.00     0.211 HD
ENDBRANCH   4  17
TORSDOF 7
ENDMDL
MODEL 6
REMARK VINA RESULT:    -3.538      1.864      3.752
REMARK INTER + INTRA:          -4.888
REMARK INTER:                  -4.479
REMARK INTRA:                  -0.409
REMARK UNBOUND:                -0.316
REMARK SMILES CCO[C@H]1O[C@@H](CO)[C@@H](O)[C@@H](O)[C@@H]1O
REMARK SMILES IDX 4 1 13 2 11 3 9 4 6 5 5 6 3 7 2 8 1 9 14 10 12 12 7 14 8 15
REMARK SMILES IDX 10 17
REMARK H PARENT 14 11 12 13 8 16 10 18
REMARK Flexibility Score: inf
ROOT
ATOM      1  C   UNL     1      11.301  -4.275   1.847  1.00  0.00     0.281 C 
ATOM      2  C   UNL     1       9.956  -3.606   1.458  1.00  0.00     0.202 C 
ATOM      3  C   UNL     1       8.774  -4.123   2.322  1.00  0.00     0.179 C 
ATOM      4  C   UNL     1       8.950  -5.602   2.755  1.00  0.00     0.177 C 
ATOM      5  C   UNL     1      10.007  -6.305   1.866  1.00  0.00     0.178 C 
ATOM      6  O   UNL     1      11.286  -5.701   1.971  1.00  0.00    -0.341 OA
ENDROOT
BRANCH   1   7
ATOM      7  O   UNL     1      11.751  -3.708   3.065  1.00  0.00    -0.350 OA
BRANCH   7   8
ATOM      8  C   UNL     1      12.464  -2.505   2.844  1.00  0.00     0.160 C 
ATOM      9  C   UNL     1      13.603  -2.744   1.860  1.00  0.00     0.035 C 
ENDBRANCH   7   8
ENDBRANCH   1   7
BRANCH   2  10
ATOM     10  O   UNL     1       9.704  -3.847   0.095  1.00  0.00    -0.385 OA
ATOM     11  H   UNL     1       9.519  -2.966  -0.326  1.00  0.00     0.211 HD
ENDBRANCH   2  10
BRANCH   3  12
ATOM     12  O   UNL     1       8.528  -3.284   3.425  1.00  0.00    -0.387 OA
ATOM     13  H   UNL     1       9.397  -3.064   3.846  1.00  0.00     0.211 HD
ENDBRANCH   3  12
BRANCH   5  14
ATOM     14  C   UNL     1      10.126  -7.804   2.193  1.00  0.00     0.191 C 
BRANCH  14  15
ATOM     15  O   UNL     1       9.038  -8.253   2.954  1.00  0.00    -0.394 OA
ATOM     16  H   UNL     1       8.216  -7.971   2.472  1.00  0.00     0.210 HD
ENDBRANCH  14  15
ENDBRANCH   5  14
BRANCH   4  17
ATOM     17  O   UNL     1       9.255  -5.719   4.125  1.00  0.00    -0.387 OA
ATOM     18  H   UNL     1       9.686  -6.599   4.273  1.00  0.00     0.211 HD
ENDBRANCH   4  17
TORSDOF 7
ENDMDL
MODEL 7
REMARK VINA RESULT:    -3.319      1.601      3.481
REMARK INTER + INTRA:          -4.605
REMARK INTER:                  -4.252
REMARK INTRA:                  -0.353
REMARK UNBOUND:                -0.316
REMARK SMILES CCO[C@H]1O[C@@H](CO)[C@@H](O)[C@@H](O)[C@@H]1O
REMARK SMILES IDX 4 1 13 2 11 3 9 4 6 5 5 6 3 7 2 8 1 9 14 10 12 12 7 14 8 15
REMARK SMILES IDX 10 17
REMARK H PARENT 14 11 12 13 8 16 10 18
REMARK Flexibility Score: inf
ROOT
ATOM      1  C   UNL     1       9.324  -3.530   2.659  1.00  0.00     0.281 C 
ATOM      2  C   UNL     1       9.238  -4.576   1.516  1.00  0.00     0.202 C 
ATOM      3  C   UNL     1      10.000  -5.884   1.861  1.00  0.00     0.179 C 
ATOM      4  C   UNL     1      11.238  -5.637   2.763  1.00  0.00     0.177 C 
ATOM      5  C   UNL     1      11.651  -4.143   2.718  1.00  0.00     0.178 C 
ATOM      6  O   UNL     1      10.627  -3.288   3.199  1.00  0.00    -0.341 OA
ENDROOT
BRANCH   1   7
ATOM      7  O   UNL     1       8.456  -3.933   3.704  1.00  0.00    -0.350 OA
BRANCH   7   8
ATOM      8  C   UNL     1       7.312  -3.102   3.778  1.00  0.00     0.160 C 
ATOM      9  C   UNL     1       6.065  -3.891   3.401  1.00  0.00     0.035 C 
ENDBRANCH   7   8
ENDBRANCH   1   7
BRANCH   2  10
ATOM     10  O   UNL     1       9.757  -4.008   0.338  1.00  0.00    -0.385 OA
ATOM     11  H   UNL     1       9.658  -4.687  -0.379  1.00  0.00     0.211 HD
ENDBRANCH   2  10
BRANCH   3  12
ATOM     12  O   UNL     1       9.143  -6.858   2.410  1.00  0.00    -0.387 OA
ATOM     13  H   UNL     1       9.107  -6.719   3.390  1.00  0.00     0.211 HD
ENDBRANCH   3  12
BRANCH   5  14
ATOM     14  C   UNL     1      12.943  -3.882   3.511  1.00  0.00     0.191 C 
BRANCH  14  15
ATOM     15  O   UNL     1      13.669  -5.065   3.717  1.00  0.00    -0.394 OA
ATOM     16  H   UNL     1      14.593  -4.794   3.958  1.00  0.00     0.210 HD
ENDBRANCH  14  15
ENDBRANCH   5  14
BRANCH   4  17
ATOM     17  O   UNL     1      11.029  -6.085   4.081  1.00  0.00    -0.387 OA
ATOM     18  H   UNL     1      11.224  -5.334   4.698  1.00  0.00     0.211 HD
ENDBRANCH   4  17
TORSDOF 7
ENDMDL
MODEL 8
REMARK VINA RESULT:    -3.257      1.898      3.901
REMARK INTER + INTRA:          -4.524
REMARK INTER:                  -4.140
REMARK INTRA:                  -0.384
REMARK UNBOUND:                -0.316
REMARK SMILES CCO[C@H]1O[C@@H](CO)[C@@H](O)[C@@H](O)[C@@H]1O
REMARK SMILES IDX 4 1 13 2 11 3 9 4 6 5 5 6 3 7 2 8 1 9 14 10 12 12 7 14 8 15
REMARK SMILES IDX 10 17
REMARK H PARENT 14 11 12 13 8 16 10 18
REMARK Flexibility Score: inf
ROOT
ATOM      1  C   UNL     1      10.920  -5.877   1.859  1.00  0.00     0.281 C 
ATOM      2  C   UNL     1      11.210  -4.362   1.696  1.00  0.00     0.202 C 
ATOM      3  C   UNL     1      10.296  -3.490   2.599  1.00  0.00     0.179 C 
ATOM      4  C   UNL     1       8.895  -4.119   2.819  1.00  0.00     0.177 C 
ATOM      5  C   UNL     1       8.612  -5.201   1.745  1.00  0.00     0.178 C 
ATOM      6  O   UNL     1       9.544  -6.268   1.799  1.00  0.00    -0.341 OA
ENDROOT
BRANCH   1   7
ATOM      7  O   UNL     1      11.473  -6.312   3.089  1.00  0.00    -0.350 OA
BRANCH   7   8
ATOM      8  C   UNL     1      11.002  -7.599   3.444  1.00  0.00     0.160 C 
ATOM      9  C   UNL     1      11.789  -8.669   2.697  1.00  0.00     0.035 C 
ENDBRANCH   7   8
ENDBRANCH   1   7
BRANCH   2  10
ATOM     10  O   UNL     1      11.038  -4.007   0.345  1.00  0.00    -0.385 OA
ATOM     11  H   UNL     1      10.884  -4.849  -0.158  1.00  0.00     0.211 HD
ENDBRANCH   2  10
BRANCH   3  12
ATOM     12  O   UNL     1      10.920  -3.172   3.821  1.00  0.00    -0.387 OA
ATOM     13  H   UNL     1      11.830  -3.566   3.814  1.00  0.00     0.211 HD
ENDBRANCH   3  12
BRANCH   5  14
ATOM     14  C   UNL     1       7.187  -5.767   1.863  1.00  0.00     0.191 C 
BRANCH  14  15
ATOM     15  O   UNL     1       6.270  -4.777   2.248  1.00  0.00    -0.394 OA
ATOM     16  H   UNL     1       5.444  -5.248   2.534  1.00  0.00     0.210 HD
ENDBRANCH  14  15
ENDBRANCH   5  14
BRANCH   4  17
ATOM     17  O   UNL     1       8.740  -4.622   4.125  1.00  0.00    -0.387 OA
ATOM     18  H   UNL     1       9.034  -3.923   4.764  1.00  0.00     0.211 HD
ENDBRANCH   4  17
TORSDOF 7
ENDMDL
MODEL 9
REMARK VINA RESULT:    -3.186      1.905      2.274
REMARK INTER + INTRA:          -4.432
REMARK INTER:                  -3.997
REMARK INTRA:                  -0.435
REMARK UNBOUND:                -0.316
REMARK SMILES CCO[C@H]1O[C@@H](CO)[C@@H](O)[C@@H](O)[C@@H]1O
REMARK SMILES IDX 4 1 13 2 11 3 9 4 6 5 5 6 3 7 2 8 1 9 14 10 12 12 7 14 8 15
REMARK SMILES IDX 10 17
REMARK H PARENT 14 11 12 13 8 16 10 18
REMARK Flexibility Score: inf
ROOT
ATOM      1  C   UNL     1      10.463  -3.515   3.481  1.00  0.00     0.281 C 
ATOM      2  C   UNL     1      11.056  -3.012   2.138  1.00  0.00     0.202 C 
ATOM      3  C   UNL     1      10.902  -4.060   1.002  1.00  0.00     0.179 C 
ATOM      4  C   UNL     1      10.961  -5.520   1.522  1.00  0.00     0.177 C 
ATOM      5  C   UNL     1      11.596  -5.567   2.935  1.00  0.00     0.178 C 
ATOM      6  O   UNL     1      10.842  -4.833   3.887  1.00  0.00    -0.341 OA
ENDROOT
BRANCH   1   7
ATOM      7  O   UNL     1       9.050  -3.441   3.405  1.00  0.00    -0.350 OA
BRANCH   7   8
ATOM      8  C   UNL     1       8.436  -4.494   4.125  1.00  0.00     0.160 C 
ATOM      9  C   UNL     1       7.034  -4.750   3.586  1.00  0.00     0.035 C 
ENDBRANCH   7   8
ENDBRANCH   1   7
BRANCH   2  10
ATOM     10  O   UNL     1      12.414  -2.698   2.328  1.00  0.00    -0.385 OA
ATOM     11  H   UNL     1      12.549  -1.776   1.983  1.00  0.00     0.211 HD
ENDBRANCH   2  10
BRANCH   3  12
ATOM     12  O   UNL     1       9.745  -3.829   0.233  1.00  0.00    -0.387 OA
ATOM     13  H   UNL     1       8.956  -4.079   0.778  1.00  0.00     0.211 HD
ENDBRANCH   3  12
BRANCH   5  14
ATOM     14  C   UNL     1      11.775  -7.011   3.435  1.00  0.00     0.191 C 
BRANCH  14  15
ATOM     15  O   UNL     1      10.580  -7.527   3.957  1.00  0.00    -0.394 OA
ATOM     16  H   UNL     1       9.940  -6.769   4.012  1.00  0.00     0.210 HD
ENDBRANCH  14  15
ENDBRANCH   5  14
BRANCH   4  17
ATOM     17  O   UNL     1       9.699  -6.144   1.491  1.00  0.00    -0.387 OA
ATOM     18  H   UNL     1       9.120  -5.704   2.164  1.00  0.00     0.211 HD
ENDBRANCH   4  17
TORSDOF 7
ENDMDL
