MODEL 1
REMARK VINA RESULT:    -6.454      0.000      0.000
REMARK INTER + INTRA:          -8.192
REMARK INTER:                  -7.775
REMARK INTRA:                  -0.417
REMARK UNBOUND:                -0.417
REMARK SMILES O=c1c(O)c(-c2ccc(O)cc2O)oc2cc(O)cc(O)c12
REMARK SMILES IDX 5 1 3 2 2 3 1 4 22 5 20 6 19 7 17 8 16 9 15 10 14 11 6 12
REMARK SMILES IDX 8 13 7 14 9 15 11 16 12 17 10 18 13 20 4 22 21 24 18 26
REMARK H PARENT 10 19 13 21 4 23 21 25 18 27
REMARK Flexibility Score: inf
ROOT
ATOM      1  C   UNL     1      14.447  56.040  33.942  1.00  0.00     0.184 A 
ATOM      2  C   UNL     1      14.189  55.903  32.570  1.00  0.00     0.208 A 
ATOM      3  C   UNL     1      14.712  56.855  31.681  1.00  0.00     0.238 A 
ATOM      4  O   UNL     1      14.427  56.761  30.459  1.00  0.00    -0.285 OA
ATOM      5  C   UNL     1      15.508  57.917  32.175  1.00  0.00     0.111 A 
ATOM      6  C   UNL     1      16.123  58.917  31.362  1.00  0.00     0.134 A 
ATOM      7  C   UNL     1      16.787  59.989  31.970  1.00  0.00     0.093 A 
ATOM      8  C   UNL     1      16.916  60.064  33.359  1.00  0.00     0.123 A 
ATOM      9  C   UNL     1      16.371  59.061  34.158  1.00  0.00     0.094 A 
ATOM     10  C   UNL     1      15.670  57.999  33.583  1.00  0.00     0.146 A 
ATOM     11  O   UNL     1      15.155  57.073  34.383  1.00  0.00    -0.451 OA
ENDROOT
BRANCH   1  12
ATOM     12  C   UNL     1      13.943  55.055  34.923  1.00  0.00     0.063 A 
ATOM     13  C   UNL     1      14.319  53.036  36.230  1.00  0.00     0.047 A 
ATOM     14  C   UNL     1      14.746  53.953  35.267  1.00  0.00     0.020 A 
ATOM     15  C   UNL     1      13.086  53.212  36.870  1.00  0.00     0.119 A 
ATOM     16  C   UNL     1      12.282  54.305  36.536  1.00  0.00     0.093 A 
ATOM     17  C   UNL     1      12.693  55.225  35.564  1.00  0.00     0.130 A 
BRANCH  15  18
ATOM     18  O   UNL     1      12.653  52.308  37.836  1.00  0.00    -0.508 OA
ATOM     19  H   UNL     1      12.584  51.316  37.641  1.00  0.00     0.293 HD
ENDBRANCH  15  18
BRANCH  17  20
ATOM     20  O   UNL     1      11.832  56.277  35.244  1.00  0.00    -0.507 OA
ATOM     21  H   UNL     1      11.493  56.448  34.307  1.00  0.00     0.293 HD
ENDBRANCH  17  20
ENDBRANCH   1  12
BRANCH   2  22
ATOM     22  O   UNL     1      13.403  54.843  32.110  1.00  0.00    -0.502 OA
ATOM     23  H   UNL     1      13.300  53.979  32.628  1.00  0.00     0.293 HD
ENDBRANCH   2  22
BRANCH   6  24
ATOM     24  O   UNL     1      16.131  58.890  29.964  1.00  0.00    -0.507 OA
ATOM     25  H   UNL     1      15.565  59.479  29.373  1.00  0.00     0.293 HD
ENDBRANCH   6  24
BRANCH   8  26
ATOM     26  O   UNL     1      17.594  61.125  33.955  1.00  0.00    -0.508 OA
ATOM     27  H   UNL     1      18.606  61.161  33.976  1.00  0.00     0.293 HD
ENDBRANCH   8  26
TORSDOF 6
ENDMDL
MODEL 2
REMARK VINA RESULT:    -6.350      0.805      1.482
REMARK INTER + INTRA:          -8.067
REMARK INTER:                  -7.727
REMARK INTRA:                  -0.340
REMARK UNBOUND:                -0.417
REMARK SMILES O=c1c(O)c(-c2ccc(O)cc2O)oc2cc(O)cc(O)c12
REMARK SMILES IDX 5 1 3 2 2 3 1 4 22 5 20 6 19 7 17 8 16 9 15 10 14 11 6 12
REMARK SMILES IDX 8 13 7 14 9 15 11 16 12 17 10 18 13 20 4 22 21 24 18 26
REMARK H PARENT 10 19 13 21 4 23 21 25 18 27
REMARK Flexibility Score: inf
ROOT
ATOM      1  C   UNL     1      14.480  56.001  33.992  1.00  0.00     0.184 A 
ATOM      2  C   UNL     1      14.164  55.805  32.640  1.00  0.00     0.208 A 
ATOM      3  C   UNL     1      14.632  56.727  31.691  1.00  0.00     0.238 A 
ATOM      4  O   UNL     1      14.295  56.579  30.487  1.00  0.00    -0.285 OA
ATOM      5  C   UNL     1      15.433  57.818  32.105  1.00  0.00     0.111 A 
ATOM      6  C   UNL     1      15.996  58.793  31.225  1.00  0.00     0.134 A 
ATOM      7  C   UNL     1      16.670  59.898  31.759  1.00  0.00     0.093 A 
ATOM      8  C   UNL     1      16.859  60.031  33.137  1.00  0.00     0.123 A 
ATOM      9  C   UNL     1      16.365  59.055  34.000  1.00  0.00     0.094 A 
ATOM     10  C   UNL     1      15.655  57.960  33.500  1.00  0.00     0.146 A 
ATOM     11  O   UNL     1      15.190  57.061  34.359  1.00  0.00    -0.451 OA
ENDROOT
BRANCH   1  12
ATOM     12  C   UNL     1      14.034  55.051  35.033  1.00  0.00     0.063 A 
ATOM     13  C   UNL     1      12.444  54.472  36.783  1.00  0.00     0.047 A 
ATOM     14  C   UNL     1      12.920  55.373  35.829  1.00  0.00     0.020 A 
ATOM     15  C   UNL     1      13.070  53.231  36.951  1.00  0.00     0.119 A 
ATOM     16  C   UNL     1      14.177  52.900  36.164  1.00  0.00     0.093 A 
ATOM     17  C   UNL     1      14.671  53.800  35.212  1.00  0.00     0.130 A 
BRANCH  15  18
ATOM     18  O   UNL     1      12.600  52.321  37.895  1.00  0.00    -0.508 OA
ATOM     19  H   UNL     1      12.968  52.301  38.839  1.00  0.00     0.293 HD
ENDBRANCH  15  18
BRANCH  17  20
ATOM     20  O   UNL     1      15.801  53.431  34.480  1.00  0.00    -0.507 OA
ATOM     21  H   UNL     1      15.751  53.009  33.561  1.00  0.00     0.293 HD
ENDBRANCH  17  20
ENDBRANCH   1  12
BRANCH   2  22
ATOM     22  O   UNL     1      13.374  54.717  32.259  1.00  0.00    -0.502 OA
ATOM     23  H   UNL     1      13.449  53.810  32.703  1.00  0.00     0.293 HD
ENDBRANCH   2  22
BRANCH   6  24
ATOM     24  O   UNL     1      15.943  58.708  29.831  1.00  0.00    -0.507 OA
ATOM     25  H   UNL     1      16.423  59.329  29.197  1.00  0.00     0.293 HD
ENDBRANCH   6  24
BRANCH   8  26
ATOM     26  O   UNL     1      17.546  61.124  33.658  1.00  0.00    -0.508 OA
ATOM     27  H   UNL     1      18.188  61.667  33.091  1.00  0.00     0.293 HD
ENDBRANCH   8  26
TORSDOF 6
ENDMDL
MODEL 3
REMARK VINA RESULT:    -5.506      2.903      6.643
REMARK INTER + INTRA:          -7.050
REMARK INTER:                  -6.736
REMARK INTRA:                  -0.314
REMARK UNBOUND:                -0.417
REMARK SMILES O=c1c(O)c(-c2ccc(O)cc2O)oc2cc(O)cc(O)c12
REMARK SMILES IDX 5 1 3 2 2 3 1 4 22 5 20 6 19 7 17 8 16 9 15 10 14 11 6 12
REMARK SMILES IDX 8 13 7 14 9 15 11 16 12 17 10 18 13 20 4 22 21 24 18 26
REMARK H PARENT 10 19 13 21 4 23 21 25 18 27
REMARK Flexibility Score: inf
ROOT
ATOM      1  C   UNL     1      15.378  55.600  32.893  1.00  0.00     0.184 A 
ATOM      2  C   UNL     1      15.050  54.701  33.919  1.00  0.00     0.208 A 
ATOM      3  C   UNL     1      14.697  53.384  33.583  1.00  0.00     0.238 A 
ATOM      4  O   UNL     1      14.346  52.600  34.502  1.00  0.00    -0.285 OA
ATOM      5  C   UNL     1      14.705  52.978  32.226  1.00  0.00     0.111 A 
ATOM      6  C   UNL     1      14.403  51.658  31.773  1.00  0.00     0.134 A 
ATOM      7  C   UNL     1      14.322  51.402  30.399  1.00  0.00     0.093 A 
ATOM      8  C   UNL     1      14.596  52.401  29.461  1.00  0.00     0.123 A 
ATOM      9  C   UNL     1      14.949  53.676  29.894  1.00  0.00     0.094 A 
ATOM     10  C   UNL     1      15.001  53.973  31.258  1.00  0.00     0.146 A 
ATOM     11  O   UNL     1      15.328  55.206  31.626  1.00  0.00    -0.451 OA
ENDROOT
BRANCH   1  12
ATOM     12  C   UNL     1      15.780  56.992  33.188  1.00  0.00     0.063 A 
ATOM     13  C   UNL     1      15.235  59.158  34.156  1.00  0.00     0.047 A 
ATOM     14  C   UNL     1      14.865  57.854  33.817  1.00  0.00     0.020 A 
ATOM     15  C   UNL     1      16.528  59.615  33.879  1.00  0.00     0.119 A 
ATOM     16  C   UNL     1      17.446  58.765  33.256  1.00  0.00     0.093 A 
ATOM     17  C   UNL     1      17.084  57.460  32.901  1.00  0.00     0.130 A 
BRANCH  15  18
ATOM     18  O   UNL     1      16.910  60.911  34.219  1.00  0.00    -0.508 OA
ATOM     19  H   UNL     1      17.490  61.470  33.604  1.00  0.00     0.293 HD
ENDBRANCH  15  18
BRANCH  17  20
ATOM     20  O   UNL     1      18.030  56.667  32.248  1.00  0.00    -0.507 OA
ATOM     21  H   UNL     1      18.767  57.050  31.669  1.00  0.00     0.293 HD
ENDBRANCH  17  20
ENDBRANCH   1  12
BRANCH   2  22
ATOM     22  O   UNL     1      15.055  55.128  35.249  1.00  0.00    -0.502 OA
ATOM     23  H   UNL     1      15.292  54.512  36.017  1.00  0.00     0.293 HD
ENDBRANCH   2  22
BRANCH   6  24
ATOM     24  O   UNL     1      14.202  50.567  32.624  1.00  0.00    -0.507 OA
ATOM     25  H   UNL     1      14.677  49.681  32.546  1.00  0.00     0.293 HD
ENDBRANCH   6  24
BRANCH   8  26
ATOM     26  O   UNL     1      14.530  52.132  28.096  1.00  0.00    -0.508 OA
ATOM     27  H   UNL     1      15.364  51.943  27.552  1.00  0.00     0.293 HD
ENDBRANCH   8  26
TORSDOF 6
ENDMDL
MODEL 4
REMARK VINA RESULT:    -5.310      2.153      4.007
REMARK INTER + INTRA:          -6.814
REMARK INTER:                  -6.472
REMARK INTRA:                  -0.342
REMARK UNBOUND:                -0.417
REMARK SMILES O=c1c(O)c(-c2ccc(O)cc2O)oc2cc(O)cc(O)c12
REMARK SMILES IDX 5 1 3 2 2 3 1 4 22 5 20 6 19 7 17 8 16 9 15 10 14 11 6 12
REMARK SMILES IDX 8 13 7 14 9 15 11 16 12 17 10 18 13 20 4 22 21 24 18 26
REMARK H PARENT 10 19 13 21 4 23 21 25 18 27
REMARK Flexibility Score: inf
ROOT
ATOM      1  C   UNL     1      14.686  55.097  33.203  1.00  0.00     0.184 A 
ATOM      2  C   UNL     1      15.038  56.455  33.202  1.00  0.00     0.208 A 
ATOM      3  C   UNL     1      15.445  57.051  31.999  1.00  0.00     0.238 A 
ATOM      4  O   UNL     1      15.817  58.253  32.016  1.00  0.00    -0.285 OA
ATOM      5  C   UNL     1      15.468  56.287  30.807  1.00  0.00     0.111 A 
ATOM      6  C   UNL     1      15.826  56.798  29.522  1.00  0.00     0.134 A 
ATOM      7  C   UNL     1      15.932  55.921  28.435  1.00  0.00     0.093 A 
ATOM      8  C   UNL     1      15.630  54.564  28.571  1.00  0.00     0.123 A 
ATOM      9  C   UNL     1      15.223  54.067  29.807  1.00  0.00     0.094 A 
ATOM     10  C   UNL     1      15.145  54.909  30.919  1.00  0.00     0.146 A 
ATOM     11  O   UNL     1      14.766  54.391  32.081  1.00  0.00    -0.451 OA
ENDROOT
BRANCH   1  12
ATOM     12  C   UNL     1      14.228  54.420  34.435  1.00  0.00     0.063 A 
ATOM     13  C   UNL     1      12.564  54.207  36.199  1.00  0.00     0.047 A 
ATOM     14  C   UNL     1      13.050  54.861  35.065  1.00  0.00     0.020 A 
ATOM     15  C   UNL     1      13.242  53.097  36.715  1.00  0.00     0.119 A 
ATOM     16  C   UNL     1      14.412  52.650  36.096  1.00  0.00     0.093 A 
ATOM     17  C   UNL     1      14.917  53.304  34.965  1.00  0.00     0.130 A 
BRANCH  15  18
ATOM     18  O   UNL     1      12.763  52.434  37.842  1.00  0.00    -0.508 OA
ATOM     19  H   UNL     1      12.784  52.863  38.759  1.00  0.00     0.293 HD
ENDBRANCH  15  18
BRANCH  17  20
ATOM     20  O   UNL     1      16.109  52.835  34.408  1.00  0.00    -0.507 OA
ATOM     21  H   UNL     1      16.143  52.104  33.710  1.00  0.00     0.293 HD
ENDBRANCH  17  20
ENDBRANCH   1  12
BRANCH   2  22
ATOM     22  O   UNL     1      15.002  57.185  34.393  1.00  0.00    -0.502 OA
ATOM     23  H   UNL     1      15.410  58.109  34.475  1.00  0.00     0.293 HD
ENDBRANCH   2  22
BRANCH   6  24
ATOM     24  O   UNL     1      16.060  58.150  29.257  1.00  0.00    -0.507 OA
ATOM     25  H   UNL     1      15.468  58.737  28.689  1.00  0.00     0.293 HD
ENDBRANCH   6  24
BRANCH   8  26
ATOM     26  O   UNL     1      15.721  53.702  27.481  1.00  0.00    -0.508 OA
ATOM     27  H   UNL     1      14.916  53.187  27.144  1.00  0.00     0.293 HD
ENDBRANCH   8  26
TORSDOF 6
ENDMDL
MODEL 5
REMARK VINA RESULT:    -5.246      2.991      6.374
REMARK INTER + INTRA:          -6.737
REMARK INTER:                  -6.334
REMARK INTRA:                  -0.402
REMARK UNBOUND:                -0.417
REMARK SMILES O=c1c(O)c(-c2ccc(O)cc2O)oc2cc(O)cc(O)c12
REMARK SMILES IDX 5 1 3 2 2 3 1 4 22 5 20 6 19 7 17 8 16 9 15 10 14 11 6 12
REMARK SMILES IDX 8 13 7 14 9 15 11 16 12 17 10 18 13 20 4 22 21 24 18 26
REMARK H PARENT 10 19 13 21 4 23 21 25 18 27
REMARK Flexibility Score: inf
ROOT
ATOM      1  C   UNL     1      15.638  56.363  31.695  1.00  0.00     0.184 A 
ATOM      2  C   UNL     1      15.739  56.371  30.296  1.00  0.00     0.208 A 
ATOM      3  C   UNL     1      15.503  55.182  29.590  1.00  0.00     0.238 A 
ATOM      4  O   UNL     1      15.654  55.181  28.340  1.00  0.00    -0.285 OA
ATOM      5  C   UNL     1      15.141  54.006  30.292  1.00  0.00     0.111 A 
ATOM      6  C   UNL     1      14.840  52.753  29.676  1.00  0.00     0.134 A 
ATOM      7  C   UNL     1      14.614  51.627  30.477  1.00  0.00     0.093 A 
ATOM      8  C   UNL     1      14.614  51.721  31.871  1.00  0.00     0.123 A 
ATOM      9  C   UNL     1      14.848  52.952  32.480  1.00  0.00     0.094 A 
ATOM     10  C   UNL     1      15.115  54.086  31.709  1.00  0.00     0.146 A 
ATOM     11  O   UNL     1      15.347  55.235  32.332  1.00  0.00    -0.451 OA
ENDROOT
BRANCH   1  12
ATOM     12  C   UNL     1      15.853  57.591  32.490  1.00  0.00     0.063 A 
ATOM     13  C   UNL     1      14.911  59.480  33.703  1.00  0.00     0.047 A 
ATOM     14  C   UNL     1      14.741  58.346  32.905  1.00  0.00     0.020 A 
ATOM     15  C   UNL     1      16.193  59.871  34.105  1.00  0.00     0.119 A 
ATOM     16  C   UNL     1      17.304  59.127  33.700  1.00  0.00     0.093 A 
ATOM     17  C   UNL     1      17.149  57.994  32.891  1.00  0.00     0.130 A 
BRANCH  15  18
ATOM     18  O   UNL     1      16.373  60.997  34.905  1.00  0.00    -0.508 OA
ATOM     19  H   UNL     1      16.180  61.929  34.559  1.00  0.00     0.293 HD
ENDBRANCH  15  18
BRANCH  17  20
ATOM     20  O   UNL     1      18.297  57.310  32.486  1.00  0.00    -0.507 OA
ATOM     21  H   UNL     1      18.351  56.300  32.441  1.00  0.00     0.293 HD
ENDBRANCH  17  20
ENDBRANCH   1  12
BRANCH   2  22
ATOM     22  O   UNL     1      16.094  57.547  29.629  1.00  0.00    -0.502 OA
ATOM     23  H   UNL     1      16.427  57.549  28.673  1.00  0.00     0.293 HD
ENDBRANCH   2  22
BRANCH   6  24
ATOM     24  O   UNL     1      14.725  52.570  28.295  1.00  0.00    -0.507 OA
ATOM     25  H   UNL     1      14.362  51.740  27.852  1.00  0.00     0.293 HD
ENDBRANCH   6  24
BRANCH   8  26
ATOM     26  O   UNL     1      14.371  50.599  32.659  1.00  0.00    -0.508 OA
ATOM     27  H   UNL     1      14.044  50.684  33.615  1.00  0.00     0.293 HD
ENDBRANCH   8  26
TORSDOF 6
ENDMDL
MODEL 6
REMARK VINA RESULT:    -5.233      2.549      3.940
REMARK INTER + INTRA:          -6.721
REMARK INTER:                  -6.340
REMARK INTRA:                  -0.381
REMARK UNBOUND:                -0.417
REMARK SMILES O=c1c(O)c(-c2ccc(O)cc2O)oc2cc(O)cc(O)c12
REMARK SMILES IDX 5 1 3 2 2 3 1 4 22 5 20 6 19 7 17 8 16 9 15 10 14 11 6 12
REMARK SMILES IDX 8 13 7 14 9 15 11 16 12 17 10 18 13 20 4 22 21 24 18 26
REMARK H PARENT 10 19 13 21 4 23 21 25 18 27
REMARK Flexibility Score: inf
ROOT
ATOM      1  C   UNL     1      15.304  56.399  32.870  1.00  0.00     0.184 A 
ATOM      2  C   UNL     1      16.578  56.965  32.718  1.00  0.00     0.208 A 
ATOM      3  C   UNL     1      16.774  58.307  33.078  1.00  0.00     0.238 A 
ATOM      4  O   UNL     1      17.903  58.827  32.882  1.00  0.00    -0.285 OA
ATOM      5  C   UNL     1      15.698  59.057  33.612  1.00  0.00     0.111 A 
ATOM      6  C   UNL     1      15.792  60.414  34.048  1.00  0.00     0.134 A 
ATOM      7  C   UNL     1      14.633  61.093  34.445  1.00  0.00     0.093 A 
ATOM      8  C   UNL     1      13.395  60.446  34.484  1.00  0.00     0.123 A 
ATOM      9  C   UNL     1      13.305  59.106  34.117  1.00  0.00     0.094 A 
ATOM     10  C   UNL     1      14.435  58.412  33.680  1.00  0.00     0.146 A 
ATOM     11  O   UNL     1      14.300  57.139  33.326  1.00  0.00    -0.451 OA
ENDROOT
BRANCH   1  12
ATOM     12  C   UNL     1      15.043  54.984  32.530  1.00  0.00     0.063 A 
ATOM     13  C   UNL     1      14.559  53.303  30.837  1.00  0.00     0.047 A 
ATOM     14  C   UNL     1      14.757  54.638  31.198  1.00  0.00     0.020 A 
ATOM     15  C   UNL     1      14.655  52.293  31.802  1.00  0.00     0.119 A 
ATOM     16  C   UNL     1      14.941  52.627  33.129  1.00  0.00     0.093 A 
ATOM     17  C   UNL     1      15.129  53.962  33.505  1.00  0.00     0.130 A 
BRANCH  15  18
ATOM     18  O   UNL     1      14.466  50.958  31.453  1.00  0.00    -0.508 OA
ATOM     19  H   UNL     1      15.176  50.258  31.633  1.00  0.00     0.293 HD
ENDBRANCH  15  18
BRANCH  17  20
ATOM     20  O   UNL     1      15.377  54.240  34.851  1.00  0.00    -0.507 OA
ATOM     21  H   UNL     1      15.293  53.547  35.583  1.00  0.00     0.293 HD
ENDBRANCH  17  20
ENDBRANCH   1  12
BRANCH   2  22
ATOM     22  O   UNL     1      17.623  56.200  32.191  1.00  0.00    -0.502 OA
ATOM     23  H   UNL     1      17.462  55.409  31.580  1.00  0.00     0.293 HD
ENDBRANCH   2  22
BRANCH   6  24
ATOM     24  O   UNL     1      16.992  61.125  34.134  1.00  0.00    -0.507 OA
ATOM     25  H   UNL     1      17.108  62.093  33.878  1.00  0.00     0.293 HD
ENDBRANCH   6  24
BRANCH   8  26
ATOM     26  O   UNL     1      12.251  61.125  34.897  1.00  0.00    -0.508 OA
ATOM     27  H   UNL     1      11.841  60.965  35.809  1.00  0.00     0.293 HD
ENDBRANCH   8  26
TORSDOF 6
ENDMDL
MODEL 7
REMARK VINA RESULT:    -5.016      2.928      3.875
REMARK INTER + INTRA:          -6.460
REMARK INTER:                  -6.250
REMARK INTRA:                  -0.210
REMARK UNBOUND:                -0.417
REMARK SMILES O=c1c(O)c(-c2ccc(O)cc2O)oc2cc(O)cc(O)c12
REMARK SMILES IDX 5 1 3 2 2 3 1 4 22 5 20 6 19 7 17 8 16 9 15 10 14 11 6 12
REMARK SMILES IDX 8 13 7 14 9 15 11 16 12 17 10 18 13 20 4 22 21 24 18 26
REMARK H PARENT 10 19 13 21 4 23 21 25 18 27
REMARK Flexibility Score: inf
ROOT
ATOM      1  C   UNL     1      14.040  54.575  32.974  1.00  0.00     0.184 A 
ATOM      2  C   UNL     1      13.097  55.414  33.586  1.00  0.00     0.208 A 
ATOM      3  C   UNL     1      13.453  56.740  33.876  1.00  0.00     0.238 A 
ATOM      4  O   UNL     1      12.624  57.470  34.480  1.00  0.00    -0.285 OA
ATOM      5  C   UNL     1      14.739  57.217  33.525  1.00  0.00     0.111 A 
ATOM      6  C   UNL     1      15.195  58.554  33.736  1.00  0.00     0.134 A 
ATOM      7  C   UNL     1      16.528  58.880  33.461  1.00  0.00     0.093 A 
ATOM      8  C   UNL     1      17.406  57.936  32.923  1.00  0.00     0.123 A 
ATOM      9  C   UNL     1      16.954  56.645  32.658  1.00  0.00     0.094 A 
ATOM     10  C   UNL     1      15.640  56.278  32.957  1.00  0.00     0.146 A 
ATOM     11  O   UNL     1      15.256  55.033  32.702  1.00  0.00    -0.451 OA
ENDROOT
BRANCH   1  12
ATOM     12  C   UNL     1      13.714  53.176  32.623  1.00  0.00     0.063 A 
ATOM     13  C   UNL     1      12.245  51.600  31.491  1.00  0.00     0.047 A 
ATOM     14  C   UNL     1      12.549  52.905  31.883  1.00  0.00     0.020 A 
ATOM     15  C   UNL     1      13.104  50.547  31.826  1.00  0.00     0.119 A 
ATOM     16  C   UNL     1      14.265  50.806  32.559  1.00  0.00     0.093 A 
ATOM     17  C   UNL     1      14.576  52.108  32.968  1.00  0.00     0.130 A 
BRANCH  15  18
ATOM     18  O   UNL     1      12.814  49.243  31.435  1.00  0.00    -0.508 OA
ATOM     19  H   UNL     1      12.029  48.734  31.825  1.00  0.00     0.293 HD
ENDBRANCH  15  18
BRANCH  17  20
ATOM     20  O   UNL     1      15.731  52.303  33.730  1.00  0.00    -0.507 OA
ATOM     21  H   UNL     1      16.000  53.204  34.104  1.00  0.00     0.293 HD
ENDBRANCH  17  20
ENDBRANCH   1  12
BRANCH   2  22
ATOM     22  O   UNL     1      11.833  54.918  33.918  1.00  0.00    -0.502 OA
ATOM     23  H   UNL     1      11.086  55.514  34.253  1.00  0.00     0.293 HD
ENDBRANCH   2  22
BRANCH   6  24
ATOM     24  O   UNL     1      14.377  59.595  34.185  1.00  0.00    -0.507 OA
ATOM     25  H   UNL     1      14.396  60.538  33.826  1.00  0.00     0.293 HD
ENDBRANCH   6  24
BRANCH   8  26
ATOM     26  O   UNL     1      18.726  58.274  32.636  1.00  0.00    -0.508 OA
ATOM     27  H   UNL     1      19.323  58.712  33.328  1.00  0.00     0.293 HD
ENDBRANCH   8  26
TORSDOF 6
ENDMDL
MODEL 8
REMARK VINA RESULT:    -4.966      2.258      3.410
REMARK INTER + INTRA:          -6.400
REMARK INTER:                  -5.985
REMARK INTRA:                  -0.415
REMARK UNBOUND:                -0.417
REMARK SMILES O=c1c(O)c(-c2ccc(O)cc2O)oc2cc(O)cc(O)c12
REMARK SMILES IDX 5 1 3 2 2 3 1 4 22 5 20 6 19 7 17 8 16 9 15 10 14 11 6 12
REMARK SMILES IDX 8 13 7 14 9 15 11 16 12 17 10 18 13 20 4 22 21 24 18 26
REMARK H PARENT 10 19 13 21 4 23 21 25 18 27
REMARK Flexibility Score: inf
ROOT
ATOM      1  C   UNL     1      14.524  56.162  33.449  1.00  0.00     0.184 A 
ATOM      2  C   UNL     1      13.316  56.689  33.928  1.00  0.00     0.208 A 
ATOM      3  C   UNL     1      13.226  58.069  34.171  1.00  0.00     0.238 A 
ATOM      4  O   UNL     1      12.159  58.527  34.658  1.00  0.00    -0.285 OA
ATOM      5  C   UNL     1      14.337  58.905  33.907  1.00  0.00     0.111 A 
ATOM      6  C   UNL     1      14.346  60.323  34.079  1.00  0.00     0.134 A 
ATOM      7  C   UNL     1      15.540  61.033  33.903  1.00  0.00     0.093 A 
ATOM      8  C   UNL     1      16.710  60.386  33.497  1.00  0.00     0.123 A 
ATOM      9  C   UNL     1      16.697  59.012  33.269  1.00  0.00     0.094 A 
ATOM     10  C   UNL     1      15.531  58.271  33.473  1.00  0.00     0.146 A 
ATOM     11  O   UNL     1      15.567  56.961  33.257  1.00  0.00    -0.451 OA
ENDROOT
BRANCH   1  12
ATOM     12  C   UNL     1      14.672  54.721  33.151  1.00  0.00     0.063 A 
ATOM     13  C   UNL     1      14.635  52.916  31.519  1.00  0.00     0.047 A 
ATOM     14  C   UNL     1      14.451  54.262  31.840  1.00  0.00     0.020 A 
ATOM     15  C   UNL     1      15.052  52.009  32.501  1.00  0.00     0.119 A 
ATOM     16  C   UNL     1      15.276  52.455  33.806  1.00  0.00     0.093 A 
ATOM     17  C   UNL     1      15.083  53.800  34.144  1.00  0.00     0.130 A 
BRANCH  15  18
ATOM     18  O   UNL     1      15.245  50.665  32.190  1.00  0.00    -0.508 OA
ATOM     19  H   UNL     1      14.466  50.022  32.114  1.00  0.00     0.293 HD
ENDBRANCH  15  18
BRANCH  17  20
ATOM     20  O   UNL     1      15.287  54.183  35.472  1.00  0.00    -0.507 OA
ATOM     21  H   UNL     1      14.529  54.346  36.122  1.00  0.00     0.293 HD
ENDBRANCH  17  20
ENDBRANCH   1  12
BRANCH   2  22
ATOM     22  O   UNL     1      12.234  55.841  34.176  1.00  0.00    -0.502 OA
ATOM     23  H   UNL     1      11.877  55.676  35.109  1.00  0.00     0.293 HD
ENDBRANCH   2  22
BRANCH   6  24
ATOM     24  O   UNL     1      13.212  61.077  34.395  1.00  0.00    -0.507 OA
ATOM     25  H   UNL     1      13.188  62.084  34.455  1.00  0.00     0.293 HD
ENDBRANCH   6  24
BRANCH   8  26
ATOM     26  O   UNL     1      17.889  61.103  33.307  1.00  0.00    -0.508 OA
ATOM     27  H   UNL     1      18.797  60.673  33.439  1.00  0.00     0.293 HD
ENDBRANCH   8  26
TORSDOF 6
ENDMDL
MODEL 9
REMARK VINA RESULT:    -4.819      4.927      6.450
REMARK INTER + INTRA:          -6.222
REMARK INTER:                  -5.929
REMARK INTRA:                  -0.293
REMARK UNBOUND:                -0.417
REMARK SMILES O=c1c(O)c(-c2ccc(O)cc2O)oc2cc(O)cc(O)c12
REMARK SMILES IDX 5 1 3 2 2 3 1 4 22 5 20 6 19 7 17 8 16 9 15 10 14 11 6 12
REMARK SMILES IDX 8 13 7 14 9 15 11 16 12 17 10 18 13 20 4 22 21 24 18 26
REMARK H PARENT 10 19 13 21 4 23 21 25 18 27
REMARK Flexibility Score: inf
ROOT
ATOM      1  C   UNL     1      14.665  50.963  32.097  1.00  0.00     0.184 A 
ATOM      2  C   UNL     1      14.705  51.877  31.034  1.00  0.00     0.208 A 
ATOM      3  C   UNL     1      14.813  53.247  31.318  1.00  0.00     0.238 A 
ATOM      4  O   UNL     1      14.788  54.066  30.362  1.00  0.00    -0.285 OA
ATOM      5  C   UNL     1      14.907  53.682  32.662  1.00  0.00     0.111 A 
ATOM      6  C   UNL     1      15.059  55.044  33.066  1.00  0.00     0.134 A 
ATOM      7  C   UNL     1      15.018  55.369  34.427  1.00  0.00     0.093 A 
ATOM      8  C   UNL     1      14.895  54.376  35.402  1.00  0.00     0.123 A 
ATOM      9  C   UNL     1      14.806  53.040  35.020  1.00  0.00     0.094 A 
ATOM     10  C   UNL     1      14.806  52.687  33.669  1.00  0.00     0.146 A 
ATOM     11  O   UNL     1      14.704  51.402  33.349  1.00  0.00    -0.451 OA
ENDROOT
BRANCH   1  12
ATOM     12  C   UNL     1      14.576  49.507  31.859  1.00  0.00     0.063 A 
ATOM     13  C   UNL     1      13.247  47.467  31.890  1.00  0.00     0.047 A 
ATOM     14  C   UNL     1      13.378  48.833  32.155  1.00  0.00     0.020 A 
ATOM     15  C   UNL     1      14.308  46.758  31.316  1.00  0.00     0.119 A 
ATOM     16  C   UNL     1      15.502  47.419  31.016  1.00  0.00     0.093 A 
ATOM     17  C   UNL     1      15.651  48.785  31.287  1.00  0.00     0.130 A 
BRANCH  15  18
ATOM     18  O   UNL     1      14.187  45.398  31.042  1.00  0.00    -0.508 OA
ATOM     19  H   UNL     1      13.795  45.067  30.169  1.00  0.00     0.293 HD
ENDBRANCH  15  18
BRANCH  17  20
ATOM     20  O   UNL     1      16.878  49.386  31.000  1.00  0.00    -0.507 OA
ATOM     21  H   UNL     1      17.192  49.577  30.057  1.00  0.00     0.293 HD
ENDBRANCH  17  20
ENDBRANCH   1  12
BRANCH   2  22
ATOM     22  O   UNL     1      14.615  51.419  29.716  1.00  0.00    -0.502 OA
ATOM     23  H   UNL     1      15.432  51.234  29.148  1.00  0.00     0.293 HD
ENDBRANCH   2  22
BRANCH   6  24
ATOM     24  O   UNL     1      15.279  56.101  32.178  1.00  0.00    -0.507 OA
ATOM     25  H   UNL     1      15.413  56.001  31.184  1.00  0.00     0.293 HD
ENDBRANCH   6  24
BRANCH   8  26
ATOM     26  O   UNL     1      14.873  54.707  36.755  1.00  0.00    -0.508 OA
ATOM     27  H   UNL     1      15.726  54.887  37.271  1.00  0.00     0.293 HD
ENDBRANCH   8  26
TORSDOF 6
ENDMDL
