MODEL 1
REMARK VINA RESULT:    -5.404      0.000      0.000
REMARK INTER + INTRA:          -6.483
REMARK INTER:                  -6.351
REMARK INTRA:                  -0.132
REMARK UNBOUND:                -0.132
REMARK SMILES O=C([O-])C=Cc1ccc(O)c(O)c1
REMARK SMILES IDX 6 1 13 2 7 3 11 4 8 5 9 6 5 7 4 8 2 9 1 10 3 11 12 12 10 14
REMARK H PARENT 12 13 10 15
REMARK Flexibility Score: inf
ROOT
ATOM      1  C   UNL     1      -2.257   5.555   8.930  1.00  0.00    -0.022 A 
ATOM      2  C   UNL     1      -3.133   4.506   9.249  1.00  0.00     0.058 A 
ATOM      3  C   UNL     1      -1.190   5.304   8.048  1.00  0.00     0.012 A 
ATOM      4  C   UNL     1      -2.946   3.221   8.724  1.00  0.00     0.157 A 
ATOM      5  C   UNL     1      -0.997   4.026   7.520  1.00  0.00     0.051 A 
ATOM      6  C   UNL     1      -1.861   2.977   7.851  1.00  0.00     0.157 A 
ENDROOT
BRANCH   1   7
ATOM      7  C   UNL     1      -2.515   6.897   9.510  1.00  0.00     0.010 C 
ATOM      8  C   UNL     1      -1.552   7.702   9.980  1.00  0.00     0.025 C 
BRANCH   8   9
ATOM      9  C   UNL     1      -1.856   9.021  10.557  1.00  0.00     0.064 C 
ATOM     10  O   UNL     1      -2.393   9.094  11.694  1.00  0.00    -0.545 OA
ATOM     11  O   UNL     1      -1.557  10.192   9.870  1.00  0.00    -0.545 OA
ENDBRANCH   8   9
ENDBRANCH   1   7
BRANCH   4  12
ATOM     12  O   UNL     1      -3.855   2.227   9.094  1.00  0.00    -0.504 OA
ATOM     13  H   UNL     1      -3.798   1.267   8.786  1.00  0.00     0.293 HD
ENDBRANCH   4  12
BRANCH   6  14
ATOM     14  O   UNL     1      -1.609   1.722   7.291  1.00  0.00    -0.504 OA
ATOM     15  H   UNL     1      -1.105   0.985   7.762  1.00  0.00     0.293 HD
ENDBRANCH   6  14
TORSDOF 4
ENDMDL
MODEL 2
REMARK VINA RESULT:    -5.313     15.621     17.766
REMARK INTER + INTRA:          -6.377
REMARK INTER:                  -6.245
REMARK INTRA:                  -0.132
REMARK UNBOUND:                -0.132
REMARK SMILES O=C([O-])C=Cc1ccc(O)c(O)c1
REMARK SMILES IDX 6 1 13 2 7 3 11 4 8 5 9 6 5 7 4 8 2 9 1 10 3 11 12 12 10 14
REMARK H PARENT 12 13 10 15
REMARK Flexibility Score: inf
ROOT
ATOM      1  C   UNL     1     -10.657   8.458  23.861  1.00  0.00    -0.022 A 
ATOM      2  C   UNL     1      -9.846   9.226  23.010  1.00  0.00     0.058 A 
ATOM      3  C   UNL     1     -10.936   8.943  25.151  1.00  0.00     0.012 A 
ATOM      4  C   UNL     1      -9.299  10.443  23.434  1.00  0.00     0.157 A 
ATOM      5  C   UNL     1     -10.394  10.156  25.582  1.00  0.00     0.051 A 
ATOM      6  C   UNL     1      -9.573  10.912  24.739  1.00  0.00     0.157 A 
ENDROOT
BRANCH   1   7
ATOM      7  C   UNL     1     -11.215   7.182  23.349  1.00  0.00     0.010 C 
ATOM      8  C   UNL     1     -10.727   6.530  22.284  1.00  0.00     0.025 C 
BRANCH   8   9
ATOM      9  C   UNL     1     -11.320   5.271  21.805  1.00  0.00     0.064 C 
ATOM     10  O   UNL     1     -10.606   4.237  21.730  1.00  0.00    -0.545 OA
ATOM     11  O   UNL     1     -12.658   5.203  21.433  1.00  0.00    -0.545 OA
ENDBRANCH   8   9
ENDBRANCH   1   7
BRANCH   4  12
ATOM     12  O   UNL     1      -8.495  11.146  22.533  1.00  0.00    -0.504 OA
ATOM     13  H   UNL     1      -8.765  12.014  22.095  1.00  0.00     0.293 HD
ENDBRANCH   4  12
BRANCH   6  14
ATOM     14  O   UNL     1      -9.062  12.115  25.233  1.00  0.00    -0.504 OA
ATOM     15  H   UNL     1      -8.085  12.272  25.434  1.00  0.00     0.293 HD
ENDBRANCH   6  14
TORSDOF 4
ENDMDL
MODEL 3
REMARK VINA RESULT:    -5.011      0.839      1.945
REMARK INTER + INTRA:          -6.022
REMARK INTER:                  -5.895
REMARK INTRA:                  -0.126
REMARK UNBOUND:                -0.132
REMARK SMILES O=C([O-])C=Cc1ccc(O)c(O)c1
REMARK SMILES IDX 6 1 13 2 7 3 11 4 8 5 9 6 5 7 4 8 2 9 1 10 3 11 12 12 10 14
REMARK H PARENT 12 13 10 15
REMARK Flexibility Score: inf
ROOT
ATOM      1  C   UNL     1      -2.210   5.716   8.679  1.00  0.00    -0.022 A 
ATOM      2  C   UNL     1      -1.030   5.357   8.007  1.00  0.00     0.058 A 
ATOM      3  C   UNL     1      -3.188   4.730   8.906  1.00  0.00     0.012 A 
ATOM      4  C   UNL     1      -0.829   4.051   7.543  1.00  0.00     0.157 A 
ATOM      5  C   UNL     1      -2.995   3.426   8.446  1.00  0.00     0.051 A 
ATOM      6  C   UNL     1      -1.827   3.074   7.762  1.00  0.00     0.157 A 
ENDROOT
BRANCH   1   7
ATOM      7  C   UNL     1      -2.359   7.113   9.156  1.00  0.00     0.010 C 
ATOM      8  C   UNL     1      -1.526   7.694  10.031  1.00  0.00     0.025 C 
BRANCH   8   9
ATOM      9  C   UNL     1      -1.718   9.080  10.484  1.00  0.00     0.064 C 
ATOM     10  O   UNL     1      -2.145   9.300  11.649  1.00  0.00    -0.545 OA
ATOM     11  O   UNL     1      -1.436  10.155   9.649  1.00  0.00    -0.545 OA
ENDBRANCH   8   9
ENDBRANCH   1   7
BRANCH   4  12
ATOM     12  O   UNL     1       0.366   3.773   6.875  1.00  0.00    -0.504 OA
ATOM     13  H   UNL     1       1.122   4.433   6.772  1.00  0.00     0.293 HD
ENDBRANCH   4  12
BRANCH   6  14
ATOM     14  O   UNL     1      -1.699   1.753   7.326  1.00  0.00    -0.504 OA
ATOM     15  H   UNL     1      -0.965   1.429   6.712  1.00  0.00     0.293 HD
ENDBRANCH   6  14
TORSDOF 4
ENDMDL
MODEL 4
REMARK VINA RESULT:    -4.993      1.396      1.768
REMARK INTER + INTRA:          -6.001
REMARK INTER:                  -5.867
REMARK INTRA:                  -0.134
REMARK UNBOUND:                -0.132
REMARK SMILES O=C([O-])C=Cc1ccc(O)c(O)c1
REMARK SMILES IDX 6 1 13 2 7 3 11 4 8 5 9 6 5 7 4 8 2 9 1 10 3 11 12 12 10 14
REMARK H PARENT 12 13 10 15
REMARK Flexibility Score: inf
ROOT
ATOM      1  C   UNL     1      -2.490   6.318   9.535  1.00  0.00    -0.022 A 
ATOM      2  C   UNL     1      -2.455   5.397  10.595  1.00  0.00     0.058 A 
ATOM      3  C   UNL     1      -2.900   5.875   8.265  1.00  0.00     0.012 A 
ATOM      4  C   UNL     1      -2.796   4.054  10.398  1.00  0.00     0.157 A 
ATOM      5  C   UNL     1      -3.241   4.536   8.060  1.00  0.00     0.051 A 
ATOM      6  C   UNL     1      -3.190   3.616   9.113  1.00  0.00     0.157 A 
ENDROOT
BRANCH   1   7
ATOM      7  C   UNL     1      -2.128   7.731   9.809  1.00  0.00     0.010 C 
ATOM      8  C   UNL     1      -2.055   8.255  11.041  1.00  0.00     0.025 C 
BRANCH   8   9
ATOM      9  C   UNL     1      -1.702   9.665  11.266  1.00  0.00     0.064 C 
ATOM     10  O   UNL     1      -1.665  10.117  12.440  1.00  0.00    -0.545 OA
ATOM     11  O   UNL     1      -1.405  10.510  10.202  1.00  0.00    -0.545 OA
ENDBRANCH   8   9
ENDBRANCH   1   7
BRANCH   4  12
ATOM     12  O   UNL     1      -2.728   3.196  11.499  1.00  0.00    -0.504 OA
ATOM     13  H   UNL     1      -3.004   2.226  11.476  1.00  0.00     0.293 HD
ENDBRANCH   4  12
BRANCH   6  14
ATOM     14  O   UNL     1      -3.541   2.292   8.840  1.00  0.00    -0.504 OA
ATOM     15  H   UNL     1      -3.750   1.942   7.916  1.00  0.00     0.293 HD
ENDBRANCH   6  14
TORSDOF 4
ENDMDL
MODEL 5
REMARK VINA RESULT:    -4.818      4.018      6.070
REMARK INTER + INTRA:          -5.795
REMARK INTER:                  -5.662
REMARK INTRA:                  -0.133
REMARK UNBOUND:                -0.132
REMARK SMILES O=C([O-])C=Cc1ccc(O)c(O)c1
REMARK SMILES IDX 6 1 13 2 7 3 11 4 8 5 9 6 5 7 4 8 2 9 1 10 3 11 12 12 10 14
REMARK H PARENT 12 13 10 15
REMARK Flexibility Score: inf
ROOT
ATOM      1  C   UNL     1      -1.871   8.450  12.469  1.00  0.00    -0.022 A 
ATOM      2  C   UNL     1      -1.920   7.711  11.275  1.00  0.00     0.058 A 
ATOM      3  C   UNL     1      -1.701   9.844  12.396  1.00  0.00     0.012 A 
ATOM      4  C   UNL     1      -1.778   8.335  10.030  1.00  0.00     0.157 A 
ATOM      5  C   UNL     1      -1.558  10.475  11.158  1.00  0.00     0.051 A 
ATOM      6  C   UNL     1      -1.591   9.735   9.971  1.00  0.00     0.157 A 
ENDROOT
BRANCH   1   7
ATOM      7  C   UNL     1      -2.038   7.731  13.756  1.00  0.00     0.010 C 
ATOM      8  C   UNL     1      -2.491   6.473  13.853  1.00  0.00     0.025 C 
BRANCH   8   9
ATOM      9  C   UNL     1      -2.651   5.803  15.153  1.00  0.00     0.064 C 
ATOM     10  O   UNL     1      -3.801   5.679  15.651  1.00  0.00    -0.545 OA
ATOM     11  O   UNL     1      -1.553   5.302  15.844  1.00  0.00    -0.545 OA
ENDBRANCH   8   9
ENDBRANCH   1   7
BRANCH   4  12
ATOM     12  O   UNL     1      -1.830   7.533   8.888  1.00  0.00    -0.504 OA
ATOM     13  H   UNL     1      -2.369   6.683   8.820  1.00  0.00     0.293 HD
ENDBRANCH   4  12
BRANCH   6  14
ATOM     14  O   UNL     1      -1.440  10.428   8.767  1.00  0.00    -0.504 OA
ATOM     15  H   UNL     1      -0.732  10.216   8.079  1.00  0.00     0.293 HD
ENDBRANCH   6  14
TORSDOF 4
ENDMDL
MODEL 6
REMARK VINA RESULT:    -4.760      4.450      6.481
REMARK INTER + INTRA:          -5.727
REMARK INTER:                  -5.588
REMARK INTRA:                  -0.138
REMARK UNBOUND:                -0.132
REMARK SMILES O=C([O-])C=Cc1ccc(O)c(O)c1
REMARK SMILES IDX 6 1 13 2 7 3 11 4 8 5 9 6 5 7 4 8 2 9 1 10 3 11 12 12 10 14
REMARK H PARENT 12 13 10 15
REMARK Flexibility Score: inf
ROOT
ATOM      1  C   UNL     1      -2.113   8.118  12.471  1.00  0.00    -0.022 A 
ATOM      2  C   UNL     1      -1.991   9.516  12.523  1.00  0.00     0.058 A 
ATOM      3  C   UNL     1      -1.980   7.472  11.229  1.00  0.00     0.012 A 
ATOM      4  C   UNL     1      -1.766  10.268  11.364  1.00  0.00     0.157 A 
ATOM      5  C   UNL     1      -1.755   8.214  10.067  1.00  0.00     0.051 A 
ATOM      6  C   UNL     1      -1.650   9.608  10.118  1.00  0.00     0.157 A 
ENDROOT
BRANCH   1   7
ATOM      7  C   UNL     1      -2.341   7.377  13.736  1.00  0.00     0.010 C 
ATOM      8  C   UNL     1      -2.537   6.053  13.798  1.00  0.00     0.025 C 
BRANCH   8   9
ATOM      9  C   UNL     1      -2.770   5.361  15.076  1.00  0.00     0.064 C 
ATOM     10  O   UNL     1      -3.907   5.416  15.614  1.00  0.00    -0.545 OA
ATOM     11  O   UNL     1      -1.755   4.645  15.701  1.00  0.00    -0.545 OA
ENDBRANCH   8   9
ENDBRANCH   1   7
BRANCH   4  12
ATOM     12  O   UNL     1      -1.664  11.655  11.495  1.00  0.00    -0.504 OA
ATOM     13  H   UNL     1      -1.600  12.135  12.380  1.00  0.00     0.293 HD
ENDBRANCH   4  12
BRANCH   6  14
ATOM     14  O   UNL     1      -1.428  10.290   8.920  1.00  0.00    -0.504 OA
ATOM     15  H   UNL     1      -1.394  11.296   8.840  1.00  0.00     0.293 HD
ENDBRANCH   6  14
TORSDOF 4
ENDMDL
MODEL 7
REMARK VINA RESULT:    -4.705      4.937      6.856
REMARK INTER + INTRA:          -5.662
REMARK INTER:                  -5.531
REMARK INTRA:                  -0.132
REMARK UNBOUND:                -0.132
REMARK SMILES O=C([O-])C=Cc1ccc(O)c(O)c1
REMARK SMILES IDX 6 1 13 2 7 3 11 4 8 5 9 6 5 7 4 8 2 9 1 10 3 11 12 12 10 14
REMARK H PARENT 12 13 10 15
REMARK Flexibility Score: inf
ROOT
ATOM      1  C   UNL     1      -3.069   3.392  13.346  1.00  0.00    -0.022 A 
ATOM      2  C   UNL     1      -3.294   4.590  14.043  1.00  0.00     0.058 A 
ATOM      3  C   UNL     1      -3.519   2.185  13.909  1.00  0.00     0.012 A 
ATOM      4  C   UNL     1      -3.932   4.594  15.290  1.00  0.00     0.157 A 
ATOM      5  C   UNL     1      -4.156   2.180  15.152  1.00  0.00     0.051 A 
ATOM      6  C   UNL     1      -4.365   3.372  15.854  1.00  0.00     0.157 A 
ENDROOT
BRANCH   1   7
ATOM      7  C   UNL     1      -2.398   3.456  12.024  1.00  0.00     0.010 C 
ATOM      8  C   UNL     1      -3.054   3.466  10.855  1.00  0.00     0.025 C 
BRANCH   8   9
ATOM      9  C   UNL     1      -2.346   3.518   9.566  1.00  0.00     0.064 C 
ATOM     10  O   UNL     1      -1.096   3.365   9.537  1.00  0.00    -0.545 OA
ATOM     11  O   UNL     1      -3.033   3.734   8.377  1.00  0.00    -0.545 OA
ENDBRANCH   8   9
ENDBRANCH   1   7
BRANCH   4  12
ATOM     12  O   UNL     1      -4.113   5.824  15.926  1.00  0.00    -0.504 OA
ATOM     13  H   UNL     1      -4.950   6.083  16.427  1.00  0.00     0.293 HD
ENDBRANCH   4  12
BRANCH   6  14
ATOM     14  O   UNL     1      -5.005   3.296  17.093  1.00  0.00    -0.504 OA
ATOM     15  H   UNL     1      -4.992   2.478  17.686  1.00  0.00     0.293 HD
ENDBRANCH   6  14
TORSDOF 4
ENDMDL
MODEL 8
REMARK VINA RESULT:    -4.563      4.701      6.157
REMARK INTER + INTRA:          -5.495
REMARK INTER:                  -5.361
REMARK INTRA:                  -0.134
REMARK UNBOUND:                -0.132
REMARK SMILES O=C([O-])C=Cc1ccc(O)c(O)c1
REMARK SMILES IDX 6 1 13 2 7 3 11 4 8 5 9 6 5 7 4 8 2 9 1 10 3 11 12 12 10 14
REMARK H PARENT 12 13 10 15
REMARK Flexibility Score: inf
ROOT
ATOM      1  C   UNL     1      -2.368  10.875  11.713  1.00  0.00    -0.022 A 
ATOM      2  C   UNL     1      -2.778   9.645  12.251  1.00  0.00     0.058 A 
ATOM      3  C   UNL     1      -1.235  10.907  10.879  1.00  0.00     0.012 A 
ATOM      4  C   UNL     1      -2.066   8.467  11.992  1.00  0.00     0.157 A 
ATOM      5  C   UNL     1      -0.519   9.737  10.616  1.00  0.00     0.051 A 
ATOM      6  C   UNL     1      -0.919   8.515  11.167  1.00  0.00     0.157 A 
ENDROOT
BRANCH   1   7
ATOM      7  C   UNL     1      -3.171  12.086  12.016  1.00  0.00     0.010 C 
ATOM      8  C   UNL     1      -4.413  12.048  12.518  1.00  0.00     0.025 C 
BRANCH   8   9
ATOM      9  C   UNL     1      -5.177  13.275  12.794  1.00  0.00     0.064 C 
ATOM     10  O   UNL     1      -6.337  13.190  13.278  1.00  0.00    -0.545 OA
ATOM     11  O   UNL     1      -4.640  14.530  12.531  1.00  0.00    -0.545 OA
ENDBRANCH   8   9
ENDBRANCH   1   7
BRANCH   4  12
ATOM     12  O   UNL     1      -2.530   7.283  12.570  1.00  0.00    -0.504 OA
ATOM     13  H   UNL     1      -1.929   6.564  12.944  1.00  0.00     0.293 HD
ENDBRANCH   4  12
BRANCH   6  14
ATOM     14  O   UNL     1      -0.157   7.383  10.865  1.00  0.00    -0.504 OA
ATOM     15  H   UNL     1       0.766   7.417  10.457  1.00  0.00     0.293 HD
ENDBRANCH   6  14
TORSDOF 4
ENDMDL
MODEL 9
REMARK VINA RESULT:    -4.513      1.186      6.173
REMARK INTER + INTRA:          -5.436
REMARK INTER:                  -5.308
REMARK INTRA:                  -0.128
REMARK UNBOUND:                -0.132
REMARK SMILES O=C([O-])C=Cc1ccc(O)c(O)c1
REMARK SMILES IDX 6 1 13 2 7 3 11 4 8 5 9 6 5 7 4 8 2 9 1 10 3 11 12 12 10 14
REMARK H PARENT 12 13 10 15
REMARK Flexibility Score: inf
ROOT
ATOM      1  C   UNL     1      -2.439   6.916  10.286  1.00  0.00    -0.022 A 
ATOM      2  C   UNL     1      -2.025   7.996   9.490  1.00  0.00     0.058 A 
ATOM      3  C   UNL     1      -2.494   7.083  11.681  1.00  0.00     0.012 A 
ATOM      4  C   UNL     1      -1.648   9.216  10.065  1.00  0.00     0.157 A 
ATOM      5  C   UNL     1      -2.120   8.297  12.262  1.00  0.00     0.051 A 
ATOM      6  C   UNL     1      -1.693   9.367  11.469  1.00  0.00     0.157 A 
ENDROOT
BRANCH   1   7
ATOM      7  C   UNL     1      -2.835   5.652   9.616  1.00  0.00     0.010 C 
ATOM      8  C   UNL     1      -1.978   4.664   9.323  1.00  0.00     0.025 C 
BRANCH   8   9
ATOM      9  C   UNL     1      -2.415   3.431   8.648  1.00  0.00     0.064 C 
ATOM     10  O   UNL     1      -3.473   2.860   9.022  1.00  0.00    -0.545 OA
ATOM     11  O   UNL     1      -1.679   2.886   7.602  1.00  0.00    -0.545 OA
ENDBRANCH   8   9
ENDBRANCH   1   7
BRANCH   4  12
ATOM     12  O   UNL     1      -1.241  10.242   9.208  1.00  0.00    -0.504 OA
ATOM     13  H   UNL     1      -0.282  10.534   9.094  1.00  0.00     0.293 HD
ENDBRANCH   4  12
BRANCH   6  14
ATOM     14  O   UNL     1      -1.330  10.552  12.114  1.00  0.00    -0.504 OA
ATOM     15  H   UNL     1      -0.375  10.858  12.238  1.00  0.00     0.293 HD
ENDBRANCH   6  14
TORSDOF 4
ENDMDL
