MODEL 1
REMARK VINA RESULT:    -5.504      0.000      0.000
REMARK INTER + INTRA:          -5.504
REMARK INTER:                  -5.504
REMARK INTRA:                   0.000
REMARK UNBOUND:                 0.000
REMARK SMILES O=c1ccc2ccccc2o1
REMARK SMILES IDX 7 1 8 2 9 3 10 4 5 5 6 6 4 7 3 8 2 9 1 10 11 11
REMARK H PARENT
REMARK Flexibility Score: inf
ROOT
ATOM      1  C   UNL     1      25.813  26.179  44.509  1.00  0.00     0.001 A 
ATOM      2  C   UNL     1      25.710  24.877  45.013  1.00  0.00     0.004 A 
ATOM      3  C   UNL     1      26.807  24.276  45.638  1.00  0.00     0.048 A 
ATOM      4  C   UNL     1      28.013  24.975  45.762  1.00  0.00     0.138 A 
ATOM      5  C   UNL     1      28.118  26.290  45.254  1.00  0.00     0.018 A 
ATOM      6  C   UNL     1      27.013  26.887  44.628  1.00  0.00     0.012 A 
ATOM      7  C   UNL     1      29.335  26.963  45.393  1.00  0.00     0.019 A 
ATOM      8  C   UNL     1      30.402  26.325  46.023  1.00  0.00     0.094 A 
ATOM      9  C   UNL     1      30.226  25.023  46.502  1.00  0.00     0.336 A 
ATOM     10  O   UNL     1      31.178  24.429  47.075  1.00  0.00    -0.246 OA
ATOM     11  O   UNL     1      29.057  24.403  46.358  1.00  0.00    -0.423 OA
ENDROOT
TORSDOF 0
ENDMDL
MODEL 2
REMARK VINA RESULT:    -5.404      2.176      3.691
REMARK INTER + INTRA:          -5.404
REMARK INTER:                  -5.404
REMARK INTRA:                   0.000
REMARK UNBOUND:                 0.000
REMARK SMILES O=c1ccc2ccccc2o1
REMARK SMILES IDX 7 1 8 2 9 3 10 4 5 5 6 6 4 7 3 8 2 9 1 10 11 11
REMARK H PARENT
REMARK Flexibility Score: inf
ROOT
ATOM      1  C   UNL     1      29.236  28.628  46.277  1.00  0.00     0.001 A 
ATOM      2  C   UNL     1      27.896  29.031  46.298  1.00  0.00     0.004 A 
ATOM      3  C   UNL     1      26.875  28.088  46.135  1.00  0.00     0.048 A 
ATOM      4  C   UNL     1      27.192  26.738  45.949  1.00  0.00     0.138 A 
ATOM      5  C   UNL     1      28.545  26.330  45.929  1.00  0.00     0.018 A 
ATOM      6  C   UNL     1      29.564  27.281  46.093  1.00  0.00     0.012 A 
ATOM      7  C   UNL     1      28.830  24.975  45.743  1.00  0.00     0.019 A 
ATOM      8  C   UNL     1      27.781  24.071  45.584  1.00  0.00     0.094 A 
ATOM      9  C   UNL     1      26.465  24.545  45.616  1.00  0.00     0.336 A 
ATOM     10  O   UNL     1      25.504  23.744  45.474  1.00  0.00    -0.246 OA
ATOM     11  O   UNL     1      26.220  25.841  45.795  1.00  0.00    -0.423 OA
ENDROOT
TORSDOF 0
ENDMDL
MODEL 3
REMARK VINA RESULT:    -5.115     10.380     11.274
REMARK INTER + INTRA:          -5.115
REMARK INTER:                  -5.115
REMARK INTRA:                   0.000
REMARK UNBOUND:                 0.000
REMARK SMILES O=c1ccc2ccccc2o1
REMARK SMILES IDX 7 1 8 2 9 3 10 4 5 5 6 6 4 7 3 8 2 9 1 10 11 11
REMARK H PARENT
REMARK Flexibility Score: inf
ROOT
ATOM      1  C   UNL     1      19.487  26.116  39.857  1.00  0.00     0.001 A 
ATOM      2  C   UNL     1      19.042  26.039  38.532  1.00  0.00     0.004 A 
ATOM      3  C   UNL     1      19.159  24.840  37.820  1.00  0.00     0.048 A 
ATOM      4  C   UNL     1      19.722  23.714  38.431  1.00  0.00     0.138 A 
ATOM      5  C   UNL     1      20.171  23.792  39.768  1.00  0.00     0.018 A 
ATOM      6  C   UNL     1      20.050  24.997  40.477  1.00  0.00     0.012 A 
ATOM      7  C   UNL     1      20.728  22.650  40.351  1.00  0.00     0.019 A 
ATOM      8  C   UNL     1      20.825  21.478  39.604  1.00  0.00     0.094 A 
ATOM      9  C   UNL     1      20.359  21.474  38.285  1.00  0.00     0.336 A 
ATOM     10  O   UNL     1      20.438  20.424  37.594  1.00  0.00    -0.246 OA
ATOM     11  O   UNL     1      19.833  22.574  37.753  1.00  0.00    -0.423 OA
ENDROOT
TORSDOF 0
ENDMDL
MODEL 4
REMARK VINA RESULT:    -4.842     10.567     11.645
REMARK INTER + INTRA:          -4.842
REMARK INTER:                  -4.842
REMARK INTRA:                   0.000
REMARK UNBOUND:                 0.000
REMARK SMILES O=c1ccc2ccccc2o1
REMARK SMILES IDX 7 1 8 2 9 3 10 4 5 5 6 6 4 7 3 8 2 9 1 10 11 11
REMARK H PARENT
REMARK Flexibility Score: inf
ROOT
ATOM      1  C   UNL     1      20.874  21.498  39.747  1.00  0.00     0.001 A 
ATOM      2  C   UNL     1      20.496  21.277  38.417  1.00  0.00     0.004 A 
ATOM      3  C   UNL     1      19.936  22.314  37.664  1.00  0.00     0.048 A 
ATOM      4  C   UNL     1      19.752  23.577  38.238  1.00  0.00     0.138 A 
ATOM      5  C   UNL     1      20.134  23.800  39.580  1.00  0.00     0.018 A 
ATOM      6  C   UNL     1      20.695  22.756  40.330  1.00  0.00     0.012 A 
ATOM      7  C   UNL     1      19.939  25.072  40.125  1.00  0.00     0.019 A 
ATOM      8  C   UNL     1      19.377  26.076  39.338  1.00  0.00     0.094 A 
ATOM      9  C   UNL     1      19.024  25.783  38.016  1.00  0.00     0.336 A 
ATOM     10  O   UNL     1      18.515  26.676  37.289  1.00  0.00    -0.246 OA
ATOM     11  O   UNL     1      19.220  24.564  37.520  1.00  0.00    -0.423 OA
ENDROOT
TORSDOF 0
ENDMDL
MODEL 5
REMARK VINA RESULT:    -4.802      9.984     11.133
REMARK INTER + INTRA:          -4.802
REMARK INTER:                  -4.802
REMARK INTRA:                   0.000
REMARK UNBOUND:                 0.000
REMARK SMILES O=c1ccc2ccccc2o1
REMARK SMILES IDX 7 1 8 2 9 3 10 4 5 5 6 6 4 7 3 8 2 9 1 10 11 11
REMARK H PARENT
REMARK Flexibility Score: inf
ROOT
ATOM      1  C   UNL     1      20.425  21.464  38.352  1.00  0.00     0.001 A 
ATOM      2  C   UNL     1      20.865  21.499  39.681  1.00  0.00     0.004 A 
ATOM      3  C   UNL     1      20.718  22.664  40.440  1.00  0.00     0.048 A 
ATOM      4  C   UNL     1      20.131  23.801  39.873  1.00  0.00     0.138 A 
ATOM      5  C   UNL     1      19.686  23.766  38.532  1.00  0.00     0.018 A 
ATOM      6  C   UNL     1      19.836  22.594  37.776  1.00  0.00     0.012 A 
ATOM      7  C   UNL     1      19.103  24.917  37.994  1.00  0.00     0.019 A 
ATOM      8  C   UNL     1      18.977  26.056  38.788  1.00  0.00     0.094 A 
ATOM      9  C   UNL     1      19.439  26.017  40.107  1.00  0.00     0.336 A 
ATOM     10  O   UNL     1      19.334  27.036  40.840  1.00  0.00    -0.246 OA
ATOM     11  O   UNL     1      19.991  24.910  40.596  1.00  0.00    -0.423 OA
ENDROOT
TORSDOF 0
ENDMDL
MODEL 6
REMARK VINA RESULT:    -4.732      9.907     10.902
REMARK INTER + INTRA:          -4.732
REMARK INTER:                  -4.732
REMARK INTRA:                   0.000
REMARK UNBOUND:                 0.000
REMARK SMILES O=c1ccc2ccccc2o1
REMARK SMILES IDX 7 1 8 2 9 3 10 4 5 5 6 6 4 7 3 8 2 9 1 10 11 11
REMARK H PARENT
REMARK Flexibility Score: inf
ROOT
ATOM      1  C   UNL     1      19.051  26.157  38.189  1.00  0.00     0.001 A 
ATOM      2  C   UNL     1      19.523  26.413  39.482  1.00  0.00     0.004 A 
ATOM      3  C   UNL     1      20.093  25.384  40.239  1.00  0.00     0.048 A 
ATOM      4  C   UNL     1      20.192  24.094  39.705  1.00  0.00     0.138 A 
ATOM      5  C   UNL     1      19.715  23.835  38.400  1.00  0.00     0.018 A 
ATOM      6  C   UNL     1      19.145  24.872  37.646  1.00  0.00     0.012 A 
ATOM      7  C   UNL     1      19.829  22.537  37.895  1.00  0.00     0.019 A 
ATOM      8  C   UNL     1      20.403  21.542  38.684  1.00  0.00     0.094 A 
ATOM      9  C   UNL     1      20.854  21.871  39.967  1.00  0.00     0.336 A 
ATOM     10  O   UNL     1      21.376  20.986  40.696  1.00  0.00    -0.246 OA
ATOM     11  O   UNL     1      20.735  23.114  40.426  1.00  0.00    -0.423 OA
ENDROOT
TORSDOF 0
ENDMDL
MODEL 7
REMARK VINA RESULT:    -4.718      9.240     10.328
REMARK INTER + INTRA:          -4.718
REMARK INTER:                  -4.718
REMARK INTRA:                   0.000
REMARK UNBOUND:                 0.000
REMARK SMILES O=c1ccc2ccccc2o1
REMARK SMILES IDX 7 1 8 2 9 3 10 4 5 5 6 6 4 7 3 8 2 9 1 10 11 11
REMARK H PARENT
REMARK Flexibility Score: inf
ROOT
ATOM      1  C   UNL     1      18.550  26.992  44.877  1.00  0.00     0.001 A 
ATOM      2  C   UNL     1      17.353  26.777  44.183  1.00  0.00     0.004 A 
ATOM      3  C   UNL     1      17.362  26.650  42.790  1.00  0.00     0.048 A 
ATOM      4  C   UNL     1      18.568  26.736  42.086  1.00  0.00     0.138 A 
ATOM      5  C   UNL     1      19.776  26.953  42.786  1.00  0.00     0.018 A 
ATOM      6  C   UNL     1      19.761  27.080  44.183  1.00  0.00     0.012 A 
ATOM      7  C   UNL     1      20.965  27.034  42.055  1.00  0.00     0.019 A 
ATOM      8  C   UNL     1      20.926  26.901  40.668  1.00  0.00     0.094 A 
ATOM      9  C   UNL     1      19.694  26.688  40.041  1.00  0.00     0.336 A 
ATOM     10  O   UNL     1      19.638  26.565  38.789  1.00  0.00    -0.246 OA
ATOM     11  O   UNL     1      18.576  26.614  40.760  1.00  0.00    -0.423 OA
ENDROOT
TORSDOF 0
ENDMDL
MODEL 8
REMARK VINA RESULT:    -4.641     13.016     14.236
REMARK INTER + INTRA:          -4.641
REMARK INTER:                  -4.641
REMARK INTRA:                   0.000
REMARK UNBOUND:                 0.000
REMARK SMILES O=c1ccc2ccccc2o1
REMARK SMILES IDX 7 1 8 2 9 3 10 4 5 5 6 6 4 7 3 8 2 9 1 10 11 11
REMARK H PARENT
REMARK Flexibility Score: inf
ROOT
ATOM      1  C   UNL     1      16.510  17.582  45.320  1.00  0.00     0.001 A 
ATOM      2  C   UNL     1      15.157  17.736  45.646  1.00  0.00     0.004 A 
ATOM      3  C   UNL     1      14.472  18.897  45.274  1.00  0.00     0.048 A 
ATOM      4  C   UNL     1      15.137  19.910  44.575  1.00  0.00     0.138 A 
ATOM      5  C   UNL     1      16.503  19.755  44.245  1.00  0.00     0.018 A 
ATOM      6  C   UNL     1      17.184  18.587  44.621  1.00  0.00     0.012 A 
ATOM      7  C   UNL     1      17.140  20.783  43.545  1.00  0.00     0.019 A 
ATOM      8  C   UNL     1      16.418  21.923  43.196  1.00  0.00     0.094 A 
ATOM      9  C   UNL     1      15.068  22.008  43.555  1.00  0.00     0.336 A 
ATOM     10  O   UNL     1      14.399  23.030  43.247  1.00  0.00    -0.246 OA
ATOM     11  O   UNL     1      14.485  21.015  44.221  1.00  0.00    -0.423 OA
ENDROOT
TORSDOF 0
ENDMDL
MODEL 9
REMARK VINA RESULT:    -4.621      8.915     10.335
REMARK INTER + INTRA:          -4.621
REMARK INTER:                  -4.621
REMARK INTRA:                   0.000
REMARK UNBOUND:                 0.000
REMARK SMILES O=c1ccc2ccccc2o1
REMARK SMILES IDX 7 1 8 2 9 3 10 4 5 5 6 6 4 7 3 8 2 9 1 10 11 11
REMARK H PARENT
REMARK Flexibility Score: inf
ROOT
ATOM      1  C   UNL     1      20.428  25.488  40.317  1.00  0.00     0.001 A 
ATOM      2  C   UNL     1      21.251  26.473  40.876  1.00  0.00     0.004 A 
ATOM      3  C   UNL     1      20.871  27.118  42.058  1.00  0.00     0.048 A 
ATOM      4  C   UNL     1      19.667  26.780  42.685  1.00  0.00     0.138 A 
ATOM      5  C   UNL     1      18.836  25.786  42.121  1.00  0.00     0.018 A 
ATOM      6  C   UNL     1      19.223  25.142  40.936  1.00  0.00     0.012 A 
ATOM      7  C   UNL     1      17.640  25.470  42.771  1.00  0.00     0.019 A 
ATOM      8  C   UNL     1      17.302  26.139  43.947  1.00  0.00     0.094 A 
ATOM      9  C   UNL     1      18.173  27.112  44.448  1.00  0.00     0.336 A 
ATOM     10  O   UNL     1      17.886  27.727  45.509  1.00  0.00    -0.246 OA
ATOM     11  O   UNL     1      19.306  27.394  43.811  1.00  0.00    -0.423 OA
ENDROOT
TORSDOF 0
ENDMDL
