MODEL 1
REMARK VINA RESULT:    -5.718      0.000      0.000
REMARK INTER + INTRA:          -9.008
REMARK INTER:                  -7.556
REMARK INTRA:                  -1.451
REMARK UNBOUND:                -1.451
REMARK SMILES CC[C@@H](C=C[C@@H](C)[C@H]1CC[C@@H]2C3=CC[C@@H]4C[C@H](O)CC[C@]4(C)[C@@H]3CC[C@@]21C)C(C)C
REMARK SMILES IDX 6 1 7 2 5 3 4 4 3 5 2 6 1 7 28 8 29 9 30 10 8 11 9 12 26 13
REMARK SMILES IDX 10 14 11 15 25 16 27 17 12 18 24 19 23 20 13 21 21 22 14 23
REMARK SMILES IDX 15 24 20 25 22 26 16 27 19 28 17 29 18 30
REMARK H PARENT 18 31
REMARK Flexibility Score: inf
ROOT
ATOM      1  C   UNL     1       1.759   0.221  -9.880  1.00  0.00     0.012 C 
ATOM      2  C   UNL     1       0.904  -0.071 -11.125  1.00  0.00     0.012 C 
ENDROOT
BRANCH   1   3
ATOM      3  C   UNL     1       2.731   1.335 -10.241  1.00  0.00    -0.028 C 
ATOM      4  C   UNL     1       2.535   2.650 -10.011  1.00  0.00    -0.027 C 
BRANCH   4   5
ATOM      5  C   UNL     1       1.310   3.270  -9.345  1.00  0.00     0.014 C 
BRANCH   5   6
ATOM      6  C   UNL     1       0.304   3.861 -10.376  1.00  0.00     0.004 C 
ATOM      7  C   UNL     1      -0.989   3.063 -10.588  1.00  0.00     0.004 C 
ENDBRANCH   5   6
BRANCH   5   8
ATOM      8  C   UNL     1       1.694   4.275  -8.215  1.00  0.00    -0.011 C 
ATOM      9  C   UNL     1       2.975   5.050  -8.564  1.00  0.00     0.008 C 
ATOM     10  C   UNL     1       0.568   5.253  -7.838  1.00  0.00     0.008 C 
ENDBRANCH   5   8
ENDBRANCH   4   5
ENDBRANCH   1   3
BRANCH   1  11
ATOM     11  C   UNL     1       2.534  -1.046  -9.371  1.00  0.00     0.002 C 
ATOM     12  C   UNL     1       4.045  -0.817  -9.364  1.00  0.00     0.005 C 
ATOM     13  C   UNL     1       2.221  -1.586  -7.923  1.00  0.00    -0.023 C 
ATOM     14  C   UNL     1       4.607  -1.945  -8.531  1.00  0.00     0.009 C 
ATOM     15  C   UNL     1       3.587  -2.189  -7.417  1.00  0.00     0.021 C 
ATOM     16  C   UNL     1       1.064  -2.626  -7.952  1.00  0.00     0.008 C 
ATOM     17  C   UNL     1       1.819  -0.442  -6.952  1.00  0.00     0.012 C 
ATOM     18  C   UNL     1       3.619  -3.662  -6.997  1.00  0.00    -0.067 C 
ATOM     19  C   UNL     1       1.535  -4.029  -8.323  1.00  0.00     0.009 C 
ATOM     20  C   UNL     1       2.436  -4.586  -7.207  1.00  0.00     0.021 C 
ATOM     21  C   UNL     1       4.707  -4.097  -6.335  1.00  0.00    -0.027 C 
ATOM     22  C   UNL     1       2.835  -6.099  -7.389  1.00  0.00    -0.023 C 
ATOM     23  C   UNL     1       4.980  -5.537  -6.014  1.00  0.00     0.031 C 
ATOM     24  C   UNL     1       3.789  -6.508  -6.219  1.00  0.00     0.002 C 
ATOM     25  C   UNL     1       3.554  -6.357  -8.744  1.00  0.00     0.010 C 
ATOM     26  C   UNL     1       1.531  -6.952  -7.313  1.00  0.00     0.012 C 
ATOM     27  C   UNL     1       4.316  -7.964  -6.357  1.00  0.00     0.036 C 
ATOM     28  C   UNL     1       3.998  -7.821  -8.907  1.00  0.00     0.032 C 
ATOM     29  C   UNL     1       4.889  -8.313  -7.755  1.00  0.00     0.114 C 
BRANCH  29  30
ATOM     30  O   UNL     1       6.188  -7.801  -7.917  1.00  0.00    -0.393 OA
ATOM     31  H   UNL     1       6.814  -8.559  -7.780  1.00  0.00     0.210 HD
ENDBRANCH  29  30
ENDBRANCH   1  11
TORSDOF 6
ENDMDL
MODEL 2
REMARK VINA RESULT:    -5.708      2.772      4.395
REMARK INTER + INTRA:          -8.994
REMARK INTER:                  -7.200
REMARK INTRA:                  -1.795
REMARK UNBOUND:                -1.451
REMARK SMILES CC[C@@H](C=C[C@@H](C)[C@H]1CC[C@@H]2C3=CC[C@@H]4C[C@H](O)CC[C@]4(C)[C@@H]3CC[C@@]21C)C(C)C
REMARK SMILES IDX 6 1 7 2 5 3 4 4 3 5 2 6 1 7 28 8 29 9 30 10 8 11 9 12 26 13
REMARK SMILES IDX 10 14 11 15 25 16 27 17 12 18 24 19 23 20 13 21 21 22 14 23
REMARK SMILES IDX 15 24 20 25 22 26 16 27 19 28 17 29 18 30
REMARK H PARENT 18 31
REMARK Flexibility Score: inf
ROOT
ATOM      1  C   UNL     1       1.896  -4.787 -10.117  1.00  0.00     0.012 C 
ATOM      2  C   UNL     1       1.488  -5.897 -11.100  1.00  0.00     0.012 C 
ENDROOT
BRANCH   1   3
ATOM      3  C   UNL     1       2.424  -3.618 -10.937  1.00  0.00    -0.028 C 
ATOM      4  C   UNL     1       2.242  -2.313 -10.647  1.00  0.00    -0.027 C 
BRANCH   4   5
ATOM      5  C   UNL     1       1.480  -1.760  -9.446  1.00  0.00     0.014 C 
BRANCH   5   6
ATOM      6  C   UNL     1       0.027  -1.333  -9.806  1.00  0.00     0.004 C 
ATOM      7  C   UNL     1      -1.092  -2.237  -9.273  1.00  0.00     0.004 C 
ENDBRANCH   5   6
BRANCH   5   8
ATOM      8  C   UNL     1       2.279  -0.650  -8.696  1.00  0.00    -0.011 C 
ATOM      9  C   UNL     1       1.820  -0.517  -7.235  1.00  0.00     0.008 C 
ATOM     10  C   UNL     1       3.806  -0.826  -8.759  1.00  0.00     0.008 C 
ENDBRANCH   5   8
ENDBRANCH   4   5
ENDBRANCH   1   3
BRANCH   1  11
ATOM     11  C   UNL     1       2.973  -5.268  -9.081  1.00  0.00     0.002 C 
ATOM     12  C   UNL     1       4.245  -4.422  -9.156  1.00  0.00     0.005 C 
ATOM     13  C   UNL     1       2.598  -5.260  -7.550  1.00  0.00    -0.023 C 
ATOM     14  C   UNL     1       5.009  -4.753  -7.897  1.00  0.00     0.009 C 
ATOM     15  C   UNL     1       3.954  -4.949  -6.807  1.00  0.00     0.021 C 
ATOM     16  C   UNL     1       1.961  -6.615  -7.124  1.00  0.00     0.008 C 
ATOM     17  C   UNL     1       1.596  -4.124  -7.204  1.00  0.00     0.012 C 
ATOM     18  C   UNL     1       4.459  -5.955  -5.768  1.00  0.00    -0.067 C 
ATOM     19  C   UNL     1       3.000  -7.689  -6.816  1.00  0.00     0.009 C 
ATOM     20  C   UNL     1       3.793  -7.299  -5.556  1.00  0.00     0.021 C 
ATOM     21  C   UNL     1       5.468  -5.566  -4.966  1.00  0.00    -0.027 C 
ATOM     22  C   UNL     1       4.770  -8.418  -5.031  1.00  0.00    -0.023 C 
ATOM     23  C   UNL     1       6.199  -6.480  -4.027  1.00  0.00     0.031 C 
ATOM     24  C   UNL     1       5.541  -7.864  -3.789  1.00  0.00     0.002 C 
ATOM     25  C   UNL     1       5.797  -8.854  -6.115  1.00  0.00     0.010 C 
ATOM     26  C   UNL     1       3.907  -9.644  -4.598  1.00  0.00     0.012 C 
ATOM     27  C   UNL     1       6.603  -8.864  -3.249  1.00  0.00     0.036 C 
ATOM     28  C   UNL     1       6.792  -9.907  -5.594  1.00  0.00     0.032 C 
ATOM     29  C   UNL     1       7.543  -9.454  -4.332  1.00  0.00     0.114 C 
BRANCH  29  30
ATOM     30  O   UNL     1       8.549  -8.540  -4.688  1.00  0.00    -0.393 OA
ATOM     31  H   UNL     1       8.546  -7.827  -3.998  1.00  0.00     0.210 HD
ENDBRANCH  29  30
ENDBRANCH   1  11
TORSDOF 6
ENDMDL
MODEL 3
REMARK VINA RESULT:    -5.434      3.358      5.634
REMARK INTER + INTRA:          -8.633
REMARK INTER:                  -6.941
REMARK INTRA:                  -1.691
REMARK UNBOUND:                -1.451
REMARK SMILES CC[C@@H](C=C[C@@H](C)[C@H]1CC[C@@H]2C3=CC[C@@H]4C[C@H](O)CC[C@]4(C)[C@@H]3CC[C@@]21C)C(C)C
REMARK SMILES IDX 6 1 7 2 5 3 4 4 3 5 2 6 1 7 28 8 29 9 30 10 8 11 9 12 26 13
REMARK SMILES IDX 10 14 11 15 25 16 27 17 12 18 24 19 23 20 13 21 21 22 14 23
REMARK SMILES IDX 15 24 20 25 22 26 16 27 19 28 17 29 18 30
REMARK H PARENT 18 31
REMARK Flexibility Score: inf
ROOT
ATOM      1  C   UNL     1       3.079  -4.790  -9.917  1.00  0.00     0.012 C 
ATOM      2  C   UNL     1       3.707  -5.952 -10.706  1.00  0.00     0.012 C 
ENDROOT
BRANCH   1   3
ATOM      3  C   UNL     1       2.697  -3.709 -10.918  1.00  0.00    -0.028 C 
ATOM      4  C   UNL     1       1.528  -3.035 -10.935  1.00  0.00    -0.027 C 
BRANCH   4   5
ATOM      5  C   UNL     1       0.372  -3.224  -9.957  1.00  0.00     0.014 C 
BRANCH   5   6
ATOM      6  C   UNL     1      -0.757  -4.127 -10.533  1.00  0.00     0.004 C 
ATOM      7  C   UNL     1      -2.194  -3.710 -10.194  1.00  0.00     0.004 C 
ENDBRANCH   5   6
BRANCH   5   8
ATOM      8  C   UNL     1      -0.154  -1.868  -9.392  1.00  0.00    -0.011 C 
ATOM      9  C   UNL     1       0.606  -1.456  -8.122  1.00  0.00     0.008 C 
ATOM     10  C   UNL     1      -0.145  -0.718 -10.413  1.00  0.00     0.008 C 
ENDBRANCH   5   8
ENDBRANCH   4   5
ENDBRANCH   1   3
BRANCH   1  11
ATOM     11  C   UNL     1       4.045  -4.215  -8.821  1.00  0.00     0.002 C 
ATOM     12  C   UNL     1       4.220  -2.702  -8.963  1.00  0.00     0.005 C 
ATOM     13  C   UNL     1       3.666  -4.417  -7.305  1.00  0.00    -0.023 C 
ATOM     14  C   UNL     1       4.853  -2.260  -7.665  1.00  0.00     0.009 C 
ATOM     15  C   UNL     1       4.231  -3.137  -6.577  1.00  0.00     0.021 C 
ATOM     16  C   UNL     1       4.255  -5.747  -6.754  1.00  0.00     0.008 C 
ATOM     17  C   UNL     1       2.127  -4.443  -7.091  1.00  0.00     0.012 C 
ATOM     18  C   UNL     1       5.233  -3.336  -5.434  1.00  0.00    -0.067 C 
ATOM     19  C   UNL     1       5.713  -5.619  -6.324  1.00  0.00     0.009 C 
ATOM     20  C   UNL     1       5.813  -4.694  -5.098  1.00  0.00     0.021 C 
ATOM     21  C   UNL     1       5.512  -2.271  -4.661  1.00  0.00    -0.027 C 
ATOM     22  C   UNL     1       7.247  -4.630  -4.448  1.00  0.00    -0.023 C 
ATOM     23  C   UNL     1       6.595  -2.243  -3.623  1.00  0.00     0.031 C 
ATOM     24  C   UNL     1       7.210  -3.618  -3.257  1.00  0.00     0.002 C 
ATOM     25  C   UNL     1       8.332  -4.177  -5.467  1.00  0.00     0.010 C 
ATOM     26  C   UNL     1       7.593  -6.052  -3.906  1.00  0.00     0.012 C 
ATOM     27  C   UNL     1       8.606  -3.412  -2.602  1.00  0.00     0.036 C 
ATOM     28  C   UNL     1       9.727  -4.057  -4.827  1.00  0.00     0.032 C 
ATOM     29  C   UNL     1       9.752  -3.124  -3.606  1.00  0.00     0.114 C 
BRANCH  29  30
ATOM     30  O   UNL     1       9.730  -1.787  -4.038  1.00  0.00    -0.393 OA
ATOM     31  H   UNL     1      10.405  -1.300  -3.496  1.00  0.00     0.210 HD
ENDBRANCH  29  30
ENDBRANCH   1  11
TORSDOF 6
ENDMDL
MODEL 4
REMARK VINA RESULT:    -5.262      5.063      8.605
REMARK INTER + INTRA:          -8.405
REMARK INTER:                  -6.590
REMARK INTRA:                  -1.815
REMARK UNBOUND:                -1.451
REMARK SMILES CC[C@@H](C=C[C@@H](C)[C@H]1CC[C@@H]2C3=CC[C@@H]4C[C@H](O)CC[C@]4(C)[C@@H]3CC[C@@]21C)C(C)C
REMARK SMILES IDX 6 1 7 2 5 3 4 4 3 5 2 6 1 7 28 8 29 9 30 10 8 11 9 12 26 13
REMARK SMILES IDX 10 14 11 15 25 16 27 17 12 18 24 19 23 20 13 21 21 22 14 23
REMARK SMILES IDX 15 24 20 25 22 26 16 27 19 28 17 29 18 30
REMARK H PARENT 18 31
REMARK Flexibility Score: inf
ROOT
ATOM      1  C   UNL     1       8.512  -3.540  -5.133  1.00  0.00     0.012 C 
ATOM      2  C   UNL     1       8.712  -2.354  -6.093  1.00  0.00     0.012 C 
ENDROOT
BRANCH   1   3
ATOM      3  C   UNL     1       9.867  -4.204  -4.934  1.00  0.00    -0.028 C 
ATOM      4  C   UNL     1      10.306  -4.756  -3.784  1.00  0.00    -0.027 C 
BRANCH   4   5
ATOM      5  C   UNL     1       9.533  -4.825  -2.471  1.00  0.00     0.014 C 
BRANCH   5   6
ATOM      6  C   UNL     1      10.035  -3.786  -1.426  1.00  0.00     0.004 C 
ATOM      7  C   UNL     1      10.323  -4.329  -0.020  1.00  0.00     0.004 C 
ENDBRANCH   5   6
BRANCH   5   8
ATOM      8  C   UNL     1       9.453  -6.276  -1.904  1.00  0.00    -0.011 C 
ATOM      9  C   UNL     1       8.013  -6.813  -1.935  1.00  0.00     0.008 C 
ATOM     10  C   UNL     1      10.405  -7.270  -2.592  1.00  0.00     0.008 C 
ENDBRANCH   5   8
ENDBRANCH   4   5
ENDBRANCH   1   3
BRANCH   1  11
ATOM     11  C   UNL     1       7.460  -4.575  -5.668  1.00  0.00     0.002 C 
ATOM     12  C   UNL     1       7.937  -6.015  -5.470  1.00  0.00     0.005 C 
ATOM     13  C   UNL     1       6.012  -4.562  -5.049  1.00  0.00    -0.023 C 
ATOM     14  C   UNL     1       6.707  -6.865  -5.683  1.00  0.00     0.009 C 
ATOM     15  C   UNL     1       5.540  -6.066  -5.099  1.00  0.00     0.021 C 
ATOM     16  C   UNL     1       5.076  -3.599  -5.835  1.00  0.00     0.008 C 
ATOM     17  C   UNL     1       6.021  -4.118  -3.560  1.00  0.00     0.012 C 
ATOM     18  C   UNL     1       4.252  -6.398  -5.859  1.00  0.00    -0.067 C 
ATOM     19  C   UNL     1       4.484  -4.237  -7.089  1.00  0.00     0.009 C 
ATOM     20  C   UNL     1       3.517  -5.365  -6.689  1.00  0.00     0.021 C 
ATOM     21  C   UNL     1       3.727  -7.625  -5.685  1.00  0.00    -0.027 C 
ATOM     22  C   UNL     1       2.702  -5.978  -7.891  1.00  0.00    -0.023 C 
ATOM     23  C   UNL     1       2.581  -8.173  -6.485  1.00  0.00     0.031 C 
ATOM     24  C   UNL     1       1.809  -7.141  -7.346  1.00  0.00     0.002 C 
ATOM     25  C   UNL     1       3.632  -6.532  -9.007  1.00  0.00     0.010 C 
ATOM     26  C   UNL     1       1.788  -4.855  -8.473  1.00  0.00     0.012 C 
ATOM     27  C   UNL     1       1.029  -7.875  -8.473  1.00  0.00     0.036 C 
ATOM     28  C   UNL     1       2.847  -7.183 -10.159  1.00  0.00     0.032 C 
ATOM     29  C   UNL     1       1.896  -8.296  -9.688  1.00  0.00     0.114 C 
BRANCH  29  30
ATOM     30  O   UNL     1       2.637  -9.457  -9.410  1.00  0.00    -0.393 OA
ATOM     31  H   UNL     1       2.060 -10.037  -8.847  1.00  0.00     0.210 HD
ENDBRANCH  29  30
ENDBRANCH   1  11
TORSDOF 6
ENDMDL
MODEL 5
REMARK VINA RESULT:    -5.102      3.384      9.381
REMARK INTER + INTRA:          -8.194
REMARK INTER:                  -6.366
REMARK INTRA:                  -1.828
REMARK UNBOUND:                -1.451
REMARK SMILES CC[C@@H](C=C[C@@H](C)[C@H]1CC[C@@H]2C3=CC[C@@H]4C[C@H](O)CC[C@]4(C)[C@@H]3CC[C@@]21C)C(C)C
REMARK SMILES IDX 6 1 7 2 5 3 4 4 3 5 2 6 1 7 28 8 29 9 30 10 8 11 9 12 26 13
REMARK SMILES IDX 10 14 11 15 25 16 27 17 12 18 24 19 23 20 13 21 21 22 14 23
REMARK SMILES IDX 15 24 20 25 22 26 16 27 19 28 17 29 18 30
REMARK H PARENT 18 31
REMARK Flexibility Score: inf
ROOT
ATOM      1  C   UNL     1       5.530  -7.621  -4.338  1.00  0.00     0.012 C 
ATOM      2  C   UNL     1       4.407  -8.670  -4.390  1.00  0.00     0.012 C 
ENDROOT
BRANCH   1   3
ATOM      3  C   UNL     1       5.875  -7.389  -2.875  1.00  0.00    -0.028 C 
ATOM      4  C   UNL     1       7.111  -7.469  -2.339  1.00  0.00    -0.027 C 
BRANCH   4   5
ATOM      5  C   UNL     1       8.394  -7.801  -3.095  1.00  0.00     0.014 C 
BRANCH   5   6
ATOM      6  C   UNL     1       9.141  -9.027  -2.494  1.00  0.00     0.004 C 
ATOM      7  C   UNL     1       8.268 -10.056  -1.763  1.00  0.00     0.004 C 
ENDBRANCH   5   6
BRANCH   5   8
ATOM      8  C   UNL     1       9.312  -6.554  -3.282  1.00  0.00    -0.011 C 
ATOM      9  C   UNL     1       9.351  -6.099  -4.750  1.00  0.00     0.008 C 
ATOM     10  C   UNL     1       8.953  -5.369  -2.369  1.00  0.00     0.008 C 
ENDBRANCH   5   8
ENDBRANCH   4   5
ENDBRANCH   1   3
BRANCH   1  11
ATOM     11  C   UNL     1       5.125  -6.272  -5.033  1.00  0.00     0.002 C 
ATOM     12  C   UNL     1       5.871  -5.082  -4.429  1.00  0.00     0.005 C 
ATOM     13  C   UNL     1       5.361  -6.126  -6.584  1.00  0.00    -0.023 C 
ATOM     14  C   UNL     1       5.664  -3.953  -5.410  1.00  0.00     0.009 C 
ATOM     15  C   UNL     1       5.683  -4.597  -6.798  1.00  0.00     0.021 C 
ATOM     16  C   UNL     1       4.119  -6.610  -7.386  1.00  0.00     0.008 C 
ATOM     17  C   UNL     1       6.594  -6.942  -7.063  1.00  0.00     0.012 C 
ATOM     18  C   UNL     1       4.795  -3.796  -7.755  1.00  0.00    -0.067 C 
ATOM     19  C   UNL     1       3.031  -5.545  -7.499  1.00  0.00     0.009 C 
ATOM     20  C   UNL     1       3.536  -4.378  -8.365  1.00  0.00     0.021 C 
ATOM     21  C   UNL     1       5.223  -2.574  -8.124  1.00  0.00    -0.027 C 
ATOM     22  C   UNL     1       2.438  -3.300  -8.707  1.00  0.00    -0.023 C 
ATOM     23  C   UNL     1       4.399  -1.591  -8.903  1.00  0.00     0.031 C 
ATOM     24  C   UNL     1       3.104  -2.156  -9.540  1.00  0.00     0.002 C 
ATOM     25  C   UNL     1       1.797  -2.691  -7.427  1.00  0.00     0.010 C 
ATOM     26  C   UNL     1       1.338  -3.993  -9.570  1.00  0.00     0.012 C 
ATOM     27  C   UNL     1       2.120  -0.993  -9.852  1.00  0.00     0.036 C 
ATOM     28  C   UNL     1       0.763  -1.598  -7.750  1.00  0.00     0.032 C 
ATOM     29  C   UNL     1       1.332  -0.468  -8.623  1.00  0.00     0.114 C 
BRANCH  29  30
ATOM     30  O   UNL     1       2.125   0.381  -7.832  1.00  0.00    -0.393 OA
ATOM     31  H   UNL     1       3.007   0.451  -8.282  1.00  0.00     0.210 HD
ENDBRANCH  29  30
ENDBRANCH   1  11
TORSDOF 6
ENDMDL
MODEL 6
REMARK VINA RESULT:    -5.078      2.748      5.004
REMARK INTER + INTRA:          -8.162
REMARK INTER:                  -6.391
REMARK INTRA:                  -1.770
REMARK UNBOUND:                -1.451
REMARK SMILES CC[C@@H](C=C[C@@H](C)[C@H]1CC[C@@H]2C3=CC[C@@H]4C[C@H](O)CC[C@]4(C)[C@@H]3CC[C@@]21C)C(C)C
REMARK SMILES IDX 6 1 7 2 5 3 4 4 3 5 2 6 1 7 28 8 29 9 30 10 8 11 9 12 26 13
REMARK SMILES IDX 10 14 11 15 25 16 27 17 12 18 24 19 23 20 13 21 21 22 14 23
REMARK SMILES IDX 15 24 20 25 22 26 16 27 19 28 17 29 18 30
REMARK H PARENT 18 31
REMARK Flexibility Score: inf
ROOT
ATOM      1  C   UNL     1       1.709  -1.592  -7.904  1.00  0.00     0.012 C 
ATOM      2  C   UNL     1       2.083  -0.325  -7.116  1.00  0.00     0.012 C 
ENDROOT
BRANCH   1   3
ATOM      3  C   UNL     1       0.200  -1.760  -7.816  1.00  0.00    -0.028 C 
ATOM      4  C   UNL     1      -0.642  -1.845  -8.867  1.00  0.00    -0.027 C 
BRANCH   4   5
ATOM      5  C   UNL     1      -0.244  -1.793 -10.339  1.00  0.00     0.014 C 
BRANCH   5   6
ATOM      6  C   UNL     1      -0.757  -0.507 -11.051  1.00  0.00     0.004 C 
ATOM      7  C   UNL     1      -1.614   0.438 -10.200  1.00  0.00     0.004 C 
ENDBRANCH   5   6
BRANCH   5   8
ATOM      8  C   UNL     1      -0.610  -3.105 -11.099  1.00  0.00    -0.011 C 
ATOM      9  C   UNL     1       0.530  -4.134 -11.024  1.00  0.00     0.008 C 
ATOM     10  C   UNL     1      -1.933  -3.744 -10.645  1.00  0.00     0.008 C 
ENDBRANCH   5   8
ENDBRANCH   4   5
ENDBRANCH   1   3
BRANCH   1  11
ATOM     11  C   UNL     1       2.443  -2.872  -7.368  1.00  0.00     0.002 C 
ATOM     12  C   UNL     1       1.547  -4.109  -7.448  1.00  0.00     0.005 C 
ATOM     13  C   UNL     1       3.780  -3.321  -8.070  1.00  0.00    -0.023 C 
ATOM     14  C   UNL     1       2.481  -5.280  -7.254  1.00  0.00     0.009 C 
ATOM     15  C   UNL     1       3.785  -4.894  -7.953  1.00  0.00     0.021 C 
ATOM     16  C   UNL     1       5.015  -2.652  -7.400  1.00  0.00     0.008 C 
ATOM     17  C   UNL     1       3.793  -2.958  -9.581  1.00  0.00     0.012 C 
ATOM     18  C   UNL     1       4.970  -5.565  -7.251  1.00  0.00    -0.067 C 
ATOM     19  C   UNL     1       5.482  -3.385  -6.146  1.00  0.00     0.009 C 
ATOM     20  C   UNL     1       6.038  -4.768  -6.530  1.00  0.00     0.021 C 
ATOM     21  C   UNL     1       5.092  -6.900  -7.378  1.00  0.00    -0.027 C 
ATOM     22  C   UNL     1       6.720  -5.546  -5.342  1.00  0.00    -0.023 C 
ATOM     23  C   UNL     1       6.079  -7.733  -6.613  1.00  0.00     0.031 C 
ATOM     24  C   UNL     1       7.185  -6.945  -5.864  1.00  0.00     0.002 C 
ATOM     25  C   UNL     1       5.752  -5.747  -4.141  1.00  0.00     0.010 C 
ATOM     26  C   UNL     1       7.967  -4.727  -4.885  1.00  0.00     0.012 C 
ATOM     27  C   UNL     1       7.792  -7.832  -4.740  1.00  0.00     0.036 C 
ATOM     28  C   UNL     1       6.392  -6.556  -2.998  1.00  0.00     0.032 C 
ATOM     29  C   UNL     1       6.931  -7.921  -3.454  1.00  0.00     0.114 C 
BRANCH  29  30
ATOM     30  O   UNL     1       5.861  -8.817  -3.616  1.00  0.00    -0.393 OA
ATOM     31  H   UNL     1       5.933  -9.485  -2.885  1.00  0.00     0.210 HD
ENDBRANCH  29  30
ENDBRANCH   1  11
TORSDOF 6
ENDMDL
MODEL 7
REMARK VINA RESULT:    -4.960      4.495      6.097
REMARK INTER + INTRA:          -8.006
REMARK INTER:                  -6.505
REMARK INTRA:                  -1.502
REMARK UNBOUND:                -1.451
REMARK SMILES CC[C@@H](C=C[C@@H](C)[C@H]1CC[C@@H]2C3=CC[C@@H]4C[C@H](O)CC[C@]4(C)[C@@H]3CC[C@@]21C)C(C)C
REMARK SMILES IDX 6 1 7 2 5 3 4 4 3 5 2 6 1 7 28 8 29 9 30 10 8 11 9 12 26 13
REMARK SMILES IDX 10 14 11 15 25 16 27 17 12 18 24 19 23 20 13 21 21 22 14 23
REMARK SMILES IDX 15 24 20 25 22 26 16 27 19 28 17 29 18 30
REMARK H PARENT 18 31
REMARK Flexibility Score: inf
ROOT
ATOM      1  C   UNL     1       7.673  -1.871  -7.308  1.00  0.00     0.012 C 
ATOM      2  C   UNL     1       7.387  -1.064  -8.587  1.00  0.00     0.012 C 
ENDROOT
BRANCH   1   3
ATOM      3  C   UNL     1       9.175  -2.095  -7.233  1.00  0.00    -0.028 C 
ATOM      4  C   UNL     1      10.009  -1.523  -6.339  1.00  0.00    -0.027 C 
BRANCH   4   5
ATOM      5  C   UNL     1       9.606  -0.550  -5.234  1.00  0.00     0.014 C 
BRANCH   5   6
ATOM      6  C   UNL     1       8.531  -1.144  -4.278  1.00  0.00     0.004 C 
ATOM      7  C   UNL     1       8.901  -2.461  -3.583  1.00  0.00     0.004 C 
ENDBRANCH   5   6
BRANCH   5   8
ATOM      8  C   UNL     1       9.223   0.855  -5.793  1.00  0.00    -0.011 C 
ATOM      9  C   UNL     1       9.192   1.913  -4.678  1.00  0.00     0.008 C 
ATOM     10  C   UNL     1      10.113   1.333  -6.953  1.00  0.00     0.008 C 
ENDBRANCH   5   8
ENDBRANCH   4   5
ENDBRANCH   1   3
BRANCH   1  11
ATOM     11  C   UNL     1       6.905  -3.240  -7.278  1.00  0.00     0.002 C 
ATOM     12  C   UNL     1       7.760  -4.351  -6.666  1.00  0.00     0.005 C 
ATOM     13  C   UNL     1       5.546  -3.321  -6.484  1.00  0.00    -0.023 C 
ATOM     14  C   UNL     1       6.791  -5.472  -6.375  1.00  0.00     0.009 C 
ATOM     15  C   UNL     1       5.491  -4.798  -5.933  1.00  0.00     0.021 C 
ATOM     16  C   UNL     1       4.341  -2.964  -7.402  1.00  0.00     0.008 C 
ATOM     17  C   UNL     1       5.527  -2.358  -5.265  1.00  0.00     0.012 C 
ATOM     18  C   UNL     1       4.295  -5.673  -6.318  1.00  0.00    -0.067 C 
ATOM     19  C   UNL     1       3.865  -4.144  -8.246  1.00  0.00     0.009 C 
ATOM     20  C   UNL     1       3.261  -5.225  -7.332  1.00  0.00     0.021 C 
ATOM     21  C   UNL     1       4.128  -6.828  -5.648  1.00  0.00    -0.027 C 
ATOM     22  C   UNL     1       2.568  -6.412  -8.101  1.00  0.00    -0.023 C 
ATOM     23  C   UNL     1       3.124  -7.880  -6.018  1.00  0.00     0.031 C 
ATOM     24  C   UNL     1       2.053  -7.453  -7.053  1.00  0.00     0.002 C 
ATOM     25  C   UNL     1       3.543  -7.121  -9.085  1.00  0.00     0.010 C 
ATOM     26  C   UNL     1       1.354  -5.830  -8.890  1.00  0.00     0.012 C 
ATOM     27  C   UNL     1       1.431  -8.714  -7.717  1.00  0.00     0.036 C 
ATOM     28  C   UNL     1       2.891  -8.318  -9.799  1.00  0.00     0.032 C 
ATOM     29  C   UNL     1       2.303  -9.354  -8.828  1.00  0.00     0.114 C 
BRANCH  29  30
ATOM     30  O   UNL     1       3.343 -10.125  -8.280  1.00  0.00    -0.393 OA
ATOM     31  H   UNL     1       4.126 -10.019  -8.882  1.00  0.00     0.210 HD
ENDBRANCH  29  30
ENDBRANCH   1  11
TORSDOF 6
ENDMDL
MODEL 8
REMARK VINA RESULT:    -4.895      4.565      6.653
REMARK INTER + INTRA:          -7.921
REMARK INTER:                  -6.177
REMARK INTRA:                  -1.744
REMARK UNBOUND:                -1.451
REMARK SMILES CC[C@@H](C=C[C@@H](C)[C@H]1CC[C@@H]2C3=CC[C@@H]4C[C@H](O)CC[C@]4(C)[C@@H]3CC[C@@]21C)C(C)C
REMARK SMILES IDX 6 1 7 2 5 3 4 4 3 5 2 6 1 7 28 8 29 9 30 10 8 11 9 12 26 13
REMARK SMILES IDX 10 14 11 15 25 16 27 17 12 18 24 19 23 20 13 21 21 22 14 23
REMARK SMILES IDX 15 24 20 25 22 26 16 27 19 28 17 29 18 30
REMARK H PARENT 18 31
REMARK Flexibility Score: inf
ROOT
ATOM      1  C   UNL     1       8.584  -2.909  -5.117  1.00  0.00     0.012 C 
ATOM      2  C   UNL     1       7.989  -1.494  -5.215  1.00  0.00     0.012 C 
ENDROOT
BRANCH   1   3
ATOM      3  C   UNL     1       9.856  -2.931  -5.951  1.00  0.00    -0.028 C 
ATOM      4  C   UNL     1       9.909  -3.029  -7.296  1.00  0.00    -0.027 C 
BRANCH   4   5
ATOM      5  C   UNL     1       8.710  -3.131  -8.234  1.00  0.00     0.014 C 
BRANCH   5   6
ATOM      6  C   UNL     1       8.745  -4.416  -9.112  1.00  0.00     0.004 C 
ATOM      7  C   UNL     1       7.482  -5.285  -9.084  1.00  0.00     0.004 C 
ENDBRANCH   5   6
BRANCH   5   8
ATOM      8  C   UNL     1       8.493  -1.826  -9.062  1.00  0.00    -0.011 C 
ATOM      9  C   UNL     1       7.057  -1.298  -8.911  1.00  0.00     0.008 C 
ATOM     10  C   UNL     1       9.504  -0.710  -8.751  1.00  0.00     0.008 C 
ENDBRANCH   5   8
ENDBRANCH   4   5
ENDBRANCH   1   3
BRANCH   1  11
ATOM     11  C   UNL     1       7.583  -4.017  -5.602  1.00  0.00     0.002 C 
ATOM     12  C   UNL     1       8.116  -5.421  -5.315  1.00  0.00     0.005 C 
ATOM     13  C   UNL     1       6.127  -4.029  -4.999  1.00  0.00    -0.023 C 
ATOM     14  C   UNL     1       6.926  -6.334  -5.491  1.00  0.00     0.009 C 
ATOM     15  C   UNL     1       5.719  -5.552  -4.967  1.00  0.00     0.021 C 
ATOM     16  C   UNL     1       5.163  -3.154  -5.851  1.00  0.00     0.008 C 
ATOM     17  C   UNL     1       6.099  -3.500  -3.539  1.00  0.00     0.012 C 
ATOM     18  C   UNL     1       4.456  -5.981  -5.719  1.00  0.00    -0.067 C 
ATOM     19  C   UNL     1       4.614  -3.888  -7.071  1.00  0.00     0.009 C 
ATOM     20  C   UNL     1       3.689  -5.031  -6.616  1.00  0.00     0.021 C 
ATOM     21  C   UNL     1       3.980  -7.217  -5.480  1.00  0.00    -0.027 C 
ATOM     22  C   UNL     1       2.916  -5.746  -7.788  1.00  0.00    -0.023 C 
ATOM     23  C   UNL     1       2.869  -7.859  -6.259  1.00  0.00     0.031 C 
ATOM     24  C   UNL     1       2.065  -6.912  -7.186  1.00  0.00     0.002 C 
ATOM     25  C   UNL     1       3.883  -6.324  -8.861  1.00  0.00     0.010 C 
ATOM     26  C   UNL     1       1.964  -4.698  -8.445  1.00  0.00     0.012 C 
ATOM     27  C   UNL     1       1.331  -7.742  -8.277  1.00  0.00     0.036 C 
ATOM     28  C   UNL     1       3.140  -7.073  -9.981  1.00  0.00     0.032 C 
ATOM     29  C   UNL     1       2.231  -8.196  -9.456  1.00  0.00     0.114 C 
BRANCH  29  30
ATOM     30  O   UNL     1       3.016  -9.306  -9.102  1.00  0.00    -0.393 OA
ATOM     31  H   UNL     1       3.467  -9.078  -8.248  1.00  0.00     0.210 HD
ENDBRANCH  29  30
ENDBRANCH   1  11
TORSDOF 6
ENDMDL
MODEL 9
REMARK VINA RESULT:    -4.818      4.497      8.569
REMARK INTER + INTRA:          -7.818
REMARK INTER:                  -6.133
REMARK INTRA:                  -1.685
REMARK UNBOUND:                -1.451
REMARK SMILES CC[C@@H](C=C[C@@H](C)[C@H]1CC[C@@H]2C3=CC[C@@H]4C[C@H](O)CC[C@]4(C)[C@@H]3CC[C@@]21C)C(C)C
REMARK SMILES IDX 6 1 7 2 5 3 4 4 3 5 2 6 1 7 28 8 29 9 30 10 8 11 9 12 26 13
REMARK SMILES IDX 10 14 11 15 25 16 27 17 12 18 24 19 23 20 13 21 21 22 14 23
REMARK SMILES IDX 15 24 20 25 22 26 16 27 19 28 17 29 18 30
REMARK H PARENT 18 31
REMARK Flexibility Score: inf
ROOT
ATOM      1  C   UNL     1       3.865  -3.417  -8.594  1.00  0.00     0.012 C 
ATOM      2  C   UNL     1       3.514  -2.557  -9.820  1.00  0.00     0.012 C 
ENDROOT
BRANCH   1   3
ATOM      3  C   UNL     1       2.567  -3.735  -7.868  1.00  0.00    -0.028 C 
ATOM      4  C   UNL     1       2.191  -4.957  -7.436  1.00  0.00    -0.027 C 
BRANCH   4   5
ATOM      5  C   UNL     1       2.992  -6.246  -7.588  1.00  0.00     0.014 C 
BRANCH   5   6
ATOM      6  C   UNL     1       2.474  -7.137  -8.755  1.00  0.00     0.004 C 
ATOM      7  C   UNL     1       1.152  -6.701  -9.400  1.00  0.00     0.004 C 
ENDBRANCH   5   6
BRANCH   5   8
ATOM      8  C   UNL     1       3.133  -7.019  -6.240  1.00  0.00    -0.011 C 
ATOM      9  C   UNL     1       2.900  -8.527  -6.430  1.00  0.00     0.008 C 
ATOM     10  C   UNL     1       4.468  -6.776  -5.515  1.00  0.00     0.008 C 
ENDBRANCH   5   8
ENDBRANCH   4   5
ENDBRANCH   1   3
BRANCH   1  11
ATOM     11  C   UNL     1       4.879  -2.703  -7.631  1.00  0.00     0.002 C 
ATOM     12  C   UNL     1       4.403  -2.749  -6.178  1.00  0.00     0.005 C 
ATOM     13  C   UNL     1       6.359  -3.240  -7.566  1.00  0.00    -0.023 C 
ATOM     14  C   UNL     1       5.613  -2.368  -5.359  1.00  0.00     0.009 C 
ATOM     15  C   UNL     1       6.815  -2.981  -6.079  1.00  0.00     0.021 C 
ATOM     16  C   UNL     1       7.259  -2.527  -8.617  1.00  0.00     0.008 C 
ATOM     17  C   UNL     1       6.433  -4.771  -7.825  1.00  0.00     0.012 C 
ATOM     18  C   UNL     1       8.059  -2.118  -5.841  1.00  0.00    -0.067 C 
ATOM     19  C   UNL     1       7.778  -1.175  -8.137  1.00  0.00     0.009 C 
ATOM     20  C   UNL     1       8.756  -1.381  -6.967  1.00  0.00     0.021 C 
ATOM     21  C   UNL     1       8.583  -2.112  -4.602  1.00  0.00    -0.027 C 
ATOM     22  C   UNL     1       9.501  -0.072  -6.504  1.00  0.00    -0.023 C 
ATOM     23  C   UNL     1       9.679  -1.190  -4.154  1.00  0.00     0.031 C 
ATOM     24  C   UNL     1      10.413  -0.421  -5.283  1.00  0.00     0.002 C 
ATOM     25  C   UNL     1       8.507   1.053  -6.092  1.00  0.00     0.010 C 
ATOM     26  C   UNL     1      10.390   0.418  -7.689  1.00  0.00     0.012 C 
ATOM     27  C   UNL     1      11.125   0.828  -4.691  1.00  0.00     0.036 C 
ATOM     28  C   UNL     1       9.225   2.316  -5.586  1.00  0.00     0.032 C 
ATOM     29  C   UNL     1      10.191   2.037  -4.423  1.00  0.00     0.114 C 
BRANCH  29  30
ATOM     30  O   UNL     1       9.457   1.862  -3.237  1.00  0.00    -0.393 OA
ATOM     31  H   UNL     1       9.007   0.980  -3.306  1.00  0.00     0.210 HD
ENDBRANCH  29  30
ENDBRANCH   1  11
TORSDOF 6
ENDMDL
