MODEL 1
REMARK VINA RESULT:    -4.079      0.000      0.000
REMARK INTER + INTRA:          -4.079
REMARK INTER:                  -4.079
REMARK INTRA:                   0.000
REMARK UNBOUND:                 0.000
REMARK SMILES CC1=CC(=O)[C@H]2C[C@@H]1C2(C)C
REMARK SMILES IDX 1 1 2 2 3 3 4 4 5 5 6 6 7 7 8 8 9 9 10 10 11 11
REMARK H PARENT
REMARK Flexibility Score: inf
ROOT
ATOM      1  C   UNL     1       3.240  -8.118  16.865  1.00  0.00     0.040 C 
ATOM      2  C   UNL     1       1.953  -7.666  16.250  1.00  0.00    -0.066 C 
ATOM      3  C   UNL     1       1.771  -7.674  14.901  1.00  0.00     0.047 C 
ATOM      4  C   UNL     1       0.450  -7.167  14.407  1.00  0.00     0.159 C 
ATOM      5  O   UNL     1       0.176  -7.088  13.181  1.00  0.00    -0.295 OA
ATOM      6  C   UNL     1      -0.541  -6.753  15.496  1.00  0.00     0.067 C 
ATOM      7  C   UNL     1      -0.473  -7.901  16.525  1.00  0.00     0.021 C 
ATOM      8  C   UNL     1       0.765  -7.186  17.111  1.00  0.00     0.022 C 
ATOM      9  C   UNL     1       0.204  -5.857  16.527  1.00  0.00    -0.019 C 
ATOM     10  C   UNL     1       1.217  -4.803  15.996  1.00  0.00     0.012 C 
ATOM     11  C   UNL     1      -0.769  -5.148  17.503  1.00  0.00     0.012 C 
ENDROOT
TORSDOF 0
ENDMDL
MODEL 2
REMARK VINA RESULT:    -3.764     22.547     23.583
REMARK INTER + INTRA:          -3.764
REMARK INTER:                  -3.764
REMARK INTRA:                   0.000
REMARK UNBOUND:                 0.000
REMARK SMILES CC1=CC(=O)[C@H]2C[C@@H]1C2(C)C
REMARK SMILES IDX 1 1 2 2 3 3 4 4 5 5 6 6 7 7 8 8 9 9 10 10 11 11
REMARK H PARENT
REMARK Flexibility Score: inf
ROOT
ATOM      1  C   UNL     1      11.648   9.025   4.594  1.00  0.00     0.040 C 
ATOM      2  C   UNL     1      11.904   8.683   3.161  1.00  0.00    -0.066 C 
ATOM      3  C   UNL     1      12.471   9.581   2.307  1.00  0.00     0.047 C 
ATOM      4  C   UNL     1      12.645   9.129   0.889  1.00  0.00     0.159 C 
ATOM      5  O   UNL     1      13.120   9.881  -0.003  1.00  0.00    -0.295 OA
ATOM      6  C   UNL     1      12.205   7.693   0.601  1.00  0.00     0.067 C 
ATOM      7  C   UNL     1      12.800   6.875   1.766  1.00  0.00     0.021 C 
ATOM      8  C   UNL     1      11.556   7.295   2.581  1.00  0.00     0.022 C 
ATOM      9  C   UNL     1      10.801   7.470   1.232  1.00  0.00    -0.019 C 
ATOM     10  C   UNL     1       9.750   8.611   1.121  1.00  0.00     0.012 C 
ATOM     11  C   UNL     1      10.141   6.153   0.750  1.00  0.00     0.012 C 
ENDROOT
TORSDOF 0
ENDMDL
MODEL 3
REMARK VINA RESULT:    -3.763      1.677      2.952
REMARK INTER + INTRA:          -3.763
REMARK INTER:                  -3.763
REMARK INTRA:                   0.000
REMARK UNBOUND:                 0.000
REMARK SMILES CC1=CC(=O)[C@H]2C[C@@H]1C2(C)C
REMARK SMILES IDX 1 1 2 2 3 3 4 4 5 5 6 6 7 7 8 8 9 9 10 10 11 11
REMARK H PARENT
REMARK Flexibility Score: inf
ROOT
ATOM      1  C   UNL     1      -0.436  -7.996  13.482  1.00  0.00     0.040 C 
ATOM      2  C   UNL     1       0.433  -7.459  14.574  1.00  0.00    -0.066 C 
ATOM      3  C   UNL     1       1.550  -8.124  14.983  1.00  0.00     0.047 C 
ATOM      4  C   UNL     1       2.319  -7.500  16.107  1.00  0.00     0.159 C 
ATOM      5  O   UNL     1       3.345  -8.038  16.600  1.00  0.00    -0.295 OA
ATOM      6  C   UNL     1       1.770  -6.165  16.614  1.00  0.00     0.067 C 
ATOM      7  C   UNL     1       1.470  -5.368  15.327  1.00  0.00     0.021 C 
ATOM      8  C   UNL     1       0.122  -6.122  15.278  1.00  0.00     0.022 C 
ATOM      9  C   UNL     1       0.235  -6.308  16.820  1.00  0.00    -0.019 C 
ATOM     10  C   UNL     1      -0.309  -7.626  17.442  1.00  0.00     0.012 C 
ATOM     11  C   UNL     1      -0.367  -5.115  17.604  1.00  0.00     0.012 C 
ENDROOT
TORSDOF 0
ENDMDL
MODEL 4
REMARK VINA RESULT:    -3.689     22.734     23.818
REMARK INTER + INTRA:          -3.689
REMARK INTER:                  -3.689
REMARK INTRA:                   0.000
REMARK UNBOUND:                 0.000
REMARK SMILES CC1=CC(=O)[C@H]2C[C@@H]1C2(C)C
REMARK SMILES IDX 1 1 2 2 3 3 4 4 5 5 6 6 7 7 8 8 9 9 10 10 11 11
REMARK H PARENT
REMARK Flexibility Score: inf
ROOT
ATOM      1  C   UNL     1      11.356   9.122   3.787  1.00  0.00     0.040 C 
ATOM      2  C   UNL     1      11.256   8.471   2.444  1.00  0.00    -0.066 C 
ATOM      3  C   UNL     1      11.927   7.320   2.162  1.00  0.00     0.047 C 
ATOM      4  C   UNL     1      11.770   6.784   0.771  1.00  0.00     0.159 C 
ATOM      5  O   UNL     1      12.371   5.750   0.376  1.00  0.00    -0.295 OA
ATOM      6  C   UNL     1      10.832   7.583  -0.136  1.00  0.00     0.067 C 
ATOM      7  C   UNL     1       9.596   7.855   0.746  1.00  0.00     0.021 C 
ATOM      8  C   UNL     1      10.378   9.059   1.319  1.00  0.00     0.022 C 
ATOM      9  C   UNL     1      11.188   9.091  -0.010  1.00  0.00    -0.019 C 
ATOM     10  C   UNL     1      12.689   9.495   0.056  1.00  0.00     0.012 C 
ATOM     11  C   UNL     1      10.500   9.952  -1.099  1.00  0.00     0.012 C 
ENDROOT
TORSDOF 0
ENDMDL
MODEL 5
REMARK VINA RESULT:    -3.599     22.561     23.825
REMARK INTER + INTRA:          -3.599
REMARK INTER:                  -3.599
REMARK INTRA:                   0.000
REMARK UNBOUND:                 0.000
REMARK SMILES CC1=CC(=O)[C@H]2C[C@@H]1C2(C)C
REMARK SMILES IDX 1 1 2 2 3 3 4 4 5 5 6 6 7 7 8 8 9 9 10 10 11 11
REMARK H PARENT
REMARK Flexibility Score: inf
ROOT
ATOM      1  C   UNL     1       8.433   7.434   0.463  1.00  0.00     0.040 C 
ATOM      2  C   UNL     1       9.815   7.993   0.584  1.00  0.00    -0.066 C 
ATOM      3  C   UNL     1      10.782   7.697  -0.329  1.00  0.00     0.047 C 
ATOM      4  C   UNL     1      12.134   8.293  -0.079  1.00  0.00     0.159 C 
ATOM      5  O   UNL     1      13.120   8.062  -0.828  1.00  0.00    -0.295 OA
ATOM      6  C   UNL     1      12.234   9.198   1.150  1.00  0.00     0.067 C 
ATOM      7  C   UNL     1      10.983  10.097   1.059  1.00  0.00     0.021 C 
ATOM      8  C   UNL     1      10.211   8.942   1.735  1.00  0.00     0.022 C 
ATOM      9  C   UNL     1      11.562   8.476   2.352  1.00  0.00    -0.019 C 
ATOM     10  C   UNL     1      11.801   6.948   2.526  1.00  0.00     0.012 C 
ATOM     11  C   UNL     1      11.865   9.172   3.703  1.00  0.00     0.012 C 
ENDROOT
TORSDOF 0
ENDMDL
MODEL 6
REMARK VINA RESULT:    -3.592     22.439     23.894
REMARK INTER + INTRA:          -3.592
REMARK INTER:                  -3.592
REMARK INTRA:                   0.000
REMARK UNBOUND:                 0.000
REMARK SMILES CC1=CC(=O)[C@H]2C[C@@H]1C2(C)C
REMARK SMILES IDX 1 1 2 2 3 3 4 4 5 5 6 6 7 7 8 8 9 9 10 10 11 11
REMARK H PARENT
REMARK Flexibility Score: inf
ROOT
ATOM      1  C   UNL     1      12.238  10.261  -1.087  1.00  0.00     0.040 C 
ATOM      2  C   UNL     1      11.428   9.199  -0.414  1.00  0.00    -0.066 C 
ATOM      3  C   UNL     1      10.068   9.183  -0.502  1.00  0.00     0.047 C 
ATOM      4  C   UNL     1       9.369   8.086   0.242  1.00  0.00     0.159 C 
ATOM      5  O   UNL     1       8.114   7.987   0.272  1.00  0.00    -0.295 OA
ATOM      6  C   UNL     1      10.286   7.096   0.964  1.00  0.00     0.067 C 
ATOM      7  C   UNL     1      11.380   6.770  -0.074  1.00  0.00     0.021 C 
ATOM      8  C   UNL     1      12.088   8.062   0.394  1.00  0.00     0.022 C 
ATOM      9  C   UNL     1      11.354   7.901   1.758  1.00  0.00    -0.019 C 
ATOM     10  C   UNL     1      10.906   9.189   2.506  1.00  0.00     0.012 C 
ATOM     11  C   UNL     1      12.144   7.011   2.751  1.00  0.00     0.012 C 
ENDROOT
TORSDOF 0
ENDMDL
MODEL 7
REMARK VINA RESULT:    -3.586     22.758     24.023
REMARK INTER + INTRA:          -3.586
REMARK INTER:                  -3.586
REMARK INTRA:                   0.000
REMARK UNBOUND:                 0.000
REMARK SMILES CC1=CC(=O)[C@H]2C[C@@H]1C2(C)C
REMARK SMILES IDX 1 1 2 2 3 3 4 4 5 5 6 6 7 7 8 8 9 9 10 10 11 11
REMARK H PARENT
REMARK Flexibility Score: inf
ROOT
ATOM      1  C   UNL     1      11.248   9.120   3.507  1.00  0.00     0.040 C 
ATOM      2  C   UNL     1      11.148   8.962   2.023  1.00  0.00    -0.066 C 
ATOM      3  C   UNL     1      10.603   9.936   1.242  1.00  0.00     0.047 C 
ATOM      4  C   UNL     1      10.531   9.646  -0.226  1.00  0.00     0.159 C 
ATOM      5  O   UNL     1      10.013  10.449  -1.046  1.00  0.00    -0.295 OA
ATOM      6  C   UNL     1      11.128   8.306  -0.659  1.00  0.00     0.067 C 
ATOM      7  C   UNL     1      12.474   8.233   0.093  1.00  0.00     0.021 C 
ATOM      8  C   UNL     1      11.671   7.702   1.301  1.00  0.00     0.022 C 
ATOM      9  C   UNL     1      10.597   7.197   0.294  1.00  0.00    -0.019 C 
ATOM     10  C   UNL     1       9.104   7.246   0.727  1.00  0.00     0.012 C 
ATOM     11  C   UNL     1      10.905   5.772  -0.231  1.00  0.00     0.012 C 
ENDROOT
TORSDOF 0
ENDMDL
MODEL 8
REMARK VINA RESULT:    -3.529     22.448     23.714
REMARK INTER + INTRA:          -3.529
REMARK INTER:                  -3.529
REMARK INTRA:                   0.000
REMARK UNBOUND:                 0.000
REMARK SMILES CC1=CC(=O)[C@H]2C[C@@H]1C2(C)C
REMARK SMILES IDX 1 1 2 2 3 3 4 4 5 5 6 6 7 7 8 8 9 9 10 10 11 11
REMARK H PARENT
REMARK Flexibility Score: inf
ROOT
ATOM      1  C   UNL     1       8.284   7.437   0.376  1.00  0.00     0.040 C 
ATOM      2  C   UNL     1       9.692   7.717   0.796  1.00  0.00    -0.066 C 
ATOM      3  C   UNL     1      10.105   8.980   1.095  1.00  0.00     0.047 C 
ATOM      4  C   UNL     1      11.547   9.135   1.471  1.00  0.00     0.159 C 
ATOM      5  O   UNL     1      12.058  10.256   1.731  1.00  0.00    -0.295 OA
ATOM      6  C   UNL     1      12.355   7.837   1.517  1.00  0.00     0.067 C 
ATOM      7  C   UNL     1      11.443   6.852   2.279  1.00  0.00     0.021 C 
ATOM      8  C   UNL     1      10.740   6.592   0.928  1.00  0.00     0.022 C 
ATOM      9  C   UNL     1      12.059   7.025   0.223  1.00  0.00    -0.019 C 
ATOM     10  C   UNL     1      11.952   7.794  -1.125  1.00  0.00     0.012 C 
ATOM     11  C   UNL     1      13.042   5.843   0.032  1.00  0.00     0.012 C 
ENDROOT
TORSDOF 0
ENDMDL
