MODEL 1
REMARK VINA RESULT:    -2.913      0.000      0.000
REMARK INTER + INTRA:          -3.532
REMARK INTER:                  -3.424
REMARK INTRA:                  -0.107
REMARK UNBOUND:                -0.107
REMARK SMILES O=C([O-])CCC(=O)[O-]
REMARK SMILES IDX 4 1 2 2 1 3 3 4 5 5 6 6 7 7 8 8
REMARK H PARENT
REMARK Flexibility Score: inf
ROOT
ATOM      1  C   UNL     1       7.352   8.771  33.147  1.00  0.00     0.059 C 
ENDROOT
BRANCH   1   2
ATOM      2  C   UNL     1       6.557  10.004  33.453  1.00  0.00     0.042 C 
ATOM      3  O   UNL     1       6.222  10.788  32.525  1.00  0.00    -0.550 OA
ATOM      4  O   UNL     1       6.221  10.309  34.766  1.00  0.00    -0.550 OA
ENDBRANCH   1   2
BRANCH   1   5
ATOM      5  C   UNL     1       6.521   7.500  33.345  1.00  0.00     0.059 C 
BRANCH   5   6
ATOM      6  C   UNL     1       6.773   6.879  34.685  1.00  0.00     0.042 C 
ATOM      7  O   UNL     1       5.968   7.069  35.634  1.00  0.00    -0.550 OA
ATOM      8  O   UNL     1       7.877   6.056  34.874  1.00  0.00    -0.550 OA
ENDBRANCH   5   6
ENDBRANCH   1   5
TORSDOF 3
ENDMDL
MODEL 2
REMARK VINA RESULT:    -2.804      0.769      3.811
REMARK INTER + INTRA:          -3.403
REMARK INTER:                  -3.306
REMARK INTRA:                  -0.097
REMARK UNBOUND:                -0.107
REMARK SMILES O=C([O-])CCC(=O)[O-]
REMARK SMILES IDX 4 1 2 2 1 3 3 4 5 5 6 6 7 7 8 8
REMARK H PARENT
REMARK Flexibility Score: inf
ROOT
ATOM      1  C   UNL     1       6.333   7.197  34.203  1.00  0.00     0.059 C 
ENDROOT
BRANCH   1   2
ATOM      2  C   UNL     1       7.243   6.668  35.270  1.00  0.00     0.042 C 
ATOM      3  O   UNL     1       8.049   5.735  35.010  1.00  0.00    -0.550 OA
ATOM      4  O   UNL     1       7.171   7.176  36.560  1.00  0.00    -0.550 OA
ENDBRANCH   1   2
BRANCH   1   5
ATOM      5  C   UNL     1       7.052   8.199  33.293  1.00  0.00     0.059 C 
BRANCH   5   6
ATOM      6  C   UNL     1       6.634   9.607  33.584  1.00  0.00     0.042 C 
ATOM      7  O   UNL     1       6.458  10.425  32.644  1.00  0.00    -0.550 OA
ATOM      8  O   UNL     1       6.399  10.006  34.895  1.00  0.00    -0.550 OA
ENDBRANCH   5   6
ENDBRANCH   1   5
TORSDOF 3
ENDMDL
MODEL 3
REMARK VINA RESULT:    -2.664      0.975      3.923
REMARK INTER + INTRA:          -3.238
REMARK INTER:                  -3.137
REMARK INTRA:                  -0.101
REMARK UNBOUND:                -0.107
REMARK SMILES O=C([O-])CCC(=O)[O-]
REMARK SMILES IDX 4 1 2 2 1 3 3 4 5 5 6 6 7 7 8 8
REMARK H PARENT
REMARK Flexibility Score: inf
ROOT
ATOM      1  C   UNL     1       6.245   6.893  34.149  1.00  0.00     0.059 C 
ENDROOT
BRANCH   1   2
ATOM      2  C   UNL     1       7.011   6.275  35.279  1.00  0.00     0.042 C 
ATOM      3  O   UNL     1       7.455   6.996  36.212  1.00  0.00    -0.550 OA
ATOM      4  O   UNL     1       7.272   4.911  35.280  1.00  0.00    -0.550 OA
ENDBRANCH   1   2
BRANCH   1   5
ATOM      5  C   UNL     1       7.089   7.920  33.388  1.00  0.00     0.059 C 
BRANCH   5   6
ATOM      6  C   UNL     1       6.603   9.317  33.624  1.00  0.00     0.042 C 
ATOM      7  O   UNL     1       6.332   9.708  34.789  1.00  0.00    -0.550 OA
ATOM      8  O   UNL     1       6.488  10.202  32.558  1.00  0.00    -0.550 OA
ENDBRANCH   5   6
ENDBRANCH   1   5
TORSDOF 3
ENDMDL
MODEL 4
REMARK VINA RESULT:    -2.557     21.355     22.112
REMARK INTER + INTRA:          -3.113
REMARK INTER:                  -3.076
REMARK INTRA:                  -0.037
REMARK UNBOUND:                -0.107
REMARK SMILES O=C([O-])CCC(=O)[O-]
REMARK SMILES IDX 4 1 2 2 1 3 3 4 5 5 6 6 7 7 8 8
REMARK H PARENT
REMARK Flexibility Score: inf
ROOT
ATOM      1  C   UNL     1      19.475  20.241  19.450  1.00  0.00     0.059 C 
ENDROOT
BRANCH   1   2
ATOM      2  C   UNL     1      20.274  20.716  20.626  1.00  0.00     0.042 C 
ATOM      3  O   UNL     1      21.527  20.584  20.635  1.00  0.00    -0.550 OA
ATOM      4  O   UNL     1      19.632  21.267  21.727  1.00  0.00    -0.550 OA
ENDBRANCH   1   2
BRANCH   1   5
ATOM      5  C   UNL     1      18.045  19.868  19.852  1.00  0.00     0.059 C 
BRANCH   5   6
ATOM      6  C   UNL     1      17.451  18.864  18.912  1.00  0.00     0.042 C 
ATOM      7  O   UNL     1      18.035  17.769  18.701  1.00  0.00    -0.550 OA
ATOM      8  O   UNL     1      16.231  19.122  18.299  1.00  0.00    -0.550 OA
ENDBRANCH   5   6
ENDBRANCH   1   5
TORSDOF 3
ENDMDL
MODEL 5
REMARK VINA RESULT:    -2.549     21.370     22.184
REMARK INTER + INTRA:          -3.104
REMARK INTER:                  -3.070
REMARK INTRA:                  -0.034
REMARK UNBOUND:                -0.107
REMARK SMILES O=C([O-])CCC(=O)[O-]
REMARK SMILES IDX 4 1 2 2 1 3 3 4 5 5 6 6 7 7 8 8
REMARK H PARENT
REMARK Flexibility Score: inf
ROOT
ATOM      1  C   UNL     1      18.046  19.819  19.851  1.00  0.00     0.059 C 
ENDROOT
BRANCH   1   2
ATOM      2  C   UNL     1      17.449  18.843  18.884  1.00  0.00     0.042 C 
ATOM      3  O   UNL     1      16.336  19.086  18.344  1.00  0.00    -0.550 OA
ATOM      4  O   UNL     1      18.099  17.647  18.610  1.00  0.00    -0.550 OA
ENDBRANCH   1   2
BRANCH   1   5
ATOM      5  C   UNL     1      19.464  20.226  19.440  1.00  0.00     0.059 C 
BRANCH   5   6
ATOM      6  C   UNL     1      20.270  20.683  20.618  1.00  0.00     0.042 C 
ATOM      7  O   UNL     1      21.525  20.586  20.605  1.00  0.00    -0.550 OA
ATOM      8  O   UNL     1      19.636  21.255  21.714  1.00  0.00    -0.550 OA
ENDBRANCH   5   6
ENDBRANCH   1   5
TORSDOF 3
ENDMDL
MODEL 6
REMARK VINA RESULT:    -2.528     21.357     22.171
REMARK INTER + INTRA:          -3.078
REMARK INTER:                  -3.041
REMARK INTRA:                  -0.037
REMARK UNBOUND:                -0.107
REMARK SMILES O=C([O-])CCC(=O)[O-]
REMARK SMILES IDX 4 1 2 2 1 3 3 4 5 5 6 6 7 7 8 8
REMARK H PARENT
REMARK Flexibility Score: inf
ROOT
ATOM      1  C   UNL     1      18.019  19.755  19.855  1.00  0.00     0.059 C 
ENDROOT
BRANCH   1   2
ATOM      2  C   UNL     1      17.455  18.765  18.881  1.00  0.00     0.042 C 
ATOM      3  O   UNL     1      18.040  17.667  18.683  1.00  0.00    -0.550 OA
ATOM      4  O   UNL     1      16.307  19.072  18.162  1.00  0.00    -0.550 OA
ENDBRANCH   1   2
BRANCH   1   5
ATOM      5  C   UNL     1      19.406  20.243  19.425  1.00  0.00     0.059 C 
BRANCH   5   6
ATOM      6  C   UNL     1      20.209  20.724  20.595  1.00  0.00     0.042 C 
ATOM      7  O   UNL     1      19.632  21.173  21.619  1.00  0.00    -0.550 OA
ATOM      8  O   UNL     1      21.596  20.640  20.568  1.00  0.00    -0.550 OA
ENDBRANCH   5   6
ENDBRANCH   1   5
TORSDOF 3
ENDMDL
MODEL 7
REMARK VINA RESULT:    -2.501      1.806      2.370
REMARK INTER + INTRA:          -3.046
REMARK INTER:                  -3.016
REMARK INTRA:                  -0.030
REMARK UNBOUND:                -0.107
REMARK SMILES O=C([O-])CCC(=O)[O-]
REMARK SMILES IDX 4 1 2 2 1 3 3 4 5 5 6 6 7 7 8 8
REMARK H PARENT
REMARK Flexibility Score: inf
ROOT
ATOM      1  C   UNL     1       7.301   6.729  33.940  1.00  0.00     0.059 C 
ENDROOT
BRANCH   1   2
ATOM      2  C   UNL     1       6.992   8.190  33.813  1.00  0.00     0.042 C 
ATOM      3  O   UNL     1       7.443   8.850  32.840  1.00  0.00    -0.550 OA
ATOM      4  O   UNL     1       6.242   8.831  34.791  1.00  0.00    -0.550 OA
ENDBRANCH   1   2
BRANCH   1   5
ATOM      5  C   UNL     1       7.340   6.285  35.406  1.00  0.00     0.059 C 
BRANCH   5   6
ATOM      6  C   UNL     1       8.136   5.028  35.581  1.00  0.00     0.042 C 
ATOM      7  O   UNL     1       7.553   3.925  35.745  1.00  0.00    -0.550 OA
ATOM      8  O   UNL     1       9.524   5.071  35.523  1.00  0.00    -0.550 OA
ENDBRANCH   5   6
ENDBRANCH   1   5
TORSDOF 3
ENDMDL
MODEL 8
REMARK VINA RESULT:    -2.481      2.828      4.362
REMARK INTER + INTRA:          -3.024
REMARK INTER:                  -2.983
REMARK INTRA:                  -0.041
REMARK UNBOUND:                -0.107
REMARK SMILES O=C([O-])CCC(=O)[O-]
REMARK SMILES IDX 4 1 2 2 1 3 3 4 5 5 6 6 7 7 8 8
REMARK H PARENT
REMARK Flexibility Score: inf
ROOT
ATOM      1  C   UNL     1       7.786   5.307  35.459  1.00  0.00     0.059 C 
ENDROOT
BRANCH   1   2
ATOM      2  C   UNL     1       7.252   6.637  35.020  1.00  0.00     0.042 C 
ATOM      3  O   UNL     1       6.887   7.487  35.876  1.00  0.00    -0.550 OA
ATOM      4  O   UNL     1       7.119   6.922  33.668  1.00  0.00    -0.550 OA
ENDBRANCH   1   2
BRANCH   1   5
ATOM      5  C   UNL     1       9.059   5.459  36.298  1.00  0.00     0.059 C 
BRANCH   5   6
ATOM      6  C   UNL     1      10.097   4.450  35.912  1.00  0.00     0.042 C 
ATOM      7  O   UNL     1      10.740   4.579  34.838  1.00  0.00    -0.550 OA
ATOM      8  O   UNL     1      10.382   3.387  36.760  1.00  0.00    -0.550 OA
ENDBRANCH   5   6
ENDBRANCH   1   5
TORSDOF 3
ENDMDL
MODEL 9
REMARK VINA RESULT:    -2.474      1.582      2.284
REMARK INTER + INTRA:          -3.015
REMARK INTER:                  -2.969
REMARK INTRA:                  -0.046
REMARK UNBOUND:                -0.107
REMARK SMILES O=C([O-])CCC(=O)[O-]
REMARK SMILES IDX 4 1 2 2 1 3 3 4 5 5 6 6 7 7 8 8
REMARK H PARENT
REMARK Flexibility Score: inf
ROOT
ATOM      1  C   UNL     1       5.875  10.149  33.956  1.00  0.00     0.059 C 
ENDROOT
BRANCH   1   2
ATOM      2  C   UNL     1       6.110  10.899  35.232  1.00  0.00     0.042 C 
ATOM      3  O   UNL     1       6.293  10.272  36.310  1.00  0.00    -0.550 OA
ATOM      4  O   UNL     1       6.086  12.287  35.239  1.00  0.00    -0.550 OA
ENDBRANCH   1   2
BRANCH   1   5
ATOM      5  C   UNL     1       7.045   9.218  33.624  1.00  0.00     0.059 C 
BRANCH   5   6
ATOM      6  C   UNL     1       6.734   7.794  33.971  1.00  0.00     0.042 C 
ATOM      7  O   UNL     1       6.346   6.994  33.081  1.00  0.00    -0.550 OA
ATOM      8  O   UNL     1       6.910   7.342  35.273  1.00  0.00    -0.550 OA
ENDBRANCH   5   6
ENDBRANCH   1   5
TORSDOF 3
ENDMDL
