MODEL 1
REMARK VINA RESULT:   139.228      0.000      0.000
REMARK INTER + INTRA:         151.582
REMARK INTER:                 151.437
REMARK INTRA:                   0.145
REMARK UNBOUND:                 0.145
REMARK SMILES C[C@H]1[C@H](C)CC[C@]2(C(=O)[O-])CC[C@]3(C)C(=CC[C@@H]4[C@]5(C)CC[C@@H](O)C(C)(C)[C@@H]5CC[C@@]43C)[C@H]12
REMARK SMILES IDX 7 1 6 2 11 3 33 4 5 5 12 6 15 7 2 8 3 9 13 10 16 11 1 12
REMARK SMILES IDX 4 13 14 14 31 15 17 16 18 17 30 18 32 19 19 20 29 21 28 22
REMARK SMILES IDX 21 23 20 24 25 25 22 26 23 27 26 28 27 29 8 30 9 31 10 32
REMARK SMILES IDX 24 33
REMARK H PARENT 24 34
REMARK Flexibility Score: inf
ROOT
ATOM      1  C   UNL     1      -2.453   3.365  -0.546  1.00  0.00     0.017 C 
ATOM      2  C   UNL     1      -3.955   2.912  -0.506  1.00  0.00     0.014 C 
ATOM      3  C   UNL     1      -1.796   2.712  -1.807  1.00  0.00     0.014 C 
ATOM      4  C   UNL     1      -1.712   2.995   0.820  1.00  0.00     0.030 C 
ATOM      5  C   UNL     1      -4.727   3.384   0.726  1.00  0.00     0.004 C 
ATOM      6  C   UNL     1      -0.512   1.939  -1.530  1.00  0.00     0.013 C 
ATOM      7  C   UNL     1      -1.087   1.557   0.865  1.00  0.00    -0.063 C 
ATOM      8  C   UNL     1      -2.578   3.432   2.080  1.00  0.00    -0.003 C 
ATOM      9  C   UNL     1      -4.046   2.946   2.032  1.00  0.00    -0.011 C 
ATOM     10  C   UNL     1      -0.643   0.840  -0.422  1.00  0.00    -0.006 C 
ATOM     11  C   UNL     1      -0.732   1.012   2.056  1.00  0.00    -0.027 C 
ATOM     12  C   UNL     1      -2.505   4.948   2.361  1.00  0.00     0.008 C 
ATOM     13  C   UNL     1      -4.153   1.425   2.250  1.00  0.00     0.008 C 
ATOM     14  C   UNL     1      -1.769  -0.185  -0.777  1.00  0.00     0.017 C 
ATOM     15  C   UNL     1       0.764   0.051  -0.239  1.00  0.00    -0.020 C 
ATOM     16  C   UNL     1       0.234  -0.117   2.256  1.00  0.00     0.032 C 
ATOM     17  C   UNL     1       0.693  -0.910   1.003  1.00  0.00     0.006 C 
ATOM     18  C   UNL     1       1.946   1.053   0.008  1.00  0.00     0.008 C 
ATOM     19  C   UNL     1       1.053  -0.784  -1.539  1.00  0.00     0.012 C 
ATOM     20  C   UNL     1       2.031  -1.787   1.260  1.00  0.00    -0.025 C 
ATOM     21  C   UNL     1       3.141   0.522   0.854  1.00  0.00     0.005 C 
ATOM     22  C   UNL     1       3.348  -1.015   0.794  1.00  0.00     0.003 C 
ATOM     23  C   UNL     1       2.124  -2.214   2.771  1.00  0.00     0.010 C 
ATOM     24  C   UNL     1       1.886  -3.123   0.446  1.00  0.00     0.012 C 
ATOM     25  C   UNL     1       4.731  -1.530   1.415  1.00  0.00    -0.006 C 
ATOM     26  C   UNL     1       3.450  -2.839   3.193  1.00  0.00     0.033 C 
ATOM     27  C   UNL     1       4.595  -1.864   2.927  1.00  0.00     0.120 C 
ATOM     28  C   UNL     1       5.860  -0.475   1.272  1.00  0.00     0.014 C 
ATOM     29  C   UNL     1       5.238  -2.773   0.625  1.00  0.00     0.014 C 
ENDROOT
BRANCH   1  30
ATOM     30  C   UNL     1      -2.395   4.874  -0.783  1.00  0.00     0.048 C 
ATOM     31  O   UNL     1      -3.448   5.569  -0.774  1.00  0.00    -0.550 OA
ATOM     32  O   UNL     1      -1.200   5.495  -1.142  1.00  0.00    -0.550 OA
ENDBRANCH   1  30
BRANCH  27  33
ATOM     33  O   UNL     1       5.792  -2.404   3.426  1.00  0.00    -0.393 OA
ATOM     34  H   UNL     1       6.536  -2.024   2.892  1.00  0.00     0.210 HD
ENDBRANCH  27  33
TORSDOF 2
ENDMDL
