MODEL 1
REMARK VINA RESULT:    -5.840      0.000      0.000
REMARK INTER + INTRA:          -9.089
REMARK INTER:                  -8.742
REMARK INTRA:                  -0.346
REMARK UNBOUND:                -0.346
REMARK SMILES COC(=O)C1=CO[C@H](O[C@@H]2O[C@@H](CO)[C@H](O)[C@H](O)[C@@H]2O)[C@@H]2C(CO)=CC[C@@H]12
REMARK SMILES IDX 9 1 8 2 5 3 6 4 27 5 7 6 21 7 26 8 22 9 25 10 3 11 4 12 2 13
REMARK SMILES IDX 1 14 23 15 24 16 10 18 19 19 11 20 17 21 12 22 15 23 20 24
REMARK SMILES IDX 18 26 13 28 14 29 16 31
REMARK H PARENT 24 17 20 25 18 27 14 30 16 32
REMARK Flexibility Score: inf
ROOT
ATOM      1  O   UNL     1      58.362  73.468  42.812  1.00  0.00    -0.310 OA
ENDROOT
BRANCH   1   2
ATOM      2  C   UNL     1      57.026  73.914  42.592  1.00  0.00     0.316 C 
ATOM      3  C   UNL     1      57.543  76.085  40.732  1.00  0.00     0.076 C 
ATOM      4  C   UNL     1      57.317  76.344  42.046  1.00  0.00     0.202 C 
ATOM      5  C   UNL     1      57.555  74.652  40.285  1.00  0.00     0.047 C 
ATOM      6  O   UNL     1      56.991  75.305  42.958  1.00  0.00    -0.471 OA
ATOM      7  C   UNL     1      56.545  73.882  41.120  1.00  0.00     0.094 C 
ATOM      8  C   UNL     1      57.182  74.275  38.861  1.00  0.00     0.037 C 
ATOM      9  C   UNL     1      56.315  72.640  40.317  1.00  0.00    -0.039 C 
ATOM     10  C   UNL     1      56.643  72.883  39.040  1.00  0.00    -0.024 C 
BRANCH   3  11
ATOM     11  C   UNL     1      57.992  77.150  39.826  1.00  0.00     0.337 C 
ATOM     12  O   UNL     1      58.194  76.890  38.608  1.00  0.00    -0.246 OA
BRANCH  11  13
ATOM     13  O   UNL     1      58.240  78.433  40.336  1.00  0.00    -0.466 OA
ATOM     14  C   UNL     1      59.541  79.027  40.359  1.00  0.00     0.282 C 
ENDBRANCH  11  13
ENDBRANCH   3  11
BRANCH   9  15
ATOM     15  C   UNL     1      55.469  71.466  40.743  1.00  0.00     0.187 C 
BRANCH  15  16
ATOM     16  O   UNL     1      54.842  70.859  39.632  1.00  0.00    -0.392 OA
ATOM     17  H   UNL     1      55.436  71.048  38.856  1.00  0.00     0.211 HD
ENDBRANCH  15  16
ENDBRANCH   9  15
ENDBRANCH   1   2
BRANCH   1  18
ATOM     18  C   UNL     1      58.701  73.273  44.181  1.00  0.00     0.286 C 
ATOM     19  C   UNL     1      59.963  72.394  44.331  1.00  0.00     0.202 C 
ATOM     20  O   UNL     1      58.829  74.495  44.893  1.00  0.00    -0.341 OA
ATOM     21  C   UNL     1      61.243  73.162  43.962  1.00  0.00     0.179 C 
ATOM     22  C   UNL     1      59.954  75.268  44.479  1.00  0.00     0.178 C 
ATOM     23  C   UNL     1      61.271  74.486  44.740  1.00  0.00     0.177 C 
BRANCH  19  24
ATOM     24  O   UNL     1      59.844  71.198  43.603  1.00  0.00    -0.385 OA
ATOM     25  H   UNL     1      59.661  71.429  42.662  1.00  0.00     0.211 HD
ENDBRANCH  19  24
BRANCH  21  26
ATOM     26  O   UNL     1      61.283  73.386  42.570  1.00  0.00    -0.387 OA
ATOM     27  H   UNL     1      61.673  74.294  42.428  1.00  0.00     0.211 HD
ENDBRANCH  21  26
BRANCH  22  28
ATOM     28  C   UNL     1      59.889  76.595  45.267  1.00  0.00     0.191 C 
BRANCH  28  29
ATOM     29  O   UNL     1      60.688  77.598  44.706  1.00  0.00    -0.394 OA
ATOM     30  H   UNL     1      60.084  78.354  44.473  1.00  0.00     0.210 HD
ENDBRANCH  28  29
ENDBRANCH  22  28
BRANCH  23  31
ATOM     31  O   UNL     1      62.389  75.236  44.346  1.00  0.00    -0.387 OA
ATOM     32  H   UNL     1      62.750  75.633  45.181  1.00  0.00     0.211 HD
ENDBRANCH  23  31
ENDBRANCH   1  18
TORSDOF 11
ENDMDL
MODEL 2
REMARK VINA RESULT:    -5.737      1.266      2.111
REMARK INTER + INTRA:          -8.935
REMARK INTER:                  -9.030
REMARK INTRA:                   0.095
REMARK UNBOUND:                -0.346
REMARK SMILES COC(=O)C1=CO[C@H](O[C@@H]2O[C@@H](CO)[C@H](O)[C@H](O)[C@@H]2O)[C@@H]2C(CO)=CC[C@@H]12
REMARK SMILES IDX 9 1 8 2 5 3 6 4 27 5 7 6 21 7 26 8 22 9 25 10 3 11 4 12 2 13
REMARK SMILES IDX 1 14 23 15 24 16 10 18 19 19 11 20 17 21 12 22 15 23 20 24
REMARK SMILES IDX 18 26 13 28 14 29 16 31
REMARK H PARENT 24 17 20 25 18 27 14 30 16 32
REMARK Flexibility Score: inf
ROOT
ATOM      1  O   UNL     1      59.103  73.409  42.425  1.00  0.00    -0.310 OA
ENDROOT
BRANCH   1   2
ATOM      2  C   UNL     1      57.705  73.674  42.518  1.00  0.00     0.316 C 
ATOM      3  C   UNL     1      57.560  76.073  40.887  1.00  0.00     0.076 C 
ATOM      4  C   UNL     1      57.576  76.163  42.241  1.00  0.00     0.202 C 
ATOM      5  C   UNL     1      57.659  74.709  40.267  1.00  0.00     0.047 C 
ATOM      6  O   UNL     1      57.573  75.001  43.059  1.00  0.00    -0.471 OA
ATOM      7  C   UNL     1      56.943  73.720  41.171  1.00  0.00     0.094 C 
ATOM      8  C   UNL     1      57.053  74.426  38.902  1.00  0.00     0.037 C 
ATOM      9  C   UNL     1      56.711  72.544  40.275  1.00  0.00    -0.039 C 
ATOM     10  C   UNL     1      56.739  72.959  39.001  1.00  0.00    -0.024 C 
BRANCH   3  11
ATOM     11  C   UNL     1      57.680  77.278  40.055  1.00  0.00     0.337 C 
ATOM     12  O   UNL     1      58.383  77.246  39.008  1.00  0.00    -0.246 OA
BRANCH  11  13
ATOM     13  O   UNL     1      57.052  78.464  40.461  1.00  0.00    -0.466 OA
ATOM     14  C   UNL     1      57.735  79.513  41.154  1.00  0.00     0.282 C 
ENDBRANCH  11  13
ENDBRANCH   3  11
BRANCH   9  15
ATOM     15  C   UNL     1      56.121  71.222  40.699  1.00  0.00     0.187 C 
BRANCH  15  16
ATOM     16  O   UNL     1      55.562  70.536  39.598  1.00  0.00    -0.392 OA
ATOM     17  H   UNL     1      56.208  69.810  39.382  1.00  0.00     0.211 HD
ENDBRANCH  15  16
ENDBRANCH   9  15
ENDBRANCH   1   2
BRANCH   1  18
ATOM     18  C   UNL     1      59.614  72.570  43.456  1.00  0.00     0.286 C 
ATOM     19  C   UNL     1      60.920  73.142  44.054  1.00  0.00     0.202 C 
ATOM     20  O   UNL     1      58.655  72.297  44.467  1.00  0.00    -0.341 OA
ATOM     21  C   UNL     1      60.653  74.356  44.959  1.00  0.00     0.179 C 
ATOM     22  C   UNL     1      58.317  73.444  45.242  1.00  0.00     0.178 C 
ATOM     23  C   UNL     1      59.572  73.982  45.985  1.00  0.00     0.177 C 
BRANCH  19  24
ATOM     24  O   UNL     1      61.856  73.438  43.048  1.00  0.00    -0.385 OA
ATOM     25  H   UNL     1      61.922  74.417  42.968  1.00  0.00     0.211 HD
ENDBRANCH  19  24
BRANCH  21  26
ATOM     26  O   UNL     1      60.255  75.459  44.176  1.00  0.00    -0.387 OA
ATOM     27  H   UNL     1      59.749  76.079  44.774  1.00  0.00     0.211 HD
ENDBRANCH  21  26
BRANCH  22  28
ATOM     28  C   UNL     1      57.200  73.005  46.215  1.00  0.00     0.191 C 
BRANCH  28  29
ATOM     29  O   UNL     1      56.428  74.078  46.675  1.00  0.00    -0.394 OA
ATOM     30  H   UNL     1      56.666  74.867  46.117  1.00  0.00     0.210 HD
ENDBRANCH  28  29
ENDBRANCH  22  28
BRANCH  23  31
ATOM     31  O   UNL     1      59.255  75.107  46.760  1.00  0.00    -0.387 OA
ATOM     32  H   UNL     1      59.712  74.968  47.630  1.00  0.00     0.211 HD
ENDBRANCH  23  31
ENDBRANCH   1  18
TORSDOF 11
ENDMDL
MODEL 3
REMARK VINA RESULT:    -5.396      3.777      8.406
REMARK INTER + INTRA:          -8.423
REMARK INTER:                  -6.996
REMARK INTRA:                  -1.427
REMARK UNBOUND:                -0.346
REMARK SMILES COC(=O)C1=CO[C@H](O[C@@H]2O[C@@H](CO)[C@H](O)[C@H](O)[C@@H]2O)[C@@H]2C(CO)=CC[C@@H]12
REMARK SMILES IDX 9 1 8 2 5 3 6 4 27 5 7 6 21 7 26 8 22 9 25 10 3 11 4 12 2 13
REMARK SMILES IDX 1 14 23 15 24 16 10 18 19 19 11 20 17 21 12 22 15 23 20 24
REMARK SMILES IDX 18 26 13 28 14 29 16 31
REMARK H PARENT 24 17 20 25 18 27 14 30 16 32
REMARK Flexibility Score: inf
ROOT
ATOM      1  O   UNL     1      61.772  78.973  43.687  1.00  0.00    -0.310 OA
ENDROOT
BRANCH   1   2
ATOM      2  C   UNL     1      62.539  78.788  44.874  1.00  0.00     0.316 C 
ATOM      3  C   UNL     1      62.945  75.915  44.742  1.00  0.00     0.076 C 
ATOM      4  C   UNL     1      61.987  76.437  45.550  1.00  0.00     0.202 C 
ATOM      5  C   UNL     1      63.752  76.859  43.900  1.00  0.00     0.047 C 
ATOM      6  O   UNL     1      61.819  77.841  45.685  1.00  0.00    -0.471 OA
ATOM      7  C   UNL     1      63.937  78.153  44.675  1.00  0.00     0.094 C 
ATOM      8  C   UNL     1      65.169  76.509  43.474  1.00  0.00     0.037 C 
ATOM      9  C   UNL     1      65.087  78.809  43.976  1.00  0.00    -0.039 C 
ATOM     10  C   UNL     1      65.794  77.869  43.332  1.00  0.00    -0.024 C 
BRANCH   3  11
ATOM     11  C   UNL     1      63.031  74.465  44.524  1.00  0.00     0.337 C 
ATOM     12  O   UNL     1      62.267  73.914  43.684  1.00  0.00    -0.246 OA
BRANCH  11  13
ATOM     13  O   UNL     1      63.927  73.702  45.286  1.00  0.00    -0.466 OA
ATOM     14  C   UNL     1      65.027  72.988  44.717  1.00  0.00     0.282 C 
ENDBRANCH  11  13
ENDBRANCH   3  11
BRANCH   9  15
ATOM     15  C   UNL     1      65.624  80.185  44.275  1.00  0.00     0.187 C 
BRANCH  15  16
ATOM     16  O   UNL     1      64.739  81.189  43.825  1.00  0.00    -0.392 OA
ATOM     17  H   UNL     1      65.028  82.024  44.283  1.00  0.00     0.211 HD
ENDBRANCH  15  16
ENDBRANCH   9  15
ENDBRANCH   1   2
BRANCH   1  18
ATOM     18  C   UNL     1      60.653  79.840  43.836  1.00  0.00     0.286 C 
ATOM     19  C   UNL     1      60.749  81.057  42.888  1.00  0.00     0.202 C 
ATOM     20  O   UNL     1      59.412  79.164  43.692  1.00  0.00    -0.341 OA
ATOM     21  C   UNL     1      60.453  80.671  41.429  1.00  0.00     0.179 C 
ATOM     22  C   UNL     1      59.178  78.703  42.363  1.00  0.00     0.178 C 
ATOM     23  C   UNL     1      59.122  79.904  41.378  1.00  0.00     0.177 C 
BRANCH  19  24
ATOM     24  O   UNL     1      61.988  81.707  43.014  1.00  0.00    -0.385 OA
ATOM     25  H   UNL     1      62.666  81.032  43.251  1.00  0.00     0.211 HD
ENDBRANCH  19  24
BRANCH  21  26
ATOM     26  O   UNL     1      61.511  79.893  40.915  1.00  0.00    -0.387 OA
ATOM     27  H   UNL     1      61.290  78.936  41.096  1.00  0.00     0.211 HD
ENDBRANCH  21  26
BRANCH  22  28
ATOM     28  C   UNL     1      57.854  77.908  42.400  1.00  0.00     0.191 C 
BRANCH  28  29
ATOM     29  O   UNL     1      57.732  77.008  41.334  1.00  0.00    -0.394 OA
ATOM     30  H   UNL     1      57.119  77.425  40.671  1.00  0.00     0.210 HD
ENDBRANCH  28  29
ENDBRANCH  22  28
BRANCH  23  31
ATOM     31  O   UNL     1      58.884  79.469  40.066  1.00  0.00    -0.387 OA
ATOM     32  H   UNL     1      58.002  79.014  40.093  1.00  0.00     0.211 HD
ENDBRANCH  23  31
ENDBRANCH   1  18
TORSDOF 11
ENDMDL
MODEL 4
REMARK VINA RESULT:    -5.304      8.389     11.053
REMARK INTER + INTRA:          -8.286
REMARK INTER:                  -7.170
REMARK INTRA:                  -1.117
REMARK UNBOUND:                -0.346
REMARK SMILES COC(=O)C1=CO[C@H](O[C@@H]2O[C@@H](CO)[C@H](O)[C@H](O)[C@@H]2O)[C@@H]2C(CO)=CC[C@@H]12
REMARK SMILES IDX 9 1 8 2 5 3 6 4 27 5 7 6 21 7 26 8 22 9 25 10 3 11 4 12 2 13
REMARK SMILES IDX 1 14 23 15 24 16 10 18 19 19 11 20 17 21 12 22 15 23 20 24
REMARK SMILES IDX 18 26 13 28 14 29 16 31
REMARK H PARENT 24 17 20 25 18 27 14 30 16 32
REMARK Flexibility Score: inf
ROOT
ATOM      1  O   UNL     1      49.227  76.950  42.963  1.00  0.00    -0.310 OA
ENDROOT
BRANCH   1   2
ATOM      2  C   UNL     1      49.028  78.131  42.191  1.00  0.00     0.316 C 
ATOM      3  C   UNL     1      48.223  79.956  44.303  1.00  0.00     0.076 C 
ATOM      4  C   UNL     1      47.292  79.383  43.499  1.00  0.00     0.202 C 
ATOM      5  C   UNL     1      49.664  79.590  44.092  1.00  0.00     0.047 C 
ATOM      6  O   UNL     1      47.667  78.545  42.414  1.00  0.00    -0.471 OA
ATOM      7  C   UNL     1      49.884  79.353  42.607  1.00  0.00     0.094 C 
ATOM      8  C   UNL     1      50.777  80.559  44.453  1.00  0.00     0.037 C 
ATOM      9  C   UNL     1      51.371  79.449  42.463  1.00  0.00    -0.039 C 
ATOM     10  C   UNL     1      51.859  80.161  43.488  1.00  0.00    -0.024 C 
BRANCH   3  11
ATOM     11  C   UNL     1      47.818  80.725  45.488  1.00  0.00     0.337 C 
ATOM     12  O   UNL     1      48.020  81.969  45.523  1.00  0.00    -0.246 OA
BRANCH  11  13
ATOM     13  O   UNL     1      47.257  80.057  46.586  1.00  0.00    -0.466 OA
ATOM     14  C   UNL     1      45.876  80.162  46.943  1.00  0.00     0.282 C 
ENDBRANCH  11  13
ENDBRANCH   3  11
BRANCH   9  15
ATOM     15  C   UNL     1      52.147  79.187  41.196  1.00  0.00     0.187 C 
BRANCH  15  16
ATOM     16  O   UNL     1      53.330  79.957  41.154  1.00  0.00    -0.392 OA
ATOM     17  H   UNL     1      53.528  80.193  42.101  1.00  0.00     0.211 HD
ENDBRANCH  15  16
ENDBRANCH   9  15
ENDBRANCH   1   2
BRANCH   1  18
ATOM     18  C   UNL     1      50.240  76.082  42.464  1.00  0.00     0.286 C 
ATOM     19  C   UNL     1      51.090  75.488  43.609  1.00  0.00     0.202 C 
ATOM     20  O   UNL     1      49.724  75.066  41.617  1.00  0.00    -0.341 OA
ATOM     21  C   UNL     1      50.326  74.403  44.386  1.00  0.00     0.179 C 
ATOM     22  C   UNL     1      48.919  74.115  42.310  1.00  0.00     0.178 C 
ATOM     23  C   UNL     1      49.765  73.379  43.387  1.00  0.00     0.177 C 
BRANCH  19  24
ATOM     24  O   UNL     1      51.576  76.494  44.462  1.00  0.00    -0.385 OA
ATOM     25  H   UNL     1      52.303  76.968  43.995  1.00  0.00     0.211 HD
ENDBRANCH  19  24
BRANCH  21  26
ATOM     26  O   UNL     1      49.295  74.993  45.147  1.00  0.00    -0.387 OA
ATOM     27  H   UNL     1      49.138  75.907  44.773  1.00  0.00     0.211 HD
ENDBRANCH  21  26
BRANCH  22  28
ATOM     28  C   UNL     1      48.358  73.151  41.242  1.00  0.00     0.191 C 
BRANCH  28  29
ATOM     29  O   UNL     1      47.537  72.157  41.787  1.00  0.00    -0.394 OA
ATOM     30  H   UNL     1      47.940  71.281  41.543  1.00  0.00     0.210 HD
ENDBRANCH  28  29
ENDBRANCH  22  28
BRANCH  23  31
ATOM     31  O   UNL     1      48.991  72.432  44.075  1.00  0.00    -0.387 OA
ATOM     32  H   UNL     1      49.603  72.018  44.737  1.00  0.00     0.211 HD
ENDBRANCH  23  31
ENDBRANCH   1  18
TORSDOF 11
ENDMDL
MODEL 5
REMARK VINA RESULT:    -5.256      2.967      4.680
REMARK INTER + INTRA:          -8.214
REMARK INTER:                  -6.748
REMARK INTRA:                  -1.466
REMARK UNBOUND:                -0.346
REMARK SMILES COC(=O)C1=CO[C@H](O[C@@H]2O[C@@H](CO)[C@H](O)[C@H](O)[C@@H]2O)[C@@H]2C(CO)=CC[C@@H]12
REMARK SMILES IDX 9 1 8 2 5 3 6 4 27 5 7 6 21 7 26 8 22 9 25 10 3 11 4 12 2 13
REMARK SMILES IDX 1 14 23 15 24 16 10 18 19 19 11 20 17 21 12 22 15 23 20 24
REMARK SMILES IDX 18 26 13 28 14 29 16 31
REMARK H PARENT 24 17 20 25 18 27 14 30 16 32
REMARK Flexibility Score: inf
ROOT
ATOM      1  O   UNL     1      61.767  75.884  45.027  1.00  0.00    -0.310 OA
ENDROOT
BRANCH   1   2
ATOM      2  C   UNL     1      60.555  75.656  45.742  1.00  0.00     0.316 C 
ATOM      3  C   UNL     1      58.876  77.674  44.496  1.00  0.00     0.076 C 
ATOM      4  C   UNL     1      59.442  77.903  45.709  1.00  0.00     0.202 C 
ATOM      5  C   UNL     1      59.175  76.373  43.811  1.00  0.00     0.047 C 
ATOM      6  O   UNL     1      60.206  76.904  46.369  1.00  0.00    -0.471 OA
ATOM      7  C   UNL     1      59.325  75.295  44.872  1.00  0.00     0.094 C 
ATOM      8  C   UNL     1      58.185  75.758  42.835  1.00  0.00     0.037 C 
ATOM      9  C   UNL     1      59.164  74.026  44.096  1.00  0.00    -0.039 C 
ATOM     10  C   UNL     1      58.490  74.291  42.968  1.00  0.00    -0.024 C 
BRANCH   3  11
ATOM     11  C   UNL     1      58.187  78.752  43.776  1.00  0.00     0.337 C 
ATOM     12  O   UNL     1      57.059  79.149  44.176  1.00  0.00    -0.246 OA
BRANCH  11  13
ATOM     13  O   UNL     1      58.771  79.296  42.622  1.00  0.00    -0.466 OA
ATOM     14  C   UNL     1      58.058  79.471  41.394  1.00  0.00     0.282 C 
ENDBRANCH  11  13
ENDBRANCH   3  11
BRANCH   9  15
ATOM     15  C   UNL     1      59.329  72.633  44.650  1.00  0.00     0.187 C 
BRANCH  15  16
ATOM     16  O   UNL     1      60.142  71.841  43.809  1.00  0.00    -0.392 OA
ATOM     17  H   UNL     1      59.539  71.514  43.088  1.00  0.00     0.211 HD
ENDBRANCH  15  16
ENDBRANCH   9  15
ENDBRANCH   1   2
BRANCH   1  18
ATOM     18  C   UNL     1      62.815  74.972  45.338  1.00  0.00     0.286 C 
ATOM     19  C   UNL     1      63.400  74.326  44.061  1.00  0.00     0.202 C 
ATOM     20  O   UNL     1      63.832  75.557  46.138  1.00  0.00    -0.341 OA
ATOM     21  C   UNL     1      64.280  75.311  43.273  1.00  0.00     0.179 C 
ATOM     22  C   UNL     1      64.583  76.553  45.448  1.00  0.00     0.178 C 
ATOM     23  C   UNL     1      65.314  75.928  44.227  1.00  0.00     0.177 C 
BRANCH  19  24
ATOM     24  O   UNL     1      62.388  73.773  43.258  1.00  0.00    -0.385 OA
ATOM     25  H   UNL     1      62.798  73.099  42.668  1.00  0.00     0.211 HD
ENDBRANCH  19  24
BRANCH  21  26
ATOM     26  O   UNL     1      63.474  76.305  42.680  1.00  0.00    -0.387 OA
ATOM     27  H   UNL     1      63.499  76.156  41.692  1.00  0.00     0.211 HD
ENDBRANCH  21  26
BRANCH  22  28
ATOM     28  C   UNL     1      65.565  77.155  46.478  1.00  0.00     0.191 C 
BRANCH  28  29
ATOM     29  O   UNL     1      66.124  78.365  46.050  1.00  0.00    -0.394 OA
ATOM     30  H   UNL     1      65.996  79.021  46.787  1.00  0.00     0.210 HD
ENDBRANCH  28  29
ENDBRANCH  22  28
BRANCH  23  31
ATOM     31  O   UNL     1      66.065  76.893  43.541  1.00  0.00    -0.387 OA
ATOM     32  H   UNL     1      66.873  76.418  43.214  1.00  0.00     0.211 HD
ENDBRANCH  23  31
ENDBRANCH   1  18
TORSDOF 11
ENDMDL
MODEL 6
REMARK VINA RESULT:    -5.144      1.861      2.641
REMARK INTER + INTRA:          -8.047
REMARK INTER:                  -6.631
REMARK INTRA:                  -1.416
REMARK UNBOUND:                -0.346
REMARK SMILES COC(=O)C1=CO[C@H](O[C@@H]2O[C@@H](CO)[C@H](O)[C@H](O)[C@@H]2O)[C@@H]2C(CO)=CC[C@@H]12
REMARK SMILES IDX 9 1 8 2 5 3 6 4 27 5 7 6 21 7 26 8 22 9 25 10 3 11 4 12 2 13
REMARK SMILES IDX 1 14 23 15 24 16 10 18 19 19 11 20 17 21 12 22 15 23 20 24
REMARK SMILES IDX 18 26 13 28 14 29 16 31
REMARK H PARENT 24 17 20 25 18 27 14 30 16 32
REMARK Flexibility Score: inf
ROOT
ATOM      1  O   UNL     1      59.528  75.677  43.839  1.00  0.00    -0.310 OA
ENDROOT
BRANCH   1   2
ATOM      2  C   UNL     1      58.110  75.542  43.876  1.00  0.00     0.316 C 
ATOM      3  C   UNL     1      57.363  77.892  42.339  1.00  0.00     0.076 C 
ATOM      4  C   UNL     1      57.306  77.911  43.695  1.00  0.00     0.202 C 
ATOM      5  C   UNL     1      57.857  76.643  41.669  1.00  0.00     0.047 C 
ATOM      6  O   UNL     1      57.596  76.751  44.464  1.00  0.00    -0.471 OA
ATOM      7  C   UNL     1      57.412  75.448  42.496  1.00  0.00     0.094 C 
ATOM      8  C   UNL     1      57.402  76.277  40.266  1.00  0.00     0.037 C 
ATOM      9  C   UNL     1      57.546  74.303  41.542  1.00  0.00    -0.039 C 
ATOM     10  C   UNL     1      57.503  74.777  40.289  1.00  0.00    -0.024 C 
BRANCH   3  11
ATOM     11  C   UNL     1      57.174  79.125  41.565  1.00  0.00     0.337 C 
ATOM     12  O   UNL     1      56.041  79.679  41.540  1.00  0.00    -0.246 OA
BRANCH  11  13
ATOM     13  O   UNL     1      58.243  79.647  40.822  1.00  0.00    -0.466 OA
ATOM     14  C   UNL     1      59.547  79.860  41.370  1.00  0.00     0.282 C 
ENDBRANCH  11  13
ENDBRANCH   3  11
BRANCH   9  15
ATOM     15  C   UNL     1      57.331  72.849  41.882  1.00  0.00     0.187 C 
BRANCH  15  16
ATOM     16  O   UNL     1      58.447  72.313  42.562  1.00  0.00    -0.392 OA
ATOM     17  H   UNL     1      59.163  72.999  42.480  1.00  0.00     0.211 HD
ENDBRANCH  15  16
ENDBRANCH   9  15
ENDBRANCH   1   2
BRANCH   1  18
ATOM     18  C   UNL     1      60.177  75.424  45.081  1.00  0.00     0.286 C 
ATOM     19  C   UNL     1      60.521  73.926  45.245  1.00  0.00     0.202 C 
ATOM     20  O   UNL     1      61.319  76.245  45.281  1.00  0.00    -0.341 OA
ATOM     21  C   UNL     1      61.709  73.511  44.361  1.00  0.00     0.179 C 
ATOM     22  C   UNL     1      62.389  75.941  44.389  1.00  0.00     0.178 C 
ATOM     23  C   UNL     1      62.875  74.481  44.608  1.00  0.00     0.177 C 
BRANCH  19  24
ATOM     24  O   UNL     1      59.396  73.115  45.019  1.00  0.00    -0.385 OA
ATOM     25  H   UNL     1      58.670  73.426  45.608  1.00  0.00     0.211 HD
ENDBRANCH  19  24
BRANCH  21  26
ATOM     26  O   UNL     1      61.322  73.512  43.005  1.00  0.00    -0.387 OA
ATOM     27  H   UNL     1      60.509  74.088  42.930  1.00  0.00     0.211 HD
ENDBRANCH  21  26
BRANCH  22  28
ATOM     28  C   UNL     1      63.499  76.980  44.664  1.00  0.00     0.191 C 
BRANCH  28  29
ATOM     29  O   UNL     1      64.381  77.129  43.587  1.00  0.00    -0.394 OA
ATOM     30  H   UNL     1      63.875  76.893  42.763  1.00  0.00     0.210 HD
ENDBRANCH  28  29
ENDBRANCH  22  28
BRANCH  23  31
ATOM     31  O   UNL     1      63.934  74.168  43.744  1.00  0.00    -0.387 OA
ATOM     32  H   UNL     1      64.189  73.234  43.964  1.00  0.00     0.211 HD
ENDBRANCH  23  31
ENDBRANCH   1  18
TORSDOF 11
ENDMDL
MODEL 7
REMARK VINA RESULT:    -5.142      9.391     11.539
REMARK INTER + INTRA:          -8.043
REMARK INTER:                  -6.679
REMARK INTRA:                  -1.364
REMARK UNBOUND:                -0.346
REMARK SMILES COC(=O)C1=CO[C@H](O[C@@H]2O[C@@H](CO)[C@H](O)[C@H](O)[C@@H]2O)[C@@H]2C(CO)=CC[C@@H]12
REMARK SMILES IDX 9 1 8 2 5 3 6 4 27 5 7 6 21 7 26 8 22 9 25 10 3 11 4 12 2 13
REMARK SMILES IDX 1 14 23 15 24 16 10 18 19 19 11 20 17 21 12 22 15 23 20 24
REMARK SMILES IDX 18 26 13 28 14 29 16 31
REMARK H PARENT 24 17 20 25 18 27 14 30 16 32
REMARK Flexibility Score: inf
ROOT
ATOM      1  O   UNL     1      50.765  66.513  45.373  1.00  0.00    -0.310 OA
ENDROOT
BRANCH   1   2
ATOM      2  C   UNL     1      49.610  67.257  45.753  1.00  0.00     0.316 C 
ATOM      3  C   UNL     1      49.935  69.568  44.024  1.00  0.00     0.076 C 
ATOM      4  C   UNL     1      50.295  69.632  45.332  1.00  0.00     0.202 C 
ATOM      5  C   UNL     1      49.405  68.266  43.499  1.00  0.00     0.047 C 
ATOM      6  O   UNL     1      50.077  68.538  46.212  1.00  0.00    -0.471 OA
ATOM      7  C   UNL     1      48.621  67.585  44.608  1.00  0.00     0.094 C 
ATOM      8  C   UNL     1      48.440  68.232  42.325  1.00  0.00     0.037 C 
ATOM      9  C   UNL     1      47.792  66.579  43.873  1.00  0.00    -0.039 C 
ATOM     10  C   UNL     1      47.666  66.971  42.597  1.00  0.00    -0.024 C 
BRANCH   3  11
ATOM     11  C   UNL     1      50.270  70.661  43.102  1.00  0.00     0.337 C 
ATOM     12  O   UNL     1      51.199  70.506  42.263  1.00  0.00    -0.246 OA
BRANCH  11  13
ATOM     13  O   UNL     1      49.586  71.882  43.198  1.00  0.00    -0.466 OA
ATOM     14  C   UNL     1      48.701  72.363  42.183  1.00  0.00     0.282 C 
ENDBRANCH  11  13
ENDBRANCH   3  11
BRANCH   9  15
ATOM     15  C   UNL     1      46.895  65.549  44.511  1.00  0.00     0.187 C 
BRANCH  15  16
ATOM     16  O   UNL     1      47.139  64.261  43.984  1.00  0.00    -0.392 OA
ATOM     17  H   UNL     1      46.568  64.193  43.172  1.00  0.00     0.211 HD
ENDBRANCH  15  16
ENDBRANCH   9  15
ENDBRANCH   1   2
BRANCH   1  18
ATOM     18  C   UNL     1      51.158  65.514  46.309  1.00  0.00     0.286 C 
ATOM     19  C   UNL     1      51.093  64.100  45.688  1.00  0.00     0.202 C 
ATOM     20  O   UNL     1      52.431  65.772  46.885  1.00  0.00    -0.341 OA
ATOM     21  C   UNL     1      52.248  63.854  44.704  1.00  0.00     0.179 C 
ATOM     22  C   UNL     1      53.501  65.655  45.950  1.00  0.00     0.178 C 
ATOM     23  C   UNL     1      53.574  64.205  45.395  1.00  0.00     0.177 C 
BRANCH  19  24
ATOM     24  O   UNL     1      49.842  63.859  45.096  1.00  0.00    -0.385 OA
ATOM     25  H   UNL     1      49.946  63.126  44.446  1.00  0.00     0.211 HD
ENDBRANCH  19  24
BRANCH  21  26
ATOM     26  O   UNL     1      52.058  64.626  43.539  1.00  0.00    -0.387 OA
ATOM     27  H   UNL     1      52.673  65.411  43.601  1.00  0.00     0.211 HD
ENDBRANCH  21  26
BRANCH  22  28
ATOM     28  C   UNL     1      54.788  66.065  46.701  1.00  0.00     0.191 C 
BRANCH  28  29
ATOM     29  O   UNL     1      55.638  64.981  46.949  1.00  0.00    -0.394 OA
ATOM     30  H   UNL     1      55.154  64.160  46.663  1.00  0.00     0.210 HD
ENDBRANCH  28  29
ENDBRANCH  22  28
BRANCH  23  31
ATOM     31  O   UNL     1      54.628  64.069  44.479  1.00  0.00    -0.387 OA
ATOM     32  H   UNL     1      54.414  64.688  43.733  1.00  0.00     0.211 HD
ENDBRANCH  23  31
ENDBRANCH   1  18
TORSDOF 11
ENDMDL
MODEL 8
REMARK VINA RESULT:    -5.140      3.782      5.173
REMARK INTER + INTRA:          -8.040
REMARK INTER:                  -6.889
REMARK INTRA:                  -1.151
REMARK UNBOUND:                -0.346
REMARK SMILES COC(=O)C1=CO[C@H](O[C@@H]2O[C@@H](CO)[C@H](O)[C@H](O)[C@@H]2O)[C@@H]2C(CO)=CC[C@@H]12
REMARK SMILES IDX 9 1 8 2 5 3 6 4 27 5 7 6 21 7 26 8 22 9 25 10 3 11 4 12 2 13
REMARK SMILES IDX 1 14 23 15 24 16 10 18 19 19 11 20 17 21 12 22 15 23 20 24
REMARK SMILES IDX 18 26 13 28 14 29 16 31
REMARK H PARENT 24 17 20 25 18 27 14 30 16 32
REMARK Flexibility Score: inf
ROOT
ATOM      1  O   UNL     1      60.355  77.612  43.941  1.00  0.00    -0.310 OA
ENDROOT
BRANCH   1   2
ATOM      2  C   UNL     1      60.178  79.026  43.890  1.00  0.00     0.316 C 
ATOM      3  C   UNL     1      60.227  79.414  41.011  1.00  0.00     0.076 C 
ATOM      4  C   UNL     1      61.332  79.670  41.758  1.00  0.00     0.202 C 
ATOM      5  C   UNL     1      59.005  78.892  41.710  1.00  0.00     0.047 C 
ATOM      6  O   UNL     1      61.308  79.557  43.174  1.00  0.00    -0.471 OA
ATOM      7  C   UNL     1      58.943  79.516  43.094  1.00  0.00     0.094 C 
ATOM      8  C   UNL     1      57.616  79.154  41.153  1.00  0.00     0.037 C 
ATOM      9  C   UNL     1      57.519  79.302  43.501  1.00  0.00    -0.039 C 
ATOM     10  C   UNL     1      56.774  79.136  42.399  1.00  0.00    -0.024 C 
BRANCH   3  11
ATOM     11  C   UNL     1      60.297  79.422  39.544  1.00  0.00     0.337 C 
ATOM     12  O   UNL     1      60.106  78.352  38.904  1.00  0.00    -0.246 OA
BRANCH  11  13
ATOM     13  O   UNL     1      60.626  80.610  38.874  1.00  0.00    -0.466 OA
ATOM     14  C   UNL     1      60.863  80.673  37.465  1.00  0.00     0.282 C 
ENDBRANCH  11  13
ENDBRANCH   3  11
BRANCH   9  15
ATOM     15  C   UNL     1      56.932  79.641  44.849  1.00  0.00     0.187 C 
BRANCH  15  16
ATOM     16  O   UNL     1      57.253  78.655  45.808  1.00  0.00    -0.392 OA
ATOM     17  H   UNL     1      56.449  78.070  45.867  1.00  0.00     0.211 HD
ENDBRANCH  15  16
ENDBRANCH   9  15
ENDBRANCH   1   2
BRANCH   1  18
ATOM     18  C   UNL     1      61.037  77.145  45.100  1.00  0.00     0.286 C 
ATOM     19  C   UNL     1      60.375  75.870  45.670  1.00  0.00     0.202 C 
ATOM     20  O   UNL     1      62.427  76.955  44.879  1.00  0.00    -0.341 OA
ATOM     21  C   UNL     1      60.673  74.634  44.805  1.00  0.00     0.179 C 
ATOM     22  C   UNL     1      62.710  75.879  43.988  1.00  0.00     0.178 C 
ATOM     23  C   UNL     1      62.190  74.539  44.579  1.00  0.00     0.177 C 
BRANCH  19  24
ATOM     24  O   UNL     1      58.994  76.052  45.860  1.00  0.00    -0.385 OA
ATOM     25  H   UNL     1      58.709  75.479  46.609  1.00  0.00     0.211 HD
ENDBRANCH  19  24
BRANCH  21  26
ATOM     26  O   UNL     1      59.978  74.727  43.580  1.00  0.00    -0.387 OA
ATOM     27  H   UNL     1      59.208  74.093  43.629  1.00  0.00     0.211 HD
ENDBRANCH  21  26
BRANCH  22  28
ATOM     28  C   UNL     1      64.241  75.874  43.776  1.00  0.00     0.191 C 
BRANCH  28  29
ATOM     29  O   UNL     1      64.604  76.116  42.446  1.00  0.00    -0.394 OA
ATOM     30  H   UNL     1      64.484  75.260  41.952  1.00  0.00     0.210 HD
ENDBRANCH  28  29
ENDBRANCH  22  28
BRANCH  23  31
ATOM     31  O   UNL     1      62.467  73.467  43.719  1.00  0.00    -0.387 OA
ATOM     32  H   UNL     1      62.849  72.755  44.296  1.00  0.00     0.211 HD
ENDBRANCH  23  31
ENDBRANCH   1  18
TORSDOF 11
ENDMDL
MODEL 9
REMARK VINA RESULT:    -4.955      2.365      6.922
REMARK INTER + INTRA:          -7.764
REMARK INTER:                  -6.355
REMARK INTRA:                  -1.409
REMARK UNBOUND:                -0.346
REMARK SMILES COC(=O)C1=CO[C@H](O[C@@H]2O[C@@H](CO)[C@H](O)[C@H](O)[C@@H]2O)[C@@H]2C(CO)=CC[C@@H]12
REMARK SMILES IDX 9 1 8 2 5 3 6 4 27 5 7 6 21 7 26 8 22 9 25 10 3 11 4 12 2 13
REMARK SMILES IDX 1 14 23 15 24 16 10 18 19 19 11 20 17 21 12 22 15 23 20 24
REMARK SMILES IDX 18 26 13 28 14 29 16 31
REMARK H PARENT 24 17 20 25 18 27 14 30 16 32
REMARK Flexibility Score: inf
ROOT
ATOM      1  O   UNL     1      59.841  77.440  43.814  1.00  0.00    -0.310 OA
ENDROOT
BRANCH   1   2
ATOM      2  C   UNL     1      60.053  77.035  45.164  1.00  0.00     0.316 C 
ATOM      3  C   UNL     1      59.318  74.233  44.945  1.00  0.00     0.076 C 
ATOM      4  C   UNL     1      58.439  75.137  45.450  1.00  0.00     0.202 C 
ATOM      5  C   UNL     1      60.653  74.731  44.473  1.00  0.00     0.047 C 
ATOM      6  O   UNL     1      58.803  76.498  45.633  1.00  0.00    -0.471 OA
ATOM      7  C   UNL     1      61.074  75.888  45.364  1.00  0.00     0.094 C 
ATOM      8  C   UNL     1      61.873  73.825  44.486  1.00  0.00     0.037 C 
ATOM      9  C   UNL     1      62.546  75.994  45.113  1.00  0.00    -0.039 C 
ATOM     10  C   UNL     1      62.992  74.816  44.653  1.00  0.00    -0.024 C 
BRANCH   3  11
ATOM     11  C   UNL     1      58.892  72.858  44.653  1.00  0.00     0.337 C 
ATOM     12  O   UNL     1      58.591  72.083  45.602  1.00  0.00    -0.246 OA
BRANCH  11  13
ATOM     13  O   UNL     1      58.872  72.407  43.325  1.00  0.00    -0.466 OA
ATOM     14  C   UNL     1      58.058  73.001  42.310  1.00  0.00     0.282 C 
ENDBRANCH  11  13
ENDBRANCH   3  11
BRANCH   9  15
ATOM     15  C   UNL     1      63.455  77.059  45.671  1.00  0.00     0.187 C 
BRANCH  15  16
ATOM     16  O   UNL     1      63.290  78.283  44.985  1.00  0.00    -0.392 OA
ATOM     17  H   UNL     1      62.414  78.643  45.292  1.00  0.00     0.211 HD
ENDBRANCH  15  16
ENDBRANCH   9  15
ENDBRANCH   1   2
BRANCH   1  18
ATOM     18  C   UNL     1      59.063  78.624  43.669  1.00  0.00     0.286 C 
ATOM     19  C   UNL     1      59.948  79.845  43.328  1.00  0.00     0.202 C 
ATOM     20  O   UNL     1      58.003  78.472  42.736  1.00  0.00    -0.341 OA
ATOM     21  C   UNL     1      60.442  79.805  41.872  1.00  0.00     0.179 C 
ATOM     22  C   UNL     1      58.457  78.322  41.393  1.00  0.00     0.178 C 
ATOM     23  C   UNL     1      59.237  79.589  40.944  1.00  0.00     0.177 C 
BRANCH  19  24
ATOM     24  O   UNL     1      61.012  79.975  44.237  1.00  0.00    -0.385 OA
ATOM     25  H   UNL     1      60.734  80.598  44.947  1.00  0.00     0.211 HD
ENDBRANCH  19  24
BRANCH  21  26
ATOM     26  O   UNL     1      61.397  78.778  41.719  1.00  0.00    -0.387 OA
ATOM     27  H   UNL     1      61.812  78.623  42.614  1.00  0.00     0.211 HD
ENDBRANCH  21  26
BRANCH  22  28
ATOM     28  C   UNL     1      57.201  78.066  40.530  1.00  0.00     0.191 C 
BRANCH  28  29
ATOM     29  O   UNL     1      57.512  77.604  39.246  1.00  0.00    -0.394 OA
ATOM     30  H   UNL     1      56.916  78.088  38.612  1.00  0.00     0.210 HD
ENDBRANCH  28  29
ENDBRANCH  22  28
BRANCH  23  31
ATOM     31  O   UNL     1      59.685  79.462  39.621  1.00  0.00    -0.387 OA
ATOM     32  H   UNL     1      59.235  78.652  39.264  1.00  0.00     0.211 HD
ENDBRANCH  23  31
ENDBRANCH   1  18
TORSDOF 11
ENDMDL
