MODEL 1
REMARK VINA RESULT:    -2.493      0.000      0.000
REMARK INTER + INTRA:          -2.493
REMARK INTER:                  -2.493
REMARK INTRA:                   0.000
REMARK UNBOUND:                 0.000
REMARK SMILES CC(=O)[O-]
REMARK SMILES IDX 1 1 2 2 3 3 4 4
REMARK H PARENT
REMARK Flexibility Score: inf
ROOT
ATOM      1  C   UNL     1      17.224 -11.626  21.500  1.00  0.00     0.063 C 
ATOM      2  C   UNL     1      15.795 -12.027  21.643  1.00  0.00     0.038 C 
ATOM      3  O   UNL     1      15.499 -13.125  22.185  1.00  0.00    -0.550 OA
ATOM      4  O   UNL     1      14.789 -11.217  21.131  1.00  0.00    -0.550 OA
ENDROOT
TORSDOF 0
ENDMDL
MODEL 2
REMARK VINA RESULT:    -2.487      3.016      3.531
REMARK INTER + INTRA:          -2.487
REMARK INTER:                  -2.487
REMARK INTRA:                   0.000
REMARK UNBOUND:                 0.000
REMARK SMILES CC(=O)[O-]
REMARK SMILES IDX 1 1 2 2 3 3 4 4
REMARK H PARENT
REMARK Flexibility Score: inf
ROOT
ATOM      1  C   UNL     1      13.493 -10.420  20.409  1.00  0.00     0.063 C 
ATOM      2  C   UNL     1      13.304 -10.419  21.888  1.00  0.00     0.038 C 
ATOM      3  O   UNL     1      13.081  -9.339  22.495  1.00  0.00    -0.550 OA
ATOM      4  O   UNL     1      13.428 -11.601  22.607  1.00  0.00    -0.550 OA
ENDROOT
TORSDOF 0
ENDMDL
MODEL 3
REMARK VINA RESULT:    -2.478      1.765      1.975
REMARK INTER + INTRA:          -2.478
REMARK INTER:                  -2.478
REMARK INTRA:                   0.000
REMARK UNBOUND:                 0.000
REMARK SMILES CC(=O)[O-]
REMARK SMILES IDX 1 1 2 2 3 3 4 4
REMARK H PARENT
REMARK Flexibility Score: inf
ROOT
ATOM      1  C   UNL     1      15.492 -12.377  21.864  1.00  0.00     0.063 C 
ATOM      2  C   UNL     1      14.384 -12.124  22.828  1.00  0.00     0.038 C 
ATOM      3  O   UNL     1      14.382 -12.694  23.951  1.00  0.00    -0.550 OA
ATOM      4  O   UNL     1      13.323 -11.301  22.471  1.00  0.00    -0.550 OA
ENDROOT
TORSDOF 0
ENDMDL
MODEL 4
REMARK VINA RESULT:    -2.469      1.752      2.495
REMARK INTER + INTRA:          -2.469
REMARK INTER:                  -2.469
REMARK INTRA:                   0.000
REMARK UNBOUND:                 0.000
REMARK SMILES CC(=O)[O-]
REMARK SMILES IDX 1 1 2 2 3 3 4 4
REMARK H PARENT
REMARK Flexibility Score: inf
ROOT
ATOM      1  C   UNL     1      15.546 -12.413  21.858  1.00  0.00     0.063 C 
ATOM      2  C   UNL     1      14.385 -12.214  22.771  1.00  0.00     0.038 C 
ATOM      3  O   UNL     1      13.399 -11.525  22.398  1.00  0.00    -0.550 OA
ATOM      4  O   UNL     1      14.411 -12.742  24.056  1.00  0.00    -0.550 OA
ENDROOT
TORSDOF 0
ENDMDL
MODEL 5
REMARK VINA RESULT:    -2.431      3.066      3.724
REMARK INTER + INTRA:          -2.431
REMARK INTER:                  -2.431
REMARK INTRA:                   0.000
REMARK UNBOUND:                 0.000
REMARK SMILES CC(=O)[O-]
REMARK SMILES IDX 1 1 2 2 3 3 4 4
REMARK H PARENT
REMARK Flexibility Score: inf
ROOT
ATOM      1  C   UNL     1      13.547  -9.203  21.867  1.00  0.00     0.063 C 
ATOM      2  C   UNL     1      14.863  -9.346  22.555  1.00  0.00     0.038 C 
ATOM      3  O   UNL     1      15.830  -8.609  22.227  1.00  0.00    -0.550 OA
ATOM      4  O   UNL     1      15.041 -10.330  23.519  1.00  0.00    -0.550 OA
ENDROOT
TORSDOF 0
ENDMDL
MODEL 6
REMARK VINA RESULT:    -2.412      1.770      2.344
REMARK INTER + INTRA:          -2.412
REMARK INTER:                  -2.412
REMARK INTRA:                   0.000
REMARK UNBOUND:                 0.000
REMARK SMILES CC(=O)[O-]
REMARK SMILES IDX 1 1 2 2 3 3 4 4
REMARK H PARENT
REMARK Flexibility Score: inf
ROOT
ATOM      1  C   UNL     1      15.712 -12.719  21.999  1.00  0.00     0.063 C 
ATOM      2  C   UNL     1      16.532 -11.507  21.711  1.00  0.00     0.038 C 
ATOM      3  O   UNL     1      16.040 -10.359  21.870  1.00  0.00    -0.550 OA
ATOM      4  O   UNL     1      17.822 -11.641  21.215  1.00  0.00    -0.550 OA
ENDROOT
TORSDOF 0
ENDMDL
MODEL 7
REMARK VINA RESULT:    -2.324      2.627      3.350
REMARK INTER + INTRA:          -2.324
REMARK INTER:                  -2.324
REMARK INTRA:                   0.000
REMARK UNBOUND:                 0.000
REMARK SMILES CC(=O)[O-]
REMARK SMILES IDX 1 1 2 2 3 3 4 4
REMARK H PARENT
REMARK Flexibility Score: inf
ROOT
ATOM      1  C   UNL     1      15.607  -8.967  22.218  1.00  0.00     0.063 C 
ATOM      2  C   UNL     1      14.431  -9.421  21.422  1.00  0.00     0.038 C 
ATOM      3  O   UNL     1      13.534  -8.599  21.096  1.00  0.00    -0.550 OA
ATOM      4  O   UNL     1      14.293 -10.761  21.085  1.00  0.00    -0.550 OA
ENDROOT
TORSDOF 0
ENDMDL
MODEL 8
REMARK VINA RESULT:    -2.294      2.026      2.212
REMARK INTER + INTRA:          -2.294
REMARK INTER:                  -2.294
REMARK INTRA:                   0.000
REMARK UNBOUND:                 0.000
REMARK SMILES CC(=O)[O-]
REMARK SMILES IDX 1 1 2 2 3 3 4 4
REMARK H PARENT
REMARK Flexibility Score: inf
ROOT
ATOM      1  C   UNL     1      15.439  -9.009  22.241  1.00  0.00     0.063 C 
ATOM      2  C   UNL     1      15.561 -10.400  21.719  1.00  0.00     0.038 C 
ATOM      3  O   UNL     1      16.674 -10.989  21.746  1.00  0.00    -0.550 OA
ATOM      4  O   UNL     1      14.462 -11.030  21.151  1.00  0.00    -0.550 OA
ENDROOT
TORSDOF 0
ENDMDL
MODEL 9
REMARK VINA RESULT:    -2.251      2.355      3.219
REMARK INTER + INTRA:          -2.251
REMARK INTER:                  -2.251
REMARK INTRA:                   0.000
REMARK UNBOUND:                 0.000
REMARK SMILES CC(=O)[O-]
REMARK SMILES IDX 1 1 2 2 3 3 4 4
REMARK H PARENT
REMARK Flexibility Score: inf
ROOT
ATOM      1  C   UNL     1      13.405  -9.667  22.153  1.00  0.00     0.063 C 
ATOM      2  C   UNL     1      13.874 -10.598  21.086  1.00  0.00     0.038 C 
ATOM      3  O   UNL     1      13.403 -10.511  19.921  1.00  0.00    -0.550 OA
ATOM      4  O   UNL     1      14.790 -11.597  21.387  1.00  0.00    -0.550 OA
ENDROOT
TORSDOF 0
ENDMDL
