MODEL 1
REMARK VINA RESULT:    -2.667      0.000      0.000
REMARK INTER + INTRA:          -3.291
REMARK INTER:                  -3.134
REMARK INTRA:                  -0.157
REMARK UNBOUND:                -0.157
REMARK SMILES O=C([O-])CCC(=O)[O-]
REMARK SMILES IDX 4 1 2 2 1 3 3 4 5 5 6 6 7 7 8 8
REMARK H PARENT
REMARK Flexibility Score: inf
ROOT
ATOM      1  C   UNL     1       2.307 108.665 182.012  1.00  0.00     0.059 C 
ENDROOT
BRANCH   1   2
ATOM      2  C   UNL     1       1.812 109.215 183.315  1.00  0.00     0.042 C 
ATOM      3  O   UNL     1       1.984 110.430 183.595  1.00  0.00    -0.550 OA
ATOM      4  O   UNL     1       1.197 108.376 184.237  1.00  0.00    -0.550 OA
ENDBRANCH   1   2
BRANCH   1   5
ATOM      5  C   UNL     1       3.813 108.881 181.843  1.00  0.00     0.059 C 
BRANCH   5   6
ATOM      6  C   UNL     1       4.604 108.017 182.778  1.00  0.00     0.042 C 
ATOM      7  O   UNL     1       5.218 108.531 183.749  1.00  0.00    -0.550 OA
ATOM      8  O   UNL     1       4.695 106.650 182.552  1.00  0.00    -0.550 OA
ENDBRANCH   5   6
ENDBRANCH   1   5
TORSDOF 3
ENDMDL
MODEL 2
REMARK VINA RESULT:    -2.619      1.039      3.648
REMARK INTER + INTRA:          -3.235
REMARK INTER:                  -3.146
REMARK INTRA:                  -0.089
REMARK UNBOUND:                -0.157
REMARK SMILES O=C([O-])CCC(=O)[O-]
REMARK SMILES IDX 4 1 2 2 1 3 3 4 5 5 6 6 7 7 8 8
REMARK H PARENT
REMARK Flexibility Score: inf
ROOT
ATOM      1  C   UNL     1       3.608 108.328 181.379  1.00  0.00     0.059 C 
ENDROOT
BRANCH   1   2
ATOM      2  C   UNL     1       4.018 106.927 181.717  1.00  0.00     0.042 C 
ATOM      3  O   UNL     1       4.788 106.711 182.690  1.00  0.00    -0.550 OA
ATOM      4  O   UNL     1       3.585 105.865 180.932  1.00  0.00    -0.550 OA
ENDBRANCH   1   2
BRANCH   1   5
ATOM      5  C   UNL     1       2.139 108.586 181.729  1.00  0.00     0.059 C 
BRANCH   5   6
ATOM      6  C   UNL     1       1.995 109.226 183.076  1.00  0.00     0.042 C 
ATOM      7  O   UNL     1       1.339 108.651 183.984  1.00  0.00    -0.550 OA
ATOM      8  O   UNL     1       2.554 110.475 183.316  1.00  0.00    -0.550 OA
ENDBRANCH   5   6
ENDBRANCH   1   5
TORSDOF 3
ENDMDL
MODEL 3
REMARK VINA RESULT:    -2.597      1.101      1.759
REMARK INTER + INTRA:          -3.209
REMARK INTER:                  -3.115
REMARK INTRA:                  -0.094
REMARK UNBOUND:                -0.157
REMARK SMILES O=C([O-])CCC(=O)[O-]
REMARK SMILES IDX 4 1 2 2 1 3 3 4 5 5 6 6 7 7 8 8
REMARK H PARENT
REMARK Flexibility Score: inf
ROOT
ATOM      1  C   UNL     1       2.136 108.541 181.651  1.00  0.00     0.059 C 
ENDROOT
BRANCH   1   2
ATOM      2  C   UNL     1       2.016 109.178 183.001  1.00  0.00     0.042 C 
ATOM      3  O   UNL     1       1.357 108.612 183.912  1.00  0.00    -0.550 OA
ATOM      4  O   UNL     1       2.599 110.417 183.241  1.00  0.00    -0.550 OA
ENDBRANCH   1   2
BRANCH   1   5
ATOM      5  C   UNL     1       3.597 108.269 181.282  1.00  0.00     0.059 C 
BRANCH   5   6
ATOM      6  C   UNL     1       4.005 106.870 181.635  1.00  0.00     0.042 C 
ATOM      7  O   UNL     1       4.712 106.655 182.655  1.00  0.00    -0.550 OA
ATOM      8  O   UNL     1       3.638 105.810 180.816  1.00  0.00    -0.550 OA
ENDBRANCH   5   6
ENDBRANCH   1   5
TORSDOF 3
ENDMDL
MODEL 4
REMARK VINA RESULT:    -2.571      2.427      3.353
REMARK INTER + INTRA:          -3.179
REMARK INTER:                  -3.056
REMARK INTRA:                  -0.123
REMARK UNBOUND:                -0.157
REMARK SMILES O=C([O-])CCC(=O)[O-]
REMARK SMILES IDX 4 1 2 2 1 3 3 4 5 5 6 6 7 7 8 8
REMARK H PARENT
REMARK Flexibility Score: inf
ROOT
ATOM      1  C   UNL     1       3.757 109.575 182.870  1.00  0.00     0.059 C 
ENDROOT
BRANCH   1   2
ATOM      2  C   UNL     1       2.356 109.100 182.631  1.00  0.00     0.042 C 
ATOM      3  O   UNL     1       2.054 108.540 181.544  1.00  0.00    -0.550 OA
ATOM      4  O   UNL     1       1.375 109.313 183.592  1.00  0.00    -0.550 OA
ENDBRANCH   1   2
BRANCH   1   5
ATOM      5  C   UNL     1       3.904 111.071 182.579  1.00  0.00     0.059 C 
BRANCH   5   6
ATOM      6  C   UNL     1       3.938 111.879 183.842  1.00  0.00     0.042 C 
ATOM      7  O   UNL     1       2.871 112.326 184.336  1.00  0.00    -0.550 OA
ATOM      8  O   UNL     1       5.153 112.170 184.448  1.00  0.00    -0.550 OA
ENDBRANCH   5   6
ENDBRANCH   1   5
TORSDOF 3
ENDMDL
MODEL 5
REMARK VINA RESULT:    -2.570      2.428      3.457
REMARK INTER + INTRA:          -3.177
REMARK INTER:                  -3.056
REMARK INTRA:                  -0.121
REMARK UNBOUND:                -0.157
REMARK SMILES O=C([O-])CCC(=O)[O-]
REMARK SMILES IDX 4 1 2 2 1 3 3 4 5 5 6 6 7 7 8 8
REMARK H PARENT
REMARK Flexibility Score: inf
ROOT
ATOM      1  C   UNL     1       3.938 111.124 182.575  1.00  0.00     0.059 C 
ENDROOT
BRANCH   1   2
ATOM      2  C   UNL     1       4.013 111.895 183.858  1.00  0.00     0.042 C 
ATOM      3  O   UNL     1       5.111 112.010 184.464  1.00  0.00    -0.550 OA
ATOM      4  O   UNL     1       2.863 112.451 184.405  1.00  0.00    -0.550 OA
ENDBRANCH   1   2
BRANCH   1   5
ATOM      5  C   UNL     1       3.802 109.619 182.827  1.00  0.00     0.059 C 
BRANCH   5   6
ATOM      6  C   UNL     1       2.393 109.150 182.626  1.00  0.00     0.042 C 
ATOM      7  O   UNL     1       2.075 108.534 181.575  1.00  0.00    -0.550 OA
ATOM      8  O   UNL     1       1.424 109.429 183.580  1.00  0.00    -0.550 OA
ENDBRANCH   5   6
ENDBRANCH   1   5
TORSDOF 3
ENDMDL
MODEL 6
REMARK VINA RESULT:    -2.555      1.010      3.510
REMARK INTER + INTRA:          -3.160
REMARK INTER:                  -3.006
REMARK INTRA:                  -0.154
REMARK UNBOUND:                -0.157
REMARK SMILES O=C([O-])CCC(=O)[O-]
REMARK SMILES IDX 4 1 2 2 1 3 3 4 5 5 6 6 7 7 8 8
REMARK H PARENT
REMARK Flexibility Score: inf
ROOT
ATOM      1  C   UNL     1       3.629 107.375 182.245  1.00  0.00     0.059 C 
ENDROOT
BRANCH   1   2
ATOM      2  C   UNL     1       4.971 107.908 182.644  1.00  0.00     0.042 C 
ATOM      3  O   UNL     1       5.746 108.386 181.774  1.00  0.00    -0.550 OA
ATOM      4  O   UNL     1       5.382 107.840 183.970  1.00  0.00    -0.550 OA
ENDBRANCH   1   2
BRANCH   1   5
ATOM      5  C   UNL     1       2.671 108.499 181.841  1.00  0.00     0.059 C 
BRANCH   5   6
ATOM      6  C   UNL     1       2.230 109.302 183.027  1.00  0.00     0.042 C 
ATOM      7  O   UNL     1       1.365 108.841 183.817  1.00  0.00    -0.550 OA
ATOM      8  O   UNL     1       2.745 110.575 183.236  1.00  0.00    -0.550 OA
ENDBRANCH   5   6
ENDBRANCH   1   5
TORSDOF 3
ENDMDL
MODEL 7
REMARK VINA RESULT:    -2.476      1.670      2.084
REMARK INTER + INTRA:          -3.067
REMARK INTER:                  -3.034
REMARK INTRA:                  -0.033
REMARK UNBOUND:                -0.157
REMARK SMILES O=C([O-])CCC(=O)[O-]
REMARK SMILES IDX 4 1 2 2 1 3 3 4 5 5 6 6 7 7 8 8
REMARK H PARENT
REMARK Flexibility Score: inf
ROOT
ATOM      1  C   UNL     1       3.575 108.241 182.889  1.00  0.00     0.059 C 
ENDROOT
BRANCH   1   2
ATOM      2  C   UNL     1       2.187 108.686 182.540  1.00  0.00     0.042 C 
ATOM      3  O   UNL     1       1.751 108.540 181.368  1.00  0.00    -0.550 OA
ATOM      4  O   UNL     1       1.391 109.300 183.500  1.00  0.00    -0.550 OA
ENDBRANCH   1   2
BRANCH   1   5
ATOM      5  C   UNL     1       3.982 106.993 182.099  1.00  0.00     0.059 C 
BRANCH   5   6
ATOM      6  C   UNL     1       5.392 106.583 182.403  1.00  0.00     0.042 C 
ATOM      7  O   UNL     1       6.107 106.063 181.508  1.00  0.00    -0.550 OA
ATOM      8  O   UNL     1       5.900 106.740 183.686  1.00  0.00    -0.550 OA
ENDBRANCH   5   6
ENDBRANCH   1   5
TORSDOF 3
ENDMDL
MODEL 8
REMARK VINA RESULT:    -2.466      2.428      3.523
REMARK INTER + INTRA:          -3.055
REMARK INTER:                  -2.962
REMARK INTRA:                  -0.093
REMARK UNBOUND:                -0.157
REMARK SMILES O=C([O-])CCC(=O)[O-]
REMARK SMILES IDX 4 1 2 2 1 3 3 4 5 5 6 6 7 7 8 8
REMARK H PARENT
REMARK Flexibility Score: inf
ROOT
ATOM      1  C   UNL     1       2.835 108.556 180.532  1.00  0.00     0.059 C 
ENDROOT
BRANCH   1   2
ATOM      2  C   UNL     1       1.754 107.691 179.958  1.00  0.00     0.042 C 
ATOM      3  O   UNL     1       0.570 108.114 179.899  1.00  0.00    -0.550 OA
ATOM      4  O   UNL     1       2.048 106.404 179.525  1.00  0.00    -0.550 OA
ENDBRANCH   1   2
BRANCH   1   5
ATOM      5  C   UNL     1       3.049 108.276 182.023  1.00  0.00     0.059 C 
BRANCH   5   6
ATOM      6  C   UNL     1       2.444 109.349 182.878  1.00  0.00     0.042 C 
ATOM      7  O   UNL     1       3.013 110.466 182.990  1.00  0.00    -0.550 OA
ATOM      8  O   UNL     1       1.273 109.099 183.582  1.00  0.00    -0.550 OA
ENDBRANCH   5   6
ENDBRANCH   1   5
TORSDOF 3
ENDMDL
MODEL 9
REMARK VINA RESULT:    -2.432      2.390      3.134
REMARK INTER + INTRA:          -3.015
REMARK INTER:                  -2.925
REMARK INTRA:                  -0.091
REMARK UNBOUND:                -0.157
REMARK SMILES O=C([O-])CCC(=O)[O-]
REMARK SMILES IDX 4 1 2 2 1 3 3 4 5 5 6 6 7 7 8 8
REMARK H PARENT
REMARK Flexibility Score: inf
ROOT
ATOM      1  C   UNL     1       3.120 108.263 182.074  1.00  0.00     0.059 C 
ENDROOT
BRANCH   1   2
ATOM      2  C   UNL     1       2.440 109.269 182.952  1.00  0.00     0.042 C 
ATOM      3  O   UNL     1       2.906 110.434 183.058  1.00  0.00    -0.550 OA
ATOM      4  O   UNL     1       1.317 108.907 183.685  1.00  0.00    -0.550 OA
ENDBRANCH   1   2
BRANCH   1   5
ATOM      5  C   UNL     1       2.916 108.580 180.589  1.00  0.00     0.059 C 
BRANCH   5   6
ATOM      6  C   UNL     1       1.866 107.703 179.976  1.00  0.00     0.042 C 
ATOM      7  O   UNL     1       2.180 106.587 179.487  1.00  0.00    -0.550 OA
ATOM      8  O   UNL     1       0.548 108.138 179.911  1.00  0.00    -0.550 OA
ENDBRANCH   5   6
ENDBRANCH   1   5
TORSDOF 3
ENDMDL
