MODEL 1
REMARK VINA RESULT:    -6.181      0.000      0.000
REMARK INTER + INTRA:          -6.181
REMARK INTER:                  -6.181
REMARK INTRA:                   0.000
REMARK UNBOUND:                 0.000
REMARK SMILES C=C1CCC[C@@]2(C)CC(=O)C(=C(C)C)C[C@H]12
REMARK SMILES IDX 13 1 12 2 11 3 15 4 16 5 2 6 1 7 3 8 4 9 5 10 6 11 8 12 9 13
REMARK SMILES IDX 10 14 7 15 14 16
REMARK H PARENT
REMARK Flexibility Score: inf
ROOT
ATOM      1  C   UNL     1     -10.153   4.465  26.217  1.00  0.00     0.039 C 
ATOM      2  C   UNL     1     -11.332   5.383  25.982  1.00  0.00    -0.070 C 
ATOM      3  C   UNL     1     -12.596   5.023  26.353  1.00  0.00    -0.006 C 
ATOM      4  C   UNL     1     -12.863   3.689  27.037  1.00  0.00     0.047 C 
ATOM      5  C   UNL     1     -14.103   3.709  27.970  1.00  0.00     0.025 C 
ATOM      6  C   UNL     1     -14.465   2.354  28.583  1.00  0.00    -0.073 C 
ATOM      7  C   UNL     1     -13.697   1.252  28.474  1.00  0.00     0.008 C 
ATOM      8  C   UNL     1     -15.747   2.251  29.377  1.00  0.00     0.031 C 
ATOM      9  C   UNL     1     -16.378   3.626  29.606  1.00  0.00     0.005 C 
ATOM     10  C   UNL     1     -16.589   4.388  28.287  1.00  0.00     0.008 C 
ATOM     11  C   UNL     1     -15.367   4.338  27.291  1.00  0.00    -0.018 C 
ATOM     12  C   UNL     1     -15.020   5.784  26.860  1.00  0.00     0.088 C 
ATOM     13  C   UNL     1     -13.792   5.841  26.001  1.00  0.00     0.159 C 
ATOM     14  O   UNL     1     -13.804   6.577  24.977  1.00  0.00    -0.295 OA
ATOM     15  C   UNL     1     -15.788   3.519  26.039  1.00  0.00     0.012 C 
ATOM     16  C   UNL     1     -11.038   6.727  25.356  1.00  0.00     0.039 C 
ENDROOT
TORSDOF 0
ENDMDL
MODEL 2
REMARK VINA RESULT:    -5.610      2.229      5.632
REMARK INTER + INTRA:          -5.610
REMARK INTER:                  -5.610
REMARK INTRA:                   0.000
REMARK UNBOUND:                 0.000
REMARK SMILES C=C1CCC[C@@]2(C)CC(=O)C(=C(C)C)C[C@H]12
REMARK SMILES IDX 13 1 12 2 11 3 15 4 16 5 2 6 1 7 3 8 4 9 5 10 6 11 8 12 9 13
REMARK SMILES IDX 10 14 7 15 14 16
REMARK H PARENT
REMARK Flexibility Score: inf
ROOT
ATOM      1  C   UNL     1     -17.935   6.429  30.442  1.00  0.00     0.039 C 
ATOM      2  C   UNL     1     -17.056   5.203  30.335  1.00  0.00    -0.070 C 
ATOM      3  C   UNL     1     -16.178   5.047  29.301  1.00  0.00    -0.006 C 
ATOM      4  C   UNL     1     -16.034   6.116  28.226  1.00  0.00     0.047 C 
ATOM      5  C   UNL     1     -14.626   6.153  27.574  1.00  0.00     0.025 C 
ATOM      6  C   UNL     1     -14.485   7.139  26.411  1.00  0.00    -0.073 C 
ATOM      7  C   UNL     1     -15.434   8.031  26.066  1.00  0.00     0.008 C 
ATOM      8  C   UNL     1     -13.198   7.127  25.619  1.00  0.00     0.031 C 
ATOM      9  C   UNL     1     -12.144   6.233  26.275  1.00  0.00     0.005 C 
ATOM     10  C   UNL     1     -12.670   4.809  26.522  1.00  0.00     0.008 C 
ATOM     11  C   UNL     1     -14.123   4.737  27.132  1.00  0.00    -0.018 C 
ATOM     12  C   UNL     1     -14.091   3.820  28.379  1.00  0.00     0.088 C 
ATOM     13  C   UNL     1     -15.411   3.787  29.092  1.00  0.00     0.159 C 
ATOM     14  O   UNL     1     -15.855   2.676  29.489  1.00  0.00    -0.295 OA
ATOM     15  C   UNL     1     -15.071   4.119  26.066  1.00  0.00     0.012 C 
ATOM     16  C   UNL     1     -17.171   4.181  31.444  1.00  0.00     0.039 C 
ENDROOT
TORSDOF 0
ENDMDL
MODEL 3
REMARK VINA RESULT:    -5.302      2.175      5.658
REMARK INTER + INTRA:          -5.302
REMARK INTER:                  -5.302
REMARK INTRA:                   0.000
REMARK UNBOUND:                 0.000
REMARK SMILES C=C1CCC[C@@]2(C)CC(=O)C(=C(C)C)C[C@H]12
REMARK SMILES IDX 13 1 12 2 11 3 15 4 16 5 2 6 1 7 3 8 4 9 5 10 6 11 8 12 9 13
REMARK SMILES IDX 10 14 7 15 14 16
REMARK H PARENT
REMARK Flexibility Score: inf
ROOT
ATOM      1  C   UNL     1     -18.324   4.246  30.843  1.00  0.00     0.039 C 
ATOM      2  C   UNL     1     -17.201   3.313  30.448  1.00  0.00    -0.070 C 
ATOM      3  C   UNL     1     -16.367   3.607  29.408  1.00  0.00    -0.006 C 
ATOM      4  C   UNL     1     -16.523   4.900  28.618  1.00  0.00     0.047 C 
ATOM      5  C   UNL     1     -15.196   5.408  27.994  1.00  0.00     0.025 C 
ATOM      6  C   UNL     1     -15.341   6.643  27.100  1.00  0.00    -0.073 C 
ATOM      7  C   UNL     1     -16.482   7.349  26.977  1.00  0.00     0.008 C 
ATOM      8  C   UNL     1     -14.128   7.110  26.329  1.00  0.00     0.031 C 
ATOM      9  C   UNL     1     -12.868   6.354  26.753  1.00  0.00     0.005 C 
ATOM     10  C   UNL     1     -13.049   4.830  26.654  1.00  0.00     0.008 C 
ATOM     11  C   UNL     1     -14.415   4.288  27.228  1.00  0.00    -0.018 C 
ATOM     12  C   UNL     1     -14.113   3.138  28.221  1.00  0.00     0.088 C 
ATOM     13  C   UNL     1     -15.351   2.640  28.905  1.00  0.00     0.159 C 
ATOM     14  O   UNL     1     -15.515   1.395  29.026  1.00  0.00    -0.295 OA
ATOM     15  C   UNL     1     -15.258   3.733  26.046  1.00  0.00     0.012 C 
ATOM     16  C   UNL     1     -17.026   2.063  31.282  1.00  0.00     0.039 C 
ENDROOT
TORSDOF 0
ENDMDL
MODEL 4
REMARK VINA RESULT:    -5.141      2.316      4.143
REMARK INTER + INTRA:          -5.141
REMARK INTER:                  -5.141
REMARK INTRA:                   0.000
REMARK UNBOUND:                 0.000
REMARK SMILES C=C1CCC[C@@]2(C)CC(=O)C(=C(C)C)C[C@H]12
REMARK SMILES IDX 13 1 12 2 11 3 15 4 16 5 2 6 1 7 3 8 4 9 5 10 6 11 8 12 9 13
REMARK SMILES IDX 10 14 7 15 14 16
REMARK H PARENT
REMARK Flexibility Score: inf
ROOT
ATOM      1  C   UNL     1     -16.763   9.922  27.718  1.00  0.00     0.039 C 
ATOM      2  C   UNL     1     -15.652   9.288  26.911  1.00  0.00    -0.070 C 
ATOM      3  C   UNL     1     -15.443   7.939  26.932  1.00  0.00    -0.006 C 
ATOM      4  C   UNL     1     -16.336   7.018  27.752  1.00  0.00     0.047 C 
ATOM      5  C   UNL     1     -16.440   5.581  27.176  1.00  0.00     0.025 C 
ATOM      6  C   UNL     1     -17.238   4.600  28.041  1.00  0.00    -0.073 C 
ATOM      7  C   UNL     1     -17.940   4.963  29.131  1.00  0.00     0.008 C 
ATOM      8  C   UNL     1     -17.257   3.145  27.634  1.00  0.00     0.031 C 
ATOM      9  C   UNL     1     -16.615   2.937  26.261  1.00  0.00     0.005 C 
ATOM     10  C   UNL     1     -15.195   3.524  26.194  1.00  0.00     0.008 C 
ATOM     11  C   UNL     1     -15.044   4.963  26.825  1.00  0.00    -0.018 C 
ATOM     12  C   UNL     1     -14.349   5.885  25.793  1.00  0.00     0.088 C 
ATOM     13  C   UNL     1     -14.269   7.306  26.267  1.00  0.00     0.159 C 
ATOM     14  O   UNL     1     -13.189   7.937  26.103  1.00  0.00    -0.295 OA
ATOM     15  C   UNL     1     -14.152   4.850  28.093  1.00  0.00     0.012 C 
ATOM     16  C   UNL     1     -14.814  10.212  26.057  1.00  0.00     0.039 C 
ENDROOT
TORSDOF 0
ENDMDL
MODEL 5
REMARK VINA RESULT:    -5.101      6.961      9.128
REMARK INTER + INTRA:          -5.101
REMARK INTER:                  -5.101
REMARK INTRA:                   0.000
REMARK UNBOUND:                 0.000
REMARK SMILES C=C1CCC[C@@]2(C)CC(=O)C(=C(C)C)C[C@H]12
REMARK SMILES IDX 13 1 12 2 11 3 15 4 16 5 2 6 1 7 3 8 4 9 5 10 6 11 8 12 9 13
REMARK SMILES IDX 10 14 7 15 14 16
REMARK H PARENT
REMARK Flexibility Score: inf
ROOT
ATOM      1  C   UNL     1     -21.626   2.486  34.632  1.00  0.00     0.039 C 
ATOM      2  C   UNL     1     -20.180   2.870  34.413  1.00  0.00    -0.070 C 
ATOM      3  C   UNL     1     -19.328   2.059  33.720  1.00  0.00    -0.006 C 
ATOM      4  C   UNL     1     -19.810   0.744  33.120  1.00  0.00     0.047 C 
ATOM      5  C   UNL     1     -19.012   0.308  31.862  1.00  0.00     0.025 C 
ATOM      6  C   UNL     1     -19.397  -1.065  31.304  1.00  0.00    -0.073 C 
ATOM      7  C   UNL     1     -20.447  -1.786  31.745  1.00  0.00     0.008 C 
ATOM      8  C   UNL     1     -18.566  -1.634  30.178  1.00  0.00     0.031 C 
ATOM      9  C   UNL     1     -17.570  -0.605  29.639  1.00  0.00     0.005 C 
ATOM     10  C   UNL     1     -16.688  -0.020  30.753  1.00  0.00     0.008 C 
ATOM     11  C   UNL     1     -17.461   0.380  32.069  1.00  0.00    -0.018 C 
ATOM     12  C   UNL     1     -17.087   1.836  32.441  1.00  0.00     0.088 C 
ATOM     13  C   UNL     1     -17.868   2.340  33.617  1.00  0.00     0.159 C 
ATOM     14  O   UNL     1     -17.261   2.986  34.514  1.00  0.00    -0.295 OA
ATOM     15  C   UNL     1     -17.010  -0.571  33.212  1.00  0.00     0.012 C 
ATOM     16  C   UNL     1     -19.736   4.206  34.965  1.00  0.00     0.039 C 
ENDROOT
TORSDOF 0
ENDMDL
MODEL 6
REMARK VINA RESULT:    -5.046      1.865      3.535
REMARK INTER + INTRA:          -5.046
REMARK INTER:                  -5.046
REMARK INTRA:                   0.000
REMARK UNBOUND:                 0.000
REMARK SMILES C=C1CCC[C@@]2(C)CC(=O)C(=C(C)C)C[C@H]12
REMARK SMILES IDX 13 1 12 2 11 3 15 4 16 5 2 6 1 7 3 8 4 9 5 10 6 11 8 12 9 13
REMARK SMILES IDX 10 14 7 15 14 16
REMARK H PARENT
REMARK Flexibility Score: inf
ROOT
ATOM      1  C   UNL     1     -14.125   8.467  26.129  1.00  0.00     0.039 C 
ATOM      2  C   UNL     1     -13.664   7.029  26.055  1.00  0.00    -0.070 C 
ATOM      3  C   UNL     1     -14.405   6.017  26.595  1.00  0.00    -0.006 C 
ATOM      4  C   UNL     1     -15.740   6.298  27.273  1.00  0.00     0.047 C 
ATOM      5  C   UNL     1     -16.731   5.106  27.207  1.00  0.00     0.025 C 
ATOM      6  C   UNL     1     -18.037   5.316  27.978  1.00  0.00    -0.073 C 
ATOM      7  C   UNL     1     -18.396   6.487  28.540  1.00  0.00     0.008 C 
ATOM      8  C   UNL     1     -18.990   4.149  28.096  1.00  0.00     0.031 C 
ATOM      9  C   UNL     1     -18.554   2.976  27.216  1.00  0.00     0.005 C 
ATOM     10  C   UNL     1     -17.103   2.553  27.499  1.00  0.00     0.008 C 
ATOM     11  C   UNL     1     -16.079   3.746  27.629  1.00  0.00    -0.018 C 
ATOM     12  C   UNL     1     -14.876   3.472  26.694  1.00  0.00     0.088 C 
ATOM     13  C   UNL     1     -13.905   4.615  26.667  1.00  0.00     0.159 C 
ATOM     14  O   UNL     1     -12.672   4.362  26.724  1.00  0.00    -0.295 OA
ATOM     15  C   UNL     1     -15.580   3.805  29.100  1.00  0.00     0.012 C 
ATOM     16  C   UNL     1     -12.366   6.764  25.326  1.00  0.00     0.039 C 
ENDROOT
TORSDOF 0
ENDMDL
MODEL 7
REMARK VINA RESULT:    -4.987      4.826      6.035
REMARK INTER + INTRA:          -4.987
REMARK INTER:                  -4.987
REMARK INTRA:                   0.000
REMARK UNBOUND:                 0.000
REMARK SMILES C=C1CCC[C@@]2(C)CC(=O)C(=C(C)C)C[C@H]12
REMARK SMILES IDX 13 1 12 2 11 3 15 4 16 5 2 6 1 7 3 8 4 9 5 10 6 11 8 12 9 13
REMARK SMILES IDX 10 14 7 15 14 16
REMARK H PARENT
REMARK Flexibility Score: inf
ROOT
ATOM      1  C   UNL     1     -12.725  -1.745  30.586  1.00  0.00     0.039 C 
ATOM      2  C   UNL     1     -13.392  -0.892  29.530  1.00  0.00    -0.070 C 
ATOM      3  C   UNL     1     -14.635  -0.363  29.728  1.00  0.00    -0.006 C 
ATOM      4  C   UNL     1     -15.389  -0.594  31.031  1.00  0.00     0.047 C 
ATOM      5  C   UNL     1     -16.380   0.546  31.385  1.00  0.00     0.025 C 
ATOM      6  C   UNL     1     -17.235   0.289  32.629  1.00  0.00    -0.073 C 
ATOM      7  C   UNL     1     -17.052  -0.755  33.461  1.00  0.00     0.008 C 
ATOM      8  C   UNL     1     -18.333   1.274  32.954  1.00  0.00     0.031 C 
ATOM      9  C   UNL     1     -18.260   2.513  32.059  1.00  0.00     0.005 C 
ATOM     10  C   UNL     1     -18.255   2.144  30.566  1.00  0.00     0.008 C 
ATOM     11  C   UNL     1     -17.300   0.949  30.183  1.00  0.00    -0.018 C 
ATOM     12  C   UNL     1     -16.397   1.393  29.006  1.00  0.00     0.088 C 
ATOM     13  C   UNL     1     -15.375   0.355  28.651  1.00  0.00     0.159 C 
ATOM     14  O   UNL     1     -15.173   0.097  27.434  1.00  0.00    -0.295 OA
ATOM     15  C   UNL     1     -18.176  -0.253  29.730  1.00  0.00     0.012 C 
ATOM     16  C   UNL     1     -12.603  -0.624  28.268  1.00  0.00     0.039 C 
ENDROOT
TORSDOF 0
ENDMDL
MODEL 8
REMARK VINA RESULT:    -4.882      9.133     11.353
REMARK INTER + INTRA:          -4.882
REMARK INTER:                  -4.882
REMARK INTRA:                   0.000
REMARK UNBOUND:                 0.000
REMARK SMILES C=C1CCC[C@@]2(C)CC(=O)C(=C(C)C)C[C@H]12
REMARK SMILES IDX 13 1 12 2 11 3 15 4 16 5 2 6 1 7 3 8 4 9 5 10 6 11 8 12 9 13
REMARK SMILES IDX 10 14 7 15 14 16
REMARK H PARENT
REMARK Flexibility Score: inf
ROOT
ATOM      1  C   UNL     1     -21.583  -5.556  26.180  1.00  0.00     0.039 C 
ATOM      2  C   UNL     1     -21.128  -4.114  26.233  1.00  0.00    -0.070 C 
ATOM      3  C   UNL     1     -20.605  -3.494  25.135  1.00  0.00    -0.006 C 
ATOM      4  C   UNL     1     -20.481  -4.226  23.805  1.00  0.00     0.047 C 
ATOM      5  C   UNL     1     -20.543  -3.286  22.572  1.00  0.00     0.025 C 
ATOM      6  C   UNL     1     -20.306  -3.978  21.227  1.00  0.00    -0.073 C 
ATOM      7  C   UNL     1     -20.213  -5.314  21.077  1.00  0.00     0.008 C 
ATOM      8  C   UNL     1     -20.193  -3.114  19.992  1.00  0.00     0.031 C 
ATOM      9  C   UNL     1     -20.552  -1.657  20.291  1.00  0.00     0.005 C 
ATOM     10  C   UNL     1     -19.726  -1.089  21.456  1.00  0.00     0.008 C 
ATOM     11  C   UNL     1     -19.596  -2.046  22.704  1.00  0.00    -0.018 C 
ATOM     12  C   UNL     1     -19.998  -1.259  23.975  1.00  0.00     0.088 C 
ATOM     13  C   UNL     1     -20.015  -2.128  25.198  1.00  0.00     0.159 C 
ATOM     14  O   UNL     1     -19.508  -1.682  26.263  1.00  0.00    -0.295 OA
ATOM     15  C   UNL     1     -18.112  -2.492  22.826  1.00  0.00     0.012 C 
ATOM     16  C   UNL     1     -21.315  -3.387  27.546  1.00  0.00     0.039 C 
ENDROOT
TORSDOF 0
ENDMDL
MODEL 9
REMARK VINA RESULT:    -4.803     10.210     12.092
REMARK INTER + INTRA:          -4.803
REMARK INTER:                  -4.803
REMARK INTRA:                   0.000
REMARK UNBOUND:                 0.000
REMARK SMILES C=C1CCC[C@@]2(C)CC(=O)C(=C(C)C)C[C@H]12
REMARK SMILES IDX 13 1 12 2 11 3 15 4 16 5 2 6 1 7 3 8 4 9 5 10 6 11 8 12 9 13
REMARK SMILES IDX 10 14 7 15 14 16
REMARK H PARENT
REMARK Flexibility Score: inf
ROOT
ATOM      1  C   UNL     1     -23.070  -0.019  19.223  1.00  0.00     0.039 C 
ATOM      2  C   UNL     1     -21.723  -0.013  19.910  1.00  0.00    -0.070 C 
ATOM      3  C   UNL     1     -21.292  -1.085  20.637  1.00  0.00    -0.006 C 
ATOM      4  C   UNL     1     -22.145  -2.340  20.766  1.00  0.00     0.047 C 
ATOM      5  C   UNL     1     -21.315  -3.632  20.988  1.00  0.00     0.025 C 
ATOM      6  C   UNL     1     -22.149  -4.893  21.236  1.00  0.00    -0.073 C 
ATOM      7  C   UNL     1     -23.489  -4.941  21.114  1.00  0.00     0.008 C 
ATOM      8  C   UNL     1     -21.423  -6.163  21.616  1.00  0.00     0.031 C 
ATOM      9  C   UNL     1     -19.907  -6.005  21.483  1.00  0.00     0.005 C 
ATOM     10  C   UNL     1     -19.383  -4.795  22.275  1.00  0.00     0.008 C 
ATOM     11  C   UNL     1     -20.238  -3.479  22.115  1.00  0.00    -0.018 C 
ATOM     12  C   UNL     1     -19.291  -2.316  21.729  1.00  0.00     0.088 C 
ATOM     13  C   UNL     1     -20.039  -1.048  21.443  1.00  0.00     0.159 C 
ATOM     14  O   UNL     1     -19.592   0.035  21.910  1.00  0.00    -0.295 OA
ATOM     15  C   UNL     1     -20.908  -3.161  23.482  1.00  0.00     0.012 C 
ATOM     16  C   UNL     1     -20.866   1.219  19.720  1.00  0.00     0.039 C 
ENDROOT
TORSDOF 0
ENDMDL
