MODEL 1
REMARK VINA RESULT:    -4.128      0.000      0.000
REMARK INTER + INTRA:          -7.059
REMARK INTER:                  -6.300
REMARK INTRA:                  -0.759
REMARK UNBOUND:                -0.759
REMARK SMILES CCCCCCCCCCC(=O)[O-]
REMARK SMILES IDX 7 1 8 2 9 3 10 4 11 5 12 6 13 7 6 8 5 9 4 10 3 11 2 12 1 13
REMARK H PARENT
REMARK Flexibility Score: inf
ROOT
ATOM      1  C   UNL     1      94.990  85.665  80.208  1.00  0.00     0.000 C 
ENDROOT
BRANCH   1   2
ATOM      2  C   UNL     1      94.862  84.140  80.044  1.00  0.00     0.000 C 
BRANCH   2   3
ATOM      3  C   UNL     1      93.631  83.672  79.242  1.00  0.00     0.006 C 
BRANCH   3   4
ATOM      4  C   UNL     1      92.564  84.757  79.022  1.00  0.00     0.053 C 
BRANCH   4   5
ATOM      5  C   UNL     1      91.376  84.567  79.915  1.00  0.00     0.041 C 
ATOM      6  O   UNL     1      91.516  84.573  81.165  1.00  0.00    -0.550 OA
ATOM      7  O   UNL     1      90.109  84.420  79.365  1.00  0.00    -0.550 OA
ENDBRANCH   4   5
ENDBRANCH   3   4
ENDBRANCH   2   3
ENDBRANCH   1   2
BRANCH   1   8
ATOM      8  C   UNL     1      96.239  86.237  79.515  1.00  0.00     0.000 C 
BRANCH   8   9
ATOM      9  C   UNL     1      97.157  87.002  80.482  1.00  0.00    -0.000 C 
BRANCH   9  10
ATOM     10  C   UNL     1      98.507  86.297  80.694  1.00  0.00    -0.000 C 
BRANCH  10  11
ATOM     11  C   UNL     1      98.549  85.457  81.984  1.00  0.00    -0.000 C 
BRANCH  11  12
ATOM     12  C   UNL     1      99.051  84.013  81.803  1.00  0.00    -0.003 C 
ATOM     13  C   UNL     1      97.948  82.970  81.970  1.00  0.00     0.004 C 
ENDBRANCH  11  12
ENDBRANCH  10  11
ENDBRANCH   9  10
ENDBRANCH   8   9
ENDBRANCH   1   8
TORSDOF 9
ENDMDL
MODEL 2
REMARK VINA RESULT:    -4.078      4.194      6.520
REMARK INTER + INTRA:          -6.983
REMARK INTER:                  -6.317
REMARK INTRA:                  -0.667
REMARK UNBOUND:                -0.759
REMARK SMILES CCCCCCCCCCC(=O)[O-]
REMARK SMILES IDX 7 1 8 2 9 3 10 4 11 5 12 6 13 7 6 8 5 9 4 10 3 11 2 12 1 13
REMARK H PARENT
REMARK Flexibility Score: inf
ROOT
ATOM      1  C   UNL     1      98.110  85.461  80.779  1.00  0.00     0.000 C 
ENDROOT
BRANCH   1   2
ATOM      2  C   UNL     1      97.639  84.421  81.811  1.00  0.00     0.000 C 
BRANCH   2   3
ATOM      3  C   UNL     1      98.689  83.354  82.186  1.00  0.00     0.006 C 
BRANCH   3   4
ATOM      4  C   UNL     1     100.136  83.734  81.835  1.00  0.00     0.053 C 
BRANCH   4   5
ATOM      5  C   UNL     1     100.925  84.124  83.047  1.00  0.00     0.041 C 
ATOM      6  O   UNL     1     102.144  84.417  82.942  1.00  0.00    -0.550 OA
ATOM      7  O   UNL     1     100.304  84.197  84.288  1.00  0.00    -0.550 OA
ENDBRANCH   4   5
ENDBRANCH   3   4
ENDBRANCH   2   3
ENDBRANCH   1   2
BRANCH   1   8
ATOM      8  C   UNL     1      97.709  86.899  81.156  1.00  0.00     0.000 C 
BRANCH   8   9
ATOM      9  C   UNL     1      96.476  87.392  80.383  1.00  0.00    -0.000 C 
BRANCH   9  10
ATOM     10  C   UNL     1      96.062  86.430  79.257  1.00  0.00    -0.000 C 
BRANCH  10  11
ATOM     11  C   UNL     1      94.676  85.800  79.485  1.00  0.00    -0.000 C 
BRANCH  11  12
ATOM     12  C   UNL     1      94.671  84.266  79.613  1.00  0.00    -0.003 C 
ATOM     13  C   UNL     1      93.302  83.699  79.981  1.00  0.00     0.004 C 
ENDBRANCH  11  12
ENDBRANCH  10  11
ENDBRANCH   9  10
ENDBRANCH   8   9
ENDBRANCH   1   8
TORSDOF 9
ENDMDL
MODEL 3
REMARK VINA RESULT:    -4.063      1.379      2.278
REMARK INTER + INTRA:          -6.960
REMARK INTER:                  -6.461
REMARK INTRA:                  -0.499
REMARK UNBOUND:                -0.759
REMARK SMILES CCCCCCCCCCC(=O)[O-]
REMARK SMILES IDX 7 1 8 2 9 3 10 4 11 5 12 6 13 7 6 8 5 9 4 10 3 11 2 12 1 13
REMARK H PARENT
REMARK Flexibility Score: inf
ROOT
ATOM      1  C   UNL     1      95.782  85.576  80.882  1.00  0.00     0.000 C 
ENDROOT
BRANCH   1   2
ATOM      2  C   UNL     1      95.242  85.009  79.557  1.00  0.00     0.000 C 
BRANCH   2   3
ATOM      3  C   UNL     1      94.195  83.887  79.706  1.00  0.00     0.006 C 
BRANCH   3   4
ATOM      4  C   UNL     1      92.747  84.327  79.439  1.00  0.00     0.053 C 
BRANCH   4   5
ATOM      5  C   UNL     1      91.938  84.393  80.698  1.00  0.00     0.041 C 
ATOM      6  O   UNL     1      90.790  83.880  80.741  1.00  0.00    -0.550 OA
ATOM      7  O   UNL     1      92.467  84.991  81.835  1.00  0.00    -0.550 OA
ENDBRANCH   4   5
ENDBRANCH   3   4
ENDBRANCH   2   3
ENDBRANCH   1   2
BRANCH   1   8
ATOM      8  C   UNL     1      97.240  85.167  81.156  1.00  0.00     0.000 C 
BRANCH   8   9
ATOM      9  C   UNL     1      97.354  84.018  82.171  1.00  0.00    -0.000 C 
BRANCH   9  10
ATOM     10  C   UNL     1      98.631  83.184  81.976  1.00  0.00    -0.000 C 
BRANCH  10  11
ATOM     11  C   UNL     1      99.880  84.049  81.729  1.00  0.00    -0.000 C 
BRANCH  11  12
ATOM     12  C   UNL     1     101.014  83.860  82.754  1.00  0.00    -0.003 C 
ATOM     13  C   UNL     1     100.603  84.229  84.178  1.00  0.00     0.004 C 
ENDBRANCH  11  12
ENDBRANCH  10  11
ENDBRANCH   9  10
ENDBRANCH   8   9
ENDBRANCH   1   8
TORSDOF 9
ENDMDL
MODEL 4
REMARK VINA RESULT:    -4.011      4.055      6.780
REMARK INTER + INTRA:          -6.880
REMARK INTER:                  -6.357
REMARK INTRA:                  -0.524
REMARK UNBOUND:                -0.759
REMARK SMILES CCCCCCCCCCC(=O)[O-]
REMARK SMILES IDX 7 1 8 2 9 3 10 4 11 5 12 6 13 7 6 8 5 9 4 10 3 11 2 12 1 13
REMARK H PARENT
REMARK Flexibility Score: inf
ROOT
ATOM      1  C   UNL     1      96.479  85.249  81.141  1.00  0.00     0.000 C 
ENDROOT
BRANCH   1   2
ATOM      2  C   UNL     1      98.013  85.144  81.214  1.00  0.00     0.000 C 
BRANCH   2   3
ATOM      3  C   UNL     1      98.548  83.851  81.862  1.00  0.00     0.006 C 
BRANCH   3   4
ATOM      4  C   UNL     1     100.079  83.718  81.849  1.00  0.00     0.053 C 
BRANCH   4   5
ATOM      5  C   UNL     1     100.697  84.208  83.123  1.00  0.00     0.041 C 
ATOM      6  O   UNL     1     101.913  84.529  83.154  1.00  0.00    -0.550 OA
ATOM      7  O   UNL     1      99.920  84.343  84.266  1.00  0.00    -0.550 OA
ENDBRANCH   4   5
ENDBRANCH   3   4
ENDBRANCH   2   3
ENDBRANCH   1   2
BRANCH   1   8
ATOM      8  C   UNL     1      95.998  86.179  80.014  1.00  0.00     0.000 C 
BRANCH   8   9
ATOM      9  C   UNL     1      94.767  85.629  79.275  1.00  0.00    -0.000 C 
BRANCH   9  10
ATOM     10  C   UNL     1      94.684  84.095  79.331  1.00  0.00    -0.000 C 
BRANCH  10  11
ATOM     11  C   UNL     1      93.378  83.588  79.972  1.00  0.00    -0.000 C 
BRANCH  11  12
ATOM     12  C   UNL     1      92.648  84.615  80.857  1.00  0.00    -0.003 C 
ATOM     13  C   UNL     1      91.169  84.289  81.057  1.00  0.00     0.004 C 
ENDBRANCH  11  12
ENDBRANCH  10  11
ENDBRANCH   9  10
ENDBRANCH   8   9
ENDBRANCH   1   8
TORSDOF 9
ENDMDL
MODEL 5
REMARK VINA RESULT:    -3.965      2.951      5.684
REMARK INTER + INTRA:          -6.811
REMARK INTER:                  -5.787
REMARK INTRA:                  -1.024
REMARK UNBOUND:                -0.759
REMARK SMILES CCCCCCCCCCC(=O)[O-]
REMARK SMILES IDX 7 1 8 2 9 3 10 4 11 5 12 6 13 7 6 8 5 9 4 10 3 11 2 12 1 13
REMARK H PARENT
REMARK Flexibility Score: inf
ROOT
ATOM      1  C   UNL     1      91.987  84.764  79.003  1.00  0.00     0.000 C 
ENDROOT
BRANCH   1   2
ATOM      2  C   UNL     1      93.011  83.966  79.830  1.00  0.00     0.000 C 
BRANCH   2   3
ATOM      3  C   UNL     1      94.456  84.008  79.294  1.00  0.00     0.006 C 
BRANCH   3   4
ATOM      4  C   UNL     1      95.473  84.648  80.252  1.00  0.00     0.053 C 
BRANCH   4   5
ATOM      5  C   UNL     1      96.117  85.864  79.659  1.00  0.00     0.041 C 
ATOM      6  O   UNL     1      97.240  86.253  80.074  1.00  0.00    -0.550 OA
ATOM      7  O   UNL     1      95.492  86.547  78.623  1.00  0.00    -0.550 OA
ENDBRANCH   4   5
ENDBRANCH   3   4
ENDBRANCH   2   3
ENDBRANCH   1   2
BRANCH   1   8
ATOM      8  C   UNL     1      90.574  84.729  79.610  1.00  0.00     0.000 C 
BRANCH   8   9
ATOM      9  C   UNL     1      90.531  84.022  80.974  1.00  0.00    -0.000 C 
BRANCH   9  10
ATOM     10  C   UNL     1      90.122  84.968  82.116  1.00  0.00    -0.000 C 
BRANCH  10  11
ATOM     11  C   UNL     1      91.099  86.144  82.299  1.00  0.00    -0.000 C 
BRANCH  11  12
ATOM     12  C   UNL     1      92.409  85.792  83.029  1.00  0.00    -0.003 C 
ATOM     13  C   UNL     1      93.589  86.658  82.593  1.00  0.00     0.004 C 
ENDBRANCH  11  12
ENDBRANCH  10  11
ENDBRANCH   9  10
ENDBRANCH   8   9
ENDBRANCH   1   8
TORSDOF 9
ENDMDL
MODEL 6
REMARK VINA RESULT:    -3.901      4.302      7.262
REMARK INTER + INTRA:          -6.712
REMARK INTER:                  -6.027
REMARK INTRA:                  -0.685
REMARK UNBOUND:                -0.759
REMARK SMILES CCCCCCCCCCC(=O)[O-]
REMARK SMILES IDX 7 1 8 2 9 3 10 4 11 5 12 6 13 7 6 8 5 9 4 10 3 11 2 12 1 13
REMARK H PARENT
REMARK Flexibility Score: inf
ROOT
ATOM      1  C   UNL     1      99.840  83.908  81.579  1.00  0.00     0.000 C 
ENDROOT
BRANCH   1   2
ATOM      2  C   UNL     1     100.946  83.968  82.648  1.00  0.00     0.000 C 
BRANCH   2   3
ATOM      3  C   UNL     1     101.078  85.322  83.374  1.00  0.00     0.006 C 
BRANCH   3   4
ATOM      4  C   UNL     1     101.431  85.212  84.866  1.00  0.00     0.053 C 
BRANCH   4   5
ATOM      5  C   UNL     1     100.362  84.512  85.647  1.00  0.00     0.041 C 
ATOM      6  O   UNL     1     100.660  83.567  86.424  1.00  0.00    -0.550 OA
ATOM      7  O   UNL     1      99.040  84.927  85.544  1.00  0.00    -0.550 OA
ENDBRANCH   4   5
ENDBRANCH   3   4
ENDBRANCH   2   3
ENDBRANCH   1   2
BRANCH   1   8
ATOM      8  C   UNL     1      98.490  83.431  82.145  1.00  0.00     0.000 C 
BRANCH   8   9
ATOM      9  C   UNL     1      97.324  84.352  81.753  1.00  0.00    -0.000 C 
BRANCH   9  10
ATOM     10  C   UNL     1      97.768  85.514  80.850  1.00  0.00    -0.000 C 
BRANCH  10  11
ATOM     11  C   UNL     1      96.619  86.087  80.000  1.00  0.00    -0.000 C 
BRANCH  11  12
ATOM     12  C   UNL     1      95.419  85.140  79.807  1.00  0.00    -0.003 C 
ATOM     13  C   UNL     1      94.115  85.704  80.368  1.00  0.00     0.004 C 
ENDBRANCH  11  12
ENDBRANCH  10  11
ENDBRANCH   9  10
ENDBRANCH   8   9
ENDBRANCH   1   8
TORSDOF 9
ENDMDL
MODEL 7
REMARK VINA RESULT:    -3.885      2.141      3.781
REMARK INTER + INTRA:          -6.688
REMARK INTER:                  -5.740
REMARK INTRA:                  -0.948
REMARK UNBOUND:                -0.759
REMARK SMILES CCCCCCCCCCC(=O)[O-]
REMARK SMILES IDX 7 1 8 2 9 3 10 4 11 5 12 6 13 7 6 8 5 9 4 10 3 11 2 12 1 13
REMARK H PARENT
REMARK Flexibility Score: inf
ROOT
ATOM      1  C   UNL     1      97.342  84.107  81.812  1.00  0.00     0.000 C 
ENDROOT
BRANCH   1   2
ATOM      2  C   UNL     1      97.662  85.515  81.279  1.00  0.00     0.000 C 
BRANCH   2   3
ATOM      3  C   UNL     1      96.874  85.929  80.020  1.00  0.00     0.006 C 
BRANCH   3   4
ATOM      4  C   UNL     1      95.408  86.310  80.283  1.00  0.00     0.053 C 
BRANCH   4   5
ATOM      5  C   UNL     1      94.459  85.508  79.446  1.00  0.00     0.041 C 
ATOM      6  O   UNL     1      93.521  86.077  78.830  1.00  0.00    -0.550 OA
ATOM      7  O   UNL     1      94.634  84.135  79.318  1.00  0.00    -0.550 OA
ENDBRANCH   4   5
ENDBRANCH   3   4
ENDBRANCH   2   3
ENDBRANCH   1   2
BRANCH   1   8
ATOM      8  C   UNL     1      98.602  83.250  82.028  1.00  0.00     0.000 C 
BRANCH   8   9
ATOM      9  C   UNL     1      99.893  83.983  81.630  1.00  0.00    -0.000 C 
BRANCH   9  10
ATOM     10  C   UNL     1     101.012  83.812  82.671  1.00  0.00    -0.000 C 
BRANCH  10  11
ATOM     11  C   UNL     1     100.608  84.303  84.073  1.00  0.00    -0.000 C 
BRANCH  11  12
ATOM     12  C   UNL     1     100.194  85.784  84.148  1.00  0.00    -0.003 C 
ATOM     13  C   UNL     1      98.828  85.992  84.799  1.00  0.00     0.004 C 
ENDBRANCH  11  12
ENDBRANCH  10  11
ENDBRANCH   9  10
ENDBRANCH   8   9
ENDBRANCH   1   8
TORSDOF 9
ENDMDL
MODEL 8
REMARK VINA RESULT:    -3.859      3.894      6.732
REMARK INTER + INTRA:          -6.649
REMARK INTER:                  -6.159
REMARK INTRA:                  -0.490
REMARK UNBOUND:                -0.759
REMARK SMILES CCCCCCCCCCC(=O)[O-]
REMARK SMILES IDX 7 1 8 2 9 3 10 4 11 5 12 6 13 7 6 8 5 9 4 10 3 11 2 12 1 13
REMARK H PARENT
REMARK Flexibility Score: inf
ROOT
ATOM      1  C   UNL     1      95.832  85.728  81.413  1.00  0.00     0.000 C 
ENDROOT
BRANCH   1   2
ATOM      2  C   UNL     1      97.229  85.168  81.093  1.00  0.00     0.000 C 
BRANCH   2   3
ATOM      3  C   UNL     1      97.667  83.973  81.964  1.00  0.00     0.006 C 
BRANCH   3   4
ATOM      4  C   UNL     1      99.132  83.550  81.775  1.00  0.00     0.053 C 
BRANCH   4   5
ATOM      5  C   UNL     1     100.019  84.094  82.853  1.00  0.00     0.041 C 
ATOM      6  O   UNL     1      99.518  84.662  83.858  1.00  0.00    -0.550 OA
ATOM      7  O   UNL     1     101.397  83.941  82.764  1.00  0.00    -0.550 OA
ENDBRANCH   4   5
ENDBRANCH   3   4
ENDBRANCH   2   3
ENDBRANCH   1   2
BRANCH   1   8
ATOM      8  C   UNL     1      94.877  85.673  80.207  1.00  0.00     0.000 C 
BRANCH   8   9
ATOM      9  C   UNL     1      94.781  84.268  79.591  1.00  0.00    -0.000 C 
BRANCH   9  10
ATOM     10  C   UNL     1      93.430  83.591  79.876  1.00  0.00    -0.000 C 
BRANCH  10  11
ATOM     11  C   UNL     1      92.346  84.584  80.334  1.00  0.00    -0.000 C 
BRANCH  11  12
ATOM     12  C   UNL     1      91.150  83.949  81.067  1.00  0.00    -0.003 C 
ATOM     13  C   UNL     1      90.806  84.655  82.377  1.00  0.00     0.004 C 
ENDBRANCH  11  12
ENDBRANCH  10  11
ENDBRANCH   9  10
ENDBRANCH   8   9
ENDBRANCH   1   8
TORSDOF 9
ENDMDL
MODEL 9
REMARK VINA RESULT:    -3.845      3.188      7.459
REMARK INTER + INTRA:          -6.627
REMARK INTER:                  -6.036
REMARK INTRA:                  -0.591
REMARK UNBOUND:                -0.759
REMARK SMILES CCCCCCCCCCC(=O)[O-]
REMARK SMILES IDX 7 1 8 2 9 3 10 4 11 5 12 6 13 7 6 8 5 9 4 10 3 11 2 12 1 13
REMARK H PARENT
REMARK Flexibility Score: inf
ROOT
ATOM      1  C   UNL     1      92.347  85.173  78.837  1.00  0.00     0.000 C 
ENDROOT
BRANCH   1   2
ATOM      2  C   UNL     1      92.929  83.977  79.611  1.00  0.00     0.000 C 
BRANCH   2   3
ATOM      3  C   UNL     1      94.468  83.950  79.708  1.00  0.00     0.006 C 
BRANCH   3   4
ATOM      4  C   UNL     1      95.078  85.133  80.477  1.00  0.00     0.053 C 
BRANCH   4   5
ATOM      5  C   UNL     1      96.088  85.876  79.658  1.00  0.00     0.041 C 
ATOM      6  O   UNL     1      95.742  86.449  78.592  1.00  0.00    -0.550 OA
ATOM      7  O   UNL     1      97.406  85.965  80.090  1.00  0.00    -0.550 OA
ENDBRANCH   4   5
ENDBRANCH   3   4
ENDBRANCH   2   3
ENDBRANCH   1   2
BRANCH   1   8
ATOM      8  C   UNL     1      90.858  85.413  79.141  1.00  0.00     0.000 C 
BRANCH   8   9
ATOM      9  C   UNL     1      90.291  84.409  80.158  1.00  0.00    -0.000 C 
BRANCH   9  10
ATOM     10  C   UNL     1      88.757  84.457  80.242  1.00  0.00    -0.000 C 
BRANCH  10  11
ATOM     11  C   UNL     1      88.076  83.358  79.405  1.00  0.00    -0.000 C 
BRANCH  11  12
ATOM     12  C   UNL     1      87.206  83.872  78.243  1.00  0.00    -0.003 C 
ATOM     13  C   UNL     1      87.190  85.396  78.134  1.00  0.00     0.004 C 
ENDBRANCH  11  12
ENDBRANCH  10  11
ENDBRANCH   9  10
ENDBRANCH   8   9
ENDBRANCH   1   8
TORSDOF 9
ENDMDL
