MODEL 1
REMARK VINA RESULT:    11.341      0.000      0.000
REMARK INTER + INTRA:          12.419
REMARK INTER:                  12.667
REMARK INTRA:                  -0.249
REMARK UNBOUND:                -0.249
REMARK SMILES C=C(C)[C@@H]1CC[C@@]2(C(=O)[O-])CC[C@@]3(C)[C@H](CC[C@H]4[C@@]5(C)CCC(=O)C(C)(C)[C@H]5CC[C@@]43C)[C@@H]12
REMARK SMILES IDX 7 1 6 2 33 3 11 4 5 5 15 6 4 7 12 8 16 9 13 10 17 11 31 12
REMARK SMILES IDX 14 13 18 14 30 15 32 16 19 17 29 18 21 19 20 20 28 21 22 22
REMARK SMILES IDX 25 23 23 24 26 25 27 26 24 27 8 28 9 29 10 30 2 31 3 32 1 33
REMARK H PARENT
REMARK Flexibility Score: inf
ROOT
ATOM      1  C   UNL     1     -20.419  11.508 -29.235  1.00  0.00     0.014 C 
ATOM      2  C   UNL     1     -21.742  10.956 -29.834  1.00  0.00     0.014 C 
ATOM      3  C   UNL     1     -20.487  13.058 -29.447  1.00  0.00     0.012 C 
ATOM      4  C   UNL     1     -19.194  10.875 -29.953  1.00  0.00     0.014 C 
ATOM      5  C   UNL     1     -22.659  12.152 -30.029  1.00  0.00     0.009 C 
ATOM      6  C   UNL     1     -19.147  13.760 -29.898  1.00  0.00     0.000 C 
ATOM      7  C   UNL     1     -21.708  13.292 -30.357  1.00  0.00     0.018 C 
ATOM      8  C   UNL     1     -18.838  11.579 -31.273  1.00  0.00     0.008 C 
ATOM      9  C   UNL     1     -18.290  13.997 -28.633  1.00  0.00     0.005 C 
ATOM     10  C   UNL     1     -18.357  13.064 -31.101  1.00  0.00    -0.024 C 
ATOM     11  C   UNL     1     -16.936  14.690 -28.869  1.00  0.00     0.005 C 
ATOM     12  C   UNL     1     -16.728  13.191 -30.943  1.00  0.00    -0.024 C 
ATOM     13  C   UNL     1     -18.809  13.799 -32.415  1.00  0.00     0.012 C 
ATOM     14  C   UNL     1     -16.405  14.614 -30.333  1.00  0.00     0.002 C 
ATOM     15  C   UNL     1     -16.015  13.057 -32.323  1.00  0.00     0.008 C 
ATOM     16  C   UNL     1     -16.133  12.045 -30.050  1.00  0.00     0.012 C 
ATOM     17  C   UNL     1     -14.942  15.265 -30.531  1.00  0.00    -0.025 C 
ATOM     18  C   UNL     1     -14.534  13.416 -32.297  1.00  0.00     0.006 C 
ATOM     19  C   UNL     1     -13.962  14.830 -29.387  1.00  0.00     0.015 C 
ATOM     20  C   UNL     1     -15.139  16.820 -30.437  1.00  0.00     0.012 C 
ATOM     21  C   UNL     1     -14.316  14.911 -31.956  1.00  0.00     0.008 C 
ATOM     22  C   UNL     1     -12.504  15.272 -29.564  1.00  0.00     0.077 C 
ATOM     23  C   UNL     1     -12.790  15.338 -32.159  1.00  0.00     0.027 C 
ATOM     24  C   UNL     1     -11.988  14.944 -30.930  1.00  0.00     0.138 C 
ATOM     25  C   UNL     1     -12.645  16.866 -32.384  1.00  0.00     0.020 C 
ATOM     26  C   UNL     1     -12.165  14.678 -33.424  1.00  0.00     0.020 C 
ATOM     27  O   UNL     1     -10.875  14.447 -31.037  1.00  0.00    -0.299 OA
ENDROOT
BRANCH   1  28
ATOM     28  C   UNL     1     -20.393  11.158 -27.748  1.00  0.00     0.048 C 
ATOM     29  O   UNL     1     -21.470  11.028 -27.106  1.00  0.00    -0.550 OA
ATOM     30  O   UNL     1     -19.194  10.885 -27.095  1.00  0.00    -0.550 OA
ENDBRANCH   1  28
BRANCH   7  31
ATOM     31  C   UNL     1     -22.347  14.669 -30.200  1.00  0.00    -0.077 C 
ATOM     32  C   UNL     1     -23.815  14.902 -30.465  1.00  0.00     0.039 C 
ATOM     33  C   UNL     1     -21.600  15.710 -29.800  1.00  0.00     0.008 C 
ENDBRANCH   7  31
TORSDOF 2
ENDMDL
MODEL 2
REMARK VINA RESULT:    11.645      1.796      8.158
REMARK INTER + INTRA:          12.758
REMARK INTER:                  13.145
REMARK INTRA:                  -0.388
REMARK UNBOUND:                -0.249
REMARK SMILES C=C(C)[C@@H]1CC[C@@]2(C(=O)[O-])CC[C@@]3(C)[C@H](CC[C@H]4[C@@]5(C)CCC(=O)C(C)(C)[C@H]5CC[C@@]43C)[C@@H]12
REMARK SMILES IDX 7 1 6 2 33 3 11 4 5 5 15 6 4 7 12 8 16 9 13 10 17 11 31 12
REMARK SMILES IDX 14 13 18 14 30 15 32 16 19 17 29 18 21 19 20 20 28 21 22 22
REMARK SMILES IDX 25 23 23 24 26 25 27 26 24 27 8 28 9 29 10 30 2 31 3 32 1 33
REMARK H PARENT
REMARK Flexibility Score: inf
ROOT
ATOM      1  C   UNL     1     -12.950  14.391 -32.255  1.00  0.00     0.014 C 
ATOM      2  C   UNL     1     -11.638  13.697 -32.719  1.00  0.00     0.014 C 
ATOM      3  C   UNL     1     -13.067  14.067 -30.728  1.00  0.00     0.012 C 
ATOM      4  C   UNL     1     -14.163  13.850 -33.061  1.00  0.00     0.014 C 
ATOM      5  C   UNL     1     -10.878  13.326 -31.457  1.00  0.00     0.009 C 
ATOM      6  C   UNL     1     -14.511  13.711 -30.200  1.00  0.00     0.000 C 
ATOM      7  C   UNL     1     -11.971  13.021 -30.446  1.00  0.00     0.018 C 
ATOM      8  C   UNL     1     -14.718  12.529 -32.502  1.00  0.00     0.008 C 
ATOM      9  C   UNL     1     -15.263  15.038 -29.949  1.00  0.00     0.005 C 
ATOM     10  C   UNL     1     -15.335  12.648 -31.063  1.00  0.00    -0.024 C 
ATOM     11  C   UNL     1     -16.700  14.898 -29.414  1.00  0.00     0.005 C 
ATOM     12  C   UNL     1     -16.946  12.965 -31.086  1.00  0.00    -0.024 C 
ATOM     13  C   UNL     1     -15.093  11.246 -30.394  1.00  0.00     0.012 C 
ATOM     14  C   UNL     1     -17.358  13.506 -29.658  1.00  0.00     0.002 C 
ATOM     15  C   UNL     1     -17.770  11.679 -31.398  1.00  0.00     0.008 C 
ATOM     16  C   UNL     1     -17.326  13.991 -32.211  1.00  0.00     0.012 C 
ATOM     17  C   UNL     1     -18.894  13.417 -29.173  1.00  0.00    -0.025 C 
ATOM     18  C   UNL     1     -19.271  11.834 -31.187  1.00  0.00     0.006 C 
ATOM     19  C   UNL     1     -19.708  14.683 -29.611  1.00  0.00     0.015 C 
ATOM     20  C   UNL     1     -18.856  13.382 -27.603  1.00  0.00     0.012 C 
ATOM     21  C   UNL     1     -19.614  12.092 -29.699  1.00  0.00     0.008 C 
ATOM     22  C   UNL     1     -21.214  14.629 -29.330  1.00  0.00     0.077 C 
ATOM     23  C   UNL     1     -21.188  12.020 -29.442  1.00  0.00     0.027 C 
ATOM     24  C   UNL     1     -21.822  13.350 -29.815  1.00  0.00     0.138 C 
ATOM     25  C   UNL     1     -21.516  11.707 -27.958  1.00  0.00     0.020 C 
ATOM     26  C   UNL     1     -21.859  10.875 -30.259  1.00  0.00     0.020 C 
ATOM     27  O   UNL     1     -22.881  13.393 -30.426  1.00  0.00    -0.299 OA
ENDROOT
BRANCH   1  28
ATOM     28  C   UNL     1     -12.795  15.894 -32.487  1.00  0.00     0.048 C 
ATOM     29  O   UNL     1     -13.622  16.703 -31.988  1.00  0.00    -0.550 OA
ATOM     30  O   UNL     1     -11.694  16.405 -33.169  1.00  0.00    -0.550 OA
ENDBRANCH   1  28
BRANCH   7  31
ATOM     31  C   UNL     1     -11.471  13.016 -29.005  1.00  0.00    -0.077 C 
ATOM     32  C   UNL     1     -11.637  14.213 -28.099  1.00  0.00     0.039 C 
ATOM     33  C   UNL     1     -10.879  11.919 -28.507  1.00  0.00     0.008 C 
ENDBRANCH   7  31
TORSDOF 2
ENDMDL
