MODEL 1
REMARK VINA RESULT:    -4.886      0.000      0.000
REMARK INTER + INTRA:         -16.523
REMARK INTER:                 -12.313
REMARK INTRA:                  -4.210
REMARK UNBOUND:                -4.210
REMARK SMILES CCCCCCCCCCCCCCCCCCCCCCCCCCCC(=O)[O-]
REMARK SMILES IDX 15 1 16 2 17 3 18 4 19 5 20 6 21 7 22 8 23 9 24 10 25 11
REMARK SMILES IDX 26 12 27 13 28 14 29 15 30 16 14 17 13 18 12 19 11 20 10 21
REMARK SMILES IDX 9 22 8 23 7 24 6 25 5 26 4 27 3 28 2 29 1 30
REMARK H PARENT
REMARK Flexibility Score: inf
ROOT
ATOM      1  C   UNL     1      -2.645  11.557  -9.268  1.00  0.00     0.000 C 
ENDROOT
BRANCH   1   2
ATOM      2  C   UNL     1      -3.763  10.504  -9.349  1.00  0.00     0.000 C 
BRANCH   2   3
ATOM      3  C   UNL     1      -4.732  10.763 -10.513  1.00  0.00     0.000 C 
BRANCH   3   4
ATOM      4  C   UNL     1      -6.139  11.085  -9.995  1.00  0.00     0.000 C 
BRANCH   4   5
ATOM      5  C   UNL     1      -6.162  12.441  -9.277  1.00  0.00     0.000 C 
BRANCH   5   6
ATOM      6  C   UNL     1      -6.785  12.312  -7.879  1.00  0.00     0.000 C 
BRANCH   6   7
ATOM      7  C   UNL     1      -5.805  12.673  -6.748  1.00  0.00     0.000 C 
BRANCH   7   8
ATOM      8  C   UNL     1      -5.141  11.470  -6.052  1.00  0.00     0.000 C 
BRANCH   8   9
ATOM      9  C   UNL     1      -6.097  10.308  -5.714  1.00  0.00     0.000 C 
BRANCH   9  10
ATOM     10  C   UNL     1      -5.697   8.966  -6.366  1.00  0.00     0.000 C 
BRANCH  10  11
ATOM     11  C   UNL     1      -6.596   8.552  -7.545  1.00  0.00     0.000 C 
BRANCH  11  12
ATOM     12  C   UNL     1      -5.864   7.657  -8.557  1.00  0.00     0.006 C 
BRANCH  12  13
ATOM     13  C   UNL     1      -6.750   7.371  -9.774  1.00  0.00     0.053 C 
BRANCH  13  14
ATOM     14  C   UNL     1      -6.015   6.534 -10.772  1.00  0.00     0.041 C 
ATOM     15  O   UNL     1      -4.972   6.974 -11.324  1.00  0.00    -0.550 OA
ATOM     16  O   UNL     1      -6.453   5.246 -11.056  1.00  0.00    -0.550 OA
ENDBRANCH  13  14
ENDBRANCH  12  13
ENDBRANCH  11  12
ENDBRANCH  10  11
ENDBRANCH   9  10
ENDBRANCH   8   9
ENDBRANCH   7   8
ENDBRANCH   6   7
ENDBRANCH   5   6
ENDBRANCH   4   5
ENDBRANCH   3   4
ENDBRANCH   2   3
ENDBRANCH   1   2
BRANCH   1  17
ATOM     17  C   UNL     1      -2.040  11.669  -7.860  1.00  0.00     0.000 C 
BRANCH  17  18
ATOM     18  C   UNL     1      -1.263  12.980  -7.698  1.00  0.00     0.000 C 
BRANCH  18  19
ATOM     19  C   UNL     1      -1.655  13.693  -6.396  1.00  0.00     0.000 C 
BRANCH  19  20
ATOM     20  C   UNL     1      -2.144  12.720  -5.311  1.00  0.00     0.000 C 
BRANCH  20  21
ATOM     21  C   UNL     1      -2.148  13.347  -3.906  1.00  0.00     0.000 C 
BRANCH  21  22
ATOM     22  C   UNL     1      -0.924  14.246  -3.648  1.00  0.00    -0.000 C 
BRANCH  22  23
ATOM     23  C   UNL     1       0.251  13.559  -2.929  1.00  0.00    -0.000 C 
BRANCH  23  24
ATOM     24  C   UNL     1       1.622  13.963  -3.499  1.00  0.00    -0.000 C 
BRANCH  24  25
ATOM     25  C   UNL     1       1.790  13.560  -4.973  1.00  0.00    -0.000 C 
BRANCH  25  26
ATOM     26  C   UNL     1       1.556  12.058  -5.209  1.00  0.00    -0.000 C 
BRANCH  26  27
ATOM     27  C   UNL     1       2.477  11.475  -6.297  1.00  0.00    -0.000 C 
BRANCH  27  28
ATOM     28  C   UNL     1       1.784  11.145  -7.635  1.00  0.00    -0.000 C 
BRANCH  28  29
ATOM     29  C   UNL     1       2.057   9.731  -8.177  1.00  0.00    -0.003 C 
ATOM     30  C   UNL     1       3.157   9.701  -9.236  1.00  0.00     0.004 C 
ENDBRANCH  28  29
ENDBRANCH  27  28
ENDBRANCH  26  27
ENDBRANCH  25  26
ENDBRANCH  24  25
ENDBRANCH  23  24
ENDBRANCH  22  23
ENDBRANCH  21  22
ENDBRANCH  20  21
ENDBRANCH  19  20
ENDBRANCH  18  19
ENDBRANCH  17  18
ENDBRANCH   1  17
TORSDOF 26
ENDMDL
MODEL 2
REMARK VINA RESULT:    -4.822      3.324      7.648
REMARK INTER + INTRA:         -16.361
REMARK INTER:                 -11.902
REMARK INTRA:                  -4.458
REMARK UNBOUND:                -4.210
REMARK SMILES CCCCCCCCCCCCCCCCCCCCCCCCCCCC(=O)[O-]
REMARK SMILES IDX 15 1 16 2 17 3 18 4 19 5 20 6 21 7 22 8 23 9 24 10 25 11
REMARK SMILES IDX 26 12 27 13 28 14 29 15 30 16 14 17 13 18 12 19 11 20 10 21
REMARK SMILES IDX 9 22 8 23 7 24 6 25 5 26 4 27 3 28 2 29 1 30
REMARK H PARENT
REMARK Flexibility Score: inf
ROOT
ATOM      1  C   UNL     1      -5.134  11.845  -7.159  1.00  0.00     0.000 C 
ENDROOT
BRANCH   1   2
ATOM      2  C   UNL     1      -4.172  11.729  -5.965  1.00  0.00     0.000 C 
BRANCH   2   3
ATOM      3  C   UNL     1      -3.230  10.521  -6.081  1.00  0.00     0.000 C 
BRANCH   3   4
ATOM      4  C   UNL     1      -2.607  10.177  -4.722  1.00  0.00     0.000 C 
BRANCH   4   5
ATOM      5  C   UNL     1      -2.139  11.446  -3.997  1.00  0.00     0.000 C 
BRANCH   5   6
ATOM      6  C   UNL     1      -0.615  11.609  -4.104  1.00  0.00     0.000 C 
BRANCH   6   7
ATOM      7  C   UNL     1      -0.173  13.081  -4.192  1.00  0.00     0.000 C 
BRANCH   7   8
ATOM      8  C   UNL     1       0.090  13.598  -5.620  1.00  0.00     0.000 C 
BRANCH   8   9
ATOM      9  C   UNL     1      -1.125  13.534  -6.566  1.00  0.00     0.000 C 
BRANCH   9  10
ATOM     10  C   UNL     1      -0.888  12.664  -7.821  1.00  0.00     0.000 C 
BRANCH  10  11
ATOM     11  C   UNL     1       0.493  11.986  -7.859  1.00  0.00     0.000 C 
BRANCH  11  12
ATOM     12  C   UNL     1       0.454  10.542  -7.335  1.00  0.00     0.006 C 
BRANCH  12  13
ATOM     13  C   UNL     1       1.480   9.669  -8.062  1.00  0.00     0.053 C 
BRANCH  13  14
ATOM     14  C   UNL     1       2.838  10.293  -7.999  1.00  0.00     0.041 C 
ATOM     15  O   UNL     1       3.277  10.748  -6.910  1.00  0.00    -0.550 OA
ATOM     16  O   UNL     1       3.642  10.327  -9.133  1.00  0.00    -0.550 OA
ENDBRANCH  13  14
ENDBRANCH  12  13
ENDBRANCH  11  12
ENDBRANCH  10  11
ENDBRANCH   9  10
ENDBRANCH   8   9
ENDBRANCH   7   8
ENDBRANCH   6   7
ENDBRANCH   5   6
ENDBRANCH   4   5
ENDBRANCH   3   4
ENDBRANCH   2   3
ENDBRANCH   1   2
BRANCH   1  17
ATOM     17  C   UNL     1      -4.450  12.405  -8.416  1.00  0.00     0.000 C 
BRANCH  17  18
ATOM     18  C   UNL     1      -4.728  11.517  -9.635  1.00  0.00     0.000 C 
BRANCH  18  19
ATOM     19  C   UNL     1      -3.655  10.427  -9.775  1.00  0.00     0.000 C 
BRANCH  19  20
ATOM     20  C   UNL     1      -4.118   9.246 -10.641  1.00  0.00     0.000 C 
BRANCH  20  21
ATOM     21  C   UNL     1      -4.458   7.996  -9.812  1.00  0.00     0.000 C 
BRANCH  21  22
ATOM     22  C   UNL     1      -5.961   7.876  -9.496  1.00  0.00    -0.000 C 
BRANCH  22  23
ATOM     23  C   UNL     1      -6.420   8.607  -8.222  1.00  0.00    -0.000 C 
BRANCH  23  24
ATOM     24  C   UNL     1      -5.756   8.061  -6.945  1.00  0.00    -0.000 C 
BRANCH  24  25
ATOM     25  C   UNL     1      -6.370   8.649  -5.664  1.00  0.00    -0.000 C 
BRANCH  25  26
ATOM     26  C   UNL     1      -5.787   8.024  -4.384  1.00  0.00    -0.000 C 
BRANCH  26  27
ATOM     27  C   UNL     1      -4.870   6.822  -4.672  1.00  0.00    -0.000 C 
BRANCH  27  28
ATOM     28  C   UNL     1      -4.085   6.289  -3.456  1.00  0.00    -0.000 C 
BRANCH  28  29
ATOM     29  C   UNL     1      -2.623   6.761  -3.368  1.00  0.00    -0.003 C 
ATOM     30  C   UNL     1      -1.619   5.627  -3.565  1.00  0.00     0.004 C 
ENDBRANCH  28  29
ENDBRANCH  27  28
ENDBRANCH  26  27
ENDBRANCH  25  26
ENDBRANCH  24  25
ENDBRANCH  23  24
ENDBRANCH  22  23
ENDBRANCH  21  22
ENDBRANCH  20  21
ENDBRANCH  19  20
ENDBRANCH  18  19
ENDBRANCH  17  18
ENDBRANCH   1  17
TORSDOF 26
ENDMDL
MODEL 3
REMARK VINA RESULT:    -4.796      2.927      3.791
REMARK INTER + INTRA:         -16.296
REMARK INTER:                 -12.245
REMARK INTRA:                  -4.052
REMARK UNBOUND:                -4.210
REMARK SMILES CCCCCCCCCCCCCCCCCCCCCCCCCCCC(=O)[O-]
REMARK SMILES IDX 15 1 16 2 17 3 18 4 19 5 20 6 21 7 22 8 23 9 24 10 25 11
REMARK SMILES IDX 26 12 27 13 28 14 29 15 30 16 14 17 13 18 12 19 11 20 10 21
REMARK SMILES IDX 9 22 8 23 7 24 6 25 5 26 4 27 3 28 2 29 1 30
REMARK H PARENT
REMARK Flexibility Score: inf
ROOT
ATOM      1  C   UNL     1      -3.226  10.386  -8.365  1.00  0.00     0.000 C 
ENDROOT
BRANCH   1   2
ATOM      2  C   UNL     1      -3.836  11.187  -9.527  1.00  0.00     0.000 C 
BRANCH   2   3
ATOM      3  C   UNL     1      -4.421  10.283 -10.623  1.00  0.00     0.000 C 
BRANCH   3   4
ATOM      4  C   UNL     1      -5.880   9.919 -10.314  1.00  0.00     0.000 C 
BRANCH   4   5
ATOM      5  C   UNL     1      -6.538  10.991  -9.436  1.00  0.00     0.000 C 
BRANCH   5   6
ATOM      6  C   UNL     1      -7.017  10.393  -8.105  1.00  0.00     0.000 C 
BRANCH   6   7
ATOM      7  C   UNL     1      -6.821   8.868  -8.026  1.00  0.00     0.000 C 
BRANCH   7   8
ATOM      8  C   UNL     1      -5.964   8.381  -6.843  1.00  0.00     0.000 C 
BRANCH   8   9
ATOM      9  C   UNL     1      -6.342   8.987  -5.477  1.00  0.00     0.000 C 
BRANCH   9  10
ATOM     10  C   UNL     1      -5.545   8.394  -4.293  1.00  0.00     0.000 C 
BRANCH  10  11
ATOM     11  C   UNL     1      -5.493   6.856  -4.284  1.00  0.00     0.000 C 
BRANCH  11  12
ATOM     12  C   UNL     1      -4.478   6.307  -3.268  1.00  0.00     0.006 C 
BRANCH  12  13
ATOM     13  C   UNL     1      -3.050   6.705  -3.654  1.00  0.00     0.053 C 
BRANCH  13  14
ATOM     14  C   UNL     1      -2.236   5.491  -3.972  1.00  0.00     0.041 C 
ATOM     15  O   UNL     1      -2.750   4.531  -4.606  1.00  0.00    -0.550 OA
ATOM     16  O   UNL     1      -0.895   5.439  -3.613  1.00  0.00    -0.550 OA
ENDBRANCH  13  14
ENDBRANCH  12  13
ENDBRANCH  11  12
ENDBRANCH  10  11
ENDBRANCH   9  10
ENDBRANCH   8   9
ENDBRANCH   7   8
ENDBRANCH   6   7
ENDBRANCH   5   6
ENDBRANCH   4   5
ENDBRANCH   3   4
ENDBRANCH   2   3
ENDBRANCH   1   2
BRANCH   1  17
ATOM     17  C   UNL     1      -3.553  10.996  -6.993  1.00  0.00     0.000 C 
BRANCH  17  18
ATOM     18  C   UNL     1      -2.701  10.356  -5.890  1.00  0.00     0.000 C 
BRANCH  18  19
ATOM     19  C   UNL     1      -2.906  11.078  -4.551  1.00  0.00     0.000 C 
BRANCH  19  20
ATOM     20  C   UNL     1      -1.627  11.126  -3.700  1.00  0.00     0.000 C 
BRANCH  20  21
ATOM     21  C   UNL     1      -1.184  12.562  -3.370  1.00  0.00     0.000 C 
BRANCH  21  22
ATOM     22  C   UNL     1       0.320  12.793  -3.605  1.00  0.00    -0.000 C 
BRANCH  22  23
ATOM     23  C   UNL     1       0.718  13.070  -5.066  1.00  0.00    -0.000 C 
BRANCH  23  24
ATOM     24  C   UNL     1      -0.436  13.652  -5.902  1.00  0.00    -0.000 C 
BRANCH  24  25
ATOM     25  C   UNL     1      -0.651  12.893  -7.221  1.00  0.00    -0.000 C 
BRANCH  25  26
ATOM     26  C   UNL     1       0.628  12.199  -7.722  1.00  0.00    -0.000 C 
BRANCH  26  27
ATOM     27  C   UNL     1       0.390  10.735  -8.135  1.00  0.00    -0.000 C 
BRANCH  27  28
ATOM     28  C   UNL     1       1.555   9.770  -7.832  1.00  0.00    -0.000 C 
BRANCH  28  29
ATOM     29  C   UNL     1       2.935  10.246  -8.317  1.00  0.00    -0.003 C 
ATOM     30  C   UNL     1       3.422   9.497  -9.556  1.00  0.00     0.004 C 
ENDBRANCH  28  29
ENDBRANCH  27  28
ENDBRANCH  26  27
ENDBRANCH  25  26
ENDBRANCH  24  25
ENDBRANCH  23  24
ENDBRANCH  22  23
ENDBRANCH  21  22
ENDBRANCH  20  21
ENDBRANCH  19  20
ENDBRANCH  18  19
ENDBRANCH  17  18
ENDBRANCH   1  17
TORSDOF 26
ENDMDL
MODEL 4
REMARK VINA RESULT:    -4.659      2.798      3.957
REMARK INTER + INTRA:         -15.949
REMARK INTER:                 -11.411
REMARK INTRA:                  -4.538
REMARK UNBOUND:                -4.210
REMARK SMILES CCCCCCCCCCCCCCCCCCCCCCCCCCCC(=O)[O-]
REMARK SMILES IDX 15 1 16 2 17 3 18 4 19 5 20 6 21 7 22 8 23 9 24 10 25 11
REMARK SMILES IDX 26 12 27 13 28 14 29 15 30 16 14 17 13 18 12 19 11 20 10 21
REMARK SMILES IDX 9 22 8 23 7 24 6 25 5 26 4 27 3 28 2 29 1 30
REMARK H PARENT
REMARK Flexibility Score: inf
ROOT
ATOM      1  C   UNL     1      -3.761   9.894 -10.087  1.00  0.00     0.000 C 
ENDROOT
BRANCH   1   2
ATOM      2  C   UNL     1      -4.876  10.749 -10.711  1.00  0.00     0.000 C 
BRANCH   2   3
ATOM      3  C   UNL     1      -6.258  10.446 -10.111  1.00  0.00     0.000 C 
BRANCH   3   4
ATOM      4  C   UNL     1      -6.454   8.937  -9.920  1.00  0.00     0.000 C 
BRANCH   4   5
ATOM      5  C   UNL     1      -7.090   8.635  -8.557  1.00  0.00     0.000 C 
BRANCH   5   6
ATOM      6  C   UNL     1      -6.013   8.348  -7.500  1.00  0.00     0.000 C 
BRANCH   6   7
ATOM      7  C   UNL     1      -6.225   9.140  -6.196  1.00  0.00     0.000 C 
BRANCH   7   8
ATOM      8  C   UNL     1      -6.304  10.669  -6.368  1.00  0.00     0.000 C 
BRANCH   8   9
ATOM      9  C   UNL     1      -5.194  11.460  -5.647  1.00  0.00     0.000 C 
BRANCH   9  10
ATOM     10  C   UNL     1      -4.076  10.568  -5.064  1.00  0.00     0.000 C 
BRANCH  10  11
ATOM     11  C   UNL     1      -4.033  10.549  -3.525  1.00  0.00     0.000 C 
BRANCH  11  12
ATOM     12  C   UNL     1      -4.009   9.122  -2.955  1.00  0.00     0.006 C 
BRANCH  12  13
ATOM     13  C   UNL     1      -2.878   8.302  -3.581  1.00  0.00     0.053 C 
BRANCH  13  14
ATOM     14  C   UNL     1      -2.957   6.876  -3.137  1.00  0.00     0.041 C 
ATOM     15  O   UNL     1      -4.075   6.310  -3.015  1.00  0.00    -0.550 OA
ATOM     16  O   UNL     1      -1.792   6.154  -2.905  1.00  0.00    -0.550 OA
ENDBRANCH  13  14
ENDBRANCH  12  13
ENDBRANCH  11  12
ENDBRANCH  10  11
ENDBRANCH   9  10
ENDBRANCH   8   9
ENDBRANCH   7   8
ENDBRANCH   6   7
ENDBRANCH   5   6
ENDBRANCH   4   5
ENDBRANCH   3   4
ENDBRANCH   2   3
ENDBRANCH   1   2
BRANCH   1  17
ATOM     17  C   UNL     1      -3.379  10.363  -8.675  1.00  0.00     0.000 C 
BRANCH  17  18
ATOM     18  C   UNL     1      -3.036  11.857  -8.665  1.00  0.00     0.000 C 
BRANCH  18  19
ATOM     19  C   UNL     1      -1.523  12.072  -8.516  1.00  0.00     0.000 C 
BRANCH  19  20
ATOM     20  C   UNL     1      -1.179  13.315  -7.681  1.00  0.00     0.000 C 
BRANCH  20  21
ATOM     21  C   UNL     1      -2.018  13.421  -6.396  1.00  0.00     0.000 C 
BRANCH  21  22
ATOM     22  C   UNL     1      -1.481  14.481  -5.415  1.00  0.00    -0.000 C 
BRANCH  22  23
ATOM     23  C   UNL     1      -0.626  13.927  -4.260  1.00  0.00    -0.000 C 
BRANCH  23  24
ATOM     24  C   UNL     1      -0.752  12.402  -4.099  1.00  0.00    -0.000 C 
BRANCH  24  25
ATOM     25  C   UNL     1       0.602  11.683  -4.221  1.00  0.00    -0.000 C 
BRANCH  25  26
ATOM     26  C   UNL     1       1.637  12.496  -5.018  1.00  0.00    -0.000 C 
BRANCH  26  27
ATOM     27  C   UNL     1       1.803  11.996  -6.465  1.00  0.00    -0.000 C 
BRANCH  27  28
ATOM     28  C   UNL     1       1.250  10.583  -6.738  1.00  0.00    -0.000 C 
BRANCH  28  29
ATOM     29  C   UNL     1       1.484  10.058  -8.165  1.00  0.00    -0.003 C 
ATOM     30  C   UNL     1       2.961  10.032  -8.555  1.00  0.00     0.004 C 
ENDBRANCH  28  29
ENDBRANCH  27  28
ENDBRANCH  26  27
ENDBRANCH  25  26
ENDBRANCH  24  25
ENDBRANCH  23  24
ENDBRANCH  22  23
ENDBRANCH  21  22
ENDBRANCH  20  21
ENDBRANCH  19  20
ENDBRANCH  18  19
ENDBRANCH  17  18
ENDBRANCH   1  17
TORSDOF 26
ENDMDL
MODEL 5
REMARK VINA RESULT:    -4.650      3.042      7.485
REMARK INTER + INTRA:         -15.927
REMARK INTER:                 -10.768
REMARK INTRA:                  -5.159
REMARK UNBOUND:                -4.210
REMARK SMILES CCCCCCCCCCCCCCCCCCCCCCCCCCCC(=O)[O-]
REMARK SMILES IDX 15 1 16 2 17 3 18 4 19 5 20 6 21 7 22 8 23 9 24 10 25 11
REMARK SMILES IDX 26 12 27 13 28 14 29 15 30 16 14 17 13 18 12 19 11 20 10 21
REMARK SMILES IDX 9 22 8 23 7 24 6 25 5 26 4 27 3 28 2 29 1 30
REMARK H PARENT
REMARK Flexibility Score: inf
ROOT
ATOM      1  C   UNL     1      -3.486  10.525  -7.203  1.00  0.00     0.000 C 
ENDROOT
BRANCH   1   2
ATOM      2  C   UNL     1      -2.966  11.433  -6.076  1.00  0.00     0.000 C 
BRANCH   2   3
ATOM      3  C   UNL     1      -2.325  10.639  -4.928  1.00  0.00     0.000 C 
BRANCH   3   4
ATOM      4  C   UNL     1      -2.479  11.381  -3.594  1.00  0.00     0.000 C 
BRANCH   4   5
ATOM      5  C   UNL     1      -2.714  12.879  -3.825  1.00  0.00     0.000 C 
BRANCH   5   6
ATOM      6  C   UNL     1      -1.851  13.724  -2.876  1.00  0.00     0.000 C 
BRANCH   6   7
ATOM      7  C   UNL     1      -0.657  14.392  -3.583  1.00  0.00     0.000 C 
BRANCH   7   8
ATOM      8  C   UNL     1       0.662  13.600  -3.524  1.00  0.00     0.000 C 
BRANCH   8   9
ATOM      9  C   UNL     1       0.922  12.682  -4.734  1.00  0.00     0.000 C 
BRANCH   9  10
ATOM     10  C   UNL     1       0.225  13.152  -6.030  1.00  0.00     0.000 C 
BRANCH  10  11
ATOM     11  C   UNL     1       0.491  12.246  -7.246  1.00  0.00     0.000 C 
BRANCH  11  12
ATOM     12  C   UNL     1       0.828  10.802  -6.841  1.00  0.00     0.006 C 
BRANCH  12  13
ATOM     13  C   UNL     1       1.173   9.956  -8.070  1.00  0.00     0.053 C 
BRANCH  13  14
ATOM     14  C   UNL     1       2.634  10.048  -8.376  1.00  0.00     0.041 C 
ATOM     15  O   UNL     1       3.088   9.571  -9.449  1.00  0.00    -0.550 OA
ATOM     16  O   UNL     1       3.489  10.704  -7.498  1.00  0.00    -0.550 OA
ENDBRANCH  13  14
ENDBRANCH  12  13
ENDBRANCH  11  12
ENDBRANCH  10  11
ENDBRANCH   9  10
ENDBRANCH   8   9
ENDBRANCH   7   8
ENDBRANCH   6   7
ENDBRANCH   5   6
ENDBRANCH   4   5
ENDBRANCH   3   4
ENDBRANCH   2   3
ENDBRANCH   1   2
BRANCH   1  17
ATOM     17  C   UNL     1      -2.557  10.511  -8.427  1.00  0.00     0.000 C 
BRANCH  17  18
ATOM     18  C   UNL     1      -3.211  11.217  -9.621  1.00  0.00     0.000 C 
BRANCH  18  19
ATOM     19  C   UNL     1      -4.310  10.342 -10.240  1.00  0.00     0.000 C 
BRANCH  19  20
ATOM     20  C   UNL     1      -5.628  11.103 -10.449  1.00  0.00     0.000 C 
BRANCH  20  21
ATOM     21  C   UNL     1      -6.337  11.441  -9.126  1.00  0.00     0.000 C 
BRANCH  21  22
ATOM     22  C   UNL     1      -6.308  12.946  -8.798  1.00  0.00    -0.000 C 
BRANCH  22  23
ATOM     23  C   UNL     1      -5.996  13.288  -7.330  1.00  0.00    -0.000 C 
BRANCH  23  24
ATOM     24  C   UNL     1      -6.676  12.331  -6.334  1.00  0.00    -0.000 C 
BRANCH  24  25
ATOM     25  C   UNL     1      -6.273  12.614  -4.877  1.00  0.00    -0.000 C 
BRANCH  25  26
ATOM     26  C   UNL     1      -6.343  11.361  -3.987  1.00  0.00    -0.000 C 
BRANCH  26  27
ATOM     27  C   UNL     1      -6.391  10.054  -4.799  1.00  0.00    -0.000 C 
BRANCH  27  28
ATOM     28  C   UNL     1      -5.368   8.981  -4.375  1.00  0.00    -0.000 C 
BRANCH  28  29
ATOM     29  C   UNL     1      -5.554   7.606  -5.040  1.00  0.00    -0.003 C 
ATOM     30  C   UNL     1      -4.875   6.475  -4.270  1.00  0.00     0.004 C 
ENDBRANCH  28  29
ENDBRANCH  27  28
ENDBRANCH  26  27
ENDBRANCH  25  26
ENDBRANCH  24  25
ENDBRANCH  23  24
ENDBRANCH  22  23
ENDBRANCH  21  22
ENDBRANCH  20  21
ENDBRANCH  19  20
ENDBRANCH  18  19
ENDBRANCH  17  18
ENDBRANCH   1  17
TORSDOF 26
ENDMDL
MODEL 6
REMARK VINA RESULT:    -4.629      3.537      6.537
REMARK INTER + INTRA:         -15.876
REMARK INTER:                 -11.697
REMARK INTRA:                  -4.178
REMARK UNBOUND:                -4.210
REMARK SMILES CCCCCCCCCCCCCCCCCCCCCCCCCCCC(=O)[O-]
REMARK SMILES IDX 15 1 16 2 17 3 18 4 19 5 20 6 21 7 22 8 23 9 24 10 25 11
REMARK SMILES IDX 26 12 27 13 28 14 29 15 30 16 14 17 13 18 12 19 11 20 10 21
REMARK SMILES IDX 9 22 8 23 7 24 6 25 5 26 4 27 3 28 2 29 1 30
REMARK H PARENT
REMARK Flexibility Score: inf
ROOT
ATOM      1  C   UNL     1      -3.828   9.879 -10.055  1.00  0.00     0.000 C 
ENDROOT
BRANCH   1   2
ATOM      2  C   UNL     1      -4.687  11.149 -10.162  1.00  0.00     0.000 C 
BRANCH   2   3
ATOM      3  C   UNL     1      -6.139  10.847 -10.563  1.00  0.00     0.000 C 
BRANCH   3   4
ATOM      4  C   UNL     1      -7.111  11.228  -9.438  1.00  0.00     0.000 C 
BRANCH   4   5
ATOM      5  C   UNL     1      -6.646  12.501  -8.720  1.00  0.00     0.000 C 
BRANCH   5   6
ATOM      6  C   UNL     1      -7.007  12.454  -7.228  1.00  0.00     0.000 C 
BRANCH   6   7
ATOM      7  C   UNL     1      -5.847  12.890  -6.315  1.00  0.00     0.000 C 
BRANCH   7   8
ATOM      8  C   UNL     1      -4.456  12.878  -6.976  1.00  0.00     0.000 C 
BRANCH   8   9
ATOM      9  C   UNL     1      -3.331  12.282  -6.108  1.00  0.00     0.000 C 
BRANCH   9  10
ATOM     10  C   UNL     1      -2.532  11.161  -6.810  1.00  0.00     0.000 C 
BRANCH  10  11
ATOM     11  C   UNL     1      -1.618  11.662  -7.942  1.00  0.00     0.000 C 
BRANCH  11  12
ATOM     12  C   UNL     1      -0.400  12.437  -7.416  1.00  0.00     0.006 C 
BRANCH  12  13
ATOM     13  C   UNL     1       0.901  11.855  -7.977  1.00  0.00     0.053 C 
BRANCH  13  14
ATOM     14  C   UNL     1       1.485  10.861  -7.023  1.00  0.00     0.041 C 
ATOM     15  O   UNL     1       1.584  11.139  -5.799  1.00  0.00    -0.550 OA
ATOM     16  O   UNL     1       1.874   9.606  -7.477  1.00  0.00    -0.550 OA
ENDBRANCH  13  14
ENDBRANCH  12  13
ENDBRANCH  11  12
ENDBRANCH  10  11
ENDBRANCH   9  10
ENDBRANCH   8   9
ENDBRANCH   7   8
ENDBRANCH   6   7
ENDBRANCH   5   6
ENDBRANCH   4   5
ENDBRANCH   3   4
ENDBRANCH   2   3
ENDBRANCH   1   2
BRANCH   1  17
ATOM     17  C   UNL     1      -4.311   8.759 -10.991  1.00  0.00     0.000 C 
BRANCH  17  18
ATOM     18  C   UNL     1      -4.097   7.380 -10.355  1.00  0.00     0.000 C 
BRANCH  18  19
ATOM     19  C   UNL     1      -5.376   6.892  -9.662  1.00  0.00     0.000 C 
BRANCH  19  20
ATOM     20  C   UNL     1      -5.335   7.081  -8.137  1.00  0.00     0.000 C 
BRANCH  20  21
ATOM     21  C   UNL     1      -6.256   8.214  -7.652  1.00  0.00     0.000 C 
BRANCH  21  22
ATOM     22  C   UNL     1      -5.542   9.209  -6.718  1.00  0.00    -0.000 C 
BRANCH  22  23
ATOM     23  C   UNL     1      -5.754   8.961  -5.214  1.00  0.00    -0.000 C 
BRANCH  23  24
ATOM     24  C   UNL     1      -4.444   9.010  -4.408  1.00  0.00    -0.000 C 
BRANCH  24  25
ATOM     25  C   UNL     1      -4.400   7.953  -3.292  1.00  0.00    -0.000 C 
BRANCH  25  26
ATOM     26  C   UNL     1      -3.908   6.583  -3.790  1.00  0.00    -0.000 C 
BRANCH  26  27
ATOM     27  C   UNL     1      -2.464   6.272  -3.355  1.00  0.00    -0.000 C 
BRANCH  27  28
ATOM     28  C   UNL     1      -1.701   5.290  -4.266  1.00  0.00    -0.000 C 
BRANCH  28  29
ATOM     29  C   UNL     1      -0.495   4.596  -3.608  1.00  0.00    -0.003 C 
ATOM     30  C   UNL     1       0.737   4.562  -4.511  1.00  0.00     0.004 C 
ENDBRANCH  28  29
ENDBRANCH  27  28
ENDBRANCH  26  27
ENDBRANCH  25  26
ENDBRANCH  24  25
ENDBRANCH  23  24
ENDBRANCH  22  23
ENDBRANCH  21  22
ENDBRANCH  20  21
ENDBRANCH  19  20
ENDBRANCH  18  19
ENDBRANCH  17  18
ENDBRANCH   1  17
TORSDOF 26
ENDMDL
MODEL 7
REMARK VINA RESULT:    -4.502      2.675      7.719
REMARK INTER + INTRA:         -15.554
REMARK INTER:                 -11.474
REMARK INTRA:                  -4.080
REMARK UNBOUND:                -4.210
REMARK SMILES CCCCCCCCCCCCCCCCCCCCCCCCCCCC(=O)[O-]
REMARK SMILES IDX 15 1 16 2 17 3 18 4 19 5 20 6 21 7 22 8 23 9 24 10 25 11
REMARK SMILES IDX 26 12 27 13 28 14 29 15 30 16 14 17 13 18 12 19 11 20 10 21
REMARK SMILES IDX 9 22 8 23 7 24 6 25 5 26 4 27 3 28 2 29 1 30
REMARK H PARENT
REMARK Flexibility Score: inf
ROOT
ATOM      1  C   UNL     1      -2.473  10.624  -4.514  1.00  0.00     0.000 C 
ENDROOT
BRANCH   1   2
ATOM      2  C   UNL     1      -2.694  10.707  -6.033  1.00  0.00     0.000 C 
BRANCH   2   3
ATOM      3  C   UNL     1      -3.922  11.554  -6.404  1.00  0.00     0.000 C 
BRANCH   3   4
ATOM      4  C   UNL     1      -3.512  12.786  -7.222  1.00  0.00     0.000 C 
BRANCH   4   5
ATOM      5  C   UNL     1      -2.087  12.632  -7.769  1.00  0.00     0.000 C 
BRANCH   5   6
ATOM      6  C   UNL     1      -1.109  13.549  -7.019  1.00  0.00     0.000 C 
BRANCH   6   7
ATOM      7  C   UNL     1      -1.780  14.346  -5.886  1.00  0.00     0.000 C 
BRANCH   7   8
ATOM      8  C   UNL     1      -0.839  14.779  -4.747  1.00  0.00     0.000 C 
BRANCH   8   9
ATOM      9  C   UNL     1       0.537  14.083  -4.744  1.00  0.00     0.000 C 
BRANCH   9  10
ATOM     10  C   UNL     1       0.568  12.771  -3.930  1.00  0.00     0.000 C 
BRANCH  10  11
ATOM     11  C   UNL     1       1.499  11.695  -4.516  1.00  0.00     0.000 C 
BRANCH  11  12
ATOM     12  C   UNL     1       1.992  12.049  -5.928  1.00  0.00     0.006 C 
BRANCH  12  13
ATOM     13  C   UNL     1       3.100  11.092  -6.377  1.00  0.00     0.053 C 
BRANCH  13  14
ATOM     14  C   UNL     1       2.677  10.334  -7.595  1.00  0.00     0.041 C 
ATOM     15  O   UNL     1       3.398  10.340  -8.627  1.00  0.00    -0.550 OA
ATOM     16  O   UNL     1       1.511   9.580  -7.574  1.00  0.00    -0.550 OA
ENDBRANCH  13  14
ENDBRANCH  12  13
ENDBRANCH  11  12
ENDBRANCH  10  11
ENDBRANCH   9  10
ENDBRANCH   8   9
ENDBRANCH   7   8
ENDBRANCH   6   7
ENDBRANCH   5   6
ENDBRANCH   4   5
ENDBRANCH   3   4
ENDBRANCH   2   3
ENDBRANCH   1   2
BRANCH   1  17
ATOM     17  C   UNL     1      -3.752  10.915  -3.714  1.00  0.00     0.000 C 
BRANCH  17  18
ATOM     18  C   UNL     1      -4.554   9.630  -3.472  1.00  0.00     0.000 C 
BRANCH  18  19
ATOM     19  C   UNL     1      -5.996   9.781  -3.976  1.00  0.00     0.000 C 
BRANCH  19  20
ATOM     20  C   UNL     1      -6.498   8.534  -4.720  1.00  0.00     0.000 C 
BRANCH  20  21
ATOM     21  C   UNL     1      -5.682   8.226  -5.987  1.00  0.00     0.000 C 
BRANCH  21  22
ATOM     22  C   UNL     1      -6.462   8.511  -7.285  1.00  0.00    -0.000 C 
BRANCH  22  23
ATOM     23  C   UNL     1      -6.328   9.946  -7.825  1.00  0.00    -0.000 C 
BRANCH  23  24
ATOM     24  C   UNL     1      -7.098  10.167  -9.139  1.00  0.00    -0.000 C 
BRANCH  24  25
ATOM     25  C   UNL     1      -6.188  10.648 -10.281  1.00  0.00    -0.000 C 
BRANCH  25  26
ATOM     26  C   UNL     1      -4.693  10.492  -9.956  1.00  0.00    -0.000 C 
BRANCH  26  27
ATOM     27  C   UNL     1      -4.029   9.343 -10.737  1.00  0.00    -0.000 C 
BRANCH  27  28
ATOM     28  C   UNL     1      -4.299   7.930 -10.182  1.00  0.00    -0.000 C 
BRANCH  28  29
ATOM     29  C   UNL     1      -5.133   7.019 -11.099  1.00  0.00    -0.003 C 
ATOM     30  C   UNL     1      -6.369   6.449 -10.406  1.00  0.00     0.004 C 
ENDBRANCH  28  29
ENDBRANCH  27  28
ENDBRANCH  26  27
ENDBRANCH  25  26
ENDBRANCH  24  25
ENDBRANCH  23  24
ENDBRANCH  22  23
ENDBRANCH  21  22
ENDBRANCH  20  21
ENDBRANCH  19  20
ENDBRANCH  18  19
ENDBRANCH  17  18
ENDBRANCH   1  17
TORSDOF 26
ENDMDL
MODEL 8
REMARK VINA RESULT:    -4.358      1.217      2.759
REMARK INTER + INTRA:         -15.192
REMARK INTER:                 -11.116
REMARK INTRA:                  -4.076
REMARK UNBOUND:                -4.210
REMARK SMILES CCCCCCCCCCCCCCCCCCCCCCCCCCCC(=O)[O-]
REMARK SMILES IDX 15 1 16 2 17 3 18 4 19 5 20 6 21 7 22 8 23 9 24 10 25 11
REMARK SMILES IDX 26 12 27 13 28 14 29 15 30 16 14 17 13 18 12 19 11 20 10 21
REMARK SMILES IDX 9 22 8 23 7 24 6 25 5 26 4 27 3 28 2 29 1 30
REMARK H PARENT
REMARK Flexibility Score: inf
ROOT
ATOM      1  C   UNL     1      -4.030   9.690  -5.738  1.00  0.00     0.000 C 
ENDROOT
BRANCH   1   2
ATOM      2  C   UNL     1      -5.460   9.998  -5.266  1.00  0.00     0.000 C 
BRANCH   2   3
ATOM      3  C   UNL     1      -6.481   9.959  -6.415  1.00  0.00     0.000 C 
BRANCH   3   4
ATOM      4  C   UNL     1      -6.988  11.368  -6.747  1.00  0.00     0.000 C 
BRANCH   4   5
ATOM      5  C   UNL     1      -5.870  12.405  -6.587  1.00  0.00     0.000 C 
BRANCH   5   6
ATOM      6  C   UNL     1      -5.862  13.391  -7.764  1.00  0.00     0.000 C 
BRANCH   6   7
ATOM      7  C   UNL     1      -4.829  13.026  -8.847  1.00  0.00     0.000 C 
BRANCH   7   8
ATOM      8  C   UNL     1      -3.877  11.873  -8.477  1.00  0.00     0.000 C 
BRANCH   8   9
ATOM      9  C   UNL     1      -3.575  10.889  -9.625  1.00  0.00     0.000 C 
BRANCH   9  10
ATOM     10  C   UNL     1      -4.732  10.745 -10.639  1.00  0.00     0.000 C 
BRANCH  10  11
ATOM     11  C   UNL     1      -5.912   9.903 -10.123  1.00  0.00     0.000 C 
BRANCH  11  12
ATOM     12  C   UNL     1      -5.462   8.559  -9.529  1.00  0.00     0.006 C 
BRANCH  12  13
ATOM     13  C   UNL     1      -6.588   7.524  -9.603  1.00  0.00     0.053 C 
BRANCH  13  14
ATOM     14  C   UNL     1      -6.298   6.510 -10.665  1.00  0.00     0.041 C 
ATOM     15  O   UNL     1      -7.059   5.519 -10.819  1.00  0.00    -0.550 OA
ATOM     16  O   UNL     1      -5.215   6.686 -11.518  1.00  0.00    -0.550 OA
ENDBRANCH  13  14
ENDBRANCH  12  13
ENDBRANCH  11  12
ENDBRANCH  10  11
ENDBRANCH   9  10
ENDBRANCH   8   9
ENDBRANCH   7   8
ENDBRANCH   6   7
ENDBRANCH   5   6
ENDBRANCH   4   5
ENDBRANCH   3   4
ENDBRANCH   2   3
ENDBRANCH   1   2
BRANCH   1  17
ATOM     17  C   UNL     1      -2.961  10.348  -4.851  1.00  0.00     0.000 C 
BRANCH  17  18
ATOM     18  C   UNL     1      -3.533  11.563  -4.110  1.00  0.00     0.000 C 
BRANCH  18  19
ATOM     19  C   UNL     1      -2.646  12.798  -4.317  1.00  0.00     0.000 C 
BRANCH  19  20
ATOM     20  C   UNL     1      -2.182  13.424  -2.993  1.00  0.00     0.000 C 
BRANCH  20  21
ATOM     21  C   UNL     1      -1.202  14.593  -3.197  1.00  0.00     0.000 C 
BRANCH  21  22
ATOM     22  C   UNL     1       0.274  14.159  -3.120  1.00  0.00    -0.000 C 
BRANCH  22  23
ATOM     23  C   UNL     1       1.107  14.453  -4.380  1.00  0.00    -0.000 C 
BRANCH  23  24
ATOM     24  C   UNL     1       1.856  13.215  -4.906  1.00  0.00    -0.000 C 
BRANCH  24  25
ATOM     25  C   UNL     1       1.212  11.897  -4.446  1.00  0.00    -0.000 C 
BRANCH  25  26
ATOM     26  C   UNL     1       0.275  11.292  -5.505  1.00  0.00    -0.000 C 
BRANCH  26  27
ATOM     27  C   UNL     1       0.310  12.057  -6.840  1.00  0.00    -0.000 C 
BRANCH  27  28
ATOM     28  C   UNL     1       0.440  11.176  -8.099  1.00  0.00    -0.000 C 
BRANCH  28  29
ATOM     29  C   UNL     1       1.447  10.019  -7.980  1.00  0.00    -0.003 C 
ATOM     30  C   UNL     1       2.900  10.491  -7.978  1.00  0.00     0.004 C 
ENDBRANCH  28  29
ENDBRANCH  27  28
ENDBRANCH  26  27
ENDBRANCH  25  26
ENDBRANCH  24  25
ENDBRANCH  23  24
ENDBRANCH  22  23
ENDBRANCH  21  22
ENDBRANCH  20  21
ENDBRANCH  19  20
ENDBRANCH  18  19
ENDBRANCH  17  18
ENDBRANCH   1  17
TORSDOF 26
ENDMDL
MODEL 9
REMARK VINA RESULT:    -4.337      2.971      6.677
REMARK INTER + INTRA:         -15.138
REMARK INTER:                 -11.058
REMARK INTRA:                  -4.081
REMARK UNBOUND:                -4.210
REMARK SMILES CCCCCCCCCCCCCCCCCCCCCCCCCCCC(=O)[O-]
REMARK SMILES IDX 15 1 16 2 17 3 18 4 19 5 20 6 21 7 22 8 23 9 24 10 25 11
REMARK SMILES IDX 26 12 27 13 28 14 29 15 30 16 14 17 13 18 12 19 11 20 10 21
REMARK SMILES IDX 9 22 8 23 7 24 6 25 5 26 4 27 3 28 2 29 1 30
REMARK H PARENT
REMARK Flexibility Score: inf
ROOT
ATOM      1  C   UNL     1       0.738  11.175  -6.562  1.00  0.00     0.000 C 
ENDROOT
BRANCH   1   2
ATOM      2  C   UNL     1       1.242  11.891  -5.298  1.00  0.00     0.000 C 
BRANCH   2   3
ATOM      3  C   UNL     1       0.104  12.545  -4.499  1.00  0.00     0.000 C 
BRANCH   3   4
ATOM      4  C   UNL     1      -0.896  11.492  -4.004  1.00  0.00     0.000 C 
BRANCH   4   5
ATOM      5  C   UNL     1      -1.834  12.082  -2.944  1.00  0.00     0.000 C 
BRANCH   5   6
ATOM      6  C   UNL     1      -3.277  12.154  -3.465  1.00  0.00     0.000 C 
BRANCH   6   7
ATOM      7  C   UNL     1      -4.000  10.795  -3.422  1.00  0.00     0.000 C 
BRANCH   7   8
ATOM      8  C   UNL     1      -5.427  10.796  -4.003  1.00  0.00     0.000 C 
BRANCH   8   9
ATOM      9  C   UNL     1      -5.775   9.571  -4.870  1.00  0.00     0.000 C 
BRANCH   9  10
ATOM     10  C   UNL     1      -6.675   8.539  -4.155  1.00  0.00     0.000 C 
BRANCH  10  11
ATOM     11  C   UNL     1      -6.102   7.111  -4.146  1.00  0.00     0.000 C 
BRANCH  11  12
ATOM     12  C   UNL     1      -4.576   7.088  -4.331  1.00  0.00     0.006 C 
BRANCH  12  13
ATOM     13  C   UNL     1      -3.964   5.850  -3.670  1.00  0.00     0.053 C 
BRANCH  13  14
ATOM     14  C   UNL     1      -2.474   5.966  -3.617  1.00  0.00     0.041 C 
ATOM     15  O   UNL     1      -1.931   6.847  -2.900  1.00  0.00    -0.550 OA
ATOM     16  O   UNL     1      -1.681   5.069  -4.323  1.00  0.00    -0.550 OA
ENDBRANCH  13  14
ENDBRANCH  12  13
ENDBRANCH  11  12
ENDBRANCH  10  11
ENDBRANCH   9  10
ENDBRANCH   8   9
ENDBRANCH   7   8
ENDBRANCH   6   7
ENDBRANCH   5   6
ENDBRANCH   4   5
ENDBRANCH   3   4
ENDBRANCH   2   3
ENDBRANCH   1   2
BRANCH   1  17
ATOM     17  C   UNL     1       0.398  12.153  -7.698  1.00  0.00     0.000 C 
BRANCH  17  18
ATOM     18  C   UNL     1      -1.081  12.047  -8.091  1.00  0.00     0.000 C 
BRANCH  18  19
ATOM     19  C   UNL     1      -1.685  10.725  -7.597  1.00  0.00     0.000 C 
BRANCH  19  20
ATOM     20  C   UNL     1      -3.090  10.901  -7.001  1.00  0.00     0.000 C 
BRANCH  20  21
ATOM     21  C   UNL     1      -3.586  12.356  -7.062  1.00  0.00     0.000 C 
BRANCH  21  22
ATOM     22  C   UNL     1      -5.100  12.463  -7.324  1.00  0.00    -0.000 C 
BRANCH  22  23
ATOM     23  C   UNL     1      -5.491  12.706  -8.793  1.00  0.00    -0.000 C 
BRANCH  23  24
ATOM     24  C   UNL     1      -5.911  11.417  -9.522  1.00  0.00    -0.000 C 
BRANCH  24  25
ATOM     25  C   UNL     1      -4.961  11.058 -10.678  1.00  0.00    -0.000 C 
BRANCH  25  26
ATOM     26  C   UNL     1      -4.093   9.825 -10.373  1.00  0.00    -0.000 C 
BRANCH  26  27
ATOM     27  C   UNL     1      -4.896   8.671  -9.745  1.00  0.00    -0.000 C 
BRANCH  27  28
ATOM     28  C   UNL     1      -5.300   7.547 -10.721  1.00  0.00    -0.000 C 
BRANCH  28  29
ATOM     29  C   UNL     1      -6.094   6.391 -10.087  1.00  0.00    -0.003 C 
ATOM     30  C   UNL     1      -6.743   5.476 -11.124  1.00  0.00     0.004 C 
ENDBRANCH  28  29
ENDBRANCH  27  28
ENDBRANCH  26  27
ENDBRANCH  25  26
ENDBRANCH  24  25
ENDBRANCH  23  24
ENDBRANCH  22  23
ENDBRANCH  21  22
ENDBRANCH  20  21
ENDBRANCH  19  20
ENDBRANCH  18  19
ENDBRANCH  17  18
ENDBRANCH   1  17
TORSDOF 26
ENDMDL
