MODEL 1
REMARK VINA RESULT:    -4.245      0.000      0.000
REMARK INTER + INTRA:          -8.868
REMARK INTER:                  -7.719
REMARK INTRA:                  -1.150
REMARK UNBOUND:                -1.150
REMARK SMILES CCCCCCCCCCCCCCCC(=O)[O-]
REMARK SMILES IDX 9 1 10 2 11 3 12 4 13 5 14 6 15 7 16 8 17 9 18 10 8 11 7 12
REMARK SMILES IDX 6 13 5 14 4 15 3 16 2 17 1 18
REMARK H PARENT
REMARK Flexibility Score: inf
ROOT
ATOM      1  C   UNL     1       9.010 -27.530  32.459  1.00  0.00     0.000 C 
ENDROOT
BRANCH   1   2
ATOM      2  C   UNL     1       8.943 -26.011  32.241  1.00  0.00     0.000 C 
BRANCH   2   3
ATOM      3  C   UNL     1      10.131 -25.469  31.425  1.00  0.00     0.000 C 
BRANCH   3   4
ATOM      4  C   UNL     1      11.074 -26.543  30.855  1.00  0.00     0.000 C 
BRANCH   4   5
ATOM      5  C   UNL     1      12.341 -25.953  30.217  1.00  0.00     0.000 C 
BRANCH   5   6
ATOM      6  C   UNL     1      12.012 -25.244  28.894  1.00  0.00     0.006 C 
BRANCH   6   7
ATOM      7  C   UNL     1      11.257 -26.157  27.919  1.00  0.00     0.053 C 
BRANCH   7   8
ATOM      8  C   UNL     1       9.865 -25.668  27.663  1.00  0.00     0.041 C 
ATOM      9  O   UNL     1       8.946 -26.486  27.393  1.00  0.00    -0.550 OA
ATOM     10  O   UNL     1       9.574 -24.312  27.755  1.00  0.00    -0.550 OA
ENDBRANCH   7   8
ENDBRANCH   6   7
ENDBRANCH   5   6
ENDBRANCH   4   5
ENDBRANCH   3   4
ENDBRANCH   2   3
ENDBRANCH   1   2
BRANCH   1  11
ATOM     11  C   UNL     1       8.263 -27.934  33.736  1.00  0.00     0.000 C 
BRANCH  11  12
ATOM     12  C   UNL     1       7.622 -29.319  33.584  1.00  0.00    -0.000 C 
BRANCH  12  13
ATOM     13  C   UNL     1       8.361 -30.153  32.527  1.00  0.00    -0.000 C 
BRANCH  13  14
ATOM     14  C   UNL     1       7.646 -31.476  32.207  1.00  0.00    -0.000 C 
BRANCH  14  15
ATOM     15  C   UNL     1       8.399 -32.700  32.756  1.00  0.00    -0.000 C 
BRANCH  15  16
ATOM     16  C   UNL     1       9.721 -32.327  33.451  1.00  0.00    -0.000 C 
BRANCH  16  17
ATOM     17  C   UNL     1       9.737 -32.535  34.976  1.00  0.00    -0.003 C 
ATOM     18  C   UNL     1      10.226 -31.308  35.744  1.00  0.00     0.004 C 
ENDBRANCH  16  17
ENDBRANCH  15  16
ENDBRANCH  14  15
ENDBRANCH  13  14
ENDBRANCH  12  13
ENDBRANCH  11  12
ENDBRANCH   1  11
TORSDOF 14
ENDMDL
MODEL 2
REMARK VINA RESULT:    -4.227      1.350      1.727
REMARK INTER + INTRA:          -8.836
REMARK INTER:                  -7.726
REMARK INTRA:                  -1.110
REMARK UNBOUND:                -1.150
REMARK SMILES CCCCCCCCCCCCCCCC(=O)[O-]
REMARK SMILES IDX 9 1 10 2 11 3 12 4 13 5 14 6 15 7 16 8 17 9 18 10 8 11 7 12
REMARK SMILES IDX 6 13 5 14 4 15 3 16 2 17 1 18
REMARK H PARENT
REMARK Flexibility Score: inf
ROOT
ATOM      1  C   UNL     1       9.083 -27.444  32.020  1.00  0.00     0.000 C 
ENDROOT
BRANCH   1   2
ATOM      2  C   UNL     1       9.462 -25.961  31.894  1.00  0.00     0.000 C 
BRANCH   2   3
ATOM      3  C   UNL     1      10.690 -25.729  30.994  1.00  0.00     0.000 C 
BRANCH   3   4
ATOM      4  C   UNL     1      10.760 -24.340  30.334  1.00  0.00     0.000 C 
BRANCH   4   5
ATOM      5  C   UNL     1      10.040 -24.283  28.978  1.00  0.00     0.000 C 
BRANCH   5   6
ATOM      6  C   UNL     1      10.553 -25.383  28.036  1.00  0.00     0.006 C 
BRANCH   6   7
ATOM      7  C   UNL     1       9.428 -26.310  27.559  1.00  0.00     0.053 C 
BRANCH   7   8
ATOM      8  C   UNL     1       9.854 -27.745  27.550  1.00  0.00     0.041 C 
ATOM      9  O   UNL     1      10.482 -28.226  28.531  1.00  0.00    -0.550 OA
ATOM     10  O   UNL     1       9.530 -28.562  26.474  1.00  0.00    -0.550 OA
ENDBRANCH   7   8
ENDBRANCH   6   7
ENDBRANCH   5   6
ENDBRANCH   4   5
ENDBRANCH   3   4
ENDBRANCH   2   3
ENDBRANCH   1   2
BRANCH   1  11
ATOM     11  C   UNL     1       8.466 -27.738  33.393  1.00  0.00     0.000 C 
BRANCH  11  12
ATOM     12  C   UNL     1       7.746 -29.093  33.395  1.00  0.00    -0.000 C 
BRANCH  12  13
ATOM     13  C   UNL     1       8.499 -30.115  32.530  1.00  0.00    -0.000 C 
BRANCH  13  14
ATOM     14  C   UNL     1       7.675 -31.384  32.258  1.00  0.00    -0.000 C 
BRANCH  14  15
ATOM     15  C   UNL     1       8.315 -32.644  32.866  1.00  0.00    -0.000 C 
BRANCH  15  16
ATOM     16  C   UNL     1       9.629 -32.347  33.611  1.00  0.00    -0.000 C 
BRANCH  16  17
ATOM     17  C   UNL     1       9.610 -32.665  35.116  1.00  0.00    -0.003 C 
ATOM     18  C   UNL     1      10.355 -31.628  35.957  1.00  0.00     0.004 C 
ENDBRANCH  16  17
ENDBRANCH  15  16
ENDBRANCH  14  15
ENDBRANCH  13  14
ENDBRANCH  12  13
ENDBRANCH  11  12
ENDBRANCH   1  11
TORSDOF 14
ENDMDL
MODEL 3
REMARK VINA RESULT:    -4.200      2.828      7.224
REMARK INTER + INTRA:          -8.787
REMARK INTER:                  -7.348
REMARK INTRA:                  -1.440
REMARK UNBOUND:                -1.150
REMARK SMILES CCCCCCCCCCCCCCCC(=O)[O-]
REMARK SMILES IDX 9 1 10 2 11 3 12 4 13 5 14 6 15 7 16 8 17 9 18 10 8 11 7 12
REMARK SMILES IDX 6 13 5 14 4 15 3 16 2 17 1 18
REMARK H PARENT
REMARK Flexibility Score: inf
ROOT
ATOM      1  C   UNL     1       9.541 -27.629  31.630  1.00  0.00     0.000 C 
ENDROOT
BRANCH   1   2
ATOM      2  C   UNL     1       8.743 -27.247  32.885  1.00  0.00     0.000 C 
BRANCH   2   3
ATOM      3  C   UNL     1       8.051 -28.453  33.548  1.00  0.00     0.000 C 
BRANCH   3   4
ATOM      4  C   UNL     1       8.055 -29.746  32.712  1.00  0.00     0.000 C 
BRANCH   4   5
ATOM      5  C   UNL     1       8.912 -30.859  33.333  1.00  0.00     0.000 C 
BRANCH   5   6
ATOM      6  C   UNL     1       8.335 -32.245  33.004  1.00  0.00     0.006 C 
BRANCH   6   7
ATOM      7  C   UNL     1       7.283 -32.186  31.889  1.00  0.00     0.053 C 
BRANCH   7   8
ATOM      8  C   UNL     1       7.711 -32.955  30.678  1.00  0.00     0.041 C 
ATOM      9  O   UNL     1       8.463 -32.420  29.820  1.00  0.00    -0.550 OA
ATOM     10  O   UNL     1       7.309 -34.274  30.512  1.00  0.00    -0.550 OA
ENDBRANCH   7   8
ENDBRANCH   6   7
ENDBRANCH   5   6
ENDBRANCH   4   5
ENDBRANCH   3   4
ENDBRANCH   2   3
ENDBRANCH   1   2
BRANCH   1  11
ATOM     11  C   UNL     1      10.683 -26.635  31.382  1.00  0.00     0.000 C 
BRANCH  11  12
ATOM     12  C   UNL     1      10.145 -25.210  31.209  1.00  0.00    -0.000 C 
BRANCH  12  13
ATOM     13  C   UNL     1      10.967 -24.435  30.168  1.00  0.00    -0.000 C 
BRANCH  13  14
ATOM     14  C   UNL     1      10.149 -24.066  28.920  1.00  0.00    -0.000 C 
BRANCH  14  15
ATOM     15  C   UNL     1      10.530 -24.914  27.694  1.00  0.00    -0.000 C 
BRANCH  15  16
ATOM     16  C   UNL     1       9.422 -25.901  27.282  1.00  0.00    -0.000 C 
BRANCH  16  17
ATOM     17  C   UNL     1       9.597 -27.335  27.815  1.00  0.00    -0.003 C 
ATOM     18  C   UNL     1      11.058 -27.781  27.867  1.00  0.00     0.004 C 
ENDBRANCH  16  17
ENDBRANCH  15  16
ENDBRANCH  14  15
ENDBRANCH  13  14
ENDBRANCH  12  13
ENDBRANCH  11  12
ENDBRANCH   1  11
TORSDOF 14
ENDMDL
MODEL 4
REMARK VINA RESULT:    -4.165      2.233      4.253
REMARK INTER + INTRA:          -8.723
REMARK INTER:                  -7.570
REMARK INTRA:                  -1.153
REMARK UNBOUND:                -1.150
REMARK SMILES CCCCCCCCCCCCCCCC(=O)[O-]
REMARK SMILES IDX 9 1 10 2 11 3 12 4 13 5 14 6 15 7 16 8 17 9 18 10 8 11 7 12
REMARK SMILES IDX 6 13 5 14 4 15 3 16 2 17 1 18
REMARK H PARENT
REMARK Flexibility Score: inf
ROOT
ATOM      1  C   UNL     1      10.832 -24.137  30.255  1.00  0.00     0.000 C 
ENDROOT
BRANCH   1   2
ATOM      2  C   UNL     1      11.422 -24.775  28.990  1.00  0.00     0.000 C 
BRANCH   2   3
ATOM      3  C   UNL     1      10.883 -24.147  27.691  1.00  0.00     0.000 C 
BRANCH   3   4
ATOM      4  C   UNL     1       9.442 -24.543  27.326  1.00  0.00     0.000 C 
BRANCH   4   5
ATOM      5  C   UNL     1       9.253 -26.062  27.191  1.00  0.00     0.000 C 
BRANCH   5   6
ATOM      6  C   UNL     1       8.204 -26.392  26.119  1.00  0.00     0.006 C 
BRANCH   6   7
ATOM      7  C   UNL     1       8.591 -25.842  24.739  1.00  0.00     0.053 C 
BRANCH   7   8
ATOM      8  C   UNL     1       7.436 -25.169  24.064  1.00  0.00     0.041 C 
ATOM      9  O   UNL     1       6.993 -25.614  22.972  1.00  0.00    -0.550 OA
ATOM     10  O   UNL     1       6.825 -24.072  24.657  1.00  0.00    -0.550 OA
ENDBRANCH   7   8
ENDBRANCH   6   7
ENDBRANCH   5   6
ENDBRANCH   4   5
ENDBRANCH   3   4
ENDBRANCH   2   3
ENDBRANCH   1   2
BRANCH   1  11
ATOM     11  C   UNL     1      10.015 -25.158  31.056  1.00  0.00     0.000 C 
BRANCH  11  12
ATOM     12  C   UNL     1      10.432 -26.592  30.707  1.00  0.00    -0.000 C 
BRANCH  12  13
ATOM     13  C   UNL     1       9.530 -27.614  31.418  1.00  0.00    -0.000 C 
BRANCH  13  14
ATOM     14  C   UNL     1       8.778 -27.010  32.615  1.00  0.00    -0.000 C 
BRANCH  14  15
ATOM     15  C   UNL     1       8.521 -28.040  33.729  1.00  0.00    -0.000 C 
BRANCH  15  16
ATOM     16  C   UNL     1       7.756 -29.280  33.232  1.00  0.00    -0.000 C 
BRANCH  16  17
ATOM     17  C   UNL     1       8.554 -30.595  33.268  1.00  0.00    -0.003 C 
ATOM     18  C   UNL     1       7.910 -31.710  32.443  1.00  0.00     0.004 C 
ENDBRANCH  16  17
ENDBRANCH  15  16
ENDBRANCH  14  15
ENDBRANCH  13  14
ENDBRANCH  12  13
ENDBRANCH  11  12
ENDBRANCH   1  11
TORSDOF 14
ENDMDL
MODEL 5
REMARK VINA RESULT:    -4.142      3.709      7.723
REMARK INTER + INTRA:          -8.681
REMARK INTER:                  -7.534
REMARK INTRA:                  -1.147
REMARK UNBOUND:                -1.150
REMARK SMILES CCCCCCCCCCCCCCCC(=O)[O-]
REMARK SMILES IDX 9 1 10 2 11 3 12 4 13 5 14 6 15 7 16 8 17 9 18 10 8 11 7 12
REMARK SMILES IDX 6 13 5 14 4 15 3 16 2 17 1 18
REMARK H PARENT
REMARK Flexibility Score: inf
ROOT
ATOM      1  C   UNL     1       8.245 -27.924  33.819  1.00  0.00     0.000 C 
ENDROOT
BRANCH   1   2
ATOM      2  C   UNL     1       8.873 -29.318  33.961  1.00  0.00     0.000 C 
BRANCH   2   3
ATOM      3  C   UNL     1       8.849 -30.125  32.649  1.00  0.00     0.000 C 
BRANCH   3   4
ATOM      4  C   UNL     1       7.705 -31.148  32.536  1.00  0.00     0.000 C 
BRANCH   4   5
ATOM      5  C   UNL     1       8.183 -32.602  32.671  1.00  0.00     0.000 C 
BRANCH   5   6
ATOM      6  C   UNL     1       9.626 -32.658  33.197  1.00  0.00     0.006 C 
BRANCH   6   7
ATOM      7  C   UNL     1       9.701 -33.210  34.627  1.00  0.00     0.053 C 
BRANCH   7   8
ATOM      8  C   UNL     1      10.688 -32.457  35.463  1.00  0.00     0.041 C 
ATOM      9  O   UNL     1      10.290 -31.616  36.312  1.00  0.00    -0.550 OA
ATOM     10  O   UNL     1      12.049 -32.709  35.331  1.00  0.00    -0.550 OA
ENDBRANCH   7   8
ENDBRANCH   6   7
ENDBRANCH   5   6
ENDBRANCH   4   5
ENDBRANCH   3   4
ENDBRANCH   2   3
ENDBRANCH   1   2
BRANCH   1  11
ATOM     11  C   UNL     1       8.488 -27.353  32.417  1.00  0.00     0.000 C 
BRANCH  11  12
ATOM     12  C   UNL     1       8.800 -25.852  32.480  1.00  0.00    -0.000 C 
BRANCH  12  13
ATOM     13  C   UNL     1       9.895 -25.477  31.470  1.00  0.00    -0.000 C 
BRANCH  13  14
ATOM     14  C   UNL     1      10.787 -26.670  31.090  1.00  0.00    -0.000 C 
BRANCH  14  15
ATOM     15  C   UNL     1      11.102 -26.714  29.585  1.00  0.00    -0.000 C 
BRANCH  15  16
ATOM     16  C   UNL     1       9.907 -26.291  28.711  1.00  0.00    -0.000 C 
BRANCH  16  17
ATOM     17  C   UNL     1      10.032 -24.899  28.067  1.00  0.00    -0.003 C 
ATOM     18  C   UNL     1      11.474 -24.397  28.000  1.00  0.00     0.004 C 
ENDBRANCH  16  17
ENDBRANCH  15  16
ENDBRANCH  14  15
ENDBRANCH  13  14
ENDBRANCH  12  13
ENDBRANCH  11  12
ENDBRANCH   1  11
TORSDOF 14
ENDMDL
MODEL 6
REMARK VINA RESULT:    -4.107      1.836      3.187
REMARK INTER + INTRA:          -8.619
REMARK INTER:                  -7.587
REMARK INTRA:                  -1.032
REMARK UNBOUND:                -1.150
REMARK SMILES CCCCCCCCCCCCCCCC(=O)[O-]
REMARK SMILES IDX 9 1 10 2 11 3 12 4 13 5 14 6 15 7 16 8 17 9 18 10 8 11 7 12
REMARK SMILES IDX 6 13 5 14 4 15 3 16 2 17 1 18
REMARK H PARENT
REMARK Flexibility Score: inf
ROOT
ATOM      1  C   UNL     1       8.163 -28.326  34.106  1.00  0.00     0.000 C 
ENDROOT
BRANCH   1   2
ATOM      2  C   UNL     1       9.073 -27.418  33.268  1.00  0.00     0.000 C 
BRANCH   2   3
ATOM      3  C   UNL     1       8.755 -27.473  31.762  1.00  0.00     0.000 C 
BRANCH   3   4
ATOM      4  C   UNL     1       9.983 -27.586  30.841  1.00  0.00     0.000 C 
BRANCH   4   5
ATOM      5  C   UNL     1      10.942 -26.392  30.969  1.00  0.00     0.000 C 
BRANCH   5   6
ATOM      6  C   UNL     1      10.219 -25.072  30.662  1.00  0.00     0.006 C 
BRANCH   6   7
ATOM      7  C   UNL     1      11.049 -24.152  29.757  1.00  0.00     0.053 C 
BRANCH   7   8
ATOM      8  C   UNL     1      10.582 -24.199  28.336  1.00  0.00     0.041 C 
ATOM      9  O   UNL     1       9.527 -24.818  28.035  1.00  0.00    -0.550 OA
ATOM     10  O   UNL     1      11.293 -23.532  27.346  1.00  0.00    -0.550 OA
ENDBRANCH   7   8
ENDBRANCH   6   7
ENDBRANCH   5   6
ENDBRANCH   4   5
ENDBRANCH   3   4
ENDBRANCH   2   3
ENDBRANCH   1   2
BRANCH   1  11
ATOM     11  C   UNL     1       7.805 -29.605  33.338  1.00  0.00     0.000 C 
BRANCH  11  12
ATOM     12  C   UNL     1       8.845 -30.704  33.584  1.00  0.00    -0.000 C 
BRANCH  12  13
ATOM     13  C   UNL     1       8.497 -31.975  32.795  1.00  0.00    -0.000 C 
BRANCH  13  14
ATOM     14  C   UNL     1       7.428 -31.731  31.717  1.00  0.00    -0.000 C 
BRANCH  14  15
ATOM     15  C   UNL     1       6.554 -32.971  31.462  1.00  0.00    -0.000 C 
BRANCH  15  16
ATOM     16  C   UNL     1       6.187 -33.150  29.977  1.00  0.00    -0.000 C 
BRANCH  16  17
ATOM     17  C   UNL     1       7.364 -33.011  28.995  1.00  0.00    -0.003 C 
ATOM     18  C   UNL     1       8.279 -34.236  28.979  1.00  0.00     0.004 C 
ENDBRANCH  16  17
ENDBRANCH  15  16
ENDBRANCH  14  15
ENDBRANCH  13  14
ENDBRANCH  12  13
ENDBRANCH  11  12
ENDBRANCH   1  11
TORSDOF 14
ENDMDL
MODEL 7
REMARK VINA RESULT:    -4.093      2.644      7.264
REMARK INTER + INTRA:          -8.592
REMARK INTER:                  -7.388
REMARK INTRA:                  -1.204
REMARK UNBOUND:                -1.150
REMARK SMILES CCCCCCCCCCCCCCCC(=O)[O-]
REMARK SMILES IDX 9 1 10 2 11 3 12 4 13 5 14 6 15 7 16 8 17 9 18 10 8 11 7 12
REMARK SMILES IDX 6 13 5 14 4 15 3 16 2 17 1 18
REMARK H PARENT
REMARK Flexibility Score: inf
ROOT
ATOM      1  C   UNL     1      10.501 -26.601  31.140  1.00  0.00     0.000 C 
ENDROOT
BRANCH   1   2
ATOM      2  C   UNL     1       9.347 -27.558  31.472  1.00  0.00     0.000 C 
BRANCH   2   3
ATOM      3  C   UNL     1       8.511 -27.094  32.680  1.00  0.00     0.000 C 
BRANCH   3   4
ATOM      4  C   UNL     1       8.202 -28.189  33.717  1.00  0.00     0.000 C 
BRANCH   4   5
ATOM      5  C   UNL     1       7.775 -29.518  33.076  1.00  0.00     0.000 C 
BRANCH   5   6
ATOM      6  C   UNL     1       8.774 -30.636  33.410  1.00  0.00     0.006 C 
BRANCH   6   7
ATOM      7  C   UNL     1       8.690 -31.805  32.420  1.00  0.00     0.053 C 
BRANCH   7   8
ATOM      8  C   UNL     1       9.841 -31.807  31.461  1.00  0.00     0.041 C 
ATOM      9  O   UNL     1      10.761 -32.659  31.577  1.00  0.00    -0.550 OA
ATOM     10  O   UNL     1       9.880 -30.889  30.419  1.00  0.00    -0.550 OA
ENDBRANCH   7   8
ENDBRANCH   6   7
ENDBRANCH   5   6
ENDBRANCH   4   5
ENDBRANCH   3   4
ENDBRANCH   2   3
ENDBRANCH   1   2
BRANCH   1  11
ATOM     11  C   UNL     1      10.052 -25.139  31.247  1.00  0.00     0.000 C 
BRANCH  11  12
ATOM     12  C   UNL     1      10.813 -24.254  30.252  1.00  0.00    -0.000 C 
BRANCH  12  13
ATOM     13  C   UNL     1      10.079 -24.186  28.904  1.00  0.00    -0.000 C 
BRANCH  13  14
ATOM     14  C   UNL     1      10.942 -24.682  27.732  1.00  0.00    -0.000 C 
BRANCH  14  15
ATOM     15  C   UNL     1      10.147 -25.551  26.742  1.00  0.00    -0.000 C 
BRANCH  15  16
ATOM     16  C   UNL     1       9.165 -26.509  27.442  1.00  0.00    -0.000 C 
BRANCH  16  17
ATOM     17  C   UNL     1       8.147 -27.192  26.511  1.00  0.00    -0.003 C 
ATOM     18  C   UNL     1       7.492 -26.224  25.527  1.00  0.00     0.004 C 
ENDBRANCH  16  17
ENDBRANCH  15  16
ENDBRANCH  14  15
ENDBRANCH  13  14
ENDBRANCH  12  13
ENDBRANCH  11  12
ENDBRANCH   1  11
TORSDOF 14
ENDMDL
MODEL 8
REMARK VINA RESULT:    -4.082      1.241      1.845
REMARK INTER + INTRA:          -8.572
REMARK INTER:                  -7.627
REMARK INTRA:                  -0.945
REMARK UNBOUND:                -1.150
REMARK SMILES CCCCCCCCCCCCCCCC(=O)[O-]
REMARK SMILES IDX 9 1 10 2 11 3 12 4 13 5 14 6 15 7 16 8 17 9 18 10 8 11 7 12
REMARK SMILES IDX 6 13 5 14 4 15 3 16 2 17 1 18
REMARK H PARENT
REMARK Flexibility Score: inf
ROOT
ATOM      1  C   UNL     1       9.726 -27.603  31.343  1.00  0.00     0.000 C 
ENDROOT
BRANCH   1   2
ATOM      2  C   UNL     1      10.714 -26.432  31.436  1.00  0.00     0.000 C 
BRANCH   2   3
ATOM      3  C   UNL     1      10.035 -25.059  31.272  1.00  0.00     0.000 C 
BRANCH   3   4
ATOM      4  C   UNL     1      10.765 -24.080  30.335  1.00  0.00     0.000 C 
BRANCH   4   5
ATOM      5  C   UNL     1      11.710 -24.784  29.350  1.00  0.00     0.000 C 
BRANCH   5   6
ATOM      6  C   UNL     1      11.457 -24.308  27.911  1.00  0.00     0.006 C 
BRANCH   6   7
ATOM      7  C   UNL     1      10.021 -23.807  27.709  1.00  0.00     0.053 C 
BRANCH   7   8
ATOM      8  C   UNL     1       9.232 -24.722  26.825  1.00  0.00     0.041 C 
ATOM      9  O   UNL     1       9.253 -25.966  27.019  1.00  0.00    -0.550 OA
ATOM     10  O   UNL     1       8.444 -24.199  25.807  1.00  0.00    -0.550 OA
ENDBRANCH   7   8
ENDBRANCH   6   7
ENDBRANCH   5   6
ENDBRANCH   4   5
ENDBRANCH   3   4
ENDBRANCH   2   3
ENDBRANCH   1   2
BRANCH   1  11
ATOM     11  C   UNL     1       8.419 -27.280  32.079  1.00  0.00     0.000 C 
BRANCH  11  12
ATOM     12  C   UNL     1       8.410 -27.895  33.483  1.00  0.00    -0.000 C 
BRANCH  12  13
ATOM     13  C   UNL     1       7.606 -29.204  33.503  1.00  0.00    -0.000 C 
BRANCH  13  14
ATOM     14  C   UNL     1       8.478 -30.441  33.229  1.00  0.00    -0.000 C 
BRANCH  14  15
ATOM     15  C   UNL     1       7.787 -31.454  32.301  1.00  0.00    -0.000 C 
BRANCH  15  16
ATOM     16  C   UNL     1       8.303 -32.892  32.495  1.00  0.00    -0.000 C 
BRANCH  16  17
ATOM     17  C   UNL     1       9.264 -33.083  33.681  1.00  0.00    -0.003 C 
ATOM     18  C   UNL     1      10.692 -33.414  33.248  1.00  0.00     0.004 C 
ENDBRANCH  16  17
ENDBRANCH  15  16
ENDBRANCH  14  15
ENDBRANCH  13  14
ENDBRANCH  12  13
ENDBRANCH  11  12
ENDBRANCH   1  11
TORSDOF 14
ENDMDL
MODEL 9
REMARK VINA RESULT:    -4.073      3.491      7.678
REMARK INTER + INTRA:          -8.556
REMARK INTER:                  -7.302
REMARK INTRA:                  -1.253
REMARK UNBOUND:                -1.150
REMARK SMILES CCCCCCCCCCCCCCCC(=O)[O-]
REMARK SMILES IDX 9 1 10 2 11 3 12 4 13 5 14 6 15 7 16 8 17 9 18 10 8 11 7 12
REMARK SMILES IDX 6 13 5 14 4 15 3 16 2 17 1 18
REMARK H PARENT
REMARK Flexibility Score: inf
ROOT
ATOM      1  C   UNL     1       9.302 -27.084  31.811  1.00  0.00     0.000 C 
ENDROOT
BRANCH   1   2
ATOM      2  C   UNL     1       8.452 -27.197  33.084  1.00  0.00     0.000 C 
BRANCH   2   3
ATOM      3  C   UNL     1       8.572 -28.572  33.768  1.00  0.00     0.000 C 
BRANCH   3   4
ATOM      4  C   UNL     1       7.613 -29.650  33.234  1.00  0.00     0.000 C 
BRANCH   4   5
ATOM      5  C   UNL     1       8.271 -30.584  32.207  1.00  0.00     0.000 C 
BRANCH   5   6
ATOM      6  C   UNL     1       8.282 -32.035  32.711  1.00  0.00     0.006 C 
BRANCH   6   7
ATOM      7  C   UNL     1       9.672 -32.471  33.194  1.00  0.00     0.053 C 
BRANCH   7   8
ATOM      8  C   UNL     1       9.780 -32.436  34.686  1.00  0.00     0.041 C 
ATOM      9  O   UNL     1       9.485 -33.453  35.368  1.00  0.00    -0.550 OA
ATOM     10  O   UNL     1      10.239 -31.290  35.325  1.00  0.00    -0.550 OA
ENDBRANCH   7   8
ENDBRANCH   6   7
ENDBRANCH   5   6
ENDBRANCH   4   5
ENDBRANCH   3   4
ENDBRANCH   2   3
ENDBRANCH   1   2
BRANCH   1  11
ATOM     11  C   UNL     1       9.807 -25.649  31.613  1.00  0.00     0.000 C 
BRANCH  11  12
ATOM     12  C   UNL     1      10.965 -25.606  30.609  1.00  0.00    -0.000 C 
BRANCH  12  13
ATOM     13  C   UNL     1      11.056 -24.229  29.935  1.00  0.00    -0.000 C 
BRANCH  13  14
ATOM     14  C   UNL     1      10.060 -24.069  28.774  1.00  0.00    -0.000 C 
BRANCH  14  15
ATOM     15  C   UNL     1      10.550 -24.743  27.481  1.00  0.00    -0.000 C 
BRANCH  15  16
ATOM     16  C   UNL     1       9.486 -25.653  26.841  1.00  0.00    -0.000 C 
BRANCH  16  17
ATOM     17  C   UNL     1       9.151 -26.925  27.641  1.00  0.00    -0.003 C 
ATOM     18  C   UNL     1      10.337 -27.881  27.769  1.00  0.00     0.004 C 
ENDBRANCH  16  17
ENDBRANCH  15  16
ENDBRANCH  14  15
ENDBRANCH  13  14
ENDBRANCH  12  13
ENDBRANCH  11  12
ENDBRANCH   1  11
TORSDOF 14
ENDMDL
