MODEL 1
REMARK VINA RESULT:    -4.600      0.000      0.000
REMARK INTER + INTRA:          -8.743
REMARK INTER:                  -7.290
REMARK INTRA:                  -1.453
REMARK UNBOUND:                -1.453
REMARK SMILES CCCCCCCCCCCC(=O)[O-]
REMARK SMILES IDX 7 1 8 2 9 3 10 4 11 5 12 6 13 7 14 8 6 9 5 10 4 11 3 12 2 13
REMARK SMILES IDX 1 14
REMARK H PARENT
REMARK Flexibility Score: inf
ROOT
ATOM      1  C   UNL     1      14.143  45.614   4.130  1.00  0.00     0.000 C 
ENDROOT
BRANCH   1   2
ATOM      2  C   UNL     1      15.546  45.101   3.750  1.00  0.00     0.000 C 
BRANCH   2   3
ATOM      3  C   UNL     1      15.751  43.583   3.905  1.00  0.00     0.000 C 
BRANCH   3   4
ATOM      4  C   UNL     1      16.900  43.231   4.861  1.00  0.00     0.006 C 
BRANCH   4   5
ATOM      5  C   UNL     1      16.367  42.918   6.263  1.00  0.00     0.053 C 
BRANCH   5   6
ATOM      6  C   UNL     1      17.011  43.807   7.279  1.00  0.00     0.041 C 
ATOM      7  O   UNL     1      17.020  45.056   7.114  1.00  0.00    -0.550 OA
ATOM      8  O   UNL     1      17.648  43.256   8.384  1.00  0.00    -0.550 OA
ENDBRANCH   5   6
ENDBRANCH   4   5
ENDBRANCH   3   4
ENDBRANCH   2   3
ENDBRANCH   1   2
BRANCH   1   9
ATOM      9  C   UNL     1      14.012  46.156   5.565  1.00  0.00     0.000 C 
BRANCH   9  10
ATOM     10  C   UNL     1      12.815  45.559   6.320  1.00  0.00    -0.000 C 
BRANCH  10  11
ATOM     11  C   UNL     1      12.936  44.034   6.424  1.00  0.00    -0.000 C 
BRANCH  11  12
ATOM     12  C   UNL     1      11.857  43.337   5.583  1.00  0.00    -0.000 C 
BRANCH  12  13
ATOM     13  C   UNL     1      12.427  42.214   4.704  1.00  0.00    -0.003 C 
ATOM     14  C   UNL     1      12.374  42.545   3.212  1.00  0.00     0.004 C 
ENDBRANCH  12  13
ENDBRANCH  11  12
ENDBRANCH  10  11
ENDBRANCH   9  10
ENDBRANCH   1   9
TORSDOF 10
ENDMDL
MODEL 2
REMARK VINA RESULT:    -4.580      1.328      2.629
REMARK INTER + INTRA:          -8.711
REMARK INTER:                  -7.121
REMARK INTRA:                  -1.589
REMARK UNBOUND:                -1.453
REMARK SMILES CCCCCCCCCCCC(=O)[O-]
REMARK SMILES IDX 7 1 8 2 9 3 10 4 11 5 12 6 13 7 14 8 6 9 5 10 4 11 3 12 2 13
REMARK SMILES IDX 1 14
REMARK H PARENT
REMARK Flexibility Score: inf
ROOT
ATOM      1  C   UNL     1      13.236  45.916   6.582  1.00  0.00     0.000 C 
ENDROOT
BRANCH   1   2
ATOM      2  C   UNL     1      14.025  44.742   7.196  1.00  0.00     0.000 C 
BRANCH   2   3
ATOM      3  C   UNL     1      15.506  45.037   7.497  1.00  0.00     0.000 C 
BRANCH   3   4
ATOM      4  C   UNL     1      16.466  44.198   6.641  1.00  0.00     0.006 C 
BRANCH   4   5
ATOM      5  C   UNL     1      16.131  42.706   6.747  1.00  0.00     0.053 C 
BRANCH   5   6
ATOM      6  C   UNL     1      16.522  42.175   8.089  1.00  0.00     0.041 C 
ATOM      7  O   UNL     1      15.730  41.442   8.737  1.00  0.00    -0.550 OA
ATOM      8  O   UNL     1      17.743  42.531   8.649  1.00  0.00    -0.550 OA
ENDBRANCH   5   6
ENDBRANCH   4   5
ENDBRANCH   3   4
ENDBRANCH   2   3
ENDBRANCH   1   2
BRANCH   1   9
ATOM      9  C   UNL     1      13.883  46.560   5.342  1.00  0.00     0.000 C 
BRANCH   9  10
ATOM     10  C   UNL     1      13.566  45.804   4.043  1.00  0.00    -0.000 C 
BRANCH  10  11
ATOM     11  C   UNL     1      14.768  44.966   3.589  1.00  0.00    -0.000 C 
BRANCH  11  12
ATOM     12  C   UNL     1      14.380  43.488   3.430  1.00  0.00    -0.000 C 
BRANCH  12  13
ATOM     13  C   UNL     1      12.878  43.246   3.641  1.00  0.00    -0.003 C 
ATOM     14  C   UNL     1      12.592  42.255   4.770  1.00  0.00     0.004 C 
ENDBRANCH  12  13
ENDBRANCH  11  12
ENDBRANCH  10  11
ENDBRANCH   9  10
ENDBRANCH   1   9
TORSDOF 10
ENDMDL
MODEL 3
REMARK VINA RESULT:    -4.575      2.143      3.354
REMARK INTER + INTRA:          -8.703
REMARK INTER:                  -7.243
REMARK INTRA:                  -1.461
REMARK UNBOUND:                -1.453
REMARK SMILES CCCCCCCCCCCC(=O)[O-]
REMARK SMILES IDX 7 1 8 2 9 3 10 4 11 5 12 6 13 7 14 8 6 9 5 10 4 11 3 12 2 13
REMARK SMILES IDX 1 14
REMARK H PARENT
REMARK Flexibility Score: inf
ROOT
ATOM      1  C   UNL     1      16.794  43.349   4.133  1.00  0.00     0.000 C 
ENDROOT
BRANCH   1   2
ATOM      2  C   UNL     1      16.964  43.315   5.665  1.00  0.00     0.000 C 
BRANCH   2   3
ATOM      3  C   UNL     1      15.711  42.887   6.451  1.00  0.00     0.000 C 
BRANCH   3   4
ATOM      4  C   UNL     1      15.351  43.867   7.578  1.00  0.00     0.006 C 
BRANCH   4   5
ATOM      5  C   UNL     1      14.149  43.359   8.381  1.00  0.00     0.053 C 
BRANCH   5   6
ATOM      6  C   UNL     1      13.171  44.465   8.616  1.00  0.00     0.041 C 
ATOM      7  O   UNL     1      12.125  44.255   9.285  1.00  0.00    -0.550 OA
ATOM      8  O   UNL     1      13.388  45.717   8.055  1.00  0.00    -0.550 OA
ENDBRANCH   5   6
ENDBRANCH   4   5
ENDBRANCH   3   4
ENDBRANCH   2   3
ENDBRANCH   1   2
BRANCH   1   9
ATOM      9  C   UNL     1      15.365  43.642   3.640  1.00  0.00     0.000 C 
BRANCH   9  10
ATOM     10  C   UNL     1      15.007  45.134   3.705  1.00  0.00    -0.000 C 
BRANCH  10  11
ATOM     11  C   UNL     1      13.724  45.355   4.516  1.00  0.00    -0.000 C 
BRANCH  11  12
ATOM     12  C   UNL     1      12.621  44.379   4.080  1.00  0.00    -0.000 C 
BRANCH  12  13
ATOM     13  C   UNL     1      12.123  43.498   5.234  1.00  0.00    -0.003 C 
ATOM     14  C   UNL     1      12.371  42.009   4.991  1.00  0.00     0.004 C 
ENDBRANCH  12  13
ENDBRANCH  11  12
ENDBRANCH  10  11
ENDBRANCH   9  10
ENDBRANCH   1   9
TORSDOF 10
ENDMDL
MODEL 4
REMARK VINA RESULT:    -4.537      1.258      2.772
REMARK INTER + INTRA:          -8.643
REMARK INTER:                  -7.107
REMARK INTRA:                  -1.536
REMARK UNBOUND:                -1.453
REMARK SMILES CCCCCCCCCCCC(=O)[O-]
REMARK SMILES IDX 7 1 8 2 9 3 10 4 11 5 12 6 13 7 14 8 6 9 5 10 4 11 3 12 2 13
REMARK SMILES IDX 1 14
REMARK H PARENT
REMARK Flexibility Score: inf
ROOT
ATOM      1  C   UNL     1      12.533  46.441   6.377  1.00  0.00     0.000 C 
ENDROOT
BRANCH   1   2
ATOM      2  C   UNL     1      13.104  45.710   7.609  1.00  0.00     0.000 C 
BRANCH   2   3
ATOM      3  C   UNL     1      13.367  44.205   7.411  1.00  0.00     0.000 C 
BRANCH   3   4
ATOM      4  C   UNL     1      14.707  43.751   8.007  1.00  0.00     0.006 C 
BRANCH   4   5
ATOM      5  C   UNL     1      15.620  43.173   6.922  1.00  0.00     0.053 C 
BRANCH   5   6
ATOM      6  C   UNL     1      16.743  44.115   6.625  1.00  0.00     0.041 C 
ATOM      7  O   UNL     1      17.756  43.715   5.992  1.00  0.00    -0.550 OA
ATOM      8  O   UNL     1      16.697  45.422   7.091  1.00  0.00    -0.550 OA
ENDBRANCH   5   6
ENDBRANCH   4   5
ENDBRANCH   3   4
ENDBRANCH   2   3
ENDBRANCH   1   2
BRANCH   1   9
ATOM      9  C   UNL     1      13.546  46.712   5.250  1.00  0.00     0.000 C 
BRANCH   9  10
ATOM     10  C   UNL     1      13.334  45.806   4.028  1.00  0.00    -0.000 C 
BRANCH  10  11
ATOM     11  C   UNL     1      14.606  45.012   3.707  1.00  0.00    -0.000 C 
BRANCH  11  12
ATOM     12  C   UNL     1      14.284  43.529   3.472  1.00  0.00    -0.000 C 
BRANCH  12  13
ATOM     13  C   UNL     1      12.781  43.229   3.567  1.00  0.00    -0.003 C 
ATOM     14  C   UNL     1      12.464  42.096   4.544  1.00  0.00     0.004 C 
ENDBRANCH  12  13
ENDBRANCH  11  12
ENDBRANCH  10  11
ENDBRANCH   9  10
ENDBRANCH   1   9
TORSDOF 10
ENDMDL
MODEL 5
REMARK VINA RESULT:    -4.524      1.335      2.827
REMARK INTER + INTRA:          -8.622
REMARK INTER:                  -7.334
REMARK INTRA:                  -1.287
REMARK UNBOUND:                -1.453
REMARK SMILES CCCCCCCCCCCC(=O)[O-]
REMARK SMILES IDX 7 1 8 2 9 3 10 4 11 5 12 6 13 7 14 8 6 9 5 10 4 11 3 12 2 13
REMARK SMILES IDX 1 14
REMARK H PARENT
REMARK Flexibility Score: inf
ROOT
ATOM      1  C   UNL     1      15.144  44.174   3.570  1.00  0.00     0.000 C 
ENDROOT
BRANCH   1   2
ATOM      2  C   UNL     1      16.375  43.358   4.011  1.00  0.00     0.000 C 
BRANCH   2   3
ATOM      3  C   UNL     1      16.815  43.578   5.471  1.00  0.00     0.000 C 
BRANCH   3   4
ATOM      4  C   UNL     1      16.174  42.578   6.444  1.00  0.00     0.006 C 
BRANCH   4   5
ATOM      5  C   UNL     1      15.480  43.307   7.599  1.00  0.00     0.053 C 
BRANCH   5   6
ATOM      6  C   UNL     1      16.482  44.034   8.437  1.00  0.00     0.041 C 
ATOM      7  O   UNL     1      16.422  45.287   8.553  1.00  0.00    -0.550 OA
ATOM      8  O   UNL     1      17.515  43.336   9.050  1.00  0.00    -0.550 OA
ENDBRANCH   5   6
ENDBRANCH   4   5
ENDBRANCH   3   4
ENDBRANCH   2   3
ENDBRANCH   1   2
BRANCH   1   9
ATOM      9  C   UNL     1      13.799  43.428   3.658  1.00  0.00     0.000 C 
BRANCH   9  10
ATOM     10  C   UNL     1      12.726  44.222   4.417  1.00  0.00    -0.000 C 
BRANCH  10  11
ATOM     11  C   UNL     1      12.705  45.688   3.967  1.00  0.00    -0.000 C 
BRANCH  11  12
ATOM     12  C   UNL     1      12.649  46.634   5.175  1.00  0.00    -0.000 C 
BRANCH  12  13
ATOM     13  C   UNL     1      13.656  46.253   6.271  1.00  0.00    -0.003 C 
ATOM     14  C   UNL     1      13.011  46.138   7.652  1.00  0.00     0.004 C 
ENDBRANCH  12  13
ENDBRANCH  11  12
ENDBRANCH  10  11
ENDBRANCH   9  10
ENDBRANCH   1   9
TORSDOF 10
ENDMDL
MODEL 6
REMARK VINA RESULT:    -4.512      2.605      4.436
REMARK INTER + INTRA:          -8.604
REMARK INTER:                  -7.093
REMARK INTRA:                  -1.511
REMARK UNBOUND:                -1.453
REMARK SMILES CCCCCCCCCCCC(=O)[O-]
REMARK SMILES IDX 7 1 8 2 9 3 10 4 11 5 12 6 13 7 14 8 6 9 5 10 4 11 3 12 2 13
REMARK SMILES IDX 1 14
REMARK H PARENT
REMARK Flexibility Score: inf
ROOT
ATOM      1  C   UNL     1      16.950  43.454   4.426  1.00  0.00     0.000 C 
ENDROOT
BRANCH   1   2
ATOM      2  C   UNL     1      15.618  43.496   3.652  1.00  0.00     0.000 C 
BRANCH   2   3
ATOM      3  C   UNL     1      14.842  44.822   3.758  1.00  0.00     0.000 C 
BRANCH   3   4
ATOM      4  C   UNL     1      13.320  44.620   3.810  1.00  0.00     0.006 C 
BRANCH   4   5
ATOM      5  C   UNL     1      12.958  43.143   3.619  1.00  0.00     0.053 C 
BRANCH   5   6
ATOM      6  C   UNL     1      12.263  42.614   4.833  1.00  0.00     0.041 C 
ATOM      7  O   UNL     1      12.248  41.376   5.066  1.00  0.00    -0.550 OA
ATOM      8  O   UNL     1      11.586  43.481   5.681  1.00  0.00    -0.550 OA
ENDBRANCH   5   6
ENDBRANCH   4   5
ENDBRANCH   3   4
ENDBRANCH   2   3
ENDBRANCH   1   2
BRANCH   1   9
ATOM      9  C   UNL     1      16.815  43.477   5.960  1.00  0.00     0.000 C 
BRANCH   9  10
ATOM     10  C   UNL     1      15.633  42.638   6.467  1.00  0.00    -0.000 C 
BRANCH  10  11
ATOM     11  C   UNL     1      14.805  43.421   7.494  1.00  0.00    -0.000 C 
BRANCH  11  12
ATOM     12  C   UNL     1      15.062  44.930   7.372  1.00  0.00    -0.000 C 
BRANCH  12  13
ATOM     13  C   UNL     1      13.763  45.744   7.277  1.00  0.00    -0.003 C 
ATOM     14  C   UNL     1      12.774  45.413   8.395  1.00  0.00     0.004 C 
ENDBRANCH  12  13
ENDBRANCH  11  12
ENDBRANCH  10  11
ENDBRANCH   9  10
ENDBRANCH   1   9
TORSDOF 10
ENDMDL
MODEL 7
REMARK VINA RESULT:    -4.482      1.198      2.031
REMARK INTER + INTRA:          -8.555
REMARK INTER:                  -7.325
REMARK INTRA:                  -1.231
REMARK UNBOUND:                -1.453
REMARK SMILES CCCCCCCCCCCC(=O)[O-]
REMARK SMILES IDX 7 1 8 2 9 3 10 4 11 5 12 6 13 7 14 8 6 9 5 10 4 11 3 12 2 13
REMARK SMILES IDX 1 14
REMARK H PARENT
REMARK Flexibility Score: inf
ROOT
ATOM      1  C   UNL     1      15.600  43.828   3.637  1.00  0.00     0.000 C 
ENDROOT
BRANCH   1   2
ATOM      2  C   UNL     1      16.980  43.372   4.150  1.00  0.00     0.000 C 
BRANCH   2   3
ATOM      3  C   UNL     1      17.052  43.083   5.662  1.00  0.00     0.000 C 
BRANCH   3   4
ATOM      4  C   UNL     1      15.701  42.650   6.250  1.00  0.00     0.006 C 
BRANCH   4   5
ATOM      5  C   UNL     1      15.504  43.231   7.654  1.00  0.00     0.053 C 
BRANCH   5   6
ATOM      6  C   UNL     1      16.610  42.794   8.561  1.00  0.00     0.041 C 
ATOM      7  O   UNL     1      16.741  41.578   8.861  1.00  0.00    -0.550 OA
ATOM      8  O   UNL     1      17.467  43.735   9.118  1.00  0.00    -0.550 OA
ENDBRANCH   5   6
ENDBRANCH   4   5
ENDBRANCH   3   4
ENDBRANCH   2   3
ENDBRANCH   1   2
BRANCH   1   9
ATOM      9  C   UNL     1      15.278  45.317   3.863  1.00  0.00     0.000 C 
BRANCH   9  10
ATOM     10  C   UNL     1      13.983  45.533   4.659  1.00  0.00    -0.000 C 
BRANCH  10  11
ATOM     11  C   UNL     1      12.815  44.768   4.026  1.00  0.00    -0.000 C 
BRANCH  11  12
ATOM     12  C   UNL     1      12.273  43.697   4.984  1.00  0.00    -0.000 C 
BRANCH  12  13
ATOM     13  C   UNL     1      12.344  42.282   4.391  1.00  0.00    -0.003 C 
ATOM     14  C   UNL     1      12.566  42.286   2.878  1.00  0.00     0.004 C 
ENDBRANCH  12  13
ENDBRANCH  11  12
ENDBRANCH  10  11
ENDBRANCH   9  10
ENDBRANCH   1   9
TORSDOF 10
ENDMDL
MODEL 8
REMARK VINA RESULT:    -4.462      1.263      2.704
REMARK INTER + INTRA:          -8.524
REMARK INTER:                  -7.291
REMARK INTRA:                  -1.233
REMARK UNBOUND:                -1.453
REMARK SMILES CCCCCCCCCCCC(=O)[O-]
REMARK SMILES IDX 7 1 8 2 9 3 10 4 11 5 12 6 13 7 14 8 6 9 5 10 4 11 3 12 2 13
REMARK SMILES IDX 1 14
REMARK H PARENT
REMARK Flexibility Score: inf
ROOT
ATOM      1  C   UNL     1      13.900  43.416   4.281  1.00  0.00     0.000 C 
ENDROOT
BRANCH   1   2
ATOM      2  C   UNL     1      15.181  43.687   3.467  1.00  0.00     0.000 C 
BRANCH   2   3
ATOM      3  C   UNL     1      16.492  43.254   4.150  1.00  0.00     0.000 C 
BRANCH   3   4
ATOM      4  C   UNL     1      16.372  43.188   5.680  1.00  0.00     0.006 C 
BRANCH   4   5
ATOM      5  C   UNL     1      17.638  43.730   6.352  1.00  0.00     0.053 C 
BRANCH   5   6
ATOM      6  C   UNL     1      17.401  43.957   7.811  1.00  0.00     0.041 C 
ATOM      7  O   UNL     1      17.738  43.082   8.652  1.00  0.00    -0.550 OA
ATOM      8  O   UNL     1      16.761  45.113   8.241  1.00  0.00    -0.550 OA
ENDBRANCH   5   6
ENDBRANCH   4   5
ENDBRANCH   3   4
ENDBRANCH   2   3
ENDBRANCH   1   2
BRANCH   1   9
ATOM      9  C   UNL     1      12.904  44.589   4.341  1.00  0.00     0.000 C 
BRANCH   9  10
ATOM     10  C   UNL     1      13.598  45.955   4.442  1.00  0.00    -0.000 C 
BRANCH  10  11
ATOM     11  C   UNL     1      14.099  46.213   5.868  1.00  0.00    -0.000 C 
BRANCH  11  12
ATOM     12  C   UNL     1      12.929  46.512   6.817  1.00  0.00    -0.000 C 
BRANCH  12  13
ATOM     13  C   UNL     1      13.035  45.747   8.144  1.00  0.00    -0.003 C 
ATOM     14  C   UNL     1      13.382  44.271   7.950  1.00  0.00     0.004 C 
ENDBRANCH  12  13
ENDBRANCH  11  12
ENDBRANCH  10  11
ENDBRANCH   9  10
ENDBRANCH   1   9
TORSDOF 10
ENDMDL
MODEL 9
REMARK VINA RESULT:    -4.439      2.289      4.441
REMARK INTER + INTRA:          -8.487
REMARK INTER:                  -6.967
REMARK INTRA:                  -1.520
REMARK UNBOUND:                -1.453
REMARK SMILES CCCCCCCCCCCC(=O)[O-]
REMARK SMILES IDX 7 1 8 2 9 3 10 4 11 5 12 6 13 7 14 8 6 9 5 10 4 11 3 12 2 13
REMARK SMILES IDX 1 14
REMARK H PARENT
REMARK Flexibility Score: inf
ROOT
ATOM      1  C   UNL     1      15.058  45.172   3.753  1.00  0.00     0.000 C 
ENDROOT
BRANCH   1   2
ATOM      2  C   UNL     1      13.941  45.605   4.723  1.00  0.00     0.000 C 
BRANCH   2   3
ATOM      3  C   UNL     1      12.652  44.766   4.651  1.00  0.00     0.000 C 
BRANCH   3   4
ATOM      4  C   UNL     1      12.382  43.978   5.941  1.00  0.00     0.006 C 
BRANCH   4   5
ATOM      5  C   UNL     1      11.422  44.743   6.859  1.00  0.00     0.053 C 
BRANCH   5   6
ATOM      6  C   UNL     1      12.155  45.291   8.042  1.00  0.00     0.041 C 
ATOM      7  O   UNL     1      12.688  46.430   7.985  1.00  0.00    -0.550 OA
ATOM      8  O   UNL     1      12.293  44.524   9.192  1.00  0.00    -0.550 OA
ENDBRANCH   5   6
ENDBRANCH   4   5
ENDBRANCH   3   4
ENDBRANCH   2   3
ENDBRANCH   1   2
BRANCH   1   9
ATOM      9  C   UNL     1      15.315  43.655   3.688  1.00  0.00     0.000 C 
BRANCH   9  10
ATOM     10  C   UNL     1      16.754  43.278   4.069  1.00  0.00    -0.000 C 
BRANCH  10  11
ATOM     11  C   UNL     1      16.972  43.404   5.582  1.00  0.00    -0.000 C 
BRANCH  11  12
ATOM     12  C   UNL     1      15.829  42.737   6.360  1.00  0.00    -0.000 C 
BRANCH  12  13
ATOM     13  C   UNL     1      15.641  43.336   7.762  1.00  0.00    -0.003 C 
ATOM     14  C   UNL     1      15.835  44.852   7.787  1.00  0.00     0.004 C 
ENDBRANCH  12  13
ENDBRANCH  11  12
ENDBRANCH  10  11
ENDBRANCH   9  10
ENDBRANCH   1   9
TORSDOF 10
ENDMDL
