MODEL 1
REMARK VINA RESULT:    -5.259      0.000      0.000
REMARK INTER + INTRA:          -5.959
REMARK INTER:                  -5.874
REMARK INTRA:                  -0.085
REMARK UNBOUND:                -0.085
REMARK SMILES CCc1ccc(O)cc1O
REMARK SMILES IDX 3 1 9 2 8 3 6 4 5 5 4 6 2 7 1 8 10 9 7 11
REMARK H PARENT 10 10 7 12
REMARK Flexibility Score: inf
ROOT
ATOM      1  C   UNL     1       8.010   3.920  18.365  1.00  0.00    -0.006 A 
ATOM      2  C   UNL     1       9.113   4.752  18.087  1.00  0.00     0.122 A 
ATOM      3  C   UNL     1       8.941   6.143  18.025  1.00  0.00     0.092 A 
ATOM      4  C   UNL     1       7.681   6.711  18.250  1.00  0.00     0.119 A 
ATOM      5  C   UNL     1       6.589   5.886  18.538  1.00  0.00     0.047 A 
ATOM      6  C   UNL     1       6.753   4.501  18.602  1.00  0.00     0.011 A 
ENDROOT
BRANCH   1   7
ATOM      7  C   UNL     1       8.173   2.424  18.467  1.00  0.00     0.036 C 
ATOM      8  C   UNL     1       6.838   1.719  18.252  1.00  0.00     0.009 C 
ENDBRANCH   1   7
BRANCH   2   9
ATOM      9  O   UNL     1      10.375   4.197  17.875  1.00  0.00    -0.508 OA
ATOM     10  H   UNL     1      11.190   4.521  18.384  1.00  0.00     0.293 HD
ENDBRANCH   2   9
BRANCH   4  11
ATOM     11  O   UNL     1       7.502   8.091  18.190  1.00  0.00    -0.508 OA
ATOM     12  H   UNL     1       6.578   8.503  18.129  1.00  0.00     0.293 HD
ENDBRANCH   4  11
TORSDOF 3
ENDMDL
MODEL 2
REMARK VINA RESULT:    -5.083      1.600      3.681
REMARK INTER + INTRA:          -5.763
REMARK INTER:                  -5.677
REMARK INTRA:                  -0.086
REMARK UNBOUND:                -0.085
REMARK SMILES CCc1ccc(O)cc1O
REMARK SMILES IDX 3 1 9 2 8 3 6 4 5 5 4 6 2 7 1 8 10 9 7 11
REMARK H PARENT 10 10 7 12
REMARK Flexibility Score: inf
ROOT
ATOM      1  C   UNL     1       8.149   5.474  18.302  1.00  0.00    -0.006 A 
ATOM      2  C   UNL     1       9.182   4.528  18.148  1.00  0.00     0.122 A 
ATOM      3  C   UNL     1       8.898   3.159  18.260  1.00  0.00     0.092 A 
ATOM      4  C   UNL     1       7.591   2.725  18.511  1.00  0.00     0.119 A 
ATOM      5  C   UNL     1       6.563   3.663  18.650  1.00  0.00     0.047 A 
ATOM      6  C   UNL     1       6.838   5.028  18.540  1.00  0.00     0.011 A 
ENDROOT
BRANCH   1   7
ATOM      7  C   UNL     1       8.420   6.951  18.156  1.00  0.00     0.036 C 
ATOM      8  C   UNL     1       7.129   7.713  17.876  1.00  0.00     0.009 C 
ENDBRANCH   1   7
BRANCH   2   9
ATOM      9  O   UNL     1      10.485   4.949  17.884  1.00  0.00    -0.508 OA
ATOM     10  H   UNL     1      10.711   5.491  17.058  1.00  0.00     0.293 HD
ENDBRANCH   2   9
BRANCH   4  11
ATOM     11  O   UNL     1       7.301   1.367  18.624  1.00  0.00    -0.508 OA
ATOM     12  H   UNL     1       7.942   0.725  19.076  1.00  0.00     0.293 HD
ENDBRANCH   4  11
TORSDOF 3
ENDMDL
MODEL 3
REMARK VINA RESULT:    -4.746      1.758      4.271
REMARK INTER + INTRA:          -5.386
REMARK INTER:                  -6.198
REMARK INTRA:                   0.812
REMARK UNBOUND:                -0.085
REMARK SMILES CCc1ccc(O)cc1O
REMARK SMILES IDX 3 1 9 2 8 3 6 4 5 5 4 6 2 7 1 8 10 9 7 11
REMARK H PARENT 10 10 7 12
REMARK Flexibility Score: inf
ROOT
ATOM      1  C   UNL     1       8.351   5.414  18.234  1.00  0.00    -0.006 A 
ATOM      2  C   UNL     1       7.165   4.764  18.629  1.00  0.00     0.122 A 
ATOM      3  C   UNL     1       7.104   3.362  18.636  1.00  0.00     0.092 A 
ATOM      4  C   UNL     1       8.222   2.604  18.263  1.00  0.00     0.119 A 
ATOM      5  C   UNL     1       9.403   3.249  17.884  1.00  0.00     0.047 A 
ATOM      6  C   UNL     1       9.470   4.644  17.875  1.00  0.00     0.011 A 
ENDROOT
BRANCH   1   7
ATOM      7  C   UNL     1       8.453   6.918  18.247  1.00  0.00     0.036 C 
ATOM      8  C   UNL     1       7.118   7.555  17.875  1.00  0.00     0.009 C 
ENDBRANCH   1   7
BRANCH   2   9
ATOM      9  O   UNL     1       6.051   5.510  19.015  1.00  0.00    -0.508 OA
ATOM     10  H   UNL     1       6.099   6.182  19.771  1.00  0.00     0.293 HD
ENDBRANCH   2   9
BRANCH   4  11
ATOM     11  O   UNL     1       8.170   1.212  18.267  1.00  0.00    -0.508 OA
ATOM     12  H   UNL     1       8.338   0.674  17.425  1.00  0.00     0.293 HD
ENDBRANCH   4  11
TORSDOF 3
ENDMDL
MODEL 4
REMARK VINA RESULT:    -3.188      1.511      2.139
REMARK INTER + INTRA:          -3.645
REMARK INTER:                  -4.499
REMARK INTRA:                   0.853
REMARK UNBOUND:                -0.085
REMARK SMILES CCc1ccc(O)cc1O
REMARK SMILES IDX 3 1 9 2 8 3 6 4 5 5 4 6 2 7 1 8 10 9 7 11
REMARK H PARENT 10 10 7 12
REMARK Flexibility Score: inf
ROOT
ATOM      1  C   UNL     1       8.500   3.762  18.456  1.00  0.00    -0.006 A 
ATOM      2  C   UNL     1       7.177   4.100  18.801  1.00  0.00     0.122 A 
ATOM      3  C   UNL     1       6.744   5.430  18.692  1.00  0.00     0.092 A 
ATOM      4  C   UNL     1       7.618   6.423  18.231  1.00  0.00     0.119 A 
ATOM      5  C   UNL     1       8.927   6.085  17.875  1.00  0.00     0.047 A 
ATOM      6  C   UNL     1       9.364   4.762  17.980  1.00  0.00     0.011 A 
ENDROOT
BRANCH   1   7
ATOM      7  C   UNL     1       8.982   2.335  18.534  1.00  0.00     0.036 C 
ATOM      8  C   UNL     1       7.843   1.362  18.249  1.00  0.00     0.009 C 
ENDBRANCH   1   7
BRANCH   2   9
ATOM      9  O   UNL     1       6.295   3.117  19.250  1.00  0.00    -0.508 OA
ATOM     10  H   UNL     1       5.631   2.674  18.625  1.00  0.00     0.293 HD
ENDBRANCH   2   9
BRANCH   4  11
ATOM     11  O   UNL     1       7.196   7.746  18.120  1.00  0.00    -0.508 OA
ATOM     12  H   UNL     1       7.001   8.166  17.219  1.00  0.00     0.293 HD
ENDBRANCH   4  11
TORSDOF 3
ENDMDL
MODEL 5
REMARK VINA RESULT:    -3.079      2.261      4.213
REMARK INTER + INTRA:          -3.524
REMARK INTER:                  -3.438
REMARK INTRA:                  -0.086
REMARK UNBOUND:                -0.085
REMARK SMILES CCc1ccc(O)cc1O
REMARK SMILES IDX 3 1 9 2 8 3 6 4 5 5 4 6 2 7 1 8 10 9 7 11
REMARK H PARENT 10 10 7 12
REMARK Flexibility Score: inf
ROOT
ATOM      1  C   UNL     1       8.212   3.946  18.302  1.00  0.00    -0.006 A 
ATOM      2  C   UNL     1       6.948   4.319  18.802  1.00  0.00     0.122 A 
ATOM      3  C   UNL     1       6.015   3.331  19.150  1.00  0.00     0.092 A 
ATOM      4  C   UNL     1       6.336   1.975  19.015  1.00  0.00     0.119 A 
ATOM      5  C   UNL     1       7.594   1.604  18.532  1.00  0.00     0.047 A 
ATOM      6  C   UNL     1       8.529   2.582  18.183  1.00  0.00     0.011 A 
ENDROOT
BRANCH   1   7
ATOM      7  C   UNL     1       9.246   4.986  17.948  1.00  0.00     0.036 C 
ATOM      8  C   UNL     1      10.636   4.364  17.875  1.00  0.00     0.009 C 
ENDBRANCH   1   7
BRANCH   2   9
ATOM      9  O   UNL     1       6.624   5.667  18.953  1.00  0.00    -0.508 OA
ATOM     10  H   UNL     1       7.331   6.391  18.910  1.00  0.00     0.293 HD
ENDBRANCH   2   9
BRANCH   4  11
ATOM     11  O   UNL     1       5.415   0.988  19.359  1.00  0.00    -0.508 OA
ATOM     12  H   UNL     1       5.025   0.363  18.663  1.00  0.00     0.293 HD
ENDBRANCH   4  11
TORSDOF 3
ENDMDL
MODEL 6
REMARK VINA RESULT:    -2.866      1.596      2.978
REMARK INTER + INTRA:          -3.286
REMARK INTER:                  -3.196
REMARK INTRA:                  -0.090
REMARK UNBOUND:                -0.085
REMARK SMILES CCc1ccc(O)cc1O
REMARK SMILES IDX 3 1 9 2 8 3 6 4 5 5 4 6 2 7 1 8 10 9 7 11
REMARK H PARENT 10 10 7 12
REMARK Flexibility Score: inf
ROOT
ATOM      1  C   UNL     1       7.047   2.977  18.745  1.00  0.00    -0.006 A 
ATOM      2  C   UNL     1       7.067   4.376  18.918  1.00  0.00     0.122 A 
ATOM      3  C   UNL     1       8.234   5.099  18.632  1.00  0.00     0.092 A 
ATOM      4  C   UNL     1       9.377   4.441  18.162  1.00  0.00     0.119 A 
ATOM      5  C   UNL     1       9.353   3.055  17.977  1.00  0.00     0.047 A 
ATOM      6  C   UNL     1       8.195   2.328  18.260  1.00  0.00     0.011 A 
ENDROOT
BRANCH   1   7
ATOM      7  C   UNL     1       5.796   2.179  19.016  1.00  0.00     0.036 C 
ATOM      8  C   UNL     1       5.539   1.179  17.894  1.00  0.00     0.009 C 
ENDBRANCH   1   7
BRANCH   2   9
ATOM      9  O   UNL     1       5.929   5.043  19.373  1.00  0.00    -0.508 OA
ATOM     10  H   UNL     1       5.317   5.542  18.739  1.00  0.00     0.293 HD
ENDBRANCH   2   9
BRANCH   4  11
ATOM     11  O   UNL     1      10.540   5.152  17.875  1.00  0.00    -0.508 OA
ATOM     12  H   UNL     1      10.509   6.049  17.405  1.00  0.00     0.293 HD
ENDBRANCH   4  11
TORSDOF 3
ENDMDL
MODEL 7
REMARK VINA RESULT:    -2.734      1.605      2.532
REMARK INTER + INTRA:          -3.139
REMARK INTER:                  -3.044
REMARK INTRA:                  -0.095
REMARK UNBOUND:                -0.085
REMARK SMILES CCc1ccc(O)cc1O
REMARK SMILES IDX 3 1 9 2 8 3 6 4 5 5 4 6 2 7 1 8 10 9 7 11
REMARK H PARENT 10 10 7 12
REMARK Flexibility Score: inf
ROOT
ATOM      1  C   UNL     1       7.073   2.599  18.188  1.00  0.00    -0.006 A 
ATOM      2  C   UNL     1       8.431   2.221  18.225  1.00  0.00     0.122 A 
ATOM      3  C   UNL     1       9.431   3.204  18.220  1.00  0.00     0.092 A 
ATOM      4  C   UNL     1       9.088   4.562  18.190  1.00  0.00     0.119 A 
ATOM      5  C   UNL     1       7.742   4.938  18.167  1.00  0.00     0.047 A 
ATOM      6  C   UNL     1       6.740   3.964  18.172  1.00  0.00     0.011 A 
ENDROOT
BRANCH   1   7
ATOM      7  C   UNL     1       5.977   1.563  18.224  1.00  0.00     0.036 C 
ATOM      8  C   UNL     1       5.603   1.222  19.663  1.00  0.00     0.009 C 
ENDBRANCH   1   7
BRANCH   2   9
ATOM      9  O   UNL     1       8.782   0.872  18.269  1.00  0.00    -0.508 OA
ATOM     10  H   UNL     1       9.390   0.459  17.572  1.00  0.00     0.293 HD
ENDBRANCH   2   9
BRANCH   4  11
ATOM     11  O   UNL     1      10.075   5.545  18.184  1.00  0.00    -0.508 OA
ATOM     12  H   UNL     1       9.995   6.372  17.603  1.00  0.00     0.293 HD
ENDBRANCH   4  11
TORSDOF 3
ENDMDL
