MODEL 1
REMARK VINA RESULT:    -6.335      0.000      0.000
REMARK INTER + INTRA:         -10.794
REMARK INTER:                  -9.483
REMARK INTRA:                  -1.311
REMARK UNBOUND:                -1.311
REMARK SMILES COC(=O)C1=CO[C@@H](O[C@H]2O[C@H](CO)[C@@H](O)[C@H](O)[C@@H]2O)[C@@H]2C(CO)=CC[C@H]12
REMARK SMILES IDX 9 1 8 2 5 3 6 4 27 5 7 6 21 7 26 8 22 9 25 10 3 11 4 12 2 13
REMARK SMILES IDX 1 14 23 15 24 16 10 18 19 19 11 20 17 21 12 22 15 23 20 24
REMARK SMILES IDX 18 26 13 28 14 29 16 31
REMARK H PARENT 24 17 20 25 18 27 14 30 16 32
REMARK Flexibility Score: inf
ROOT
ATOM      1  O   UNL     1       5.931   3.457  -0.883  1.00  0.00    -0.310 OA
ENDROOT
BRANCH   1   2
ATOM      2  C   UNL     1       6.326   4.277   0.193  1.00  0.00     0.316 C 
ATOM      3  C   UNL     1       8.081   3.191   2.352  1.00  0.00     0.076 C 
ATOM      4  C   UNL     1       8.298   3.119   1.023  1.00  0.00     0.202 C 
ATOM      5  C   UNL     1       6.750   3.843   2.738  1.00  0.00     0.047 C 
ATOM      6  O   UNL     1       7.758   4.152   0.255  1.00  0.00    -0.471 OA
ATOM      7  C   UNL     1       5.686   3.794   1.568  1.00  0.00     0.094 C 
ATOM      8  C   UNL     1       6.629   5.329   3.108  1.00  0.00     0.037 C 
ATOM      9  C   UNL     1       4.580   4.682   2.111  1.00  0.00    -0.039 C 
ATOM     10  C   UNL     1       5.133   5.538   2.968  1.00  0.00    -0.024 C 
BRANCH   3  11
ATOM     11  C   UNL     1       8.822   2.268   3.283  1.00  0.00     0.337 C 
ATOM     12  O   UNL     1       9.387   2.776   4.287  1.00  0.00    -0.246 OA
BRANCH  11  13
ATOM     13  O   UNL     1       8.789   0.847   3.185  1.00  0.00    -0.466 OA
ATOM     14  C   UNL     1       9.396   0.097   2.128  1.00  0.00     0.282 C 
ENDBRANCH  11  13
ENDBRANCH   3  11
BRANCH   9  15
ATOM     15  C   UNL     1       3.091   4.313   2.031  1.00  0.00     0.187 C 
BRANCH  15  16
ATOM     16  O   UNL     1       2.842   2.994   1.689  1.00  0.00    -0.392 OA
ATOM     17  H   UNL     1       3.321   2.371   2.303  1.00  0.00     0.211 HD
ENDBRANCH  15  16
ENDBRANCH   9  15
ENDBRANCH   1   2
BRANCH   1  18
ATOM     18  C   UNL     1       5.913   4.081  -2.158  1.00  0.00     0.286 C 
ATOM     19  C   UNL     1       4.951   5.263  -2.055  1.00  0.00     0.202 C 
ATOM     20  O   UNL     1       5.518   3.185  -3.195  1.00  0.00    -0.341 OA
ATOM     21  C   UNL     1       3.559   4.752  -1.574  1.00  0.00     0.179 C 
ATOM     22  C   UNL     1       4.133   2.944  -3.388  1.00  0.00     0.178 C 
ATOM     23  C   UNL     1       3.157   3.396  -2.222  1.00  0.00     0.177 C 
BRANCH  19  24
ATOM     24  O   UNL     1       4.861   5.935  -3.284  1.00  0.00    -0.385 OA
ATOM     25  H   UNL     1       4.344   5.311  -3.876  1.00  0.00     0.211 HD
ENDBRANCH  19  24
BRANCH  21  26
ATOM     26  O   UNL     1       2.570   5.708  -1.824  1.00  0.00    -0.387 OA
ATOM     27  H   UNL     1       2.097   5.407  -2.649  1.00  0.00     0.211 HD
ENDBRANCH  21  26
BRANCH  22  28
ATOM     28  C   UNL     1       3.757   3.519  -4.755  1.00  0.00     0.191 C 
BRANCH  28  29
ATOM     29  O   UNL     1       2.595   4.319  -4.635  1.00  0.00    -0.394 OA
ATOM     30  H   UNL     1       1.843   3.718  -4.387  1.00  0.00     0.210 HD
ENDBRANCH  28  29
ENDBRANCH  22  28
BRANCH  23  31
ATOM     31  O   UNL     1       3.150   2.408  -1.199  1.00  0.00    -0.387 OA
ATOM     32  H   UNL     1       2.630   1.658  -1.564  1.00  0.00     0.211 HD
ENDBRANCH  23  31
ENDBRANCH   1  18
TORSDOF 11
ENDMDL
MODEL 2
REMARK VINA RESULT:    -6.229     10.073     11.875
REMARK INTER + INTRA:         -10.635
REMARK INTER:                  -9.441
REMARK INTRA:                  -1.194
REMARK UNBOUND:                -1.311
REMARK SMILES COC(=O)C1=CO[C@@H](O[C@H]2O[C@H](CO)[C@@H](O)[C@H](O)[C@@H]2O)[C@@H]2C(CO)=CC[C@H]12
REMARK SMILES IDX 9 1 8 2 5 3 6 4 27 5 7 6 21 7 26 8 22 9 25 10 3 11 4 12 2 13
REMARK SMILES IDX 1 14 23 15 24 16 10 18 19 19 11 20 17 21 12 22 15 23 20 24
REMARK SMILES IDX 18 26 13 28 14 29 16 31
REMARK H PARENT 24 17 20 25 18 27 14 30 16 32
REMARK Flexibility Score: inf
ROOT
ATOM      1  O   UNL     1       4.380  -6.149   4.681  1.00  0.00    -0.310 OA
ENDROOT
BRANCH   1   2
ATOM      2  C   UNL     1       3.294  -5.442   5.235  1.00  0.00     0.316 C 
ATOM      3  C   UNL     1       3.653  -3.833   7.725  1.00  0.00     0.076 C 
ATOM      4  C   UNL     1       4.412  -3.778   6.612  1.00  0.00     0.202 C 
ATOM      5  C   UNL     1       2.551  -4.896   7.684  1.00  0.00     0.047 C 
ATOM      6  O   UNL     1       3.772  -4.097   5.414  1.00  0.00    -0.471 OA
ATOM      7  C   UNL     1       2.854  -6.046   6.641  1.00  0.00     0.094 C 
ATOM      8  C   UNL     1       1.104  -4.578   7.274  1.00  0.00     0.037 C 
ATOM      9  C   UNL     1       1.544  -6.815   6.631  1.00  0.00    -0.039 C 
ATOM     10  C   UNL     1       0.578  -5.970   6.983  1.00  0.00    -0.024 C 
BRANCH   3  11
ATOM     11  C   UNL     1       4.181  -3.275   9.020  1.00  0.00     0.337 C 
ATOM     12  O   UNL     1       3.428  -2.513   9.683  1.00  0.00    -0.246 OA
BRANCH  11  13
ATOM     13  O   UNL     1       5.410  -3.680   9.617  1.00  0.00    -0.466 OA
ATOM     14  C   UNL     1       5.778  -5.041   9.861  1.00  0.00     0.282 C 
ENDBRANCH  11  13
ENDBRANCH   3  11
BRANCH   9  15
ATOM     15  C   UNL     1       1.470  -8.348   6.675  1.00  0.00     0.187 C 
BRANCH  15  16
ATOM     16  O   UNL     1       0.240  -8.856   7.059  1.00  0.00    -0.392 OA
ATOM     17  H   UNL     1      -0.198  -8.258   7.726  1.00  0.00     0.211 HD
ENDBRANCH  15  16
ENDBRANCH   9  15
ENDBRANCH   1   2
BRANCH   1  18
ATOM     18  C   UNL     1       5.029  -5.519   3.587  1.00  0.00     0.286 C 
ATOM     19  C   UNL     1       4.848  -6.439   2.380  1.00  0.00     0.202 C 
ATOM     20  O   UNL     1       6.411  -5.274   3.844  1.00  0.00    -0.341 OA
ATOM     21  C   UNL     1       5.404  -7.854   2.726  1.00  0.00     0.179 C 
ATOM     22  C   UNL     1       7.330  -6.340   3.666  1.00  0.00     0.178 C 
ATOM     23  C   UNL     1       6.722  -7.800   3.550  1.00  0.00     0.177 C 
BRANCH  19  24
ATOM     24  O   UNL     1       5.475  -5.897   1.248  1.00  0.00    -0.385 OA
ATOM     25  H   UNL     1       4.854  -6.107   0.489  1.00  0.00     0.211 HD
ENDBRANCH  19  24
BRANCH  21  26
ATOM     26  O   UNL     1       5.603  -8.602   1.562  1.00  0.00    -0.387 OA
ATOM     27  H   UNL     1       4.696  -8.881   1.255  1.00  0.00     0.211 HD
ENDBRANCH  21  26
BRANCH  22  28
ATOM     28  C   UNL     1       8.243  -5.965   2.497  1.00  0.00     0.191 C 
BRANCH  28  29
ATOM     29  O   UNL     1       8.273  -7.022   1.555  1.00  0.00    -0.394 OA
ATOM     30  H   UNL     1       8.145  -6.623   0.654  1.00  0.00     0.210 HD
ENDBRANCH  28  29
ENDBRANCH  22  28
BRANCH  23  31
ATOM     31  O   UNL     1       6.444  -8.304   4.851  1.00  0.00    -0.387 OA
ATOM     32  H   UNL     1       6.958  -7.735   5.466  1.00  0.00     0.211 HD
ENDBRANCH  23  31
ENDBRANCH   1  18
TORSDOF 11
ENDMDL
MODEL 3
REMARK VINA RESULT:    -6.059      9.504     12.041
REMARK INTER + INTRA:         -10.381
REMARK INTER:                  -8.909
REMARK INTRA:                  -1.472
REMARK UNBOUND:                -1.311
REMARK SMILES COC(=O)C1=CO[C@@H](O[C@H]2O[C@H](CO)[C@@H](O)[C@H](O)[C@@H]2O)[C@@H]2C(CO)=CC[C@H]12
REMARK SMILES IDX 9 1 8 2 5 3 6 4 27 5 7 6 21 7 26 8 22 9 25 10 3 11 4 12 2 13
REMARK SMILES IDX 1 14 23 15 24 16 10 18 19 19 11 20 17 21 12 22 15 23 20 24
REMARK SMILES IDX 18 26 13 28 14 29 16 31
REMARK H PARENT 24 17 20 25 18 27 14 30 16 32
REMARK Flexibility Score: inf
ROOT
ATOM      1  O   UNL     1       6.961  -7.058   4.687  1.00  0.00    -0.310 OA
ENDROOT
BRANCH   1   2
ATOM      2  C   UNL     1       7.953  -7.656   3.884  1.00  0.00     0.316 C 
ATOM      3  C   UNL     1       9.234  -6.113   1.670  1.00  0.00     0.076 C 
ATOM      4  C   UNL     1       9.095  -5.721   2.952  1.00  0.00     0.202 C 
ATOM      5  C   UNL     1       8.588  -7.466   1.352  1.00  0.00     0.047 C 
ATOM      6  O   UNL     1       9.060  -6.738   3.907  1.00  0.00    -0.471 OA
ATOM      7  C   UNL     1       7.455  -7.856   2.385  1.00  0.00     0.094 C 
ATOM      8  C   UNL     1       9.377  -8.784   1.354  1.00  0.00     0.037 C 
ATOM      9  C   UNL     1       7.153  -9.292   1.992  1.00  0.00    -0.039 C 
ATOM     10  C   UNL     1       8.246  -9.793   1.422  1.00  0.00    -0.024 C 
BRANCH   3  11
ATOM     11  C   UNL     1       9.526  -5.093   0.602  1.00  0.00     0.337 C 
ATOM     12  O   UNL     1       9.628  -3.888   0.953  1.00  0.00    -0.246 OA
BRANCH  11  13
ATOM     13  O   UNL     1       9.851  -5.424  -0.745  1.00  0.00    -0.466 OA
ATOM     14  C   UNL     1      10.042  -4.463  -1.788  1.00  0.00     0.282 C 
ENDBRANCH  11  13
ENDBRANCH   3  11
BRANCH   9  15
ATOM     15  C   UNL     1       5.725  -9.844   1.859  1.00  0.00     0.187 C 
BRANCH  15  16
ATOM     16  O   UNL     1       4.735  -8.877   1.819  1.00  0.00    -0.392 OA
ATOM     17  H   UNL     1       4.264  -8.888   0.941  1.00  0.00     0.211 HD
ENDBRANCH  15  16
ENDBRANCH   9  15
ENDBRANCH   1   2
BRANCH   1  18
ATOM     18  C   UNL     1       5.853  -6.510   3.991  1.00  0.00     0.286 C 
ATOM     19  C   UNL     1       5.775  -5.035   4.380  1.00  0.00     0.202 C 
ATOM     20  O   UNL     1       4.634  -7.187   4.293  1.00  0.00    -0.341 OA
ATOM     21  C   UNL     1       5.677  -4.918   5.932  1.00  0.00     0.179 C 
ATOM     22  C   UNL     1       3.948  -6.841   5.486  1.00  0.00     0.178 C 
ATOM     23  C   UNL     1       4.757  -6.002   6.562  1.00  0.00     0.177 C 
BRANCH  19  24
ATOM     24  O   UNL     1       4.691  -4.413   3.743  1.00  0.00    -0.385 OA
ATOM     25  H   UNL     1       3.941  -5.077   3.813  1.00  0.00     0.211 HD
ENDBRANCH  19  24
BRANCH  21  26
ATOM     26  O   UNL     1       5.233  -3.645   6.302  1.00  0.00    -0.387 OA
ATOM     27  H   UNL     1       5.844  -2.998   5.851  1.00  0.00     0.211 HD
ENDBRANCH  21  26
BRANCH  22  28
ATOM     28  C   UNL     1       2.623  -6.192   5.078  1.00  0.00     0.191 C 
BRANCH  28  29
ATOM     29  O   UNL     1       2.452  -6.294   3.676  1.00  0.00    -0.394 OA
ATOM     30  H   UNL     1       1.492  -6.484   3.505  1.00  0.00     0.210 HD
ENDBRANCH  28  29
ENDBRANCH  22  28
BRANCH  23  31
ATOM     31  O   UNL     1       5.575  -6.877   7.329  1.00  0.00    -0.387 OA
ATOM     32  H   UNL     1       6.501  -6.609   7.133  1.00  0.00     0.211 HD
ENDBRANCH  23  31
ENDBRANCH   1  18
TORSDOF 11
ENDMDL
MODEL 4
REMARK VINA RESULT:    -6.005      9.795     12.109
REMARK INTER + INTRA:         -10.299
REMARK INTER:                  -9.016
REMARK INTRA:                  -1.283
REMARK UNBOUND:                -1.311
REMARK SMILES COC(=O)C1=CO[C@@H](O[C@H]2O[C@H](CO)[C@@H](O)[C@H](O)[C@@H]2O)[C@@H]2C(CO)=CC[C@H]12
REMARK SMILES IDX 9 1 8 2 5 3 6 4 27 5 7 6 21 7 26 8 22 9 25 10 3 11 4 12 2 13
REMARK SMILES IDX 1 14 23 15 24 16 10 18 19 19 11 20 17 21 12 22 15 23 20 24
REMARK SMILES IDX 18 26 13 28 14 29 16 31
REMARK H PARENT 24 17 20 25 18 27 14 30 16 32
REMARK Flexibility Score: inf
ROOT
ATOM      1  O   UNL     1       5.859  -5.947   5.010  1.00  0.00    -0.310 OA
ENDROOT
BRANCH   1   2
ATOM      2  C   UNL     1       6.568  -7.004   4.404  1.00  0.00     0.316 C 
ATOM      3  C   UNL     1       8.423  -6.467   2.125  1.00  0.00     0.076 C 
ATOM      4  C   UNL     1       8.404  -5.836   3.317  1.00  0.00     0.202 C 
ATOM      5  C   UNL     1       7.314  -7.508   1.947  1.00  0.00     0.047 C 
ATOM      6  O   UNL     1       7.943  -6.583   4.402  1.00  0.00    -0.471 OA
ATOM      7  C   UNL     1       6.083  -7.258   2.909  1.00  0.00     0.094 C 
ATOM      8  C   UNL     1       7.528  -9.005   2.219  1.00  0.00     0.037 C 
ATOM      9  C   UNL     1       5.260  -8.518   2.702  1.00  0.00    -0.039 C 
ATOM     10  C   UNL     1       6.092  -9.484   2.322  1.00  0.00    -0.024 C 
BRANCH   3  11
ATOM     11  C   UNL     1       9.125  -5.834   0.954  1.00  0.00     0.337 C 
ATOM     12  O   UNL     1       9.277  -4.584   0.966  1.00  0.00    -0.246 OA
BRANCH  11  13
ATOM     13  O   UNL     1       9.766  -6.573  -0.083  1.00  0.00    -0.466 OA
ATOM     14  C   UNL     1       9.113  -7.021  -1.275  1.00  0.00     0.282 C 
ENDBRANCH  11  13
ENDBRANCH   3  11
BRANCH   9  15
ATOM     15  C   UNL     1       3.737  -8.504   2.511  1.00  0.00     0.187 C 
BRANCH  15  16
ATOM     16  O   UNL     1       3.141  -7.271   2.719  1.00  0.00    -0.392 OA
ATOM     17  H   UNL     1       3.058  -7.077   3.693  1.00  0.00     0.211 HD
ENDBRANCH  15  16
ENDBRANCH   9  15
ENDBRANCH   1   2
BRANCH   1  18
ATOM     18  C   UNL     1       5.321  -6.224   6.293  1.00  0.00     0.286 C 
ATOM     19  C   UNL     1       3.829  -6.488   6.097  1.00  0.00     0.202 C 
ATOM     20  O   UNL     1       5.538  -5.156   7.214  1.00  0.00    -0.341 OA
ATOM     21  C   UNL     1       3.181  -5.263   5.383  1.00  0.00     0.179 C 
ATOM     22  C   UNL     1       4.657  -4.045   7.178  1.00  0.00     0.178 C 
ATOM     23  C   UNL     1       3.732  -3.903   5.897  1.00  0.00     0.177 C 
BRANCH  19  24
ATOM     24  O   UNL     1       3.210  -6.759   7.327  1.00  0.00    -0.385 OA
ATOM     25  H   UNL     1       3.891  -7.287   7.842  1.00  0.00     0.211 HD
ENDBRANCH  19  24
BRANCH  21  26
ATOM     26  O   UNL     1       1.790  -5.293   5.520  1.00  0.00    -0.387 OA
ATOM     27  H   UNL     1       1.432  -4.657   4.840  1.00  0.00     0.211 HD
ENDBRANCH  21  26
BRANCH  22  28
ATOM     28  C   UNL     1       3.879  -4.037   8.496  1.00  0.00     0.191 C 
BRANCH  28  29
ATOM     29  O   UNL     1       2.492  -3.918   8.232  1.00  0.00    -0.394 OA
ATOM     30  H   UNL     1       2.069  -3.516   9.035  1.00  0.00     0.210 HD
ENDBRANCH  28  29
ENDBRANCH  22  28
BRANCH  23  31
ATOM     31  O   UNL     1       4.473  -3.305   4.840  1.00  0.00    -0.387 OA
ATOM     32  H   UNL     1       4.052  -3.626   4.012  1.00  0.00     0.211 HD
ENDBRANCH  23  31
ENDBRANCH   1  18
TORSDOF 11
ENDMDL
MODEL 5
REMARK VINA RESULT:    -5.911      9.706     11.710
REMARK INTER + INTRA:         -10.159
REMARK INTER:                  -8.707
REMARK INTRA:                  -1.452
REMARK UNBOUND:                -1.311
REMARK SMILES COC(=O)C1=CO[C@@H](O[C@H]2O[C@H](CO)[C@@H](O)[C@H](O)[C@@H]2O)[C@@H]2C(CO)=CC[C@H]12
REMARK SMILES IDX 9 1 8 2 5 3 6 4 27 5 7 6 21 7 26 8 22 9 25 10 3 11 4 12 2 13
REMARK SMILES IDX 1 14 23 15 24 16 10 18 19 19 11 20 17 21 12 22 15 23 20 24
REMARK SMILES IDX 18 26 13 28 14 29 16 31
REMARK H PARENT 24 17 20 25 18 27 14 30 16 32
REMARK Flexibility Score: inf
ROOT
ATOM      1  O   UNL     1       7.383  -7.246   4.128  1.00  0.00    -0.310 OA
ENDROOT
BRANCH   1   2
ATOM      2  C   UNL     1       6.984  -6.833   5.415  1.00  0.00     0.316 C 
ATOM      3  C   UNL     1       4.196  -5.877   5.896  1.00  0.00     0.076 C 
ATOM      4  C   UNL     1       4.562  -7.023   5.288  1.00  0.00     0.202 C 
ATOM      5  C   UNL     1       5.367  -4.976   6.299  1.00  0.00     0.047 C 
ATOM      6  O   UNL     1       5.780  -7.572   5.691  1.00  0.00    -0.471 OA
ATOM      7  C   UNL     1       6.678  -5.272   5.464  1.00  0.00     0.094 C 
ATOM      8  C   UNL     1       5.976  -4.985   7.710  1.00  0.00     0.037 C 
ATOM      9  C   UNL     1       7.713  -4.434   6.195  1.00  0.00    -0.039 C 
ATOM     10  C   UNL     1       7.300  -4.292   7.453  1.00  0.00    -0.024 C 
BRANCH   3  11
ATOM     11  C   UNL     1       2.800  -5.344   5.710  1.00  0.00     0.337 C 
ATOM     12  O   UNL     1       2.174  -5.686   4.673  1.00  0.00    -0.246 OA
BRANCH  11  13
ATOM     13  O   UNL     1       2.090  -4.612   6.706  1.00  0.00    -0.466 OA
ATOM     14  C   UNL     1       0.686  -4.739   6.953  1.00  0.00     0.282 C 
ENDBRANCH  11  13
ENDBRANCH   3  11
BRANCH   9  15
ATOM     15  C   UNL     1       8.744  -3.556   5.473  1.00  0.00     0.187 C 
BRANCH  15  16
ATOM     16  O   UNL     1       8.577  -3.479   4.101  1.00  0.00    -0.392 OA
ATOM     17  H   UNL     1       8.909  -4.308   3.656  1.00  0.00     0.211 HD
ENDBRANCH  15  16
ENDBRANCH   9  15
ENDBRANCH   1   2
BRANCH   1  18
ATOM     18  C   UNL     1       7.116  -6.330   3.077  1.00  0.00     0.286 C 
ATOM     19  C   UNL     1       6.358  -7.105   2.001  1.00  0.00     0.202 C 
ATOM     20  O   UNL     1       8.307  -5.747   2.551  1.00  0.00    -0.341 OA
ATOM     21  C   UNL     1       7.202  -8.343   1.570  1.00  0.00     0.179 C 
ATOM     22  C   UNL     1       9.057  -6.487   1.600  1.00  0.00     0.178 C 
ATOM     23  C   UNL     1       8.722  -8.032   1.467  1.00  0.00     0.177 C 
BRANCH  19  24
ATOM     24  O   UNL     1       6.063  -6.272   0.910  1.00  0.00    -0.385 OA
ATOM     25  H   UNL     1       5.984  -5.354   1.306  1.00  0.00     0.211 HD
ENDBRANCH  19  24
BRANCH  21  26
ATOM     26  O   UNL     1       6.739  -8.854   0.354  1.00  0.00    -0.387 OA
ATOM     27  H   UNL     1       6.024  -8.230   0.046  1.00  0.00     0.211 HD
ENDBRANCH  21  26
BRANCH  22  28
ATOM     28  C   UNL     1       8.983  -5.731   0.272  1.00  0.00     0.191 C 
BRANCH  28  29
ATOM     29  O   UNL     1       8.532  -6.602  -0.750  1.00  0.00    -0.394 OA
ATOM     30  H   UNL     1       9.197  -7.335  -0.832  1.00  0.00     0.210 HD
ENDBRANCH  28  29
ENDBRANCH  22  28
BRANCH  23  31
ATOM     31  O   UNL     1       9.386  -8.753   2.499  1.00  0.00    -0.387 OA
ATOM     32  H   UNL     1      10.116  -8.166   2.799  1.00  0.00     0.211 HD
ENDBRANCH  23  31
ENDBRANCH   1  18
TORSDOF 11
ENDMDL
MODEL 6
REMARK VINA RESULT:    -5.904      9.585     11.836
REMARK INTER + INTRA:         -10.149
REMARK INTER:                  -8.682
REMARK INTRA:                  -1.467
REMARK UNBOUND:                -1.311
REMARK SMILES COC(=O)C1=CO[C@@H](O[C@H]2O[C@H](CO)[C@@H](O)[C@H](O)[C@@H]2O)[C@@H]2C(CO)=CC[C@H]12
REMARK SMILES IDX 9 1 8 2 5 3 6 4 27 5 7 6 21 7 26 8 22 9 25 10 3 11 4 12 2 13
REMARK SMILES IDX 1 14 23 15 24 16 10 18 19 19 11 20 17 21 12 22 15 23 20 24
REMARK SMILES IDX 18 26 13 28 14 29 16 31
REMARK H PARENT 24 17 20 25 18 27 14 30 16 32
REMARK Flexibility Score: inf
ROOT
ATOM      1  O   UNL     1       5.413  -6.390   6.278  1.00  0.00    -0.310 OA
ENDROOT
BRANCH   1   2
ATOM      2  C   UNL     1       6.249  -7.180   5.463  1.00  0.00     0.316 C 
ATOM      3  C   UNL     1       8.155  -5.894   3.557  1.00  0.00     0.076 C 
ATOM      4  C   UNL     1       8.016  -5.619   4.870  1.00  0.00     0.202 C 
ATOM      5  C   UNL     1       7.160  -6.930   3.023  1.00  0.00     0.047 C 
ATOM      6  O   UNL     1       7.576  -6.669   5.676  1.00  0.00    -0.471 OA
ATOM      7  C   UNL     1       5.865  -7.050   3.924  1.00  0.00     0.094 C 
ATOM      8  C   UNL     1       7.502  -8.422   2.897  1.00  0.00     0.037 C 
ATOM      9  C   UNL     1       5.178  -8.265   3.325  1.00  0.00    -0.039 C 
ATOM     10  C   UNL     1       6.116  -9.022   2.760  1.00  0.00    -0.024 C 
BRANCH   3  11
ATOM     11  C   UNL     1       8.851  -4.910   2.655  1.00  0.00     0.337 C 
ATOM     12  O   UNL     1       9.323  -3.866   3.177  1.00  0.00    -0.246 OA
BRANCH  11  13
ATOM     13  O   UNL     1       9.147  -5.161   1.284  1.00  0.00    -0.466 OA
ATOM     14  C   UNL     1      10.121  -4.439   0.523  1.00  0.00     0.282 C 
ENDBRANCH  11  13
ENDBRANCH   3  11
BRANCH   9  15
ATOM     15  C   UNL     1       3.671  -8.318   3.033  1.00  0.00     0.187 C 
BRANCH  15  16
ATOM     16  O   UNL     1       3.065  -7.080   2.898  1.00  0.00    -0.392 OA
ATOM     17  H   UNL     1       3.699  -6.348   3.135  1.00  0.00     0.211 HD
ENDBRANCH  15  16
ENDBRANCH   9  15
ENDBRANCH   1   2
BRANCH   1  18
ATOM     18  C   UNL     1       4.452  -5.603   5.592  1.00  0.00     0.286 C 
ATOM     19  C   UNL     1       4.598  -4.175   6.115  1.00  0.00     0.202 C 
ATOM     20  O   UNL     1       3.122  -6.086   5.779  1.00  0.00    -0.341 OA
ATOM     21  C   UNL     1       4.434  -4.178   7.665  1.00  0.00     0.179 C 
ATOM     22  C   UNL     1       2.437  -5.733   6.970  1.00  0.00     0.178 C 
ATOM     23  C   UNL     1       3.313  -5.139   8.153  1.00  0.00     0.177 C 
BRANCH  19  24
ATOM     24  O   UNL     1       3.668  -3.325   5.496  1.00  0.00    -0.385 OA
ATOM     25  H   UNL     1       2.963  -3.170   6.193  1.00  0.00     0.211 HD
ENDBRANCH  19  24
BRANCH  21  26
ATOM     26  O   UNL     1       4.186  -2.885   8.136  1.00  0.00    -0.387 OA
ATOM     27  H   UNL     1       5.076  -2.437   8.193  1.00  0.00     0.211 HD
ENDBRANCH  21  26
BRANCH  22  28
ATOM     28  C   UNL     1       1.263  -4.835   6.572  1.00  0.00     0.191 C 
BRANCH  28  29
ATOM     29  O   UNL     1       1.174  -4.763   5.160  1.00  0.00    -0.394 OA
ATOM     30  H   UNL     1       1.575  -5.594   4.792  1.00  0.00     0.210 HD
ENDBRANCH  28  29
ENDBRANCH  22  28
BRANCH  23  31
ATOM     31  O   UNL     1       3.931  -6.204   8.866  1.00  0.00    -0.387 OA
ATOM     32  H   UNL     1       3.203  -6.644   9.359  1.00  0.00     0.211 HD
ENDBRANCH  23  31
ENDBRANCH   1  18
TORSDOF 11
ENDMDL
MODEL 7
REMARK VINA RESULT:    -5.795      1.415      2.445
REMARK INTER + INTRA:          -9.986
REMARK INTER:                  -8.455
REMARK INTRA:                  -1.531
REMARK UNBOUND:                -1.311
REMARK SMILES COC(=O)C1=CO[C@@H](O[C@H]2O[C@H](CO)[C@@H](O)[C@H](O)[C@@H]2O)[C@@H]2C(CO)=CC[C@H]12
REMARK SMILES IDX 9 1 8 2 5 3 6 4 27 5 7 6 21 7 26 8 22 9 25 10 3 11 4 12 2 13
REMARK SMILES IDX 1 14 23 15 24 16 10 18 19 19 11 20 17 21 12 22 15 23 20 24
REMARK SMILES IDX 18 26 13 28 14 29 16 31
REMARK H PARENT 24 17 20 25 18 27 14 30 16 32
REMARK Flexibility Score: inf
ROOT
ATOM      1  O   UNL     1       6.237   5.194   0.082  1.00  0.00    -0.310 OA
ENDROOT
BRANCH   1   2
ATOM      2  C   UNL     1       6.369   5.586   1.429  1.00  0.00     0.316 C 
ATOM      3  C   UNL     1       8.051   3.987   3.309  1.00  0.00     0.076 C 
ATOM      4  C   UNL     1       8.415   4.452   2.097  1.00  0.00     0.202 C 
ATOM      5  C   UNL     1       6.594   4.276   3.682  1.00  0.00     0.047 C 
ATOM      6  O   UNL     1       7.787   5.624   1.672  1.00  0.00    -0.471 OA
ATOM      7  C   UNL     1       5.683   4.544   2.417  1.00  0.00     0.094 C 
ATOM      8  C   UNL     1       6.178   5.483   4.536  1.00  0.00     0.037 C 
ATOM      9  C   UNL     1       4.388   5.016   3.055  1.00  0.00    -0.039 C 
ATOM     10  C   UNL     1       4.691   5.544   4.239  1.00  0.00    -0.024 C 
BRANCH   3  11
ATOM     11  C   UNL     1       8.840   2.879   3.954  1.00  0.00     0.337 C 
ATOM     12  O   UNL     1       9.563   3.170   4.943  1.00  0.00    -0.246 OA
BRANCH  11  13
ATOM     13  O   UNL     1       8.697   1.502   3.617  1.00  0.00    -0.466 OA
ATOM     14  C   UNL     1       9.440   0.841   2.588  1.00  0.00     0.282 C 
ENDBRANCH  11  13
ENDBRANCH   3  11
BRANCH   9  15
ATOM     15  C   UNL     1       3.003   4.525   2.608  1.00  0.00     0.187 C 
BRANCH  15  16
ATOM     16  O   UNL     1       3.004   3.292   1.979  1.00  0.00    -0.392 OA
ATOM     17  H   UNL     1       3.935   2.998   1.775  1.00  0.00     0.211 HD
ENDBRANCH  15  16
ENDBRANCH   9  15
ENDBRANCH   1   2
BRANCH   1  18
ATOM     18  C   UNL     1       5.613   3.938  -0.134  1.00  0.00     0.286 C 
ATOM     19  C   UNL     1       6.500   3.169  -1.113  1.00  0.00     0.202 C 
ATOM     20  O   UNL     1       4.285   4.072  -0.639  1.00  0.00    -0.341 OA
ATOM     21  C   UNL     1       6.693   4.018  -2.406  1.00  0.00     0.179 C 
ATOM     22  C   UNL     1       4.111   4.302  -2.028  1.00  0.00     0.178 C 
ATOM     23  C   UNL     1       5.394   4.750  -2.848  1.00  0.00     0.177 C 
BRANCH  19  24
ATOM     24  O   UNL     1       5.946   1.911  -1.395  1.00  0.00    -0.385 OA
ATOM     25  H   UNL     1       5.425   2.047  -2.242  1.00  0.00     0.211 HD
ENDBRANCH  19  24
BRANCH  21  26
ATOM     26  O   UNL     1       7.166   3.220  -3.452  1.00  0.00    -0.387 OA
ATOM     27  H   UNL     1       7.156   3.798  -4.265  1.00  0.00     0.211 HD
ENDBRANCH  21  26
BRANCH  22  28
ATOM     28  C   UNL     1       3.416   3.069  -2.611  1.00  0.00     0.191 C 
BRANCH  28  29
ATOM     29  O   UNL     1       2.918   2.259  -1.561  1.00  0.00    -0.394 OA
ATOM     30  H   UNL     1       2.617   1.402  -1.962  1.00  0.00     0.210 HD
ENDBRANCH  28  29
ENDBRANCH  22  28
BRANCH  23  31
ATOM     31  O   UNL     1       5.600   6.147  -2.678  1.00  0.00    -0.387 OA
ATOM     32  H   UNL     1       5.799   6.493  -3.577  1.00  0.00     0.211 HD
ENDBRANCH  23  31
ENDBRANCH   1  18
TORSDOF 11
ENDMDL
MODEL 8
REMARK VINA RESULT:    -5.752     10.253     12.978
REMARK INTER + INTRA:          -9.922
REMARK INTER:                  -8.441
REMARK INTRA:                  -1.480
REMARK UNBOUND:                -1.311
REMARK SMILES COC(=O)C1=CO[C@@H](O[C@H]2O[C@H](CO)[C@@H](O)[C@H](O)[C@@H]2O)[C@@H]2C(CO)=CC[C@H]12
REMARK SMILES IDX 9 1 8 2 5 3 6 4 27 5 7 6 21 7 26 8 22 9 25 10 3 11 4 12 2 13
REMARK SMILES IDX 1 14 23 15 24 16 10 18 19 19 11 20 17 21 12 22 15 23 20 24
REMARK SMILES IDX 18 26 13 28 14 29 16 31
REMARK H PARENT 24 17 20 25 18 27 14 30 16 32
REMARK Flexibility Score: inf
ROOT
ATOM      1  O   UNL     1       4.791  -7.812   5.584  1.00  0.00    -0.310 OA
ENDROOT
BRANCH   1   2
ATOM      2  C   UNL     1       4.444  -7.239   6.824  1.00  0.00     0.316 C 
ATOM      3  C   UNL     1       1.577  -6.999   7.626  1.00  0.00     0.076 C 
ATOM      4  C   UNL     1       2.201  -8.109   7.183  1.00  0.00     0.202 C 
ATOM      5  C   UNL     1       2.454  -5.744   7.633  1.00  0.00     0.047 C 
ATOM      6  O   UNL     1       3.569  -8.194   7.448  1.00  0.00    -0.471 OA
ATOM      7  C   UNL     1       3.681  -5.854   6.640  1.00  0.00     0.094 C 
ATOM      8  C   UNL     1       3.203  -5.260   8.884  1.00  0.00     0.037 C 
ATOM      9  C   UNL     1       4.489  -4.619   7.000  1.00  0.00    -0.039 C 
ATOM     10  C   UNL     1       4.209  -4.309   8.264  1.00  0.00    -0.024 C 
BRANCH   3  11
ATOM     11  C   UNL     1       0.073  -6.927   7.605  1.00  0.00     0.337 C 
ATOM     12  O   UNL     1      -0.461  -5.979   6.973  1.00  0.00    -0.246 OA
BRANCH  11  13
ATOM     13  O   UNL     1      -0.778  -7.949   8.117  1.00  0.00    -0.466 OA
ATOM     14  C   UNL     1      -0.710  -8.463   9.451  1.00  0.00     0.282 C 
ENDBRANCH  11  13
ENDBRANCH   3  11
BRANCH   9  15
ATOM     15  C   UNL     1       5.106  -3.683   5.951  1.00  0.00     0.187 C 
BRANCH  15  16
ATOM     16  O   UNL     1       4.446  -3.667   4.734  1.00  0.00    -0.392 OA
ATOM     17  H   UNL     1       3.865  -4.471   4.634  1.00  0.00     0.211 HD
ENDBRANCH  15  16
ENDBRANCH   9  15
ENDBRANCH   1   2
BRANCH   1  18
ATOM     18  C   UNL     1       4.367  -7.095   4.435  1.00  0.00     0.286 C 
ATOM     19  C   UNL     1       3.650  -8.098   3.532  1.00  0.00     0.202 C 
ATOM     20  O   UNL     1       5.454  -6.474   3.751  1.00  0.00    -0.341 OA
ATOM     21  C   UNL     1       4.607  -9.289   3.226  1.00  0.00     0.179 C 
ATOM     22  C   UNL     1       6.235  -7.262   2.867  1.00  0.00     0.178 C 
ATOM     23  C   UNL     1       6.074  -8.837   2.978  1.00  0.00     0.177 C 
BRANCH  19  24
ATOM     24  O   UNL     1       3.205  -7.473   2.357  1.00  0.00    -0.385 OA
ATOM     25  H   UNL     1       2.302  -7.105   2.591  1.00  0.00     0.211 HD
ENDBRANCH  19  24
BRANCH  21  26
ATOM     26  O   UNL     1       4.145 -10.022   2.128  1.00  0.00    -0.387 OA
ATOM     27  H   UNL     1       3.229 -10.335   2.372  1.00  0.00     0.211 HD
ENDBRANCH  21  26
BRANCH  22  28
ATOM     28  C   UNL     1       6.006  -6.724   1.453  1.00  0.00     0.191 C 
BRANCH  28  29
ATOM     29  O   UNL     1       5.253  -5.526   1.513  1.00  0.00    -0.394 OA
ATOM     30  H   UNL     1       4.426  -5.666   0.982  1.00  0.00     0.210 HD
ENDBRANCH  28  29
ENDBRANCH  22  28
BRANCH  23  31
ATOM     31  O   UNL     1       6.869  -9.321   4.054  1.00  0.00    -0.387 OA
ATOM     32  H   UNL     1       6.270  -9.893   4.584  1.00  0.00     0.211 HD
ENDBRANCH  23  31
ENDBRANCH   1  18
TORSDOF 11
ENDMDL
MODEL 9
REMARK VINA RESULT:    -5.732     10.032     11.873
REMARK INTER + INTRA:          -9.891
REMARK INTER:                  -8.772
REMARK INTRA:                  -1.119
REMARK UNBOUND:                -1.311
REMARK SMILES COC(=O)C1=CO[C@@H](O[C@H]2O[C@H](CO)[C@@H](O)[C@H](O)[C@@H]2O)[C@@H]2C(CO)=CC[C@H]12
REMARK SMILES IDX 9 1 8 2 5 3 6 4 27 5 7 6 21 7 26 8 22 9 25 10 3 11 4 12 2 13
REMARK SMILES IDX 1 14 23 15 24 16 10 18 19 19 11 20 17 21 12 22 15 23 20 24
REMARK SMILES IDX 18 26 13 28 14 29 16 31
REMARK H PARENT 24 17 20 25 18 27 14 30 16 32
REMARK Flexibility Score: inf
ROOT
ATOM      1  O   UNL     1       4.503  -5.392   5.611  1.00  0.00    -0.310 OA
ENDROOT
BRANCH   1   2
ATOM      2  C   UNL     1       5.628  -4.770   5.033  1.00  0.00     0.316 C 
ATOM      3  C   UNL     1       7.518  -6.344   3.339  1.00  0.00     0.076 C 
ATOM      4  C   UNL     1       6.177  -6.288   3.214  1.00  0.00     0.202 C 
ATOM      5  C   UNL     1       8.072  -5.558   4.531  1.00  0.00     0.047 C 
ATOM      6  O   UNL     1       5.567  -5.106   3.636  1.00  0.00    -0.471 OA
ATOM      7  C   UNL     1       6.987  -5.315   5.657  1.00  0.00     0.094 C 
ATOM      8  C   UNL     1       8.609  -4.124   4.404  1.00  0.00     0.037 C 
ATOM      9  C   UNL     1       7.706  -4.349   6.583  1.00  0.00    -0.039 C 
ATOM     10  C   UNL     1       8.605  -3.688   5.857  1.00  0.00    -0.024 C 
BRANCH   3  11
ATOM     11  C   UNL     1       8.284  -7.466   2.691  1.00  0.00     0.337 C 
ATOM     12  O   UNL     1       7.792  -8.623   2.748  1.00  0.00    -0.246 OA
BRANCH  11  13
ATOM     13  O   UNL     1       9.444  -7.275   1.886  1.00  0.00    -0.466 OA
ATOM     14  C   UNL     1       9.617  -6.195   0.963  1.00  0.00     0.282 C 
ENDBRANCH  11  13
ENDBRANCH   3  11
BRANCH   9  15
ATOM     15  C   UNL     1       7.699  -4.489   8.112  1.00  0.00     0.187 C 
BRANCH  15  16
ATOM     16  O   UNL     1       8.857  -4.058   8.736  1.00  0.00    -0.392 OA
ATOM     17  H   UNL     1       9.659  -4.270   8.182  1.00  0.00     0.211 HD
ENDBRANCH  15  16
ENDBRANCH   9  15
ENDBRANCH   1   2
BRANCH   1  18
ATOM     18  C   UNL     1       3.483  -4.517   6.067  1.00  0.00     0.286 C 
ATOM     19  C   UNL     1       3.586  -4.476   7.590  1.00  0.00     0.202 C 
ATOM     20  O   UNL     1       2.183  -4.934   5.650  1.00  0.00    -0.341 OA
ATOM     21  C   UNL     1       3.480  -5.927   8.150  1.00  0.00     0.179 C 
ATOM     22  C   UNL     1       1.529  -5.948   6.396  1.00  0.00     0.178 C 
ATOM     23  C   UNL     1       2.422  -6.787   7.404  1.00  0.00     0.177 C 
BRANCH  19  24
ATOM     24  O   UNL     1       2.598  -3.638   8.130  1.00  0.00    -0.385 OA
ATOM     25  H   UNL     1       2.428  -4.005   9.048  1.00  0.00     0.211 HD
ENDBRANCH  19  24
BRANCH  21  26
ATOM     26  O   UNL     1       3.195  -5.907   9.519  1.00  0.00    -0.387 OA
ATOM     27  H   UNL     1       2.324  -5.429   9.611  1.00  0.00     0.211 HD
ENDBRANCH  21  26
BRANCH  22  28
ATOM     28  C   UNL     1       0.303  -5.311   7.053  1.00  0.00     0.191 C 
BRANCH  28  29
ATOM     29  O   UNL     1       0.212  -3.948   6.677  1.00  0.00    -0.394 OA
ATOM     30  H   UNL     1       0.427  -3.402   7.479  1.00  0.00     0.210 HD
ENDBRANCH  28  29
ENDBRANCH  22  28
BRANCH  23  31
ATOM     31  O   UNL     1       3.112  -7.807   6.690  1.00  0.00    -0.387 OA
ATOM     32  H   UNL     1       2.754  -7.773   5.775  1.00  0.00     0.211 HD
ENDBRANCH  23  31
ENDBRANCH   1  18
TORSDOF 11
ENDMDL
