MODEL 1
REMARK VINA RESULT:    -5.152      0.000      0.000
REMARK INTER + INTRA:          -5.996
REMARK INTER:                  -5.905
REMARK INTRA:                  -0.090
REMARK UNBOUND:                -0.090
REMARK SMILES C=Cc1ccc(O)c(OC)c1
REMARK SMILES IDX 8 1 6 2 5 3 4 4 3 5 11 6 9 7 10 8 7 9 2 11 1 12
REMARK H PARENT 7 10
REMARK Flexibility Score: inf
ROOT
ATOM      1  C   UNL     1      31.443   7.058 107.006  1.00  0.00     0.161 A 
ATOM      2  C   UNL     1      30.963   6.160 106.043  1.00  0.00     0.157 A 
ATOM      3  C   UNL     1      30.527   6.632 104.798  1.00  0.00     0.051 A 
ATOM      4  C   UNL     1      30.561   7.997 104.511  1.00  0.00     0.012 A 
ATOM      5  C   UNL     1      31.023   8.916 105.465  1.00  0.00    -0.022 A 
ATOM      6  C   UNL     1      31.476   8.437 106.712  1.00  0.00     0.058 A 
ENDROOT
BRANCH   1   7
ATOM      7  O   UNL     1      31.880   6.544 108.237  1.00  0.00    -0.493 OA
ATOM      8  C   UNL     1      33.192   6.715 108.764  1.00  0.00     0.278 C 
ENDBRANCH   1   7
BRANCH   2   9
ATOM      9  O   UNL     1      30.926   4.796 106.329  1.00  0.00    -0.504 OA
ATOM     10  H   UNL     1      30.053   4.319 106.523  1.00  0.00     0.293 HD
ENDBRANCH   2   9
BRANCH   5  11
ATOM     11  C   UNL     1      31.045  10.356 105.107  1.00  0.00     0.000 C 
ATOM     12  C   UNL     1      30.091  11.226 105.440  1.00  0.00     0.009 C 
ENDBRANCH   5  11
TORSDOF 3
ENDMDL
MODEL 2
REMARK VINA RESULT:    -5.112      2.076      3.178
REMARK INTER + INTRA:          -5.949
REMARK INTER:                  -5.857
REMARK INTRA:                  -0.093
REMARK UNBOUND:                -0.090
REMARK SMILES C=Cc1ccc(O)c(OC)c1
REMARK SMILES IDX 8 1 6 2 5 3 4 4 3 5 11 6 9 7 10 8 7 9 2 11 1 12
REMARK H PARENT 7 10
REMARK Flexibility Score: inf
ROOT
ATOM      1  C   UNL     1      33.261   8.118 107.761  1.00  0.00     0.161 A 
ATOM      2  C   UNL     1      32.933   6.951 108.464  1.00  0.00     0.157 A 
ATOM      3  C   UNL     1      31.861   6.155 108.043  1.00  0.00     0.051 A 
ATOM      4  C   UNL     1      31.109   6.520 106.926  1.00  0.00     0.012 A 
ATOM      5  C   UNL     1      31.409   7.692 106.215  1.00  0.00    -0.022 A 
ATOM      6  C   UNL     1      32.499   8.483 106.632  1.00  0.00     0.058 A 
ENDROOT
BRANCH   1   7
ATOM      7  O   UNL     1      34.349   8.883 108.209  1.00  0.00    -0.493 OA
ATOM      8  C   UNL     1      35.192   9.661 107.366  1.00  0.00     0.278 C 
ENDBRANCH   1   7
BRANCH   2   9
ATOM      9  O   UNL     1      33.682   6.586 109.583  1.00  0.00    -0.504 OA
ATOM     10  H   UNL     1      34.287   5.774 109.574  1.00  0.00     0.293 HD
ENDBRANCH   2   9
BRANCH   5  11
ATOM     11  C   UNL     1      30.583   8.031 105.030  1.00  0.00     0.000 C 
ATOM     12  C   UNL     1      30.285   7.173 104.053  1.00  0.00     0.009 C 
ENDBRANCH   5  11
TORSDOF 3
ENDMDL
MODEL 3
REMARK VINA RESULT:    -4.993      2.313      4.285
REMARK INTER + INTRA:          -5.814
REMARK INTER:                  -5.726
REMARK INTRA:                  -0.087
REMARK UNBOUND:                -0.090
REMARK SMILES C=Cc1ccc(O)c(OC)c1
REMARK SMILES IDX 8 1 6 2 5 3 4 4 3 5 11 6 9 7 10 8 7 9 2 11 1 12
REMARK H PARENT 7 10
REMARK Flexibility Score: inf
ROOT
ATOM      1  C   UNL     1      32.519   7.805 107.452  1.00  0.00     0.161 A 
ATOM      2  C   UNL     1      31.485   8.067 106.544  1.00  0.00     0.157 A 
ATOM      3  C   UNL     1      30.776   7.008 105.964  1.00  0.00     0.051 A 
ATOM      4  C   UNL     1      31.096   5.687 106.281  1.00  0.00     0.012 A 
ATOM      5  C   UNL     1      32.137   5.401 107.177  1.00  0.00    -0.022 A 
ATOM      6  C   UNL     1      32.840   6.469 107.771  1.00  0.00     0.058 A 
ENDROOT
BRANCH   1   7
ATOM      7  O   UNL     1      33.200   8.894 108.019  1.00  0.00    -0.493 OA
ATOM      8  C   UNL     1      34.598   9.131 107.887  1.00  0.00     0.278 C 
ENDBRANCH   1   7
BRANCH   2   9
ATOM      9  O   UNL     1      31.166   9.386 106.223  1.00  0.00    -0.504 OA
ATOM     10  H   UNL     1      30.761  10.014 106.906  1.00  0.00     0.293 HD
ENDBRANCH   2   9
BRANCH   5  11
ATOM     11  C   UNL     1      32.433   3.980 107.486  1.00  0.00     0.000 C 
ATOM     12  C   UNL     1      33.587   3.375 107.200  1.00  0.00     0.009 C 
ENDBRANCH   5  11
TORSDOF 3
ENDMDL
MODEL 4
REMARK VINA RESULT:    -4.868      1.654      3.071
REMARK INTER + INTRA:          -5.669
REMARK INTER:                  -5.579
REMARK INTRA:                  -0.091
REMARK UNBOUND:                -0.090
REMARK SMILES C=Cc1ccc(O)c(OC)c1
REMARK SMILES IDX 8 1 6 2 5 3 4 4 3 5 11 6 9 7 10 8 7 9 2 11 1 12
REMARK H PARENT 7 10
REMARK Flexibility Score: inf
ROOT
ATOM      1  C   UNL     1      32.218   5.782 107.492  1.00  0.00     0.161 A 
ATOM      2  C   UNL     1      32.805   6.750 108.316  1.00  0.00     0.157 A 
ATOM      3  C   UNL     1      32.630   8.111 108.036  1.00  0.00     0.051 A 
ATOM      4  C   UNL     1      31.876   8.512 106.933  1.00  0.00     0.012 A 
ATOM      5  C   UNL     1      31.291   7.560 106.084  1.00  0.00    -0.022 A 
ATOM      6  C   UNL     1      31.455   6.191 106.378  1.00  0.00     0.058 A 
ENDROOT
BRANCH   1   7
ATOM      7  O   UNL     1      32.408   4.429 107.812  1.00  0.00    -0.493 OA
ATOM      8  C   UNL     1      33.333   3.566 107.159  1.00  0.00     0.278 C 
ENDBRANCH   1   7
BRANCH   2   9
ATOM      9  O   UNL     1      33.562   6.352 109.417  1.00  0.00    -0.504 OA
ATOM     10  H   UNL     1      34.531   6.630 109.524  1.00  0.00     0.293 HD
ENDBRANCH   2   9
BRANCH   5  11
ATOM     11  C   UNL     1      30.492   8.039 104.929  1.00  0.00     0.000 C 
ATOM     12  C   UNL     1      30.241   7.313 103.838  1.00  0.00     0.009 C 
ENDBRANCH   5  11
TORSDOF 3
ENDMDL
MODEL 5
REMARK VINA RESULT:    -4.701      3.267      4.620
REMARK INTER + INTRA:          -5.479
REMARK INTER:                  -5.380
REMARK INTRA:                  -0.099
REMARK UNBOUND:                -0.090
REMARK SMILES C=Cc1ccc(O)c(OC)c1
REMARK SMILES IDX 8 1 6 2 5 3 4 4 3 5 11 6 9 7 10 8 7 9 2 11 1 12
REMARK H PARENT 7 10
REMARK Flexibility Score: inf
ROOT
ATOM      1  C   UNL     1      34.303   9.441 106.754  1.00  0.00     0.161 A 
ATOM      2  C   UNL     1      33.468   9.828 105.698  1.00  0.00     0.157 A 
ATOM      3  C   UNL     1      32.185   9.279 105.579  1.00  0.00     0.051 A 
ATOM      4  C   UNL     1      31.732   8.339 106.506  1.00  0.00     0.012 A 
ATOM      5  C   UNL     1      32.556   7.925 107.563  1.00  0.00    -0.022 A 
ATOM      6  C   UNL     1      33.841   8.491 107.689  1.00  0.00     0.058 A 
ENDROOT
BRANCH   1   7
ATOM      7  O   UNL     1      35.577  10.022 106.844  1.00  0.00    -0.493 OA
ATOM      8  C   UNL     1      35.919  11.089 107.723  1.00  0.00     0.278 C 
ENDBRANCH   1   7
BRANCH   2   9
ATOM      9  O   UNL     1      33.919  10.764 104.769  1.00  0.00    -0.504 OA
ATOM     10  H   UNL     1      34.774  10.621 104.244  1.00  0.00     0.293 HD
ENDBRANCH   2   9
BRANCH   5  11
ATOM     11  C   UNL     1      32.024   6.929 108.526  1.00  0.00     0.000 C 
ATOM     12  C   UNL     1      32.103   5.608 108.359  1.00  0.00     0.009 C 
ENDBRANCH   5  11
TORSDOF 3
ENDMDL
MODEL 6
REMARK VINA RESULT:    -4.604      2.046      3.671
REMARK INTER + INTRA:          -5.367
REMARK INTER:                  -5.275
REMARK INTRA:                  -0.092
REMARK UNBOUND:                -0.090
REMARK SMILES C=Cc1ccc(O)c(OC)c1
REMARK SMILES IDX 8 1 6 2 5 3 4 4 3 5 11 6 9 7 10 8 7 9 2 11 1 12
REMARK H PARENT 7 10
REMARK Flexibility Score: inf
ROOT
ATOM      1  C   UNL     1      31.212   6.760 106.384  1.00  0.00     0.161 A 
ATOM      2  C   UNL     1      31.388   5.443 106.829  1.00  0.00     0.157 A 
ATOM      3  C   UNL     1      32.364   5.150 107.789  1.00  0.00     0.051 A 
ATOM      4  C   UNL     1      33.172   6.165 108.305  1.00  0.00     0.012 A 
ATOM      5  C   UNL     1      33.024   7.488 107.864  1.00  0.00    -0.022 A 
ATOM      6  C   UNL     1      32.029   7.783 106.909  1.00  0.00     0.058 A 
ENDROOT
BRANCH   1   7
ATOM      7  O   UNL     1      30.216   7.014 105.429  1.00  0.00    -0.493 OA
ATOM      8  C   UNL     1      30.468   7.348 104.068  1.00  0.00     0.278 C 
ENDBRANCH   1   7
BRANCH   2   9
ATOM      9  O   UNL     1      30.584   4.427 106.312  1.00  0.00    -0.504 OA
ATOM     10  H   UNL     1      29.720   4.631 105.824  1.00  0.00     0.293 HD
ENDBRANCH   2   9
BRANCH   5  11
ATOM     11  C   UNL     1      33.902   8.531 108.450  1.00  0.00     0.000 C 
ATOM     12  C   UNL     1      34.767   9.264 107.748  1.00  0.00     0.009 C 
ENDBRANCH   5  11
TORSDOF 3
ENDMDL
MODEL 7
REMARK VINA RESULT:    -4.503      3.449      4.754
REMARK INTER + INTRA:          -5.252
REMARK INTER:                  -5.146
REMARK INTRA:                  -0.106
REMARK UNBOUND:                -0.090
REMARK SMILES C=Cc1ccc(O)c(OC)c1
REMARK SMILES IDX 8 1 6 2 5 3 4 4 3 5 11 6 9 7 10 8 7 9 2 11 1 12
REMARK H PARENT 7 10
REMARK Flexibility Score: inf
ROOT
ATOM      1  C   UNL     1      34.489  10.155 106.022  1.00  0.00     0.161 A 
ATOM      2  C   UNL     1      34.866   9.431 107.162  1.00  0.00     0.157 A 
ATOM      3  C   UNL     1      33.986   8.498 107.724  1.00  0.00     0.051 A 
ATOM      4  C   UNL     1      32.728   8.286 107.158  1.00  0.00     0.012 A 
ATOM      5  C   UNL     1      32.323   9.009 106.026  1.00  0.00    -0.022 A 
ATOM      6  C   UNL     1      33.217   9.937 105.453  1.00  0.00     0.058 A 
ENDROOT
BRANCH   1   7
ATOM      7  O   UNL     1      35.403  11.073 105.483  1.00  0.00    -0.493 OA
ATOM      8  C   UNL     1      35.371  12.477 105.717  1.00  0.00     0.278 C 
ENDBRANCH   1   7
BRANCH   2   9
ATOM      9  O   UNL     1      36.121   9.644 107.730  1.00  0.00    -0.504 OA
ATOM     10  H   UNL     1      36.970   9.582 107.180  1.00  0.00     0.293 HD
ENDBRANCH   2   9
BRANCH   5  11
ATOM     11  C   UNL     1      30.978   8.741 105.460  1.00  0.00     0.000 C 
ATOM     12  C   UNL     1      30.563   7.541 105.049  1.00  0.00     0.009 C 
ENDBRANCH   5  11
TORSDOF 3
ENDMDL
MODEL 8
REMARK VINA RESULT:    -4.438      1.794      3.821
REMARK INTER + INTRA:          -5.177
REMARK INTER:                  -5.107
REMARK INTRA:                  -0.071
REMARK UNBOUND:                -0.090
REMARK SMILES C=Cc1ccc(O)c(OC)c1
REMARK SMILES IDX 8 1 6 2 5 3 4 4 3 5 11 6 9 7 10 8 7 9 2 11 1 12
REMARK H PARENT 7 10
REMARK Flexibility Score: inf
ROOT
ATOM      1  C   UNL     1      31.062   7.995 105.622  1.00  0.00     0.161 A 
ATOM      2  C   UNL     1      30.658   6.751 105.118  1.00  0.00     0.157 A 
ATOM      3  C   UNL     1      30.932   5.580 105.836  1.00  0.00     0.051 A 
ATOM      4  C   UNL     1      31.612   5.642 107.053  1.00  0.00     0.012 A 
ATOM      5  C   UNL     1      32.039   6.875 107.569  1.00  0.00    -0.022 A 
ATOM      6  C   UNL     1      31.749   8.053 106.852  1.00  0.00     0.058 A 
ENDROOT
BRANCH   1   7
ATOM      7  O   UNL     1      30.760   9.145 104.877  1.00  0.00    -0.493 OA
ATOM      8  C   UNL     1      30.811  10.474 105.386  1.00  0.00     0.278 C 
ENDBRANCH   1   7
BRANCH   2   9
ATOM      9  O   UNL     1      29.981   6.687 103.901  1.00  0.00    -0.504 OA
ATOM     10  H   UNL     1      30.252   7.262 103.112  1.00  0.00     0.293 HD
ENDBRANCH   2   9
BRANCH   5  11
ATOM     11  C   UNL     1      32.752   6.887 108.871  1.00  0.00     0.000 C 
ATOM     12  C   UNL     1      33.867   7.579 109.109  1.00  0.00     0.009 C 
ENDBRANCH   5  11
TORSDOF 3
ENDMDL
MODEL 9
REMARK VINA RESULT:    -4.350      2.784      3.474
REMARK INTER + INTRA:          -5.076
REMARK INTER:                  -4.977
REMARK INTRA:                  -0.100
REMARK UNBOUND:                -0.090
REMARK SMILES C=Cc1ccc(O)c(OC)c1
REMARK SMILES IDX 8 1 6 2 5 3 4 4 3 5 11 6 9 7 10 8 7 9 2 11 1 12
REMARK H PARENT 7 10
REMARK Flexibility Score: inf
ROOT
ATOM      1  C   UNL     1      32.493   7.981 107.434  1.00  0.00     0.161 A 
ATOM      2  C   UNL     1      31.807   8.453 106.307  1.00  0.00     0.157 A 
ATOM      3  C   UNL     1      32.385   9.437 105.495  1.00  0.00     0.051 A 
ATOM      4  C   UNL     1      33.642   9.958 105.805  1.00  0.00     0.012 A 
ATOM      5  C   UNL     1      34.340   9.511 106.937  1.00  0.00    -0.022 A 
ATOM      6  C   UNL     1      33.763   8.510 107.744  1.00  0.00     0.058 A 
ENDROOT
BRANCH   1   7
ATOM      7  O   UNL     1      31.884   6.988 108.217  1.00  0.00    -0.493 OA
ATOM      8  C   UNL     1      32.275   5.618 108.232  1.00  0.00     0.278 C 
ENDBRANCH   1   7
BRANCH   2   9
ATOM      9  O   UNL     1      30.550   7.937 105.997  1.00  0.00    -0.504 OA
ATOM     10  H   UNL     1      29.946   7.547 106.712  1.00  0.00     0.293 HD
ENDBRANCH   2   9
BRANCH   5  11
ATOM     11  C   UNL     1      35.676  10.092 107.218  1.00  0.00     0.000 C 
ATOM     12  C   UNL     1      35.874  11.240 107.867  1.00  0.00     0.009 C 
ENDBRANCH   5  11
TORSDOF 3
ENDMDL
