MODEL 1
REMARK VINA RESULT:    11.059      0.000      0.000
REMARK INTER + INTRA:          14.275
REMARK INTER:                  14.615
REMARK INTRA:                  -0.340
REMARK UNBOUND:                -0.340
REMARK SMILES C=C(CC[C@H](C)[C@H]1CC[C@@]2(C)[C@@H]3CC[C@H]4C(C)(C)[C@H](O)CC[C@]45C[C@]35CC[C@@]12C)C(C)C
REMARK SMILES IDX 4 1 3 2 2 3 1 4 30 5 31 6 32 7 5 8 6 9 7 10 8 11 28 12 9 13
REMARK SMILES IDX 10 14 27 15 29 16 11 17 12 18 26 19 25 20 13 21 23 22 24 23
REMARK SMILES IDX 14 24 15 25 22 26 16 27 21 28 19 29 17 30 18 31 20 32
REMARK H PARENT 20 33
REMARK Flexibility Score: inf
ROOT
ATOM      1  C   UNL     1      11.628  15.913  23.513  1.00  0.00     0.008 C 
ENDROOT
BRANCH   1   2
ATOM      2  C   UNL     1      11.574  17.431  23.275  1.00  0.00     0.031 C 
BRANCH   2   3
ATOM      3  C   UNL     1      12.704  17.883  22.371  1.00  0.00    -0.075 C 
ATOM      4  C   UNL     1      13.939  18.013  22.882  1.00  0.00     0.008 C 
BRANCH   3   5
ATOM      5  C   UNL     1      12.470  18.123  20.884  1.00  0.00     0.008 C 
ATOM      6  C   UNL     1      13.686  17.687  20.060  1.00  0.00     0.012 C 
ATOM      7  C   UNL     1      11.195  17.422  20.400  1.00  0.00     0.012 C 
ENDBRANCH   3   5
ENDBRANCH   2   3
ENDBRANCH   1   2
BRANCH   1   8
ATOM      8  C   UNL     1      12.143  15.562  24.940  1.00  0.00    -0.010 C 
ATOM      9  C   UNL     1      10.996  14.861  25.705  1.00  0.00     0.008 C 
BRANCH   8  10
ATOM     10  C   UNL     1      12.661  16.844  25.682  1.00  0.00    -0.002 C 
ATOM     11  C   UNL     1      11.748  17.332  26.821  1.00  0.00     0.005 C 
ATOM     12  C   UNL     1      14.142  16.856  26.276  1.00  0.00    -0.024 C 
ATOM     13  C   UNL     1      12.657  18.045  27.804  1.00  0.00     0.008 C 
ATOM     14  C   UNL     1      13.966  17.231  27.819  1.00  0.00    -0.024 C 
ATOM     15  C   UNL     1      15.029  15.570  26.061  1.00  0.00     0.008 C 
ATOM     16  C   UNL     1      14.895  17.987  25.497  1.00  0.00     0.012 C 
ATOM     17  C   UNL     1      15.116  18.124  28.369  1.00  0.00     0.012 C 
ATOM     18  C   UNL     1      13.777  15.946  28.739  1.00  0.00     0.002 C 
ATOM     19  C   UNL     1      14.830  14.387  27.008  1.00  0.00     0.008 C 
ATOM     20  C   UNL     1      14.846  14.869  28.456  1.00  0.00    -0.020 C 
ATOM     21  C   UNL     1      13.557  16.216  30.250  1.00  0.00     0.005 C 
ATOM     22  C   UNL     1      15.244  13.869  29.586  1.00  0.00    -0.020 C 
ATOM     23  C   UNL     1      16.220  14.970  29.112  1.00  0.00     0.015 C 
ATOM     24  C   UNL     1      13.370  14.900  31.001  1.00  0.00     0.005 C 
ATOM     25  C   UNL     1      14.695  14.116  31.033  1.00  0.00     0.004 C 
ATOM     26  C   UNL     1      15.632  12.429  29.143  1.00  0.00     0.010 C 
ATOM     27  C   UNL     1      14.628  12.814  31.908  1.00  0.00    -0.006 C 
ATOM     28  C   UNL     1      16.059  11.457  30.263  1.00  0.00     0.033 C 
ATOM     29  C   UNL     1      15.938  12.002  31.692  1.00  0.00     0.120 C 
ATOM     30  C   UNL     1      14.537  13.181  33.413  1.00  0.00     0.014 C 
ATOM     31  C   UNL     1      13.392  11.937  31.570  1.00  0.00     0.014 C 
BRANCH  29  32
ATOM     32  O   UNL     1      17.067  12.800  31.966  1.00  0.00    -0.393 OA
ATOM     33  H   UNL     1      16.813  13.743  31.790  1.00  0.00     0.210 HD
ENDBRANCH  29  32
ENDBRANCH   8  10
ENDBRANCH   1   8
TORSDOF 6
ENDMDL
