MODEL 1
REMARK VINA RESULT:    -3.880      0.000      0.000
REMARK INTER + INTRA:          -4.123
REMARK INTER:                  -4.107
REMARK INTRA:                  -0.016
REMARK UNBOUND:                -0.016
REMARK SMILES O=C([O-])c1cccnc1
REMARK SMILES IDX 4 1 5 2 9 3 6 4 8 5 7 6 2 7 1 8 3 9
REMARK H PARENT
REMARK Flexibility Score: inf
ROOT
ATOM      1  C   UNL     1     -10.090  41.584 -18.821  1.00  0.00     0.016 A 
ATOM      2  C   UNL     1      -9.177  41.547 -19.887  1.00  0.00     0.013 A 
ATOM      3  C   UNL     1      -9.663  42.122 -17.594  1.00  0.00     0.120 A 
ATOM      4  C   UNL     1      -7.881  42.036 -19.718  1.00  0.00     0.021 A 
ATOM      5  N   UNL     1      -8.394  42.592 -17.456  1.00  0.00    -0.264 NA
ATOM      6  C   UNL     1      -7.504  42.560 -18.481  1.00  0.00     0.111 A 
ENDROOT
BRANCH   1   7
ATOM      7  C   UNL     1     -11.468  41.072 -18.979  1.00  0.00     0.073 C 
ATOM      8  O   UNL     1     -11.791  39.947 -18.512  1.00  0.00    -0.545 OA
ATOM      9  O   UNL     1     -12.429  41.826 -19.643  1.00  0.00    -0.545 OA
ENDBRANCH   1   7
TORSDOF 1
ENDMDL
MODEL 2
REMARK VINA RESULT:    -3.770      2.099      3.157
REMARK INTER + INTRA:          -4.006
REMARK INTER:                  -3.983
REMARK INTRA:                  -0.024
REMARK UNBOUND:                -0.016
REMARK SMILES O=C([O-])c1cccnc1
REMARK SMILES IDX 4 1 5 2 9 3 6 4 8 5 7 6 2 7 1 8 3 9
REMARK H PARENT
REMARK Flexibility Score: inf
ROOT
ATOM      1  C   UNL     1     -10.110  41.485 -16.886  1.00  0.00     0.016 A 
ATOM      2  C   UNL     1     -10.869  41.277 -15.722  1.00  0.00     0.013 A 
ATOM      3  C   UNL     1      -8.880  42.157 -16.769  1.00  0.00     0.120 A 
ATOM      4  C   UNL     1     -10.402  41.731 -14.489  1.00  0.00     0.021 A 
ATOM      5  N   UNL     1      -8.448  42.590 -15.554  1.00  0.00    -0.264 NA
ATOM      6  C   UNL     1      -9.175  42.393 -14.424  1.00  0.00     0.111 A 
ENDROOT
BRANCH   1   7
ATOM      7  C   UNL     1     -10.586  41.011 -18.202  1.00  0.00     0.073 C 
ATOM      8  O   UNL     1     -11.539  40.190 -18.281  1.00  0.00    -0.545 OA
ATOM      9  O   UNL     1      -9.991  41.466 -19.374  1.00  0.00    -0.545 OA
ENDBRANCH   1   7
TORSDOF 1
ENDMDL
MODEL 3
REMARK VINA RESULT:    -3.768      2.861      3.486
REMARK INTER + INTRA:          -4.005
REMARK INTER:                  -3.981
REMARK INTRA:                  -0.023
REMARK UNBOUND:                -0.016
REMARK SMILES O=C([O-])c1cccnc1
REMARK SMILES IDX 4 1 5 2 9 3 6 4 8 5 7 6 2 7 1 8 3 9
REMARK H PARENT
REMARK Flexibility Score: inf
ROOT
ATOM      1  C   UNL     1      -9.798  41.936 -16.801  1.00  0.00     0.016 A 
ATOM      2  C   UNL     1      -8.929  42.584 -17.695  1.00  0.00     0.013 A 
ATOM      3  C   UNL     1     -10.730  41.020 -17.320  1.00  0.00     0.120 A 
ATOM      4  C   UNL     1      -9.001  42.313 -19.062  1.00  0.00     0.021 A 
ATOM      5  N   UNL     1     -10.778  40.775 -18.658  1.00  0.00    -0.264 NA
ATOM      6  C   UNL     1      -9.943  41.396 -19.530  1.00  0.00     0.111 A 
ENDROOT
BRANCH   1   7
ATOM      7  C   UNL     1      -9.737  42.207 -15.349  1.00  0.00     0.073 C 
ATOM      8  O   UNL     1     -10.629  41.763 -14.577  1.00  0.00    -0.545 OA
ATOM      9  O   UNL     1      -8.694  42.954 -14.814  1.00  0.00    -0.545 OA
ENDBRANCH   1   7
TORSDOF 1
ENDMDL
MODEL 4
REMARK VINA RESULT:    -3.640      2.273      3.001
REMARK INTER + INTRA:          -3.869
REMARK INTER:                  -3.846
REMARK INTRA:                  -0.023
REMARK UNBOUND:                -0.016
REMARK SMILES O=C([O-])c1cccnc1
REMARK SMILES IDX 4 1 5 2 9 3 6 4 8 5 7 6 2 7 1 8 3 9
REMARK H PARENT
REMARK Flexibility Score: inf
ROOT
ATOM      1  C   UNL     1     -10.154  41.583 -16.817  1.00  0.00     0.016 A 
ATOM      2  C   UNL     1      -8.912  42.228 -16.699  1.00  0.00     0.013 A 
ATOM      3  C   UNL     1     -10.907  41.363 -15.650  1.00  0.00     0.120 A 
ATOM      4  C   UNL     1      -8.451  42.636 -15.447  1.00  0.00     0.021 A 
ATOM      5  N   UNL     1     -10.433  41.772 -14.442  1.00  0.00    -0.264 NA
ATOM      6  C   UNL     1      -9.234  42.396 -14.317  1.00  0.00     0.111 A 
ENDROOT
BRANCH   1   7
ATOM      7  C   UNL     1     -10.662  41.143 -18.134  1.00  0.00     0.073 C 
ATOM      8  O   UNL     1     -11.616  40.323 -18.212  1.00  0.00    -0.545 OA
ATOM      9  O   UNL     1     -10.096  41.631 -19.307  1.00  0.00    -0.545 OA
ENDBRANCH   1   7
TORSDOF 1
ENDMDL
MODEL 5
REMARK VINA RESULT:    -3.600      1.035      1.961
REMARK INTER + INTRA:          -3.827
REMARK INTER:                  -3.811
REMARK INTRA:                  -0.016
REMARK UNBOUND:                -0.016
REMARK SMILES O=C([O-])c1cccnc1
REMARK SMILES IDX 4 1 5 2 9 3 6 4 8 5 7 6 2 7 1 8 3 9
REMARK H PARENT
REMARK Flexibility Score: inf
ROOT
ATOM      1  C   UNL     1      -9.803  41.668 -18.932  1.00  0.00     0.016 A 
ATOM      2  C   UNL     1      -9.301  42.289 -17.775  1.00  0.00     0.013 A 
ATOM      3  C   UNL     1      -8.941  41.507 -20.031  1.00  0.00     0.120 A 
ATOM      4  C   UNL     1      -7.978  42.728 -17.733  1.00  0.00     0.021 A 
ATOM      5  N   UNL     1      -7.655  41.946 -19.963  1.00  0.00    -0.264 NA
ATOM      6  C   UNL     1      -7.161  42.546 -18.850  1.00  0.00     0.111 A 
ENDROOT
BRANCH   1   7
ATOM      7  C   UNL     1     -11.202  41.194 -18.997  1.00  0.00     0.073 C 
ATOM      8  O   UNL     1     -12.083  41.877 -19.585  1.00  0.00    -0.545 OA
ATOM      9  O   UNL     1     -11.565  39.986 -18.412  1.00  0.00    -0.545 OA
ENDBRANCH   1   7
TORSDOF 1
ENDMDL
MODEL 6
REMARK VINA RESULT:    -3.439      2.913      3.783
REMARK INTER + INTRA:          -3.656
REMARK INTER:                  -3.639
REMARK INTRA:                  -0.017
REMARK UNBOUND:                -0.016
REMARK SMILES O=C([O-])c1cccnc1
REMARK SMILES IDX 4 1 5 2 9 3 6 4 8 5 7 6 2 7 1 8 3 9
REMARK H PARENT
REMARK Flexibility Score: inf
ROOT
ATOM      1  C   UNL     1      -8.293  42.247 -19.267  1.00  0.00     0.016 A 
ATOM      2  C   UNL     1      -9.386  41.511 -19.755  1.00  0.00     0.013 A 
ATOM      3  C   UNL     1      -8.274  42.589 -17.904  1.00  0.00     0.120 A 
ATOM      4  C   UNL     1     -10.419  41.135 -18.895  1.00  0.00     0.021 A 
ATOM      5  N   UNL     1      -9.294  42.210 -17.087  1.00  0.00    -0.264 NA
ATOM      6  C   UNL     1     -10.354  41.498 -17.549  1.00  0.00     0.111 A 
ENDROOT
BRANCH   1   7
ATOM      7  C   UNL     1      -7.189  42.654 -20.161  1.00  0.00     0.073 C 
ATOM      8  O   UNL     1      -7.364  43.552 -21.027  1.00  0.00    -0.545 OA
ATOM      9  O   UNL     1      -5.939  42.053 -20.057  1.00  0.00    -0.545 OA
ENDBRANCH   1   7
TORSDOF 1
ENDMDL
MODEL 7
REMARK VINA RESULT:    -3.407     14.464     15.281
REMARK INTER + INTRA:          -3.623
REMARK INTER:                  -3.600
REMARK INTRA:                  -0.022
REMARK UNBOUND:                -0.016
REMARK SMILES O=C([O-])c1cccnc1
REMARK SMILES IDX 4 1 5 2 9 3 6 4 8 5 7 6 2 7 1 8 3 9
REMARK H PARENT
REMARK Flexibility Score: inf
ROOT
ATOM      1  C   UNL     1     -21.998  33.625 -16.531  1.00  0.00     0.016 A 
ATOM      2  C   UNL     1     -21.380  32.727 -15.644  1.00  0.00     0.013 A 
ATOM      3  C   UNL     1     -22.513  33.122 -17.739  1.00  0.00     0.120 A 
ATOM      4  C   UNL     1     -21.287  31.373 -15.968  1.00  0.00     0.021 A 
ATOM      5  N   UNL     1     -22.409  31.796 -18.029  1.00  0.00    -0.264 NA
ATOM      6  C   UNL     1     -21.813  30.922 -17.179  1.00  0.00     0.111 A 
ENDROOT
BRANCH   1   7
ATOM      7  C   UNL     1     -22.108  35.063 -16.207  1.00  0.00     0.073 C 
ATOM      8  O   UNL     1     -23.014  35.769 -16.726  1.00  0.00    -0.545 OA
ATOM      9  O   UNL     1     -21.215  35.657 -15.322  1.00  0.00    -0.545 OA
ENDBRANCH   1   7
TORSDOF 1
ENDMDL
MODEL 8
REMARK VINA RESULT:    -3.378     16.007     17.016
REMARK INTER + INTRA:          -3.592
REMARK INTER:                  -3.571
REMARK INTRA:                  -0.021
REMARK UNBOUND:                -0.016
REMARK SMILES O=C([O-])c1cccnc1
REMARK SMILES IDX 4 1 5 2 9 3 6 4 8 5 7 6 2 7 1 8 3 9
REMARK H PARENT
REMARK Flexibility Score: inf
ROOT
ATOM      1  C   UNL     1     -21.662  30.372 -16.818  1.00  0.00     0.016 A 
ATOM      2  C   UNL     1     -22.055  30.689 -18.129  1.00  0.00     0.013 A 
ATOM      3  C   UNL     1     -21.731  29.029 -16.407  1.00  0.00     0.120 A 
ATOM      4  C   UNL     1     -22.500  29.685 -18.990  1.00  0.00     0.021 A 
ATOM      5  N   UNL     1     -22.169  28.070 -17.267  1.00  0.00    -0.264 NA
ATOM      6  C   UNL     1     -22.551  28.367 -18.536  1.00  0.00     0.111 A 
ENDROOT
BRANCH   1   7
ATOM      7  C   UNL     1     -21.186  31.420 -15.890  1.00  0.00     0.073 C 
ATOM      8  O   UNL     1     -20.337  31.149 -15.000  1.00  0.00    -0.545 OA
ATOM      9  O   UNL     1     -21.668  32.720 -15.989  1.00  0.00    -0.545 OA
ENDBRANCH   1   7
TORSDOF 1
ENDMDL
MODEL 9
REMARK VINA RESULT:    -3.303      3.772      4.552
REMARK INTER + INTRA:          -3.512
REMARK INTER:                  -3.490
REMARK INTRA:                  -0.022
REMARK UNBOUND:                -0.016
REMARK SMILES O=C([O-])c1cccnc1
REMARK SMILES IDX 4 1 5 2 9 3 6 4 8 5 7 6 2 7 1 8 3 9
REMARK H PARENT
REMARK Flexibility Score: inf
ROOT
ATOM      1  C   UNL     1      -7.149  42.208 -20.985  1.00  0.00     0.016 A 
ATOM      2  C   UNL     1      -8.184  41.380 -20.521  1.00  0.00     0.013 A 
ATOM      3  C   UNL     1      -6.963  43.457 -20.366  1.00  0.00     0.120 A 
ATOM      4  C   UNL     1      -8.999  41.799 -19.468  1.00  0.00     0.021 A 
ATOM      5  N   UNL     1      -7.772  43.841 -19.341  1.00  0.00    -0.264 NA
ATOM      6  C   UNL     1      -8.775  43.047 -18.885  1.00  0.00     0.111 A 
ENDROOT
BRANCH   1   7
ATOM      7  C   UNL     1      -6.273  41.783 -22.098  1.00  0.00     0.073 C 
ATOM      8  O   UNL     1      -5.094  42.219 -22.188  1.00  0.00    -0.545 OA
ATOM      9  O   UNL     1      -6.738  40.893 -23.060  1.00  0.00    -0.545 OA
ENDBRANCH   1   7
TORSDOF 1
ENDMDL
