MODEL 1
REMARK VINA RESULT:    -5.407      0.000      0.000
REMARK INTER + INTRA:          -7.148
REMARK INTER:                  -6.987
REMARK INTRA:                  -0.161
REMARK UNBOUND:                -0.161
REMARK SMILES CCCCCCC(=O)[O-]
REMARK SMILES IDX 5 1 6 2 7 3 8 4 9 5 4 6 3 7 2 8 1 9
REMARK H PARENT
REMARK Flexibility Score: inf
ROOT
ATOM      1  C   UNL     1      -5.064   5.334   4.994  1.00  0.00     0.006 C 
ENDROOT
BRANCH   1   2
ATOM      2  C   UNL     1      -3.596   4.941   4.784  1.00  0.00     0.053 C 
BRANCH   2   3
ATOM      3  C   UNL     1      -3.287   3.604   5.384  1.00  0.00     0.041 C 
ATOM      4  O   UNL     1      -2.815   3.526   6.548  1.00  0.00    -0.550 OA
ATOM      5  O   UNL     1      -3.489   2.445   4.644  1.00  0.00    -0.550 OA
ENDBRANCH   2   3
ENDBRANCH   1   2
BRANCH   1   6
ATOM      6  C   UNL     1      -5.542   6.372   3.968  1.00  0.00     0.000 C 
BRANCH   6   7
ATOM      7  C   UNL     1      -6.819   5.897   3.259  1.00  0.00    -0.000 C 
BRANCH   7   8
ATOM      8  C   UNL     1      -6.858   6.301   1.778  1.00  0.00    -0.003 C 
ATOM      9  C   UNL     1      -5.666   7.167   1.369  1.00  0.00     0.004 C 
ENDBRANCH   7   8
ENDBRANCH   6   7
ENDBRANCH   1   6
TORSDOF 5
ENDMDL
MODEL 2
REMARK VINA RESULT:    -5.311      1.574      2.200
REMARK INTER + INTRA:          -7.025
REMARK INTER:                  -6.928
REMARK INTRA:                  -0.096
REMARK UNBOUND:                -0.161
REMARK SMILES CCCCCCC(=O)[O-]
REMARK SMILES IDX 5 1 6 2 7 3 8 4 9 5 4 6 3 7 2 8 1 9
REMARK H PARENT
REMARK Flexibility Score: inf
ROOT
ATOM      1  C   UNL     1      -5.985   6.262   4.088  1.00  0.00     0.006 C 
ENDROOT
BRANCH   1   2
ATOM      2  C   UNL     1      -5.405   4.868   4.362  1.00  0.00     0.053 C 
BRANCH   2   3
ATOM      3  C   UNL     1      -4.129   4.940   5.142  1.00  0.00     0.041 C 
ATOM      4  O   UNL     1      -4.000   4.280   6.206  1.00  0.00    -0.550 OA
ATOM      5  O   UNL     1      -3.094   5.760   4.711  1.00  0.00    -0.550 OA
ENDBRANCH   2   3
ENDBRANCH   1   2
BRANCH   1   6
ATOM      6  C   UNL     1      -5.699   6.741   2.657  1.00  0.00     0.000 C 
BRANCH   6   7
ATOM      7  C   UNL     1      -6.833   6.333   1.705  1.00  0.00    -0.000 C 
BRANCH   7   8
ATOM      8  C   UNL     1      -8.114   5.930   2.450  1.00  0.00    -0.003 C 
ATOM      9  C   UNL     1      -9.347   5.923   1.547  1.00  0.00     0.004 C 
ENDBRANCH   7   8
ENDBRANCH   6   7
ENDBRANCH   1   6
TORSDOF 5
ENDMDL
MODEL 3
REMARK VINA RESULT:    -5.114      2.010      2.782
REMARK INTER + INTRA:          -6.770
REMARK INTER:                  -6.585
REMARK INTRA:                  -0.185
REMARK UNBOUND:                -0.161
REMARK SMILES CCCCCCC(=O)[O-]
REMARK SMILES IDX 5 1 6 2 7 3 8 4 9 5 4 6 3 7 2 8 1 9
REMARK H PARENT
REMARK Flexibility Score: inf
ROOT
ATOM      1  C   UNL     1      -5.768   6.371   2.856  1.00  0.00     0.006 C 
ENDROOT
BRANCH   1   2
ATOM      2  C   UNL     1      -5.909   6.023   4.343  1.00  0.00     0.053 C 
BRANCH   2   3
ATOM      3  C   UNL     1      -4.619   5.531   4.925  1.00  0.00     0.041 C 
ATOM      4  O   UNL     1      -4.621   4.605   5.778  1.00  0.00    -0.550 OA
ATOM      5  O   UNL     1      -3.418   6.118   4.550  1.00  0.00    -0.550 OA
ENDBRANCH   2   3
ENDBRANCH   1   2
BRANCH   1   6
ATOM      6  C   UNL     1      -7.099   6.248   2.099  1.00  0.00     0.000 C 
BRANCH   6   7
ATOM      7  C   UNL     1      -8.209   5.726   3.023  1.00  0.00    -0.000 C 
BRANCH   7   8
ATOM      8  C   UNL     1      -9.589   5.732   2.350  1.00  0.00    -0.003 C 
ATOM      9  C   UNL     1      -9.510   5.950   0.838  1.00  0.00     0.004 C 
ENDBRANCH   7   8
ENDBRANCH   6   7
ENDBRANCH   1   6
TORSDOF 5
ENDMDL
MODEL 4
REMARK VINA RESULT:    -4.992      9.280      9.966
REMARK INTER + INTRA:          -6.612
REMARK INTER:                  -6.469
REMARK INTRA:                  -0.143
REMARK UNBOUND:                -0.161
REMARK SMILES CCCCCCC(=O)[O-]
REMARK SMILES IDX 5 1 6 2 7 3 8 4 9 5 4 6 3 7 2 8 1 9
REMARK H PARENT
REMARK Flexibility Score: inf
ROOT
ATOM      1  C   UNL     1      -1.892  -0.829  -4.290  1.00  0.00     0.006 C 
ENDROOT
BRANCH   1   2
ATOM      2  C   UNL     1      -1.534  -2.308  -4.099  1.00  0.00     0.053 C 
BRANCH   2   3
ATOM      3  C   UNL     1      -2.034  -2.837  -2.790  1.00  0.00     0.041 C 
ATOM      4  O   UNL     1      -2.711  -3.898  -2.753  1.00  0.00    -0.550 OA
ATOM      5  O   UNL     1      -1.782  -2.141  -1.615  1.00  0.00    -0.550 OA
ENDBRANCH   2   3
ENDBRANCH   1   2
BRANCH   1   6
ATOM      6  C   UNL     1      -3.393  -0.563  -4.100  1.00  0.00     0.000 C 
BRANCH   6   7
ATOM      7  C   UNL     1      -3.641   0.338  -2.881  1.00  0.00    -0.000 C 
BRANCH   7   8
ATOM      8  C   UNL     1      -4.819  -0.143  -2.021  1.00  0.00    -0.003 C 
ATOM      9  C   UNL     1      -4.667   0.232  -0.546  1.00  0.00     0.004 C 
ENDBRANCH   7   8
ENDBRANCH   6   7
ENDBRANCH   1   6
TORSDOF 5
ENDMDL
MODEL 5
REMARK VINA RESULT:    -4.958      4.139      5.722
REMARK INTER + INTRA:          -6.568
REMARK INTER:                  -6.393
REMARK INTRA:                  -0.175
REMARK UNBOUND:                -0.161
REMARK SMILES CCCCCCC(=O)[O-]
REMARK SMILES IDX 5 1 6 2 7 3 8 4 9 5 4 6 3 7 2 8 1 9
REMARK H PARENT
REMARK Flexibility Score: inf
ROOT
ATOM      1  C   UNL     1      -7.778   5.609   2.594  1.00  0.00     0.006 C 
ENDROOT
BRANCH   1   2
ATOM      2  C   UNL     1      -9.119   5.925   1.919  1.00  0.00     0.053 C 
BRANCH   2   3
ATOM      3  C   UNL     1     -10.277   5.651   2.827  1.00  0.00     0.041 C 
ATOM      4  O   UNL     1     -10.506   4.479   3.225  1.00  0.00    -0.550 OA
ATOM      5  O   UNL     1     -11.125   6.684   3.207  1.00  0.00    -0.550 OA
ENDBRANCH   2   3
ENDBRANCH   1   2
BRANCH   1   6
ATOM      6  C   UNL     1      -6.605   6.356   1.941  1.00  0.00     0.000 C 
BRANCH   6   7
ATOM      7  C   UNL     1      -5.514   6.674   2.973  1.00  0.00    -0.000 C 
BRANCH   7   8
ATOM      8  C   UNL     1      -5.869   6.176   4.381  1.00  0.00    -0.003 C 
ATOM      9  C   UNL     1      -4.826   5.214   4.950  1.00  0.00     0.004 C 
ENDBRANCH   7   8
ENDBRANCH   6   7
ENDBRANCH   1   6
TORSDOF 5
ENDMDL
MODEL 6
REMARK VINA RESULT:    -4.822      9.925     10.545
REMARK INTER + INTRA:          -6.392
REMARK INTER:                  -6.218
REMARK INTRA:                  -0.174
REMARK UNBOUND:                -0.161
REMARK SMILES CCCCCCC(=O)[O-]
REMARK SMILES IDX 5 1 6 2 7 3 8 4 9 5 4 6 3 7 2 8 1 9
REMARK H PARENT
REMARK Flexibility Score: inf
ROOT
ATOM      1  C   UNL     1      -2.678  -1.073  -3.302  1.00  0.00     0.006 C 
ENDROOT
BRANCH   1   2
ATOM      2  C   UNL     1      -1.744  -1.057  -4.520  1.00  0.00     0.053 C 
BRANCH   2   3
ATOM      3  C   UNL     1      -1.107  -2.393  -4.749  1.00  0.00     0.041 C 
ATOM      4  O   UNL     1      -1.347  -3.352  -3.969  1.00  0.00    -0.550 OA
ATOM      5  O   UNL     1      -0.222  -2.571  -5.805  1.00  0.00    -0.550 OA
ENDBRANCH   2   3
ENDBRANCH   1   2
BRANCH   1   6
ATOM      6  C   UNL     1      -4.126  -1.413  -3.683  1.00  0.00     0.000 C 
BRANCH   6   7
ATOM      7  C   UNL     1      -5.119  -0.743  -2.721  1.00  0.00    -0.000 C 
BRANCH   7   8
ATOM      8  C   UNL     1      -4.469   0.365  -1.880  1.00  0.00    -0.003 C 
ATOM      9  C   UNL     1      -4.726   0.199  -0.382  1.00  0.00     0.004 C 
ENDBRANCH   7   8
ENDBRANCH   6   7
ENDBRANCH   1   6
TORSDOF 5
ENDMDL
MODEL 7
REMARK VINA RESULT:    -4.809      3.404      5.138
REMARK INTER + INTRA:          -6.375
REMARK INTER:                  -6.200
REMARK INTRA:                  -0.175
REMARK UNBOUND:                -0.161
REMARK SMILES CCCCCCC(=O)[O-]
REMARK SMILES IDX 5 1 6 2 7 3 8 4 9 5 4 6 3 7 2 8 1 9
REMARK H PARENT
REMARK Flexibility Score: inf
ROOT
ATOM      1  C   UNL     1      -6.243   5.483   3.613  1.00  0.00     0.006 C 
ENDROOT
BRANCH   1   2
ATOM      2  C   UNL     1      -7.023   6.039   2.414  1.00  0.00     0.053 C 
BRANCH   2   3
ATOM      3  C   UNL     1      -8.503   5.893   2.597  1.00  0.00     0.041 C 
ATOM      4  O   UNL     1      -8.996   5.846   3.754  1.00  0.00    -0.550 OA
ATOM      5  O   UNL     1      -9.333   5.775   1.489  1.00  0.00    -0.550 OA
ENDBRANCH   2   3
ENDBRANCH   1   2
BRANCH   1   6
ATOM      6  C   UNL     1      -5.213   6.486   4.154  1.00  0.00     0.000 C 
BRANCH   6   7
ATOM      7  C   UNL     1      -3.923   5.771   4.581  1.00  0.00    -0.000 C 
BRANCH   7   8
ATOM      8  C   UNL     1      -4.195   4.507   5.411  1.00  0.00    -0.003 C 
ATOM      9  C   UNL     1      -3.140   3.422   5.200  1.00  0.00     0.004 C 
ENDBRANCH   7   8
ENDBRANCH   6   7
ENDBRANCH   1   6
TORSDOF 5
ENDMDL
MODEL 8
REMARK VINA RESULT:    -4.761      1.502      2.182
REMARK INTER + INTRA:          -6.313
REMARK INTER:                  -6.241
REMARK INTRA:                  -0.072
REMARK UNBOUND:                -0.161
REMARK SMILES CCCCCCC(=O)[O-]
REMARK SMILES IDX 5 1 6 2 7 3 8 4 9 5 4 6 3 7 2 8 1 9
REMARK H PARENT
REMARK Flexibility Score: inf
ROOT
ATOM      1  C   UNL     1      -4.097   4.212   6.107  1.00  0.00     0.006 C 
ENDROOT
BRANCH   1   2
ATOM      2  C   UNL     1      -3.139   3.017   6.015  1.00  0.00     0.053 C 
BRANCH   2   3
ATOM      3  C   UNL     1      -2.759   2.502   7.369  1.00  0.00     0.041 C 
ATOM      4  O   UNL     1      -2.482   3.306   8.297  1.00  0.00    -0.550 OA
ATOM      5  O   UNL     1      -2.679   1.134   7.597  1.00  0.00    -0.550 OA
ENDBRANCH   2   3
ENDBRANCH   1   2
BRANCH   1   6
ATOM      6  C   UNL     1      -4.153   5.016   4.799  1.00  0.00     0.000 C 
BRANCH   6   7
ATOM      7  C   UNL     1      -5.599   5.395   4.449  1.00  0.00    -0.000 C 
BRANCH   7   8
ATOM      8  C   UNL     1      -5.680   6.545   3.435  1.00  0.00    -0.003 C 
ATOM      9  C   UNL     1      -6.558   6.211   2.228  1.00  0.00     0.004 C 
ENDBRANCH   7   8
ENDBRANCH   6   7
ENDBRANCH   1   6
TORSDOF 5
ENDMDL
MODEL 9
REMARK VINA RESULT:    -4.755     11.015     11.646
REMARK INTER + INTRA:          -6.306
REMARK INTER:                  -6.131
REMARK INTRA:                  -0.175
REMARK UNBOUND:                -0.161
REMARK SMILES CCCCCCC(=O)[O-]
REMARK SMILES IDX 5 1 6 2 7 3 8 4 9 5 4 6 3 7 2 8 1 9
REMARK H PARENT
REMARK Flexibility Score: inf
ROOT
ATOM      1  C   UNL     1      -1.769  -2.643  -3.609  1.00  0.00     0.006 C 
ENDROOT
BRANCH   1   2
ATOM      2  C   UNL     1      -1.070  -2.135  -4.877  1.00  0.00     0.053 C 
BRANCH   2   3
ATOM      3  C   UNL     1      -0.349  -3.235  -5.593  1.00  0.00     0.041 C 
ATOM      4  O   UNL     1       0.150  -3.030  -6.731  1.00  0.00    -0.550 OA
ATOM      5  O   UNL     1      -0.257  -4.497  -5.019  1.00  0.00    -0.550 OA
ENDBRANCH   2   3
ENDBRANCH   1   2
BRANCH   1   6
ATOM      6  C   UNL     1      -3.160  -2.020  -3.421  1.00  0.00     0.000 C 
BRANCH   6   7
ATOM      7  C   UNL     1      -3.148  -0.528  -3.788  1.00  0.00    -0.000 C 
BRANCH   7   8
ATOM      8  C   UNL     1      -3.654   0.365  -2.646  1.00  0.00    -0.003 C 
ATOM      9  C   UNL     1      -4.850  -0.238  -1.908  1.00  0.00     0.004 C 
ENDBRANCH   7   8
ENDBRANCH   6   7
ENDBRANCH   1   6
TORSDOF 5
ENDMDL
