MODEL 1
REMARK VINA RESULT:    -2.915      0.000      0.000
REMARK INTER + INTRA:          -7.452
REMARK INTER:                  -5.471
REMARK INTRA:                  -1.981
REMARK UNBOUND:                -1.981
REMARK SMILES O=C([O-])CCCCCCCCCCCCCCC(=O)[O-]
REMARK SMILES IDX 10 1 9 2 8 3 7 4 6 5 5 6 4 7 2 8 1 9 3 10 11 11 12 12 13 13
REMARK SMILES IDX 14 14 15 15 16 16 17 17 18 18 19 19 20 20
REMARK H PARENT
REMARK Flexibility Score: inf
ROOT
ATOM      1  C   UNL     1       6.417  10.048  -5.585  1.00  0.00     0.000 C 
ENDROOT
BRANCH   1   2
ATOM      2  C   UNL     1       5.675   8.806  -5.068  1.00  0.00     0.000 C 
BRANCH   2   3
ATOM      3  C   UNL     1       4.592   9.198  -4.055  1.00  0.00     0.000 C 
BRANCH   3   4
ATOM      4  C   UNL     1       4.913   8.641  -2.662  1.00  0.00     0.000 C 
BRANCH   4   5
ATOM      5  C   UNL     1       6.134   9.342  -2.057  1.00  0.00     0.000 C 
BRANCH   5   6
ATOM      6  C   UNL     1       7.143   8.320  -1.513  1.00  0.00     0.006 C 
BRANCH   6   7
ATOM      7  C   UNL     1       8.402   8.226  -2.384  1.00  0.00     0.053 C 
BRANCH   7   8
ATOM      8  C   UNL     1       8.376   7.019  -3.272  1.00  0.00     0.041 C 
ATOM      9  O   UNL     1       7.402   6.223  -3.228  1.00  0.00    -0.550 OA
ATOM     10  O   UNL     1       9.440   6.759  -4.126  1.00  0.00    -0.550 OA
ENDBRANCH   7   8
ENDBRANCH   6   7
ENDBRANCH   5   6
ENDBRANCH   4   5
ENDBRANCH   3   4
ENDBRANCH   2   3
ENDBRANCH   1   2
BRANCH   1  11
ATOM     11  C   UNL     1       7.937   9.840  -5.674  1.00  0.00     0.000 C 
BRANCH  11  12
ATOM     12  C   UNL     1       8.346   8.966  -6.874  1.00  0.00     0.000 C 
BRANCH  12  13
ATOM     13  C   UNL     1       8.084   9.662  -8.220  1.00  0.00     0.000 C 
BRANCH  13  14
ATOM     14  C   UNL     1       7.102   8.876  -9.106  1.00  0.00     0.000 C 
BRANCH  14  15
ATOM     15  C   UNL     1       6.272   9.784 -10.032  1.00  0.00     0.000 C 
BRANCH  15  16
ATOM     16  C   UNL     1       4.747   9.685  -9.848  1.00  0.00     0.006 C 
BRANCH  16  17
ATOM     17  C   UNL     1       4.307   9.875  -8.391  1.00  0.00     0.053 C 
BRANCH  17  18
ATOM     18  C   UNL     1       3.275   8.856  -8.021  1.00  0.00     0.041 C 
ATOM     19  O   UNL     1       2.665   8.943  -6.923  1.00  0.00    -0.550 OA
ATOM     20  O   UNL     1       3.023   7.783  -8.867  1.00  0.00    -0.550 OA
ENDBRANCH  17  18
ENDBRANCH  16  17
ENDBRANCH  15  16
ENDBRANCH  14  15
ENDBRANCH  13  14
ENDBRANCH  12  13
ENDBRANCH  11  12
ENDBRANCH   1  11
TORSDOF 15
ENDMDL
MODEL 2
REMARK VINA RESULT:    -2.747     14.095     15.293
REMARK INTER + INTRA:          -7.138
REMARK INTER:                  -5.738
REMARK INTRA:                  -1.400
REMARK UNBOUND:                -1.981
REMARK SMILES O=C([O-])CCCCCCCCCCCCCCC(=O)[O-]
REMARK SMILES IDX 10 1 9 2 8 3 7 4 6 5 5 6 4 7 2 8 1 9 3 10 11 11 12 12 13 13
REMARK SMILES IDX 14 14 15 15 16 16 17 17 18 18 19 19 20 20
REMARK H PARENT
REMARK Flexibility Score: inf
ROOT
ATOM      1  C   UNL     1      -9.557   4.404  -5.261  1.00  0.00     0.000 C 
ENDROOT
BRANCH   1   2
ATOM      2  C   UNL     1      -9.222   3.424  -4.126  1.00  0.00     0.000 C 
BRANCH   2   3
ATOM      3  C   UNL     1      -8.604   2.134  -4.682  1.00  0.00     0.000 C 
BRANCH   3   4
ATOM      4  C   UNL     1      -7.545   1.573  -3.725  1.00  0.00     0.000 C 
BRANCH   4   5
ATOM      5  C   UNL     1      -7.277   2.545  -2.570  1.00  0.00     0.000 C 
BRANCH   5   6
ATOM      6  C   UNL     1      -5.860   2.355  -2.008  1.00  0.00     0.006 C 
BRANCH   6   7
ATOM      7  C   UNL     1      -5.669   3.067  -0.663  1.00  0.00     0.053 C 
BRANCH   7   8
ATOM      8  C   UNL     1      -5.247   2.116   0.415  1.00  0.00     0.041 C 
ATOM      9  O   UNL     1      -4.893   0.944   0.121  1.00  0.00    -0.550 OA
ATOM     10  O   UNL     1      -5.274   2.514   1.746  1.00  0.00    -0.550 OA
ENDBRANCH   7   8
ENDBRANCH   6   7
ENDBRANCH   5   6
ENDBRANCH   4   5
ENDBRANCH   3   4
ENDBRANCH   2   3
ENDBRANCH   1   2
BRANCH   1  11
ATOM     11  C   UNL     1     -10.105   3.700  -6.513  1.00  0.00     0.000 C 
BRANCH  11  12
ATOM     12  C   UNL     1      -9.456   4.213  -7.811  1.00  0.00     0.000 C 
BRANCH  12  13
ATOM     13  C   UNL     1      -8.065   4.823  -7.570  1.00  0.00     0.000 C 
BRANCH  13  14
ATOM     14  C   UNL     1      -7.884   6.173  -8.283  1.00  0.00     0.000 C 
BRANCH  14  15
ATOM     15  C   UNL     1      -9.215   6.909  -8.521  1.00  0.00     0.000 C 
BRANCH  15  16
ATOM     16  C   UNL     1      -9.402   8.202  -7.705  1.00  0.00     0.006 C 
BRANCH  16  17
ATOM     17  C   UNL     1     -10.125   7.969  -6.373  1.00  0.00     0.053 C 
BRANCH  17  18
ATOM     18  C   UNL     1      -9.326   8.534  -5.240  1.00  0.00     0.041 C 
ATOM     19  O   UNL     1      -9.112   7.843  -4.210  1.00  0.00    -0.550 OA
ATOM     20  O   UNL     1      -8.859   9.841  -5.303  1.00  0.00    -0.550 OA
ENDBRANCH  17  18
ENDBRANCH  16  17
ENDBRANCH  15  16
ENDBRANCH  14  15
ENDBRANCH  13  14
ENDBRANCH  12  13
ENDBRANCH  11  12
ENDBRANCH   1  11
TORSDOF 15
ENDMDL
MODEL 3
REMARK VINA RESULT:    -2.670     13.526     15.973
REMARK INTER + INTRA:          -6.993
REMARK INTER:                  -5.616
REMARK INTRA:                  -1.377
REMARK UNBOUND:                -1.981
REMARK SMILES O=C([O-])CCCCCCCCCCCCCCC(=O)[O-]
REMARK SMILES IDX 10 1 9 2 8 3 7 4 6 5 5 6 4 7 2 8 1 9 3 10 11 11 12 12 13 13
REMARK SMILES IDX 14 14 15 15 16 16 17 17 18 18 19 19 20 20
REMARK H PARENT
REMARK Flexibility Score: inf
ROOT
ATOM      1  C   UNL     1      -9.906   6.854  -4.493  1.00  0.00     0.000 C 
ENDROOT
BRANCH   1   2
ATOM      2  C   UNL     1      -9.288   8.188  -4.936  1.00  0.00     0.000 C 
BRANCH   2   3
ATOM      3  C   UNL     1      -9.776   8.578  -6.338  1.00  0.00     0.000 C 
BRANCH   3   4
ATOM      4  C   UNL     1      -8.651   9.230  -7.151  1.00  0.00     0.000 C 
BRANCH   4   5
ATOM      5  C   UNL     1      -7.607   8.192  -7.579  1.00  0.00     0.000 C 
BRANCH   5   6
ATOM      6  C   UNL     1      -8.195   7.209  -8.602  1.00  0.00     0.006 C 
BRANCH   6   7
ATOM      7  C   UNL     1      -7.123   6.630  -9.534  1.00  0.00     0.053 C 
BRANCH   7   8
ATOM      8  C   UNL     1      -7.092   5.133  -9.484  1.00  0.00     0.041 C 
ATOM      9  O   UNL     1      -6.018   4.515  -9.709  1.00  0.00    -0.550 OA
ATOM     10  O   UNL     1      -8.254   4.420  -9.217  1.00  0.00    -0.550 OA
ENDBRANCH   7   8
ENDBRANCH   6   7
ENDBRANCH   5   6
ENDBRANCH   4   5
ENDBRANCH   3   4
ENDBRANCH   2   3
ENDBRANCH   1   2
BRANCH   1  11
ATOM     11  C   UNL     1     -10.111   5.875  -5.660  1.00  0.00     0.000 C 
BRANCH  11  12
ATOM     12  C   UNL     1      -8.988   4.827  -5.759  1.00  0.00     0.000 C 
BRANCH  12  13
ATOM     13  C   UNL     1      -9.513   3.443  -6.176  1.00  0.00     0.000 C 
BRANCH  13  14
ATOM     14  C   UNL     1      -9.321   2.386  -5.075  1.00  0.00     0.000 C 
BRANCH  14  15
ATOM     15  C   UNL     1      -8.263   2.793  -4.031  1.00  0.00     0.000 C 
BRANCH  15  16
ATOM     16  C   UNL     1      -7.433   1.631  -3.456  1.00  0.00     0.006 C 
BRANCH  16  17
ATOM     17  C   UNL     1      -6.308   2.102  -2.527  1.00  0.00     0.053 C 
BRANCH  17  18
ATOM     18  C   UNL     1      -5.060   1.314  -2.778  1.00  0.00     0.041 C 
ATOM     19  O   UNL     1      -4.541   1.297  -3.925  1.00  0.00    -0.550 OA
ATOM     20  O   UNL     1      -4.498   0.559  -1.756  1.00  0.00    -0.550 OA
ENDBRANCH  17  18
ENDBRANCH  16  17
ENDBRANCH  15  16
ENDBRANCH  14  15
ENDBRANCH  13  14
ENDBRANCH  12  13
ENDBRANCH  11  12
ENDBRANCH   1  11
TORSDOF 15
ENDMDL
MODEL 4
REMARK VINA RESULT:    -2.669     14.061     15.235
REMARK INTER + INTRA:          -6.991
REMARK INTER:                  -5.651
REMARK INTRA:                  -1.340
REMARK UNBOUND:                -1.981
REMARK SMILES O=C([O-])CCCCCCCCCCCCCCC(=O)[O-]
REMARK SMILES IDX 10 1 9 2 8 3 7 4 6 5 5 6 4 7 2 8 1 9 3 10 11 11 12 12 13 13
REMARK SMILES IDX 14 14 15 15 16 16 17 17 18 18 19 19 20 20
REMARK H PARENT
REMARK Flexibility Score: inf
ROOT
ATOM      1  C   UNL     1      -9.882   4.226  -4.621  1.00  0.00     0.000 C 
ENDROOT
BRANCH   1   2
ATOM      2  C   UNL     1      -9.003   3.134  -5.248  1.00  0.00     0.000 C 
BRANCH   2   3
ATOM      3  C   UNL     1      -8.694   2.027  -4.231  1.00  0.00     0.000 C 
BRANCH   3   4
ATOM      4  C   UNL     1      -7.590   2.463  -3.260  1.00  0.00     0.000 C 
BRANCH   4   5
ATOM      5  C   UNL     1      -6.375   1.533  -3.354  1.00  0.00     0.000 C 
BRANCH   5   6
ATOM      6  C   UNL     1      -5.314   1.906  -2.309  1.00  0.00     0.006 C 
BRANCH   6   7
ATOM      7  C   UNL     1      -5.904   2.708  -1.142  1.00  0.00     0.053 C 
BRANCH   7   8
ATOM      8  C   UNL     1      -5.397   2.220   0.181  1.00  0.00     0.041 C 
ATOM      9  O   UNL     1      -4.896   1.069   0.281  1.00  0.00    -0.550 OA
ATOM     10  O   UNL     1      -5.505   3.024   1.308  1.00  0.00    -0.550 OA
ENDBRANCH   7   8
ENDBRANCH   6   7
ENDBRANCH   5   6
ENDBRANCH   4   5
ENDBRANCH   3   4
ENDBRANCH   2   3
ENDBRANCH   1   2
BRANCH   1  11
ATOM     11  C   UNL     1     -10.072   5.441  -5.543  1.00  0.00     0.000 C 
BRANCH  11  12
ATOM     12  C   UNL     1      -9.027   6.543  -5.292  1.00  0.00     0.000 C 
BRANCH  12  13
ATOM     13  C   UNL     1      -8.065   6.720  -6.479  1.00  0.00     0.000 C 
BRANCH  13  14
ATOM     14  C   UNL     1      -8.585   6.047  -7.761  1.00  0.00     0.000 C 
BRANCH  14  15
ATOM     15  C   UNL     1      -7.570   5.067  -8.378  1.00  0.00     0.000 C 
BRANCH  15  16
ATOM     16  C   UNL     1      -8.152   4.095  -9.420  1.00  0.00     0.006 C 
BRANCH  16  17
ATOM     17  C   UNL     1      -8.943   2.943  -8.789  1.00  0.00     0.053 C 
BRANCH  17  18
ATOM     18  C   UNL     1      -8.076   1.731  -8.648  1.00  0.00     0.041 C 
ATOM     19  O   UNL     1      -7.050   1.599  -9.366  1.00  0.00    -0.550 OA
ATOM     20  O   UNL     1      -8.428   0.724  -7.758  1.00  0.00    -0.550 OA
ENDBRANCH  17  18
ENDBRANCH  16  17
ENDBRANCH  15  16
ENDBRANCH  14  15
ENDBRANCH  13  14
ENDBRANCH  12  13
ENDBRANCH  11  12
ENDBRANCH   1  11
TORSDOF 15
ENDMDL
MODEL 5
REMARK VINA RESULT:    -2.666      6.817     11.763
REMARK INTER + INTRA:          -6.986
REMARK INTER:                  -6.034
REMARK INTRA:                  -0.952
REMARK UNBOUND:                -1.981
REMARK SMILES O=C([O-])CCCCCCCCCCCCCCC(=O)[O-]
REMARK SMILES IDX 10 1 9 2 8 3 7 4 6 5 5 6 4 7 2 8 1 9 3 10 11 11 12 12 13 13
REMARK SMILES IDX 14 14 15 15 16 16 17 17 18 18 19 19 20 20
REMARK H PARENT
REMARK Flexibility Score: inf
ROOT
ATOM      1  C   UNL     1       7.043   9.386   2.368  1.00  0.00     0.000 C 
ENDROOT
BRANCH   1   2
ATOM      2  C   UNL     1       8.493   9.886   2.301  1.00  0.00     0.000 C 
BRANCH   2   3
ATOM      3  C   UNL     1       8.967   9.999   0.846  1.00  0.00     0.000 C 
BRANCH   3   4
ATOM      4  C   UNL     1       8.062   9.191  -0.093  1.00  0.00     0.000 C 
BRANCH   4   5
ATOM      5  C   UNL     1       8.876   8.543  -1.219  1.00  0.00     0.000 C 
BRANCH   5   6
ATOM      6  C   UNL     1       8.134   8.638  -2.560  1.00  0.00     0.006 C 
BRANCH   6   7
ATOM      7  C   UNL     1       6.612   8.554  -2.388  1.00  0.00     0.053 C 
BRANCH   7   8
ATOM      8  C   UNL     1       5.992   7.611  -3.374  1.00  0.00     0.041 C 
ATOM      9  O   UNL     1       5.835   6.398  -3.075  1.00  0.00    -0.550 OA
ATOM     10  O   UNL     1       5.615   8.065  -4.631  1.00  0.00    -0.550 OA
ENDBRANCH   7   8
ENDBRANCH   6   7
ENDBRANCH   5   6
ENDBRANCH   4   5
ENDBRANCH   3   4
ENDBRANCH   2   3
ENDBRANCH   1   2
BRANCH   1  11
ATOM     11  C   UNL     1       6.538   9.216   3.810  1.00  0.00     0.000 C 
BRANCH  11  12
ATOM     12  C   UNL     1       7.591   8.580   4.736  1.00  0.00     0.000 C 
BRANCH  12  13
ATOM     13  C   UNL     1       7.773   9.368   6.044  1.00  0.00     0.000 C 
BRANCH  13  14
ATOM     14  C   UNL     1       8.672   8.632   7.052  1.00  0.00     0.000 C 
BRANCH  14  15
ATOM     15  C   UNL     1       9.510   7.514   6.404  1.00  0.00     0.000 C 
BRANCH  15  16
ATOM     16  C   UNL     1       9.434   6.148   7.110  1.00  0.00     0.006 C 
BRANCH  16  17
ATOM     17  C   UNL     1       8.014   5.571   7.148  1.00  0.00     0.053 C 
BRANCH  17  18
ATOM     18  C   UNL     1       7.707   5.029   8.509  1.00  0.00     0.041 C 
ATOM     19  O   UNL     1       8.330   4.026   8.946  1.00  0.00    -0.550 OA
ATOM     20  O   UNL     1       6.699   5.602   9.274  1.00  0.00    -0.550 OA
ENDBRANCH  17  18
ENDBRANCH  16  17
ENDBRANCH  15  16
ENDBRANCH  14  15
ENDBRANCH  13  14
ENDBRANCH  12  13
ENDBRANCH  11  12
ENDBRANCH   1  11
TORSDOF 15
ENDMDL
MODEL 6
REMARK VINA RESULT:    -2.615     13.891     16.749
REMARK INTER + INTRA:          -6.890
REMARK INTER:                  -5.311
REMARK INTRA:                  -1.579
REMARK UNBOUND:                -1.981
REMARK SMILES O=C([O-])CCCCCCCCCCCCCCC(=O)[O-]
REMARK SMILES IDX 10 1 9 2 8 3 7 4 6 5 5 6 4 7 2 8 1 9 3 10 11 11 12 12 13 13
REMARK SMILES IDX 14 14 15 15 16 16 17 17 18 18 19 19 20 20
REMARK H PARENT
REMARK Flexibility Score: inf
ROOT
ATOM      1  C   UNL     1      -8.352   1.129  -8.562  1.00  0.00     0.000 C 
ENDROOT
BRANCH   1   2
ATOM      2  C   UNL     1      -8.536   2.404  -9.399  1.00  0.00     0.000 C 
BRANCH   2   3
ATOM      3  C   UNL     1      -9.930   3.007  -9.180  1.00  0.00     0.000 C 
BRANCH   3   4
ATOM      4  C   UNL     1      -9.891   4.536  -9.281  1.00  0.00     0.000 C 
BRANCH   4   5
ATOM      5  C   UNL     1      -9.780   5.178  -7.893  1.00  0.00     0.000 C 
BRANCH   5   6
ATOM      6  C   UNL     1      -8.320   5.511  -7.556  1.00  0.00     0.006 C 
BRANCH   6   7
ATOM      7  C   UNL     1      -8.196   6.353  -6.279  1.00  0.00     0.053 C 
BRANCH   7   8
ATOM      8  C   UNL     1      -8.722   7.742  -6.476  1.00  0.00     0.041 C 
ATOM      9  O   UNL     1      -9.819   8.082  -5.959  1.00  0.00    -0.550 OA
ATOM     10  O   UNL     1      -8.016   8.651  -7.253  1.00  0.00    -0.550 OA
ENDBRANCH   7   8
ENDBRANCH   6   7
ENDBRANCH   5   6
ENDBRANCH   4   5
ENDBRANCH   3   4
ENDBRANCH   2   3
ENDBRANCH   1   2
BRANCH   1  11
ATOM     11  C   UNL     1      -9.630   0.720  -7.811  1.00  0.00     0.000 C 
BRANCH  11  12
ATOM     12  C   UNL     1      -9.424   0.648  -6.287  1.00  0.00     0.000 C 
BRANCH  12  13
ATOM     13  C   UNL     1     -10.048   1.848  -5.555  1.00  0.00     0.000 C 
BRANCH  13  14
ATOM     14  C   UNL     1      -8.989   2.847  -5.058  1.00  0.00     0.000 C 
BRANCH  14  15
ATOM     15  C   UNL     1      -8.460   2.512  -3.652  1.00  0.00     0.000 C 
BRANCH  15  16
ATOM     16  C   UNL     1      -7.195   1.635  -3.622  1.00  0.00     0.006 C 
BRANCH  16  17
ATOM     17  C   UNL     1      -6.131   2.153  -2.647  1.00  0.00     0.053 C 
BRANCH  17  18
ATOM     18  C   UNL     1      -4.888   1.325  -2.741  1.00  0.00     0.041 C 
ATOM     19  O   UNL     1      -4.222   1.303  -3.809  1.00  0.00    -0.550 OA
ATOM     20  O   UNL     1      -4.494   0.538  -1.666  1.00  0.00    -0.550 OA
ENDBRANCH  17  18
ENDBRANCH  16  17
ENDBRANCH  15  16
ENDBRANCH  14  15
ENDBRANCH  13  14
ENDBRANCH  12  13
ENDBRANCH  11  12
ENDBRANCH   1  11
TORSDOF 15
ENDMDL
MODEL 7
REMARK VINA RESULT:    -2.576     14.030     15.806
REMARK INTER + INTRA:          -6.815
REMARK INTER:                  -5.357
REMARK INTRA:                  -1.459
REMARK UNBOUND:                -1.981
REMARK SMILES O=C([O-])CCCCCCCCCCCCCCC(=O)[O-]
REMARK SMILES IDX 10 1 9 2 8 3 7 4 6 5 5 6 4 7 2 8 1 9 3 10 11 11 12 12 13 13
REMARK SMILES IDX 14 14 15 15 16 16 17 17 18 18 19 19 20 20
REMARK H PARENT
REMARK Flexibility Score: inf
ROOT
ATOM      1  C   UNL     1      -8.639   0.582  -7.812  1.00  0.00     0.000 C 
ENDROOT
BRANCH   1   2
ATOM      2  C   UNL     1      -9.732   0.642  -6.734  1.00  0.00     0.000 C 
BRANCH   2   3
ATOM      3  C   UNL     1      -9.120   0.867  -5.346  1.00  0.00     0.000 C 
BRANCH   3   4
ATOM      4  C   UNL     1      -9.234   2.337  -4.925  1.00  0.00     0.000 C 
BRANCH   4   5
ATOM      5  C   UNL     1      -8.287   2.651  -3.761  1.00  0.00     0.000 C 
BRANCH   5   6
ATOM      6  C   UNL     1      -7.108   1.667  -3.728  1.00  0.00     0.006 C 
BRANCH   6   7
ATOM      7  C   UNL     1      -6.162   1.933  -2.550  1.00  0.00     0.053 C 
BRANCH   7   8
ATOM      8  C   UNL     1      -4.858   1.213  -2.711  1.00  0.00     0.041 C 
ATOM      9  O   UNL     1      -4.254   1.237  -3.815  1.00  0.00    -0.550 OA
ATOM     10  O   UNL     1      -4.325   0.491  -1.651  1.00  0.00    -0.550 OA
ENDBRANCH   7   8
ENDBRANCH   6   7
ENDBRANCH   5   6
ENDBRANCH   4   5
ENDBRANCH   3   4
ENDBRANCH   2   3
ENDBRANCH   1   2
BRANCH   1  11
ATOM     11  C   UNL     1      -8.979   1.424  -9.053  1.00  0.00     0.000 C 
BRANCH  11  12
ATOM     12  C   UNL     1      -8.390   2.844  -8.983  1.00  0.00     0.000 C 
BRANCH  12  13
ATOM     13  C   UNL     1      -9.471   3.932  -9.100  1.00  0.00     0.000 C 
BRANCH  13  14
ATOM     14  C   UNL     1      -9.993   4.391  -7.727  1.00  0.00     0.000 C 
BRANCH  14  15
ATOM     15  C   UNL     1      -9.011   5.321  -6.992  1.00  0.00     0.000 C 
BRANCH  15  16
ATOM     16  C   UNL     1      -9.576   6.003  -5.733  1.00  0.00     0.006 C 
BRANCH  16  17
ATOM     17  C   UNL     1      -8.663   7.109  -5.190  1.00  0.00     0.053 C 
BRANCH  17  18
ATOM     18  C   UNL     1      -9.156   8.453  -5.625  1.00  0.00     0.041 C 
ATOM     19  O   UNL     1     -10.102   9.011  -5.008  1.00  0.00    -0.550 OA
ATOM     20  O   UNL     1      -8.604   9.069  -6.742  1.00  0.00    -0.550 OA
ENDBRANCH  17  18
ENDBRANCH  16  17
ENDBRANCH  15  16
ENDBRANCH  14  15
ENDBRANCH  13  14
ENDBRANCH  12  13
ENDBRANCH  11  12
ENDBRANCH   1  11
TORSDOF 15
ENDMDL
MODEL 8
REMARK VINA RESULT:    -2.540      7.413     10.118
REMARK INTER + INTRA:          -6.748
REMARK INTER:                  -5.971
REMARK INTRA:                  -0.776
REMARK UNBOUND:                -1.981
REMARK SMILES O=C([O-])CCCCCCCCCCCCCCC(=O)[O-]
REMARK SMILES IDX 10 1 9 2 8 3 7 4 6 5 5 6 4 7 2 8 1 9 3 10 11 11 12 12 13 13
REMARK SMILES IDX 14 14 15 15 16 16 17 17 18 18 19 19 20 20
REMARK H PARENT
REMARK Flexibility Score: inf
ROOT
ATOM      1  C   UNL     1       7.437   8.597   4.300  1.00  0.00     0.000 C 
ENDROOT
BRANCH   1   2
ATOM      2  C   UNL     1       7.848   9.236   5.635  1.00  0.00     0.000 C 
BRANCH   2   3
ATOM      3  C   UNL     1       9.017   8.473   6.271  1.00  0.00     0.000 C 
BRANCH   3   4
ATOM      4  C   UNL     1       9.463   9.138   7.578  1.00  0.00     0.000 C 
BRANCH   4   5
ATOM      5  C   UNL     1       9.713   8.092   8.671  1.00  0.00     0.000 C 
BRANCH   5   6
ATOM      6  C   UNL     1       8.482   7.196   8.868  1.00  0.00     0.006 C 
BRANCH   6   7
ATOM      7  C   UNL     1       8.844   5.705   8.879  1.00  0.00     0.053 C 
BRANCH   7   8
ATOM      8  C   UNL     1       7.636   4.841   9.072  1.00  0.00     0.041 C 
ATOM      9  O   UNL     1       6.611   5.304   9.638  1.00  0.00    -0.550 OA
ATOM     10  O   UNL     1       7.653   3.516   8.655  1.00  0.00    -0.550 OA
ENDBRANCH   7   8
ENDBRANCH   6   7
ENDBRANCH   5   6
ENDBRANCH   4   5
ENDBRANCH   3   4
ENDBRANCH   2   3
ENDBRANCH   1   2
BRANCH   1  11
ATOM     11  C   UNL     1       6.315   9.371   3.589  1.00  0.00     0.000 C 
BRANCH  11  12
ATOM     12  C   UNL     1       6.734   9.876   2.197  1.00  0.00     0.000 C 
BRANCH  12  13
ATOM     13  C   UNL     1       8.251   9.764   1.966  1.00  0.00     0.000 C 
BRANCH  13  14
ATOM     14  C   UNL     1       8.595   9.342   0.528  1.00  0.00     0.000 C 
BRANCH  14  15
ATOM     15  C   UNL     1       7.390   9.425  -0.427  1.00  0.00     0.000 C 
BRANCH  15  16
ATOM     16  C   UNL     1       7.633   8.857  -1.837  1.00  0.00     0.006 C 
BRANCH  16  17
ATOM     17  C   UNL     1       6.335   8.533  -2.585  1.00  0.00     0.053 C 
BRANCH  17  18
ATOM     18  C   UNL     1       6.300   7.087  -2.968  1.00  0.00     0.041 C 
ATOM     19  O   UNL     1       7.359   6.497  -3.310  1.00  0.00    -0.550 OA
ATOM     20  O   UNL     1       5.091   6.403  -2.996  1.00  0.00    -0.550 OA
ENDBRANCH  17  18
ENDBRANCH  16  17
ENDBRANCH  15  16
ENDBRANCH  14  15
ENDBRANCH  13  14
ENDBRANCH  12  13
ENDBRANCH  11  12
ENDBRANCH   1  11
TORSDOF 15
ENDMDL
MODEL 9
REMARK VINA RESULT:    -2.522      6.074      8.256
REMARK INTER + INTRA:          -6.716
REMARK INTER:                  -5.843
REMARK INTRA:                  -0.873
REMARK UNBOUND:                -1.981
REMARK SMILES O=C([O-])CCCCCCCCCCCCCCC(=O)[O-]
REMARK SMILES IDX 10 1 9 2 8 3 7 4 6 5 5 6 4 7 2 8 1 9 3 10 11 11 12 12 13 13
REMARK SMILES IDX 14 14 15 15 16 16 17 17 18 18 19 19 20 20
REMARK H PARENT
REMARK Flexibility Score: inf
ROOT
ATOM      1  C   UNL     1       6.704   9.761   2.306  1.00  0.00     0.000 C 
ENDROOT
BRANCH   1   2
ATOM      2  C   UNL     1       6.420   9.374   3.765  1.00  0.00     0.000 C 
BRANCH   2   3
ATOM      3  C   UNL     1       7.511   8.442   4.307  1.00  0.00     0.000 C 
BRANCH   3   4
ATOM      4  C   UNL     1       8.165   9.030   5.563  1.00  0.00     0.000 C 
BRANCH   4   5
ATOM      5  C   UNL     1       9.587   8.488   5.749  1.00  0.00     0.000 C 
BRANCH   5   6
ATOM      6  C   UNL     1       9.712   7.711   7.067  1.00  0.00     0.006 C 
BRANCH   6   7
ATOM      7  C   UNL     1       8.368   7.137   7.533  1.00  0.00     0.053 C 
BRANCH   7   8
ATOM      8  C   UNL     1       8.364   5.639   7.506  1.00  0.00     0.041 C 
ATOM      9  O   UNL     1       9.364   5.011   7.070  1.00  0.00    -0.550 OA
ATOM     10  O   UNL     1       7.244   4.937   7.934  1.00  0.00    -0.550 OA
ENDBRANCH   7   8
ENDBRANCH   6   7
ENDBRANCH   5   6
ENDBRANCH   4   5
ENDBRANCH   3   4
ENDBRANCH   2   3
ENDBRANCH   1   2
BRANCH   1  11
ATOM     11  C   UNL     1       8.205   9.759   1.971  1.00  0.00     0.000 C 
BRANCH  11  12
ATOM     12  C   UNL     1       8.479   9.460   0.486  1.00  0.00     0.000 C 
BRANCH  12  13
ATOM     13  C   UNL     1       7.299   9.853  -0.418  1.00  0.00     0.000 C 
BRANCH  13  14
ATOM     14  C   UNL     1       7.478   9.362  -1.864  1.00  0.00     0.000 C 
BRANCH  14  15
ATOM     15  C   UNL     1       7.033   7.901  -2.061  1.00  0.00     0.000 C 
BRANCH  15  16
ATOM     16  C   UNL     1       6.241   7.628  -3.353  1.00  0.00     0.006 C 
BRANCH  16  17
ATOM     17  C   UNL     1       4.730   7.515  -3.116  1.00  0.00     0.053 C 
BRANCH  17  18
ATOM     18  C   UNL     1       4.015   8.665  -3.753  1.00  0.00     0.041 C 
ATOM     19  O   UNL     1       3.608   9.626  -3.049  1.00  0.00    -0.550 OA
ATOM     20  O   UNL     1       3.755   8.652  -5.118  1.00  0.00    -0.550 OA
ENDBRANCH  17  18
ENDBRANCH  16  17
ENDBRANCH  15  16
ENDBRANCH  14  15
ENDBRANCH  13  14
ENDBRANCH  12  13
ENDBRANCH  11  12
ENDBRANCH   1  11
TORSDOF 15
ENDMDL
