MODEL 1
REMARK VINA RESULT:    -5.112      0.000      0.000
REMARK INTER + INTRA:          -6.691
REMARK INTER:                  -6.307
REMARK INTRA:                  -0.384
REMARK UNBOUND:                -0.384
REMARK SMILES COc1cc(-c2oc3cc(O)cc(O)c3c(=O)c2O)ccc1O
REMARK SMILES IDX 6 1 18 2 16 3 17 4 15 5 13 6 12 7 10 8 9 9 8 10 7 11 5 12
REMARK SMILES IDX 3 13 22 14 4 15 21 16 20 17 2 18 1 19 23 20 19 22 14 24
REMARK SMILES IDX 11 26
REMARK H PARENT 23 21 19 23 14 25 11 27
REMARK Flexibility Score: inf
ROOT
ATOM      1  C   UNL     1      64.050  51.384  35.635  1.00  0.00     0.180 A 
ATOM      2  C   UNL     1      65.030  52.393  35.722  1.00  0.00     0.208 A 
ATOM      3  C   UNL     1      65.828  52.465  36.873  1.00  0.00     0.238 A 
ATOM      4  O   UNL     1      66.701  53.370  36.967  1.00  0.00    -0.285 OA
ATOM      5  C   UNL     1      65.650  51.522  37.906  1.00  0.00     0.111 A 
ATOM      6  C   UNL     1      66.415  51.523  39.097  1.00  0.00     0.134 A 
ATOM      7  C   UNL     1      66.182  50.543  40.074  1.00  0.00     0.093 A 
ATOM      8  C   UNL     1      65.203  49.566  39.885  1.00  0.00     0.123 A 
ATOM      9  C   UNL     1      64.443  49.560  38.711  1.00  0.00     0.094 A 
ATOM     10  C   UNL     1      64.658  50.528  37.725  1.00  0.00     0.146 A 
ATOM     11  O   UNL     1      63.920  50.503  36.622  1.00  0.00    -0.452 OA
ENDROOT
BRANCH   1  12
ATOM     12  C   UNL     1      63.156  51.255  34.460  1.00  0.00     0.025 A 
ATOM     13  C   UNL     1      61.019  51.663  33.340  1.00  0.00     0.161 A 
ATOM     14  C   UNL     1      61.476  50.936  32.227  1.00  0.00     0.157 A 
ATOM     15  C   UNL     1      61.865  51.811  34.459  1.00  0.00     0.062 A 
ATOM     16  C   UNL     1      62.752  50.365  32.239  1.00  0.00     0.051 A 
ATOM     17  C   UNL     1      63.584  50.516  33.349  1.00  0.00     0.016 A 
BRANCH  13  18
ATOM     18  O   UNL     1      59.729  52.217  33.305  1.00  0.00    -0.493 OA
ATOM     19  C   UNL     1      59.407  53.543  33.712  1.00  0.00     0.278 C 
ENDBRANCH  13  18
BRANCH  14  20
ATOM     20  O   UNL     1      60.674  50.768  31.098  1.00  0.00    -0.504 OA
ATOM     21  H   UNL     1      60.238  49.883  30.873  1.00  0.00     0.293 HD
ENDBRANCH  14  20
ENDBRANCH   1  12
BRANCH   2  22
ATOM     22  O   UNL     1      65.220  53.284  34.663  1.00  0.00    -0.502 OA
ATOM     23  H   UNL     1      64.474  53.538  34.025  1.00  0.00     0.293 HD
ENDBRANCH   2  22
BRANCH   6  24
ATOM     24  O   UNL     1      67.401  52.486  39.316  1.00  0.00    -0.507 OA
ATOM     25  H   UNL     1      68.331  52.233  39.633  1.00  0.00     0.293 HD
ENDBRANCH   6  24
BRANCH   8  26
ATOM     26  O   UNL     1      64.993  48.605  40.870  1.00  0.00    -0.508 OA
ATOM     27  H   UNL     1      64.515  47.734  40.668  1.00  0.00     0.293 HD
ENDBRANCH   8  26
TORSDOF 6
ENDMDL
MODEL 2
REMARK VINA RESULT:    -4.927      0.731      2.034
REMARK INTER + INTRA:          -6.463
REMARK INTER:                  -6.078
REMARK INTRA:                  -0.385
REMARK UNBOUND:                -0.384
REMARK SMILES COc1cc(-c2oc3cc(O)cc(O)c3c(=O)c2O)ccc1O
REMARK SMILES IDX 6 1 18 2 16 3 17 4 15 5 13 6 12 7 10 8 9 9 8 10 7 11 5 12
REMARK SMILES IDX 3 13 22 14 4 15 21 16 20 17 2 18 1 19 23 20 19 22 14 24
REMARK SMILES IDX 11 26
REMARK H PARENT 23 21 19 23 14 25 11 27
REMARK Flexibility Score: inf
ROOT
ATOM      1  C   UNL     1      64.060  51.380  35.605  1.00  0.00     0.180 A 
ATOM      2  C   UNL     1      65.088  52.342  35.663  1.00  0.00     0.208 A 
ATOM      3  C   UNL     1      65.911  52.387  36.798  1.00  0.00     0.238 A 
ATOM      4  O   UNL     1      66.828  53.250  36.866  1.00  0.00    -0.285 OA
ATOM      5  C   UNL     1      65.708  51.464  37.844  1.00  0.00     0.111 A 
ATOM      6  C   UNL     1      66.496  51.440  39.020  1.00  0.00     0.134 A 
ATOM      7  C   UNL     1      66.236  50.482  40.012  1.00  0.00     0.093 A 
ATOM      8  C   UNL     1      65.208  49.551  39.851  1.00  0.00     0.123 A 
ATOM      9  C   UNL     1      64.426  49.569  38.692  1.00  0.00     0.094 A 
ATOM     10  C   UNL     1      64.668  50.516  37.693  1.00  0.00     0.146 A 
ATOM     11  O   UNL     1      63.908  50.516  36.604  1.00  0.00    -0.452 OA
ENDROOT
BRANCH   1  12
ATOM     12  C   UNL     1      63.139  51.283  34.449  1.00  0.00     0.025 A 
ATOM     13  C   UNL     1      62.595  50.470  32.206  1.00  0.00     0.161 A 
ATOM     14  C   UNL     1      61.379  51.174  32.257  1.00  0.00     0.157 A 
ATOM     15  C   UNL     1      63.475  50.536  33.307  1.00  0.00     0.062 A 
ATOM     16  C   UNL     1      61.057  51.934  33.385  1.00  0.00     0.051 A 
ATOM     17  C   UNL     1      61.932  51.995  34.470  1.00  0.00     0.016 A 
BRANCH  13  18
ATOM     18  O   UNL     1      62.898  49.723  31.056  1.00  0.00    -0.493 OA
ATOM     19  C   UNL     1      63.486  48.426  31.066  1.00  0.00     0.278 C 
ENDBRANCH  13  18
BRANCH  14  20
ATOM     20  O   UNL     1      60.478  51.134  31.193  1.00  0.00    -0.504 OA
ATOM     21  H   UNL     1      60.535  51.776  30.413  1.00  0.00     0.293 HD
ENDBRANCH  14  20
ENDBRANCH   1  12
BRANCH   2  22
ATOM     22  O   UNL     1      65.300  53.213  34.591  1.00  0.00    -0.502 OA
ATOM     23  H   UNL     1      65.381  52.887  33.634  1.00  0.00     0.293 HD
ENDBRANCH   2  22
BRANCH   6  24
ATOM     24  O   UNL     1      67.530  52.356  39.210  1.00  0.00    -0.507 OA
ATOM     25  H   UNL     1      67.530  53.263  38.755  1.00  0.00     0.293 HD
ENDBRANCH   6  24
BRANCH   8  26
ATOM     26  O   UNL     1      64.972  48.610  40.851  1.00  0.00    -0.508 OA
ATOM     27  H   UNL     1      65.112  47.619  40.691  1.00  0.00     0.293 HD
ENDBRANCH   8  26
TORSDOF 6
ENDMDL
MODEL 3
REMARK VINA RESULT:    -4.819      2.017      7.488
REMARK INTER + INTRA:          -6.329
REMARK INTER:                  -5.935
REMARK INTRA:                  -0.394
REMARK UNBOUND:                -0.384
REMARK SMILES COc1cc(-c2oc3cc(O)cc(O)c3c(=O)c2O)ccc1O
REMARK SMILES IDX 6 1 18 2 16 3 17 4 15 5 13 6 12 7 10 8 9 9 8 10 7 11 5 12
REMARK SMILES IDX 3 13 22 14 4 15 21 16 20 17 2 18 1 19 23 20 19 22 14 24
REMARK SMILES IDX 11 26
REMARK H PARENT 23 21 19 23 14 25 11 27
REMARK Flexibility Score: inf
ROOT
ATOM      1  C   UNL     1      63.113  50.909  33.653  1.00  0.00     0.180 A 
ATOM      2  C   UNL     1      61.846  51.493  33.459  1.00  0.00     0.208 A 
ATOM      3  C   UNL     1      61.030  51.015  32.422  1.00  0.00     0.238 A 
ATOM      4  O   UNL     1      59.898  51.537  32.233  1.00  0.00    -0.285 OA
ATOM      5  C   UNL     1      61.483  49.953  31.612  1.00  0.00     0.111 A 
ATOM      6  C   UNL     1      60.721  49.411  30.550  1.00  0.00     0.134 A 
ATOM      7  C   UNL     1      61.239  48.347  29.795  1.00  0.00     0.093 A 
ATOM      8  C   UNL     1      62.498  47.817  30.081  1.00  0.00     0.123 A 
ATOM      9  C   UNL     1      63.256  48.348  31.130  1.00  0.00     0.094 A 
ATOM     10  C   UNL     1      62.759  49.410  31.893  1.00  0.00     0.146 A 
ATOM     11  O   UNL     1      63.501  49.900  32.879  1.00  0.00    -0.452 OA
ENDROOT
BRANCH   1  12
ATOM     12  C   UNL     1      64.039  51.372  34.713  1.00  0.00     0.025 A 
ATOM     13  C   UNL     1      64.870  51.297  37.013  1.00  0.00     0.161 A 
ATOM     14  C   UNL     1      65.779  52.325  36.707  1.00  0.00     0.157 A 
ATOM     15  C   UNL     1      63.995  50.831  36.010  1.00  0.00     0.062 A 
ATOM     16  C   UNL     1      65.806  52.877  35.424  1.00  0.00     0.051 A 
ATOM     17  C   UNL     1      64.938  52.411  34.435  1.00  0.00     0.016 A 
BRANCH  13  18
ATOM     18  O   UNL     1      64.857  50.769  38.314  1.00  0.00    -0.493 OA
ATOM     19  C   UNL     1      64.922  49.379  38.623  1.00  0.00     0.278 C 
ENDBRANCH  13  18
BRANCH  14  20
ATOM     20  O   UNL     1      66.665  52.813  37.668  1.00  0.00    -0.504 OA
ATOM     21  H   UNL     1      66.618  52.529  38.639  1.00  0.00     0.293 HD
ENDBRANCH  14  20
ENDBRANCH   1  12
BRANCH   2  22
ATOM     22  O   UNL     1      61.401  52.510  34.307  1.00  0.00    -0.502 OA
ATOM     23  H   UNL     1      62.030  53.196  34.710  1.00  0.00     0.293 HD
ENDBRANCH   2  22
BRANCH   6  24
ATOM     24  O   UNL     1      59.459  49.918  30.240  1.00  0.00    -0.507 OA
ATOM     25  H   UNL     1      58.651  49.313  30.143  1.00  0.00     0.293 HD
ENDBRANCH   6  24
BRANCH   8  26
ATOM     26  O   UNL     1      62.988  46.761  29.317  1.00  0.00    -0.508 OA
ATOM     27  H   UNL     1      63.947  46.443  29.405  1.00  0.00     0.293 HD
ENDBRANCH   8  26
TORSDOF 6
ENDMDL
MODEL 4
REMARK VINA RESULT:    -4.761      2.600      4.057
REMARK INTER + INTRA:          -6.258
REMARK INTER:                  -5.900
REMARK INTRA:                  -0.358
REMARK UNBOUND:                -0.384
REMARK SMILES COc1cc(-c2oc3cc(O)cc(O)c3c(=O)c2O)ccc1O
REMARK SMILES IDX 6 1 18 2 16 3 17 4 15 5 13 6 12 7 10 8 9 9 8 10 7 11 5 12
REMARK SMILES IDX 3 13 22 14 4 15 21 16 20 17 2 18 1 19 23 20 19 22 14 24
REMARK SMILES IDX 11 26
REMARK H PARENT 23 21 19 23 14 25 11 27
REMARK Flexibility Score: inf
ROOT
ATOM      1  C   UNL     1      65.603  50.795  37.602  1.00  0.00     0.180 A 
ATOM      2  C   UNL     1      65.179  50.779  38.945  1.00  0.00     0.208 A 
ATOM      3  C   UNL     1      65.915  50.035  39.880  1.00  0.00     0.238 A 
ATOM      4  O   UNL     1      65.538  50.005  41.083  1.00  0.00    -0.285 OA
ATOM      5  C   UNL     1      67.068  49.339  39.465  1.00  0.00     0.111 A 
ATOM      6  C   UNL     1      67.867  48.570  40.345  1.00  0.00     0.134 A 
ATOM      7  C   UNL     1      69.007  47.913  39.855  1.00  0.00     0.093 A 
ATOM      8  C   UNL     1      69.361  48.010  38.508  1.00  0.00     0.123 A 
ATOM      9  C   UNL     1      68.576  48.768  37.634  1.00  0.00     0.094 A 
ATOM     10  C   UNL     1      67.436  49.429  38.101  1.00  0.00     0.146 A 
ATOM     11  O   UNL     1      66.704  50.138  37.249  1.00  0.00    -0.452 OA
ENDROOT
BRANCH   1  12
ATOM     12  C   UNL     1      64.868  51.540  36.554  1.00  0.00     0.025 A 
ATOM     13  C   UNL     1      63.368  51.601  34.622  1.00  0.00     0.161 A 
ATOM     14  C   UNL     1      63.537  52.995  34.547  1.00  0.00     0.157 A 
ATOM     15  C   UNL     1      64.045  50.878  35.626  1.00  0.00     0.062 A 
ATOM     16  C   UNL     1      64.374  53.648  35.456  1.00  0.00     0.051 A 
ATOM     17  C   UNL     1      65.041  52.927  36.448  1.00  0.00     0.016 A 
BRANCH  13  18
ATOM     18  O   UNL     1      62.530  50.969  33.689  1.00  0.00    -0.493 OA
ATOM     19  C   UNL     1      62.982  50.101  32.654  1.00  0.00     0.278 C 
ENDBRANCH  13  18
BRANCH  14  20
ATOM     20  O   UNL     1      62.883  53.749  33.573  1.00  0.00    -0.504 OA
ATOM     21  H   UNL     1      62.687  54.734  33.694  1.00  0.00     0.293 HD
ENDBRANCH  14  20
ENDBRANCH   1  12
BRANCH   2  22
ATOM     22  O   UNL     1      64.061  51.518  39.340  1.00  0.00    -0.502 OA
ATOM     23  H   UNL     1      63.711  52.303  38.802  1.00  0.00     0.293 HD
ENDBRANCH   2  22
BRANCH   6  24
ATOM     24  O   UNL     1      67.539  48.453  41.696  1.00  0.00    -0.507 OA
ATOM     25  H   UNL     1      67.190  47.585  42.087  1.00  0.00     0.293 HD
ENDBRANCH   6  24
BRANCH   8  26
ATOM     26  O   UNL     1      70.497  47.349  38.048  1.00  0.00    -0.508 OA
ATOM     27  H   UNL     1      71.218  47.027  38.685  1.00  0.00     0.293 HD
ENDBRANCH   8  26
TORSDOF 6
ENDMDL
MODEL 5
REMARK VINA RESULT:    -4.685      2.001      2.625
REMARK INTER + INTRA:          -6.164
REMARK INTER:                  -5.816
REMARK INTRA:                  -0.348
REMARK UNBOUND:                -0.384
REMARK SMILES COc1cc(-c2oc3cc(O)cc(O)c3c(=O)c2O)ccc1O
REMARK SMILES IDX 6 1 18 2 16 3 17 4 15 5 13 6 12 7 10 8 9 9 8 10 7 11 5 12
REMARK SMILES IDX 3 13 22 14 4 15 21 16 20 17 2 18 1 19 23 20 19 22 14 24
REMARK SMILES IDX 11 26
REMARK H PARENT 23 21 19 23 14 25 11 27
REMARK Flexibility Score: inf
ROOT
ATOM      1  C   UNL     1      65.391  51.298  36.704  1.00  0.00     0.180 A 
ATOM      2  C   UNL     1      64.921  52.366  37.493  1.00  0.00     0.208 A 
ATOM      3  C   UNL     1      65.181  52.355  38.872  1.00  0.00     0.238 A 
ATOM      4  O   UNL     1      64.756  53.301  39.591  1.00  0.00    -0.285 OA
ATOM      5  C   UNL     1      65.918  51.294  39.435  1.00  0.00     0.111 A 
ATOM      6  C   UNL     1      66.226  51.210  40.814  1.00  0.00     0.134 A 
ATOM      7  C   UNL     1      66.974  50.124  41.295  1.00  0.00     0.093 A 
ATOM      8  C   UNL     1      67.419  49.125  40.427  1.00  0.00     0.123 A 
ATOM      9  C   UNL     1      67.118  49.202  39.064  1.00  0.00     0.094 A 
ATOM     10  C   UNL     1      66.372  50.274  38.564  1.00  0.00     0.146 A 
ATOM     11  O   UNL     1      66.096  50.321  37.266  1.00  0.00    -0.452 OA
ENDROOT
BRANCH   1  12
ATOM     12  C   UNL     1      65.140  51.229  35.245  1.00  0.00     0.025 A 
ATOM     13  C   UNL     1      63.654  50.821  33.345  1.00  0.00     0.161 A 
ATOM     14  C   UNL     1      64.728  51.055  32.468  1.00  0.00     0.157 A 
ATOM     15  C   UNL     1      63.872  50.901  34.736  1.00  0.00     0.062 A 
ATOM     16  C   UNL     1      65.994  51.358  32.977  1.00  0.00     0.051 A 
ATOM     17  C   UNL     1      66.202  51.437  34.354  1.00  0.00     0.016 A 
BRANCH  13  18
ATOM     18  O   UNL     1      62.396  50.507  32.806  1.00  0.00    -0.493 OA
ATOM     19  C   UNL     1      61.294  51.409  32.747  1.00  0.00     0.278 C 
ENDBRANCH  13  18
BRANCH  14  20
ATOM     20  O   UNL     1      64.557  50.989  31.085  1.00  0.00    -0.504 OA
ATOM     21  H   UNL     1      65.338  50.892  30.449  1.00  0.00     0.293 HD
ENDBRANCH  14  20
ENDBRANCH   1  12
BRANCH   2  22
ATOM     22  O   UNL     1      64.236  53.431  36.903  1.00  0.00    -0.502 OA
ATOM     23  H   UNL     1      64.158  54.339  37.347  1.00  0.00     0.293 HD
ENDBRANCH   2  22
BRANCH   6  24
ATOM     24  O   UNL     1      65.797  52.192  41.706  1.00  0.00    -0.507 OA
ATOM     25  H   UNL     1      65.883  53.180  41.493  1.00  0.00     0.293 HD
ENDBRANCH   6  24
BRANCH   8  26
ATOM     26  O   UNL     1      68.159  48.058  40.930  1.00  0.00    -0.508 OA
ATOM     27  H   UNL     1      68.646  47.414  40.317  1.00  0.00     0.293 HD
ENDBRANCH   8  26
TORSDOF 6
ENDMDL
MODEL 6
REMARK VINA RESULT:    -4.602      2.689      4.169
REMARK INTER + INTRA:          -6.062
REMARK INTER:                  -5.687
REMARK INTRA:                  -0.375
REMARK UNBOUND:                -0.384
REMARK SMILES COc1cc(-c2oc3cc(O)cc(O)c3c(=O)c2O)ccc1O
REMARK SMILES IDX 6 1 18 2 16 3 17 4 15 5 13 6 12 7 10 8 9 9 8 10 7 11 5 12
REMARK SMILES IDX 3 13 22 14 4 15 21 16 20 17 2 18 1 19 23 20 19 22 14 24
REMARK SMILES IDX 11 26
REMARK H PARENT 23 21 19 23 14 25 11 27
REMARK Flexibility Score: inf
ROOT
ATOM      1  C   UNL     1      65.581  50.807  37.599  1.00  0.00     0.180 A 
ATOM      2  C   UNL     1      65.198  50.828  38.954  1.00  0.00     0.208 A 
ATOM      3  C   UNL     1      65.938  50.076  39.879  1.00  0.00     0.238 A 
ATOM      4  O   UNL     1      65.598  50.078  41.094  1.00  0.00    -0.285 OA
ATOM      5  C   UNL     1      67.054  49.334  39.442  1.00  0.00     0.111 A 
ATOM      6  C   UNL     1      67.854  48.554  40.310  1.00  0.00     0.134 A 
ATOM      7  C   UNL     1      68.955  47.851  39.798  1.00  0.00     0.093 A 
ATOM      8  C   UNL     1      69.271  47.914  38.439  1.00  0.00     0.123 A 
ATOM      9  C   UNL     1      68.485  48.683  37.576  1.00  0.00     0.094 A 
ATOM     10  C   UNL     1      67.382  49.389  38.066  1.00  0.00     0.146 A 
ATOM     11  O   UNL     1      66.648  50.108  37.225  1.00  0.00    -0.452 OA
ENDROOT
BRANCH   1  12
ATOM     12  C   UNL     1      64.839  51.560  36.560  1.00  0.00     0.025 A 
ATOM     13  C   UNL     1      64.325  53.640  35.379  1.00  0.00     0.161 A 
ATOM     14  C   UNL     1      63.364  52.955  34.614  1.00  0.00     0.157 A 
ATOM     15  C   UNL     1      65.054  52.934  36.358  1.00  0.00     0.062 A 
ATOM     16  C   UNL     1      63.136  51.594  34.832  1.00  0.00     0.051 A 
ATOM     17  C   UNL     1      63.861  50.902  35.802  1.00  0.00     0.016 A 
BRANCH  13  18
ATOM     18  O   UNL     1      64.526  55.010  35.147  1.00  0.00    -0.493 OA
ATOM     19  C   UNL     1      64.156  56.047  36.051  1.00  0.00     0.278 C 
ENDBRANCH  13  18
BRANCH  14  20
ATOM     20  O   UNL     1      62.623  53.614  33.632  1.00  0.00    -0.504 OA
ATOM     21  H   UNL     1      61.872  53.160  33.128  1.00  0.00     0.293 HD
ENDBRANCH  14  20
ENDBRANCH   1  12
BRANCH   2  22
ATOM     22  O   UNL     1      64.118  51.611  39.370  1.00  0.00    -0.502 OA
ATOM     23  H   UNL     1      63.161  51.278  39.335  1.00  0.00     0.293 HD
ENDBRANCH   2  22
BRANCH   6  24
ATOM     24  O   UNL     1      67.565  48.471  41.672  1.00  0.00    -0.507 OA
ATOM     25  H   UNL     1      66.716  48.867  42.062  1.00  0.00     0.293 HD
ENDBRANCH   6  24
BRANCH   8  26
ATOM     26  O   UNL     1      70.370  47.207  37.957  1.00  0.00    -0.508 OA
ATOM     27  H   UNL     1      70.534  47.095  36.962  1.00  0.00     0.293 HD
ENDBRANCH   8  26
TORSDOF 6
ENDMDL
MODEL 7
REMARK VINA RESULT:    -4.593      1.879      7.540
REMARK INTER + INTRA:          -6.051
REMARK INTER:                  -5.839
REMARK INTRA:                  -0.212
REMARK UNBOUND:                -0.384
REMARK SMILES COc1cc(-c2oc3cc(O)cc(O)c3c(=O)c2O)ccc1O
REMARK SMILES IDX 6 1 18 2 16 3 17 4 15 5 13 6 12 7 10 8 9 9 8 10 7 11 5 12
REMARK SMILES IDX 3 13 22 14 4 15 21 16 20 17 2 18 1 19 23 20 19 22 14 24
REMARK SMILES IDX 11 26
REMARK H PARENT 23 21 19 23 14 25 11 27
REMARK Flexibility Score: inf
ROOT
ATOM      1  C   UNL     1      62.588  51.316  33.733  1.00  0.00     0.180 A 
ATOM      2  C   UNL     1      62.314  50.463  32.645  1.00  0.00     0.208 A 
ATOM      3  C   UNL     1      61.110  50.625  31.943  1.00  0.00     0.238 A 
ATOM      4  O   UNL     1      60.849  49.861  30.975  1.00  0.00    -0.285 OA
ATOM      5  C   UNL     1      60.212  51.643  32.324  1.00  0.00     0.111 A 
ATOM      6  C   UNL     1      58.980  51.875  31.667  1.00  0.00     0.134 A 
ATOM      7  C   UNL     1      58.145  52.916  32.101  1.00  0.00     0.093 A 
ATOM      8  C   UNL     1      58.517  53.727  33.175  1.00  0.00     0.123 A 
ATOM      9  C   UNL     1      59.733  53.503  33.829  1.00  0.00     0.094 A 
ATOM     10  C   UNL     1      60.579  52.470  33.413  1.00  0.00     0.146 A 
ATOM     11  O   UNL     1      61.725  52.275  34.054  1.00  0.00    -0.452 OA
ENDROOT
BRANCH   1  12
ATOM     12  C   UNL     1      63.829  51.195  34.534  1.00  0.00     0.025 A 
ATOM     13  C   UNL     1      64.975  50.796  36.658  1.00  0.00     0.161 A 
ATOM     14  C   UNL     1      66.209  51.030  36.024  1.00  0.00     0.157 A 
ATOM     15  C   UNL     1      63.787  50.889  35.905  1.00  0.00     0.062 A 
ATOM     16  C   UNL     1      66.247  51.356  34.666  1.00  0.00     0.051 A 
ATOM     17  C   UNL     1      65.067  51.445  33.926  1.00  0.00     0.016 A 
BRANCH  13  18
ATOM     18  O   UNL     1      64.966  50.481  38.026  1.00  0.00    -0.493 OA
ATOM     19  C   UNL     1      64.946  49.156  38.551  1.00  0.00     0.278 C 
ENDBRANCH  13  18
BRANCH  14  20
ATOM     20  O   UNL     1      67.409  50.945  36.730  1.00  0.00    -0.504 OA
ATOM     21  H   UNL     1      67.566  51.453  37.591  1.00  0.00     0.293 HD
ENDBRANCH  14  20
ENDBRANCH   1  12
BRANCH   2  22
ATOM     22  O   UNL     1      63.243  49.494  32.257  1.00  0.00    -0.502 OA
ATOM     23  H   UNL     1      64.161  49.734  31.901  1.00  0.00     0.293 HD
ENDBRANCH   2  22
BRANCH   6  24
ATOM     24  O   UNL     1      58.580  51.083  30.591  1.00  0.00    -0.507 OA
ATOM     25  H   UNL     1      57.823  50.414  30.674  1.00  0.00     0.293 HD
ENDBRANCH   6  24
BRANCH   8  26
ATOM     26  O   UNL     1      57.671  54.754  33.586  1.00  0.00    -0.508 OA
ATOM     27  H   UNL     1      57.060  55.231  32.932  1.00  0.00     0.293 HD
ENDBRANCH   8  26
TORSDOF 6
ENDMDL
MODEL 8
REMARK VINA RESULT:    -4.584      2.369      7.047
REMARK INTER + INTRA:          -6.039
REMARK INTER:                  -5.635
REMARK INTRA:                  -0.404
REMARK UNBOUND:                -0.384
REMARK SMILES COc1cc(-c2oc3cc(O)cc(O)c3c(=O)c2O)ccc1O
REMARK SMILES IDX 6 1 18 2 16 3 17 4 15 5 13 6 12 7 10 8 9 9 8 10 7 11 5 12
REMARK SMILES IDX 3 13 22 14 4 15 21 16 20 17 2 18 1 19 23 20 19 22 14 24
REMARK SMILES IDX 11 26
REMARK H PARENT 23 21 19 23 14 25 11 27
REMARK Flexibility Score: inf
ROOT
ATOM      1  C   UNL     1      63.516  52.180  35.168  1.00  0.00     0.180 A 
ATOM      2  C   UNL     1      62.748  51.584  34.148  1.00  0.00     0.208 A 
ATOM      3  C   UNL     1      61.721  52.330  33.548  1.00  0.00     0.238 A 
ATOM      4  O   UNL     1      61.020  51.804  32.642  1.00  0.00    -0.285 OA
ATOM      5  C   UNL     1      61.492  53.659  33.961  1.00  0.00     0.111 A 
ATOM      6  C   UNL     1      60.481  54.479  33.406  1.00  0.00     0.134 A 
ATOM      7  C   UNL     1      60.323  55.795  33.865  1.00  0.00     0.093 A 
ATOM      8  C   UNL     1      61.153  56.306  34.864  1.00  0.00     0.123 A 
ATOM      9  C   UNL     1      62.154  55.501  35.418  1.00  0.00     0.094 A 
ATOM     10  C   UNL     1      62.327  54.186  34.975  1.00  0.00     0.146 A 
ATOM     11  O   UNL     1      63.281  53.440  35.520  1.00  0.00    -0.452 OA
ENDROOT
BRANCH   1  12
ATOM     12  C   UNL     1      64.603  51.451  35.861  1.00  0.00     0.025 A 
ATOM     13  C   UNL     1      65.399  50.002  37.665  1.00  0.00     0.161 A 
ATOM     14  C   UNL     1      66.711  50.130  37.174  1.00  0.00     0.157 A 
ATOM     15  C   UNL     1      64.350  50.675  37.005  1.00  0.00     0.062 A 
ATOM     16  C   UNL     1      66.964  50.920  36.050  1.00  0.00     0.051 A 
ATOM     17  C   UNL     1      65.921  51.582  35.401  1.00  0.00     0.016 A 
BRANCH  13  18
ATOM     18  O   UNL     1      65.176  49.211  38.803  1.00  0.00    -0.493 OA
ATOM     19  C   UNL     1      65.095  49.713  40.134  1.00  0.00     0.278 C 
ENDBRANCH  13  18
BRANCH  14  20
ATOM     20  O   UNL     1      67.779  49.479  37.794  1.00  0.00    -0.504 OA
ATOM     21  H   UNL     1      68.623  49.231  37.294  1.00  0.00     0.293 HD
ENDBRANCH  14  20
ENDBRANCH   1  12
BRANCH   2  22
ATOM     22  O   UNL     1      63.028  50.283  33.723  1.00  0.00    -0.502 OA
ATOM     23  H   UNL     1      63.936  49.852  33.854  1.00  0.00     0.293 HD
ENDBRANCH   2  22
BRANCH   6  24
ATOM     24  O   UNL     1      59.636  53.998  32.405  1.00  0.00    -0.507 OA
ATOM     25  H   UNL     1      58.826  53.427  32.621  1.00  0.00     0.293 HD
ENDBRANCH   6  24
BRANCH   8  26
ATOM     26  O   UNL     1      60.975  57.616  35.302  1.00  0.00    -0.508 OA
ATOM     27  H   UNL     1      61.569  58.022  36.016  1.00  0.00     0.293 HD
ENDBRANCH   8  26
TORSDOF 6
ENDMDL
MODEL 9
REMARK VINA RESULT:    -4.538      1.981      7.175
REMARK INTER + INTRA:          -5.983
REMARK INTER:                  -5.578
REMARK INTRA:                  -0.405
REMARK UNBOUND:                -0.384
REMARK SMILES COc1cc(-c2oc3cc(O)cc(O)c3c(=O)c2O)ccc1O
REMARK SMILES IDX 6 1 18 2 16 3 17 4 15 5 13 6 12 7 10 8 9 9 8 10 7 11 5 12
REMARK SMILES IDX 3 13 22 14 4 15 21 16 20 17 2 18 1 19 23 20 19 22 14 24
REMARK SMILES IDX 11 26
REMARK H PARENT 23 21 19 23 14 25 11 27
REMARK Flexibility Score: inf
ROOT
ATOM      1  C   UNL     1      64.115  51.380  35.360  1.00  0.00     0.180 A 
ATOM      2  C   UNL     1      63.785  52.749  35.343  1.00  0.00     0.208 A 
ATOM      3  C   UNL     1      63.074  53.261  34.246  1.00  0.00     0.238 A 
ATOM      4  O   UNL     1      62.781  54.487  34.214  1.00  0.00    -0.285 OA
ATOM      5  C   UNL     1      62.690  52.398  33.199  1.00  0.00     0.111 A 
ATOM      6  C   UNL     1      61.970  52.833  32.061  1.00  0.00     0.134 A 
ATOM      7  C   UNL     1      61.616  51.909  31.066  1.00  0.00     0.093 A 
ATOM      8  C   UNL     1      61.968  50.563  31.187  1.00  0.00     0.123 A 
ATOM      9  C   UNL     1      62.681  50.127  32.308  1.00  0.00     0.094 A 
ATOM     10  C   UNL     1      63.044  51.032  33.310  1.00  0.00     0.146 A 
ATOM     11  O   UNL     1      63.724  50.593  34.363  1.00  0.00    -0.452 OA
ENDROOT
BRANCH   1  12
ATOM     12  C   UNL     1      64.880  50.771  36.473  1.00  0.00     0.025 A 
ATOM     13  C   UNL     1      66.999  50.179  37.544  1.00  0.00     0.161 A 
ATOM     14  C   UNL     1      66.287  49.551  38.582  1.00  0.00     0.157 A 
ATOM     15  C   UNL     1      66.286  50.781  36.487  1.00  0.00     0.062 A 
ATOM     16  C   UNL     1      64.890  49.522  38.555  1.00  0.00     0.051 A 
ATOM     17  C   UNL     1      64.191  50.120  37.506  1.00  0.00     0.016 A 
BRANCH  13  18
ATOM     18  O   UNL     1      68.403  50.183  37.591  1.00  0.00    -0.493 OA
ATOM     19  C   UNL     1      69.237  49.251  36.911  1.00  0.00     0.278 C 
ENDBRANCH  13  18
BRANCH  14  20
ATOM     20  O   UNL     1      66.953  48.947  39.649  1.00  0.00    -0.504 OA
ATOM     21  H   UNL     1      67.228  49.462  40.475  1.00  0.00     0.293 HD
ENDBRANCH  14  20
ENDBRANCH   1  12
BRANCH   2  22
ATOM     22  O   UNL     1      64.133  53.573  36.415  1.00  0.00    -0.502 OA
ATOM     23  H   UNL     1      65.094  53.832  36.612  1.00  0.00     0.293 HD
ENDBRANCH   2  22
BRANCH   6  24
ATOM     24  O   UNL     1      61.603  54.170  31.912  1.00  0.00    -0.507 OA
ATOM     25  H   UNL     1      60.808  54.563  32.405  1.00  0.00     0.293 HD
ENDBRANCH   6  24
BRANCH   8  26
ATOM     26  O   UNL     1      61.605  49.666  30.185  1.00  0.00    -0.508 OA
ATOM     27  H   UNL     1      61.209  48.758  30.404  1.00  0.00     0.293 HD
ENDBRANCH   8  26
TORSDOF 6
ENDMDL
