MODEL 1
REMARK VINA RESULT:    -3.883      0.000      0.000
REMARK INTER + INTRA:          -4.324
REMARK INTER:                  -4.223
REMARK INTRA:                  -0.101
REMARK UNBOUND:                -0.101
REMARK SMILES Cc1ccc(C(C)C)cc1O
REMARK SMILES IDX 1 1 2 2 10 3 9 4 5 5 4 6 3 7 11 8 6 10 7 11 8 12
REMARK H PARENT 11 9
REMARK Flexibility Score: inf
ROOT
ATOM      1  C   UNL     1     129.515 134.201 106.172  1.00  0.00     0.048 C 
ATOM      2  C   UNL     1     130.483 133.615 107.162  1.00  0.00    -0.009 A 
ATOM      3  C   UNL     1     130.330 132.296 107.643  1.00  0.00     0.118 A 
ATOM      4  C   UNL     1     131.250 131.780 108.564  1.00  0.00     0.050 A 
ATOM      5  C   UNL     1     132.328 132.556 109.020  1.00  0.00    -0.042 A 
ATOM      6  C   UNL     1     132.474 133.868 108.536  1.00  0.00     0.004 A 
ATOM      7  C   UNL     1     131.562 134.390 107.618  1.00  0.00     0.007 A 
ENDROOT
BRANCH   3   8
ATOM      8  O   UNL     1     129.280 131.475 107.228  1.00  0.00    -0.508 OA
ATOM      9  H   UNL     1     128.305 131.726 107.341  1.00  0.00     0.293 HD
ENDBRANCH   3   8
BRANCH   5  10
ATOM     10  C   UNL     1     133.312 131.976 110.019  1.00  0.00     0.013 C 
ATOM     11  C   UNL     1     132.583 131.315 111.194  1.00  0.00     0.012 C 
ATOM     12  C   UNL     1     134.273 130.992 109.341  1.00  0.00     0.012 C 
ENDBRANCH   5  10
TORSDOF 2
ENDMDL
MODEL 2
REMARK VINA RESULT:    -3.876     13.859     15.381
REMARK INTER + INTRA:          -4.316
REMARK INTER:                  -4.216
REMARK INTRA:                  -0.100
REMARK UNBOUND:                -0.101
REMARK SMILES Cc1ccc(C(C)C)cc1O
REMARK SMILES IDX 1 1 2 2 10 3 9 4 5 5 4 6 3 7 11 8 6 10 7 11 8 12
REMARK H PARENT 11 9
REMARK Flexibility Score: inf
ROOT
ATOM      1  C   UNL     1     134.160 119.470 106.129  1.00  0.00     0.048 C 
ATOM      2  C   UNL     1     133.590 118.530 107.155  1.00  0.00    -0.009 A 
ATOM      3  C   UNL     1     132.282 118.704 107.661  1.00  0.00     0.118 A 
ATOM      4  C   UNL     1     131.781 117.811 108.616  1.00  0.00     0.050 A 
ATOM      5  C   UNL     1     132.560 116.739 109.082  1.00  0.00    -0.042 A 
ATOM      6  C   UNL     1     133.860 116.572 108.573  1.00  0.00     0.004 A 
ATOM      7  C   UNL     1     134.367 117.457 107.621  1.00  0.00     0.007 A 
ENDROOT
BRANCH   3   8
ATOM      8  O   UNL     1     131.459 119.750 107.239  1.00  0.00    -0.508 OA
ATOM      9  H   UNL     1     131.451 120.095 106.287  1.00  0.00     0.293 HD
ENDBRANCH   3   8
BRANCH   5  10
ATOM     10  C   UNL     1     131.996 115.783 110.117  1.00  0.00     0.013 C 
ATOM     11  C   UNL     1     131.449 116.544 111.331  1.00  0.00     0.012 C 
ATOM     12  C   UNL     1     130.924 114.875 109.505  1.00  0.00     0.012 C 
ENDBRANCH   5  10
TORSDOF 2
ENDMDL
MODEL 3
REMARK VINA RESULT:    -3.817     13.719     15.191
REMARK INTER + INTRA:          -4.252
REMARK INTER:                  -4.149
REMARK INTRA:                  -0.103
REMARK UNBOUND:                -0.101
REMARK SMILES Cc1ccc(C(C)C)cc1O
REMARK SMILES IDX 1 1 2 2 10 3 9 4 5 5 4 6 3 7 11 8 6 10 7 11 8 12
REMARK H PARENT 11 9
REMARK Flexibility Score: inf
ROOT
ATOM      1  C   UNL     1     114.946 129.804 106.130  1.00  0.00     0.048 C 
ATOM      2  C   UNL     1     115.572 130.645 107.207  1.00  0.00    -0.009 A 
ATOM      3  C   UNL     1     116.854 130.343 107.720  1.00  0.00     0.118 A 
ATOM      4  C   UNL     1     117.409 131.147 108.724  1.00  0.00     0.050 A 
ATOM      5  C   UNL     1     116.710 132.255 109.231  1.00  0.00    -0.042 A 
ATOM      6  C   UNL     1     115.436 132.548 108.715  1.00  0.00     0.004 A 
ATOM      7  C   UNL     1     114.875 131.753 107.715  1.00  0.00     0.007 A 
ENDROOT
BRANCH   3   8
ATOM      8  O   UNL     1     117.598 129.256 107.257  1.00  0.00    -0.508 OA
ATOM      9  H   UNL     1     118.514 129.021 107.618  1.00  0.00     0.293 HD
ENDBRANCH   3   8
BRANCH   5  10
ATOM     10  C   UNL     1     117.331 133.112 110.319  1.00  0.00     0.013 C 
ATOM     11  C   UNL     1     118.121 132.254 111.315  1.00  0.00     0.012 C 
ATOM     12  C   UNL     1     118.213 134.213 109.718  1.00  0.00     0.012 C 
ENDBRANCH   5  10
TORSDOF 2
ENDMDL
MODEL 4
REMARK VINA RESULT:    -3.692      2.552      4.248
REMARK INTER + INTRA:          -4.117
REMARK INTER:                  -4.015
REMARK INTRA:                  -0.102
REMARK UNBOUND:                -0.101
REMARK SMILES Cc1ccc(C(C)C)cc1O
REMARK SMILES IDX 1 1 2 2 10 3 9 4 5 5 4 6 3 7 11 8 6 10 7 11 8 12
REMARK H PARENT 11 9
REMARK Flexibility Score: inf
ROOT
ATOM      1  C   UNL     1     127.597 130.208 110.592  1.00  0.00     0.048 C 
ATOM      2  C   UNL     1     128.273 131.271 109.771  1.00  0.00    -0.009 A 
ATOM      3  C   UNL     1     128.849 130.971 108.516  1.00  0.00     0.118 A 
ATOM      4  C   UNL     1     129.471 131.984 107.777  1.00  0.00     0.050 A 
ATOM      5  C   UNL     1     129.532 133.300 108.263  1.00  0.00    -0.042 A 
ATOM      6  C   UNL     1     128.956 133.590 109.511  1.00  0.00     0.004 A 
ATOM      7  C   UNL     1     128.334 132.587 110.256  1.00  0.00     0.007 A 
ENDROOT
BRANCH   3   8
ATOM      8  O   UNL     1     128.821 129.682 107.980  1.00  0.00    -0.508 OA
ATOM      9  H   UNL     1     129.641 129.092 107.919  1.00  0.00     0.293 HD
ENDBRANCH   3   8
BRANCH   5  10
ATOM     10  C   UNL     1     130.212 134.382 107.443  1.00  0.00     0.013 C 
ATOM     11  C   UNL     1     131.734 134.335 107.620  1.00  0.00     0.012 C 
ATOM     12  C   UNL     1     129.824 134.280 105.964  1.00  0.00     0.012 C 
ENDBRANCH   5  10
TORSDOF 2
ENDMDL
MODEL 5
REMARK VINA RESULT:    -3.660     11.890     13.187
REMARK INTER + INTRA:          -4.082
REMARK INTER:                  -3.980
REMARK INTRA:                  -0.102
REMARK UNBOUND:                -0.101
REMARK SMILES Cc1ccc(C(C)C)cc1O
REMARK SMILES IDX 1 1 2 2 10 3 9 4 5 5 4 6 3 7 11 8 6 10 7 11 8 12
REMARK H PARENT 11 9
REMARK Flexibility Score: inf
ROOT
ATOM      1  C   UNL     1     130.209 121.277 110.653  1.00  0.00     0.048 C 
ATOM      2  C   UNL     1     131.267 120.624 109.806  1.00  0.00    -0.009 A 
ATOM      3  C   UNL     1     130.971 120.132 108.515  1.00  0.00     0.118 A 
ATOM      4  C   UNL     1     131.979 119.530 107.752  1.00  0.00     0.050 A 
ATOM      5  C   UNL     1     133.286 119.407 108.250  1.00  0.00    -0.042 A 
ATOM      6  C   UNL     1     133.573 119.900 109.535  1.00  0.00     0.004 A 
ATOM      7  C   UNL     1     132.575 120.501 110.303  1.00  0.00     0.007 A 
ENDROOT
BRANCH   3   8
ATOM      8  O   UNL     1     129.691 120.225 107.965  1.00  0.00    -0.508 OA
ATOM      9  H   UNL     1     128.982 120.852 108.321  1.00  0.00     0.293 HD
ENDBRANCH   3   8
BRANCH   5  10
ATOM     10  C   UNL     1     134.363 118.751 107.405  1.00  0.00     0.013 C 
ATOM     11  C   UNL     1     134.294 117.223 107.512  1.00  0.00     0.012 C 
ATOM     12  C   UNL     1     134.274 119.208 105.944  1.00  0.00     0.012 C 
ENDBRANCH   5  10
TORSDOF 2
ENDMDL
MODEL 6
REMARK VINA RESULT:    -3.609     13.752     14.975
REMARK INTER + INTRA:          -4.026
REMARK INTER:                  -3.899
REMARK INTRA:                  -0.127
REMARK UNBOUND:                -0.101
REMARK SMILES Cc1ccc(C(C)C)cc1O
REMARK SMILES IDX 1 1 2 2 10 3 9 4 5 5 4 6 3 7 11 8 6 10 7 11 8 12
REMARK H PARENT 11 9
REMARK Flexibility Score: inf
ROOT
ATOM      1  C   UNL     1     128.606 118.149 109.020  1.00  0.00     0.048 C 
ATOM      2  C   UNL     1     130.072 117.931 108.763  1.00  0.00    -0.009 A 
ATOM      3  C   UNL     1     130.875 118.949 108.202  1.00  0.00     0.118 A 
ATOM      4  C   UNL     1     132.237 118.714 107.976  1.00  0.00     0.050 A 
ATOM      5  C   UNL     1     132.821 117.478 108.299  1.00  0.00    -0.042 A 
ATOM      6  C   UNL     1     132.014 116.471 108.857  1.00  0.00     0.004 A 
ATOM      7  C   UNL     1     130.656 116.696 109.086  1.00  0.00     0.007 A 
ENDROOT
BRANCH   3   8
ATOM      8  O   UNL     1     130.354 120.198 107.860  1.00  0.00    -0.508 OA
ATOM      9  H   UNL     1     129.362 120.378 107.778  1.00  0.00     0.293 HD
ENDBRANCH   3   8
BRANCH   5  10
ATOM     10  C   UNL     1     134.299 117.246 108.045  1.00  0.00     0.013 C 
ATOM     11  C   UNL     1     135.118 118.503 108.362  1.00  0.00     0.012 C 
ATOM     12  C   UNL     1     134.813 116.038 108.835  1.00  0.00     0.012 C 
ENDBRANCH   5  10
TORSDOF 2
ENDMDL
MODEL 7
REMARK VINA RESULT:    -3.456      2.853      4.580
REMARK INTER + INTRA:          -3.860
REMARK INTER:                  -3.735
REMARK INTRA:                  -0.125
REMARK UNBOUND:                -0.101
REMARK SMILES Cc1ccc(C(C)C)cc1O
REMARK SMILES IDX 1 1 2 2 10 3 9 4 5 5 4 6 3 7 11 8 6 10 7 11 8 12
REMARK H PARENT 11 9
REMARK Flexibility Score: inf
ROOT
ATOM      1  C   UNL     1     127.836 129.621 110.286  1.00  0.00     0.048 C 
ATOM      2  C   UNL     1     128.392 130.833 109.590  1.00  0.00    -0.009 A 
ATOM      3  C   UNL     1     128.295 132.118 110.169  1.00  0.00     0.118 A 
ATOM      4  C   UNL     1     128.824 133.226 109.495  1.00  0.00     0.050 A 
ATOM      5  C   UNL     1     129.453 133.081 108.248  1.00  0.00    -0.042 A 
ATOM      6  C   UNL     1     129.546 131.798 107.680  1.00  0.00     0.004 A 
ATOM      7  C   UNL     1     129.022 130.689 108.343  1.00  0.00     0.007 A 
ENDROOT
BRANCH   3   8
ATOM      8  O   UNL     1     127.682 132.327 111.405  1.00  0.00    -0.508 OA
ATOM      9  H   UNL     1     127.711 131.650 112.157  1.00  0.00     0.293 HD
ENDBRANCH   3   8
BRANCH   5  10
ATOM     10  C   UNL     1     130.019 134.296 107.536  1.00  0.00     0.013 C 
ATOM     11  C   UNL     1     131.541 134.371 107.698  1.00  0.00     0.012 C 
ATOM     12  C   UNL     1     129.619 134.306 106.057  1.00  0.00     0.012 C 
ENDBRANCH   5  10
TORSDOF 2
ENDMDL
