MODEL 1
REMARK VINA RESULT:    -5.346      0.000      0.000
REMARK INTER + INTRA:          -6.434
REMARK INTER:                  -6.284
REMARK INTRA:                  -0.150
REMARK UNBOUND:                -0.150
REMARK SMILES O=C([O-])C=Cc1ccc(O)c(O)c1
REMARK SMILES IDX 6 1 13 2 7 3 11 4 8 5 9 6 5 7 4 8 2 9 1 10 3 11 12 12 10 14
REMARK H PARENT 12 13 10 15
REMARK Flexibility Score: inf
ROOT
ATOM      1  C   UNL     1      12.928 -20.920  19.039  1.00  0.00    -0.022 A 
ATOM      2  C   UNL     1      11.726 -20.414  18.502  1.00  0.00     0.058 A 
ATOM      3  C   UNL     1      14.114 -20.192  18.848  1.00  0.00     0.012 A 
ATOM      4  C   UNL     1      11.712 -19.193  17.812  1.00  0.00     0.157 A 
ATOM      5  C   UNL     1      14.099 -18.974  18.162  1.00  0.00     0.051 A 
ATOM      6  C   UNL     1      12.903 -18.469  17.645  1.00  0.00     0.157 A 
ENDROOT
BRANCH   1   7
ATOM      7  C   UNL     1      12.997 -22.211  19.766  1.00  0.00     0.010 C 
ATOM      8  C   UNL     1      14.143 -22.836  20.067  1.00  0.00     0.025 C 
BRANCH   8   9
ATOM      9  C   UNL     1      14.173 -24.124  20.779  1.00  0.00     0.064 C 
ATOM     10  O   UNL     1      14.717 -25.140  20.268  1.00  0.00    -0.545 OA
ATOM     11  O   UNL     1      13.590 -24.223  22.036  1.00  0.00    -0.545 OA
ENDBRANCH   8   9
ENDBRANCH   1   7
BRANCH   4  12
ATOM     12  O   UNL     1      10.518 -18.699  17.287  1.00  0.00    -0.504 OA
ATOM     13  H   UNL     1      10.067 -19.135  16.490  1.00  0.00     0.293 HD
ENDBRANCH   4  12
BRANCH   6  14
ATOM     14  O   UNL     1      12.920 -17.250  16.967  1.00  0.00    -0.504 OA
ATOM     15  H   UNL     1      12.748 -17.186  15.971  1.00  0.00     0.293 HD
ENDBRANCH   6  14
TORSDOF 4
ENDMDL
MODEL 2
REMARK VINA RESULT:    -5.153      0.862      1.955
REMARK INTER + INTRA:          -6.206
REMARK INTER:                  -6.056
REMARK INTRA:                  -0.151
REMARK UNBOUND:                -0.150
REMARK SMILES O=C([O-])C=Cc1ccc(O)c(O)c1
REMARK SMILES IDX 6 1 13 2 7 3 11 4 8 5 9 6 5 7 4 8 2 9 1 10 3 11 12 12 10 14
REMARK H PARENT 12 13 10 15
REMARK Flexibility Score: inf
ROOT
ATOM      1  C   UNL     1      12.802 -21.101  19.140  1.00  0.00    -0.022 A 
ATOM      2  C   UNL     1      13.313 -20.064  18.334  1.00  0.00     0.058 A 
ATOM      3  C   UNL     1      11.410 -21.220  19.291  1.00  0.00     0.012 A 
ATOM      4  C   UNL     1      12.446 -19.181  17.673  1.00  0.00     0.157 A 
ATOM      5  C   UNL     1      10.546 -20.341  18.630  1.00  0.00     0.051 A 
ATOM      6  C   UNL     1      11.057 -19.324  17.820  1.00  0.00     0.157 A 
ENDROOT
BRANCH   1   7
ATOM      7  C   UNL     1      13.677 -22.052  19.869  1.00  0.00     0.010 C 
ATOM      8  C   UNL     1      13.255 -23.221  20.368  1.00  0.00     0.025 C 
BRANCH   8   9
ATOM      9  C   UNL     1      14.150 -24.135  21.097  1.00  0.00     0.064 C 
ATOM     10  O   UNL     1      15.355 -24.278  20.755  1.00  0.00    -0.545 OA
ATOM     11  O   UNL     1      13.659 -24.854  22.179  1.00  0.00    -0.545 OA
ENDBRANCH   8   9
ENDBRANCH   1   7
BRANCH   4  12
ATOM     12  O   UNL     1      12.960 -18.160  16.876  1.00  0.00    -0.504 OA
ATOM     13  H   UNL     1      12.427 -17.321  16.676  1.00  0.00     0.293 HD
ENDBRANCH   4  12
BRANCH   6  14
ATOM     14  O   UNL     1      10.169 -18.464  17.172  1.00  0.00    -0.504 OA
ATOM     15  H   UNL     1      10.487 -17.742  16.538  1.00  0.00     0.293 HD
ENDBRANCH   6  14
TORSDOF 4
ENDMDL
MODEL 3
REMARK VINA RESULT:    -4.934      1.292      2.266
REMARK INTER + INTRA:          -5.949
REMARK INTER:                  -5.823
REMARK INTRA:                  -0.126
REMARK UNBOUND:                -0.150
REMARK SMILES O=C([O-])C=Cc1ccc(O)c(O)c1
REMARK SMILES IDX 6 1 13 2 7 3 11 4 8 5 9 6 5 7 4 8 2 9 1 10 3 11 12 12 10 14
REMARK H PARENT 12 13 10 15
REMARK Flexibility Score: inf
ROOT
ATOM      1  C   UNL     1      13.970 -21.538  19.192  1.00  0.00    -0.022 A 
ATOM      2  C   UNL     1      15.007 -20.582  19.175  1.00  0.00     0.058 A 
ATOM      3  C   UNL     1      12.681 -21.146  18.795  1.00  0.00     0.012 A 
ATOM      4  C   UNL     1      14.761 -19.271  18.743  1.00  0.00     0.157 A 
ATOM      5  C   UNL     1      12.437 -19.839  18.362  1.00  0.00     0.051 A 
ATOM      6  C   UNL     1      13.470 -18.900  18.333  1.00  0.00     0.157 A 
ENDROOT
BRANCH   1   7
ATOM      7  C   UNL     1      14.177 -22.933  19.651  1.00  0.00     0.010 C 
ATOM      8  C   UNL     1      14.119 -23.312  20.935  1.00  0.00     0.025 C 
BRANCH   8   9
ATOM      9  C   UNL     1      14.343 -24.704  21.356  1.00  0.00     0.064 C 
ATOM     10  O   UNL     1      15.171 -25.442  20.756  1.00  0.00    -0.545 OA
ATOM     11  O   UNL     1      13.628 -25.217  22.431  1.00  0.00    -0.545 OA
ENDBRANCH   8   9
ENDBRANCH   1   7
BRANCH   4  12
ATOM     12  O   UNL     1      15.793 -18.333  18.727  1.00  0.00    -0.504 OA
ATOM     13  H   UNL     1      16.509 -18.318  19.445  1.00  0.00     0.293 HD
ENDBRANCH   4  12
BRANCH   6  14
ATOM     14  O   UNL     1      13.195 -17.604  17.894  1.00  0.00    -0.504 OA
ATOM     15  H   UNL     1      12.340 -17.122  18.145  1.00  0.00     0.293 HD
ENDBRANCH   6  14
TORSDOF 4
ENDMDL
MODEL 4
REMARK VINA RESULT:    -4.908      1.686      2.552
REMARK INTER + INTRA:          -5.919
REMARK INTER:                  -5.767
REMARK INTRA:                  -0.152
REMARK UNBOUND:                -0.150
REMARK SMILES O=C([O-])C=Cc1ccc(O)c(O)c1
REMARK SMILES IDX 6 1 13 2 7 3 11 4 8 5 9 6 5 7 4 8 2 9 1 10 3 11 12 12 10 14
REMARK H PARENT 12 13 10 15
REMARK Flexibility Score: inf
ROOT
ATOM      1  C   UNL     1      14.093 -20.386  18.997  1.00  0.00    -0.022 A 
ATOM      2  C   UNL     1      14.087 -19.222  18.201  1.00  0.00     0.058 A 
ATOM      3  C   UNL     1      12.870 -21.005  19.302  1.00  0.00     0.012 A 
ATOM      4  C   UNL     1      12.881 -18.708  17.700  1.00  0.00     0.157 A 
ATOM      5  C   UNL     1      11.670 -20.493  18.802  1.00  0.00     0.051 A 
ATOM      6  C   UNL     1      11.669 -19.349  18.000  1.00  0.00     0.157 A 
ENDROOT
BRANCH   1   7
ATOM      7  C   UNL     1      15.340 -20.961  19.560  1.00  0.00     0.010 C 
ATOM      8  C   UNL     1      15.422 -22.192  20.083  1.00  0.00     0.025 C 
BRANCH   8   9
ATOM      9  C   UNL     1      16.674 -22.726  20.643  1.00  0.00     0.064 C 
ATOM     10  O   UNL     1      17.792 -22.242  20.321  1.00  0.00    -0.545 OA
ATOM     11  O   UNL     1      16.623 -23.784  21.542  1.00  0.00    -0.545 OA
ENDBRANCH   8   9
ENDBRANCH   1   7
BRANCH   4  12
ATOM     12  O   UNL     1      12.885 -17.558  16.911  1.00  0.00    -0.504 OA
ATOM     13  H   UNL     1      12.026 -17.151  16.560  1.00  0.00     0.293 HD
ENDBRANCH   4  12
BRANCH   6  14
ATOM     14  O   UNL     1      10.455 -18.863  17.514  1.00  0.00    -0.504 OA
ATOM     15  H   UNL     1       9.569 -19.099  17.947  1.00  0.00     0.293 HD
ENDBRANCH   6  14
TORSDOF 4
ENDMDL
MODEL 5
REMARK VINA RESULT:    -4.801      3.384      5.117
REMARK INTER + INTRA:          -5.794
REMARK INTER:                  -5.643
REMARK INTRA:                  -0.151
REMARK UNBOUND:                -0.150
REMARK SMILES O=C([O-])C=Cc1ccc(O)c(O)c1
REMARK SMILES IDX 6 1 13 2 7 3 11 4 8 5 9 6 5 7 4 8 2 9 1 10 3 11 12 12 10 14
REMARK H PARENT 12 13 10 15
REMARK Flexibility Score: inf
ROOT
ATOM      1  C   UNL     1      13.278 -19.305  19.955  1.00  0.00    -0.022 A 
ATOM      2  C   UNL     1      12.043 -19.983  19.904  1.00  0.00     0.058 A 
ATOM      3  C   UNL     1      14.369 -19.830  19.244  1.00  0.00     0.012 A 
ATOM      4  C   UNL     1      11.900 -21.149  19.137  1.00  0.00     0.157 A 
ATOM      5  C   UNL     1      14.226 -20.991  18.478  1.00  0.00     0.051 A 
ATOM      6  C   UNL     1      12.996 -21.651  18.418  1.00  0.00     0.157 A 
ENDROOT
BRANCH   1   7
ATOM      7  C   UNL     1      13.481 -18.076  20.761  1.00  0.00     0.010 C 
ATOM      8  C   UNL     1      14.685 -17.624  21.138  1.00  0.00     0.025 C 
BRANCH   8   9
ATOM      9  C   UNL     1      14.849 -16.406  21.949  1.00  0.00     0.064 C 
ATOM     10  O   UNL     1      15.942 -15.778  21.970  1.00  0.00    -0.545 OA
ATOM     11  O   UNL     1      13.782 -15.942  22.707  1.00  0.00    -0.545 OA
ENDBRANCH   8   9
ENDBRANCH   1   7
BRANCH   4  12
ATOM     12  O   UNL     1      10.674 -21.811  19.091  1.00  0.00    -0.504 OA
ATOM     13  H   UNL     1      10.484 -22.531  18.403  1.00  0.00     0.293 HD
ENDBRANCH   4  12
BRANCH   6  14
ATOM     14  O   UNL     1      12.885 -22.806  17.643  1.00  0.00    -0.504 OA
ATOM     15  H   UNL     1      13.567 -23.553  17.690  1.00  0.00     0.293 HD
ENDBRANCH   6  14
TORSDOF 4
ENDMDL
MODEL 6
REMARK VINA RESULT:    -4.786      3.586      6.956
REMARK INTER + INTRA:          -5.776
REMARK INTER:                  -5.656
REMARK INTRA:                  -0.120
REMARK UNBOUND:                -0.150
REMARK SMILES O=C([O-])C=Cc1ccc(O)c(O)c1
REMARK SMILES IDX 6 1 13 2 7 3 11 4 8 5 9 6 5 7 4 8 2 9 1 10 3 11 12 12 10 14
REMARK H PARENT 12 13 10 15
REMARK Flexibility Score: inf
ROOT
ATOM      1  C   UNL     1      14.125 -24.207  22.132  1.00  0.00    -0.022 A 
ATOM      2  C   UNL     1      14.597 -23.151  22.939  1.00  0.00     0.058 A 
ATOM      3  C   UNL     1      13.833 -25.442  22.734  1.00  0.00     0.012 A 
ATOM      4  C   UNL     1      14.748 -23.324  24.323  1.00  0.00     0.157 A 
ATOM      5  C   UNL     1      13.982 -25.613  24.113  1.00  0.00     0.051 A 
ATOM      6  C   UNL     1      14.435 -24.560  24.911  1.00  0.00     0.157 A 
ENDROOT
BRANCH   1   7
ATOM      7  C   UNL     1      13.959 -24.077  20.663  1.00  0.00     0.010 C 
ATOM      8  C   UNL     1      13.132 -23.197  20.081  1.00  0.00     0.025 C 
BRANCH   8   9
ATOM      9  C   UNL     1      12.984 -23.105  18.620  1.00  0.00     0.064 C 
ATOM     10  O   UNL     1      13.774 -22.408  17.928  1.00  0.00    -0.545 OA
ATOM     11  O   UNL     1      11.956 -23.796  17.992  1.00  0.00    -0.545 OA
ENDBRANCH   8   9
ENDBRANCH   1   7
BRANCH   4  12
ATOM     12  O   UNL     1      15.213 -22.274  25.113  1.00  0.00    -0.504 OA
ATOM     13  H   UNL     1      16.197 -22.038  25.159  1.00  0.00     0.293 HD
ENDBRANCH   4  12
BRANCH   6  14
ATOM     14  O   UNL     1      14.572 -24.761  26.285  1.00  0.00    -0.504 OA
ATOM     15  H   UNL     1      13.785 -24.688  26.920  1.00  0.00     0.293 HD
ENDBRANCH   6  14
TORSDOF 4
ENDMDL
MODEL 7
REMARK VINA RESULT:    -4.731      1.093      2.331
REMARK INTER + INTRA:          -5.711
REMARK INTER:                  -5.559
REMARK INTRA:                  -0.152
REMARK UNBOUND:                -0.150
REMARK SMILES O=C([O-])C=Cc1ccc(O)c(O)c1
REMARK SMILES IDX 6 1 13 2 7 3 11 4 8 5 9 6 5 7 4 8 2 9 1 10 3 11 12 12 10 14
REMARK H PARENT 12 13 10 15
REMARK Flexibility Score: inf
ROOT
ATOM      1  C   UNL     1      13.631 -21.797  19.575  1.00  0.00    -0.022 A 
ATOM      2  C   UNL     1      14.359 -20.689  19.093  1.00  0.00     0.058 A 
ATOM      3  C   UNL     1      12.236 -21.813  19.412  1.00  0.00     0.012 A 
ATOM      4  C   UNL     1      13.704 -19.635  18.439  1.00  0.00     0.157 A 
ATOM      5  C   UNL     1      11.584 -20.763  18.758  1.00  0.00     0.051 A 
ATOM      6  C   UNL     1      12.311 -19.675  18.269  1.00  0.00     0.157 A 
ENDROOT
BRANCH   1   7
ATOM      7  C   UNL     1      14.275 -22.930  20.283  1.00  0.00     0.010 C 
ATOM      8  C   UNL     1      13.596 -23.923  20.874  1.00  0.00     0.025 C 
BRANCH   8   9
ATOM      9  C   UNL     1      14.270 -25.025  21.578  1.00  0.00     0.064 C 
ATOM     10  O   UNL     1      13.789 -25.513  22.637  1.00  0.00    -0.545 OA
ATOM     11  O   UNL     1      15.458 -25.536  21.071  1.00  0.00    -0.545 OA
ENDBRANCH   8   9
ENDBRANCH   1   7
BRANCH   4  12
ATOM     12  O   UNL     1      14.433 -18.546  17.964  1.00  0.00    -0.504 OA
ATOM     13  H   UNL     1      14.363 -17.631  18.394  1.00  0.00     0.293 HD
ENDBRANCH   4  12
BRANCH   6  14
ATOM     14  O   UNL     1      11.632 -18.644  17.619  1.00  0.00    -0.504 OA
ATOM     15  H   UNL     1      11.688 -18.511  16.616  1.00  0.00     0.293 HD
ENDBRANCH   6  14
TORSDOF 4
ENDMDL
MODEL 8
REMARK VINA RESULT:    -4.720      2.555      3.658
REMARK INTER + INTRA:          -5.698
REMARK INTER:                  -5.549
REMARK INTRA:                  -0.149
REMARK UNBOUND:                -0.150
REMARK SMILES O=C([O-])C=Cc1ccc(O)c(O)c1
REMARK SMILES IDX 6 1 13 2 7 3 11 4 8 5 9 6 5 7 4 8 2 9 1 10 3 11 12 12 10 14
REMARK H PARENT 12 13 10 15
REMARK Flexibility Score: inf
ROOT
ATOM      1  C   UNL     1      14.020 -23.392  20.801  1.00  0.00    -0.022 A 
ATOM      2  C   UNL     1      13.622 -23.643  19.472  1.00  0.00     0.058 A 
ATOM      3  C   UNL     1      14.347 -22.078  21.173  1.00  0.00     0.012 A 
ATOM      4  C   UNL     1      13.529 -22.594  18.545  1.00  0.00     0.157 A 
ATOM      5  C   UNL     1      14.253 -21.032  20.250  1.00  0.00     0.051 A 
ATOM      6  C   UNL     1      13.843 -21.283  18.938  1.00  0.00     0.157 A 
ENDROOT
BRANCH   1   7
ATOM      7  C   UNL     1      14.144 -24.468  21.814  1.00  0.00     0.010 C 
ATOM      8  C   UNL     1      14.016 -24.268  23.133  1.00  0.00     0.025 C 
BRANCH   8   9
ATOM      9  C   UNL     1      14.158 -25.358  24.111  1.00  0.00     0.064 C 
ATOM     10  O   UNL     1      13.981 -25.157  25.343  1.00  0.00    -0.545 OA
ATOM     11  O   UNL     1      14.495 -26.632  23.671  1.00  0.00    -0.545 OA
ENDBRANCH   8   9
ENDBRANCH   1   7
BRANCH   4  12
ATOM     12  O   UNL     1      13.132 -22.852  17.233  1.00  0.00    -0.504 OA
ATOM     13  H   UNL     1      12.347 -23.458  17.025  1.00  0.00     0.293 HD
ENDBRANCH   4  12
BRANCH   6  14
ATOM     14  O   UNL     1      13.757 -20.219  18.040  1.00  0.00    -0.504 OA
ATOM     15  H   UNL     1      13.826 -19.254  18.341  1.00  0.00     0.293 HD
ENDBRANCH   6  14
TORSDOF 4
ENDMDL
MODEL 9
REMARK VINA RESULT:    -4.644      1.944      2.804
REMARK INTER + INTRA:          -5.609
REMARK INTER:                  -5.485
REMARK INTRA:                  -0.124
REMARK UNBOUND:                -0.150
REMARK SMILES O=C([O-])C=Cc1ccc(O)c(O)c1
REMARK SMILES IDX 6 1 13 2 7 3 11 4 8 5 9 6 5 7 4 8 2 9 1 10 3 11 12 12 10 14
REMARK H PARENT 12 13 10 15
REMARK Flexibility Score: inf
ROOT
ATOM      1  C   UNL     1      14.274 -23.026  19.958  1.00  0.00    -0.022 A 
ATOM      2  C   UNL     1      12.867 -23.020  19.859  1.00  0.00     0.058 A 
ATOM      3  C   UNL     1      14.998 -21.975  19.371  1.00  0.00     0.012 A 
ATOM      4  C   UNL     1      12.202 -21.970  19.210  1.00  0.00     0.157 A 
ATOM      5  C   UNL     1      14.334 -20.928  18.726  1.00  0.00     0.051 A 
ATOM      6  C   UNL     1      12.940 -20.918  18.644  1.00  0.00     0.157 A 
ENDROOT
BRANCH   1   7
ATOM      7  C   UNL     1      15.023 -24.119  20.623  1.00  0.00     0.010 C 
ATOM      8  C   UNL     1      14.506 -24.903  21.580  1.00  0.00     0.025 C 
BRANCH   8   9
ATOM      9  C   UNL     1      15.284 -25.971  22.228  1.00  0.00     0.064 C 
ATOM     10  O   UNL     1      16.436 -26.278  21.819  1.00  0.00    -0.545 OA
ATOM     11  O   UNL     1      14.739 -26.655  23.307  1.00  0.00    -0.545 OA
ENDBRANCH   8   9
ENDBRANCH   1   7
BRANCH   4  12
ATOM     12  O   UNL     1      10.810 -21.972  19.120  1.00  0.00    -0.504 OA
ATOM     13  H   UNL     1      10.335 -21.884  18.230  1.00  0.00     0.293 HD
ENDBRANCH   4  12
BRANCH   6  14
ATOM     14  O   UNL     1      12.306 -19.858  17.996  1.00  0.00    -0.504 OA
ATOM     15  H   UNL     1      11.307 -19.848  17.831  1.00  0.00     0.293 HD
ENDBRANCH   6  14
TORSDOF 4
ENDMDL
