MODEL 1
REMARK VINA RESULT:     9.334      0.000      0.000
REMARK INTER + INTRA:          19.352
REMARK INTER:                  15.337
REMARK INTRA:                   4.015
REMARK UNBOUND:                 4.015
REMARK SMILES COc1ccc([C@H]2CC(=O)c3c(O)cc(O[C@H]4O[C@H](CO[C@@H]5O[C@H](C)[C@H](O)[C@H](O)[C@@H]5O)[C@@H](O)[C@H](O)[C@@H]4O)cc3O2)cc1O
REMARK SMILES IDX 19 1 32 2 34 3 36 4 17 5 18 6 20 7 21 8 22 9 25 10 24 11
REMARK SMILES IDX 26 12 23 13 28 14 30 15 27 16 29 18 31 20 33 22 35 24 16 26
REMARK SMILES IDX 15 27 14 28 38 29 12 30 39 31 11 32 40 33 9 34 7 35 10 36
REMARK SMILES IDX 8 37 13 38 6 40 41 41 5 42 42 43 4 44 3 45 43 46 2 48 1 49
REMARK SMILES IDX 37 50
REMARK H PARENT 27 17 29 19 31 21 33 23 35 25 13 39 43 47 37 51
REMARK Flexibility Score: inf
ROOT
ATOM      1  C   UNL     1      18.727   9.634   4.750  1.00  0.00     0.180 C 
ATOM      2  C   UNL     1      17.886   8.387   5.114  1.00  0.00     0.177 C 
ATOM      3  C   UNL     1      17.383   8.507   6.562  1.00  0.00     0.180 C 
ATOM      4  C   UNL     1      16.684   9.864   6.775  1.00  0.00     0.214 C 
ATOM      5  C   UNL     1      17.601  11.005   6.297  1.00  0.00     0.339 C 
ATOM      6  O   UNL     1      17.972  10.820   4.941  1.00  0.00    -0.332 OA
ENDROOT
BRANCH   1   7
ATOM      7  C   UNL     1      19.175   9.604   3.281  1.00  0.00     0.198 C 
BRANCH   7   8
ATOM      8  O   UNL     1      18.049   9.583   2.423  1.00  0.00    -0.347 OA
BRANCH   8   9
ATOM      9  C   UNL     1      17.531  10.892   2.221  1.00  0.00     0.281 C 
ATOM     10  C   UNL     1      15.359   8.913   3.295  1.00  0.00     0.041 C 
ATOM     11  C   UNL     1      15.261  10.352   2.757  1.00  0.00     0.150 C 
ATOM     12  C   UNL     1      14.831  10.458   1.268  1.00  0.00     0.174 C 
ATOM     13  O   UNL     1      16.416  11.125   3.072  1.00  0.00    -0.344 OA
ATOM     14  C   UNL     1      16.004  10.245   0.303  1.00  0.00     0.179 C 
ATOM     15  C   UNL     1      17.181  11.125   0.736  1.00  0.00     0.202 C 
BRANCH  12  16
ATOM     16  O   UNL     1      13.797   9.555   0.967  1.00  0.00    -0.388 OA
ATOM     17  H   UNL     1      14.120   8.652   1.226  1.00  0.00     0.211 HD
ENDBRANCH  12  16
BRANCH  14  18
ATOM     18  O   UNL     1      16.373   8.887   0.271  1.00  0.00    -0.387 OA
ATOM     19  H   UNL     1      17.186   8.820  -0.296  1.00  0.00     0.211 HD
ENDBRANCH  14  18
BRANCH  15  20
ATOM     20  O   UNL     1      18.294  10.864  -0.080  1.00  0.00    -0.385 OA
ATOM     21  H   UNL     1      18.596   9.941   0.131  1.00  0.00     0.211 HD
ENDBRANCH  15  20
ENDBRANCH   8   9
ENDBRANCH   7   8
ENDBRANCH   1   7
BRANCH   2  22
ATOM     22  O   UNL     1      18.672   7.230   4.989  1.00  0.00    -0.387 OA
ATOM     23  H   UNL     1      18.670   6.780   5.876  1.00  0.00     0.211 HD
ENDBRANCH   2  22
BRANCH   3  24
ATOM     24  O   UNL     1      16.505   7.446   6.845  1.00  0.00    -0.387 OA
ATOM     25  H   UNL     1      15.954   7.727   7.620  1.00  0.00     0.211 HD
ENDBRANCH   3  24
BRANCH   5  26
ATOM     26  O   UNL     1      18.765  11.125   7.125  1.00  0.00    -0.462 OA
BRANCH  26  27
ATOM     27  C   UNL     1      19.988  10.461   6.928  1.00  0.00     0.130 A 
ATOM     28  C   UNL     1      21.162  11.125   6.525  1.00  0.00     0.093 A 
ATOM     29  C   UNL     1      20.021   9.077   7.121  1.00  0.00     0.094 A 
ATOM     30  C   UNL     1      22.347  10.410   6.302  1.00  0.00     0.133 A 
ATOM     31  C   UNL     1      21.190   8.350   6.881  1.00  0.00     0.138 A 
ATOM     32  C   UNL     1      22.364   9.011   6.478  1.00  0.00     0.102 A 
ATOM     33  O   UNL     1      21.174   6.954   7.017  1.00  0.00    -0.484 OA
ATOM     34  C   UNL     1      23.580   8.193   6.268  1.00  0.00     0.174 C 
ATOM     35  C   UNL     1      22.203   6.113   6.480  1.00  0.00     0.211 C 
ATOM     36  O   UNL     1      24.622   8.686   5.762  1.00  0.00    -0.294 OA
ATOM     37  C   UNL     1      23.583   6.761   6.715  1.00  0.00     0.131 C 
BRANCH  30  38
ATOM     38  O   UNL     1      23.499  11.090   5.910  1.00  0.00    -0.507 OA
ATOM     39  H   UNL     1      24.377  10.982   6.403  1.00  0.00     0.293 HD
ENDBRANCH  30  38
BRANCH  35  40
ATOM     40  C   UNL     1      21.967   5.800   5.007  1.00  0.00    -0.003 A 
ATOM     41  C   UNL     1      22.311   4.532   4.507  1.00  0.00     0.057 A 
ATOM     42  C   UNL     1      21.384   6.734   4.127  1.00  0.00     0.011 A 
ATOM     43  C   UNL     1      22.126   4.217   3.152  1.00  0.00     0.158 A 
ATOM     44  C   UNL     1      21.187   6.417   2.781  1.00  0.00     0.051 A 
ATOM     45  C   UNL     1      21.567   5.159   2.279  1.00  0.00     0.160 A 
BRANCH  43  46
ATOM     46  O   UNL     1      22.493   2.962   2.668  1.00  0.00    -0.504 OA
ATOM     47  H   UNL     1      21.957   2.133   2.891  1.00  0.00     0.293 HD
ENDBRANCH  43  46
BRANCH  45  48
ATOM     48  O   UNL     1      21.403   4.810   0.929  1.00  0.00    -0.493 OA
ATOM     49  C   UNL     1      21.911   5.570  -0.164  1.00  0.00     0.278 C 
ENDBRANCH  45  48
ENDBRANCH  35  40
ENDBRANCH  26  27
ENDBRANCH   5  26
BRANCH   4  50
ATOM     50  O   UNL     1      15.481   9.915   6.049  1.00  0.00    -0.384 OA
ATOM     51  H   UNL     1      14.958  10.680   6.405  1.00  0.00     0.211 HD
ENDBRANCH   4  50
TORSDOF 15
ENDMDL
