MODEL 1
REMARK VINA RESULT:    -3.993      0.000      0.000
REMARK INTER + INTRA:          -6.188
REMARK INTER:                  -5.627
REMARK INTRA:                  -0.561
REMARK UNBOUND:                -0.561
REMARK SMILES C=CCCCCCCC(=O)[O-]
REMARK SMILES IDX 6 1 7 2 8 3 9 4 10 5 11 6 5 7 4 8 3 9 2 10 1 11
REMARK H PARENT
REMARK Flexibility Score: inf
ROOT
ATOM      1  C   UNL     1      10.294  15.218  23.512  1.00  0.00     0.000 C 
ENDROOT
BRANCH   1   2
ATOM      2  C   UNL     1       8.925  14.523  23.615  1.00  0.00     0.006 C 
BRANCH   2   3
ATOM      3  C   UNL     1       8.136  14.982  24.848  1.00  0.00     0.053 C 
BRANCH   3   4
ATOM      4  C   UNL     1       6.657  14.854  24.644  1.00  0.00     0.041 C 
ATOM      5  O   UNL     1       6.193  13.916  23.944  1.00  0.00    -0.550 OA
ATOM      6  O   UNL     1       5.795  15.789  25.201  1.00  0.00    -0.550 OA
ENDBRANCH   3   4
ENDBRANCH   2   3
ENDBRANCH   1   2
BRANCH   1   7
ATOM      7  C   UNL     1      11.467  14.228  23.595  1.00  0.00     0.000 C 
BRANCH   7   8
ATOM      8  C   UNL     1      12.409  14.523  24.772  1.00  0.00     0.004 C 
BRANCH   8   9
ATOM      9  C   UNL     1      12.291  13.442  25.852  1.00  0.00     0.027 C 
BRANCH   9  10
ATOM     10  C   UNL     1      11.585  13.964  27.074  1.00  0.00    -0.035 C 
ATOM     11  C   UNL     1      10.299  13.690  27.313  1.00  0.00     0.004 C 
ENDBRANCH   9  10
ENDBRANCH   8   9
ENDBRANCH   7   8
ENDBRANCH   1   7
TORSDOF 7
ENDMDL
MODEL 2
REMARK VINA RESULT:    -3.914     10.433     12.509
REMARK INTER + INTRA:          -6.077
REMARK INTER:                  -5.797
REMARK INTRA:                  -0.280
REMARK UNBOUND:                -0.561
REMARK SMILES C=CCCCCCCC(=O)[O-]
REMARK SMILES IDX 6 1 7 2 8 3 9 4 10 5 11 6 5 7 4 8 3 9 2 10 1 11
REMARK H PARENT
REMARK Flexibility Score: inf
ROOT
ATOM      1  C   UNL     1       3.713  19.803  34.000  1.00  0.00     0.000 C 
ENDROOT
BRANCH   1   2
ATOM      2  C   UNL     1       4.814  18.754  34.235  1.00  0.00     0.006 C 
BRANCH   2   3
ATOM      3  C   UNL     1       5.112  17.937  32.971  1.00  0.00     0.053 C 
BRANCH   3   4
ATOM      4  C   UNL     1       6.086  16.830  33.239  1.00  0.00     0.041 C 
ATOM      5  O   UNL     1       6.574  16.170  32.285  1.00  0.00    -0.550 OA
ATOM      6  O   UNL     1       6.430  16.508  34.546  1.00  0.00    -0.550 OA
ENDBRANCH   3   4
ENDBRANCH   2   3
ENDBRANCH   1   2
BRANCH   1   7
ATOM      7  C   UNL     1       3.282  19.888  32.527  1.00  0.00     0.000 C 
BRANCH   7   8
ATOM      8  C   UNL     1       1.756  19.915  32.356  1.00  0.00     0.004 C 
BRANCH   8   9
ATOM      9  C   UNL     1       1.112  20.900  33.338  1.00  0.00     0.027 C 
BRANCH   9  10
ATOM     10  C   UNL     1       0.054  21.731  32.664  1.00  0.00    -0.035 C 
ATOM     11  C   UNL     1      -0.456  22.823  33.243  1.00  0.00     0.004 C 
ENDBRANCH   9  10
ENDBRANCH   8   9
ENDBRANCH   7   8
ENDBRANCH   1   7
TORSDOF 7
ENDMDL
MODEL 3
REMARK VINA RESULT:    -3.876      9.660     11.035
REMARK INTER + INTRA:          -6.023
REMARK INTER:                  -5.761
REMARK INTRA:                  -0.262
REMARK UNBOUND:                -0.561
REMARK SMILES C=CCCCCCCC(=O)[O-]
REMARK SMILES IDX 6 1 7 2 8 3 9 4 10 5 11 6 5 7 4 8 3 9 2 10 1 11
REMARK H PARENT
REMARK Flexibility Score: inf
ROOT
ATOM      1  C   UNL     1       5.123  10.024  15.635  1.00  0.00     0.000 C 
ENDROOT
BRANCH   1   2
ATOM      2  C   UNL     1       3.646   9.832  15.244  1.00  0.00     0.006 C 
BRANCH   2   3
ATOM      3  C   UNL     1       2.773   9.468  16.452  1.00  0.00     0.053 C 
BRANCH   3   4
ATOM      4  C   UNL     1       1.515   8.768  16.040  1.00  0.00     0.041 C 
ATOM      5  O   UNL     1       0.402   9.142  16.494  1.00  0.00    -0.550 OA
ATOM      6  O   UNL     1       1.575   7.681  15.176  1.00  0.00    -0.550 OA
ENDBRANCH   3   4
ENDBRANCH   2   3
ENDBRANCH   1   2
BRANCH   1   7
ATOM      7  C   UNL     1       5.783  11.197  14.893  1.00  0.00     0.000 C 
BRANCH   7   8
ATOM      8  C   UNL     1       7.041  11.717  15.605  1.00  0.00     0.004 C 
BRANCH   8   9
ATOM      9  C   UNL     1       7.168  11.109  17.006  1.00  0.00     0.027 C 
BRANCH   9  10
ATOM     10  C   UNL     1       8.517  11.394  17.606  1.00  0.00    -0.035 C 
ATOM     11  C   UNL     1       8.805  12.578  18.157  1.00  0.00     0.004 C 
ENDBRANCH   9  10
ENDBRANCH   8   9
ENDBRANCH   7   8
ENDBRANCH   1   7
TORSDOF 7
ENDMDL
MODEL 4
REMARK VINA RESULT:    -3.843     11.945     13.199
REMARK INTER + INTRA:          -5.976
REMARK INTER:                  -5.736
REMARK INTRA:                  -0.240
REMARK UNBOUND:                -0.561
REMARK SMILES C=CCCCCCCC(=O)[O-]
REMARK SMILES IDX 6 1 7 2 8 3 9 4 10 5 11 6 5 7 4 8 3 9 2 10 1 11
REMARK H PARENT
REMARK Flexibility Score: inf
ROOT
ATOM      1  C   UNL     1      -0.944   9.385  17.828  1.00  0.00     0.000 C 
ENDROOT
BRANCH   1   2
ATOM      2  C   UNL     1      -1.325  10.698  18.534  1.00  0.00     0.006 C 
BRANCH   2   3
ATOM      3  C   UNL     1      -1.193  10.593  20.060  1.00  0.00     0.053 C 
BRANCH   3   4
ATOM      4  C   UNL     1      -2.125   9.568  20.630  1.00  0.00     0.041 C 
ATOM      5  O   UNL     1      -3.301   9.466  20.193  1.00  0.00    -0.550 OA
ATOM      6  O   UNL     1      -1.702   8.745  21.667  1.00  0.00    -0.550 OA
ENDBRANCH   3   4
ENDBRANCH   2   3
ENDBRANCH   1   2
BRANCH   1   7
ATOM      7  C   UNL     1       0.410   9.474  17.105  1.00  0.00     0.000 C 
BRANCH   7   8
ATOM      8  C   UNL     1       0.587   8.381  16.040  1.00  0.00     0.004 C 
BRANCH   8   9
ATOM      9  C   UNL     1       1.983   8.450  15.412  1.00  0.00     0.027 C 
BRANCH   9  10
ATOM     10  C   UNL     1       2.892   9.356  16.197  1.00  0.00    -0.035 C 
ATOM     11  C   UNL     1       4.035   9.820  15.684  1.00  0.00     0.004 C 
ENDBRANCH   9  10
ENDBRANCH   8   9
ENDBRANCH   7   8
ENDBRANCH   1   7
TORSDOF 7
ENDMDL
MODEL 5
REMARK VINA RESULT:    -3.825     12.772     14.096
REMARK INTER + INTRA:          -5.951
REMARK INTER:                  -5.709
REMARK INTRA:                  -0.242
REMARK UNBOUND:                -0.561
REMARK SMILES C=CCCCCCCC(=O)[O-]
REMARK SMILES IDX 6 1 7 2 8 3 9 4 10 5 11 6 5 7 4 8 3 9 2 10 1 11
REMARK H PARENT
REMARK Flexibility Score: inf
ROOT
ATOM      1  C   UNL     1      -0.532  20.247  30.605  1.00  0.00     0.000 C 
ENDROOT
BRANCH   1   2
ATOM      2  C   UNL     1      -1.739  20.239  29.650  1.00  0.00     0.006 C 
BRANCH   2   3
ATOM      3  C   UNL     1      -1.577  19.210  28.523  1.00  0.00     0.053 C 
BRANCH   3   4
ATOM      4  C   UNL     1      -1.930  19.786  27.186  1.00  0.00     0.041 C 
ATOM      5  O   UNL     1      -1.098  20.497  26.563  1.00  0.00    -0.550 OA
ATOM      6  O   UNL     1      -3.189  19.564  26.643  1.00  0.00    -0.550 OA
ENDBRANCH   3   4
ENDBRANCH   2   3
ENDBRANCH   1   2
BRANCH   1   7
ATOM      7  C   UNL     1      -0.602  21.384  31.636  1.00  0.00     0.000 C 
BRANCH   7   8
ATOM      8  C   UNL     1       0.424  21.222  32.768  1.00  0.00     0.004 C 
BRANCH   8   9
ATOM      9  C   UNL     1       0.182  22.252  33.878  1.00  0.00     0.027 C 
BRANCH   9  10
ATOM     10  C   UNL     1      -0.821  23.289  33.452  1.00  0.00    -0.035 C 
ATOM     11  C   UNL     1      -1.464  24.051  34.342  1.00  0.00     0.004 C 
ENDBRANCH   9  10
ENDBRANCH   8   9
ENDBRANCH   7   8
ENDBRANCH   1   7
TORSDOF 7
ENDMDL
MODEL 6
REMARK VINA RESULT:    -3.807     11.875     14.008
REMARK INTER + INTRA:          -5.927
REMARK INTER:                  -5.598
REMARK INTRA:                  -0.328
REMARK UNBOUND:                -0.561
REMARK SMILES C=CCCCCCCC(=O)[O-]
REMARK SMILES IDX 6 1 7 2 8 3 9 4 10 5 11 6 5 7 4 8 3 9 2 10 1 11
REMARK H PARENT
REMARK Flexibility Score: inf
ROOT
ATOM      1  C   UNL     1       1.237  20.114  32.110  1.00  0.00     0.000 C 
ENDROOT
BRANCH   1   2
ATOM      2  C   UNL     1       2.106  19.281  33.070  1.00  0.00     0.006 C 
BRANCH   2   3
ATOM      3  C   UNL     1       3.596  19.622  32.942  1.00  0.00     0.053 C 
BRANCH   3   4
ATOM      4  C   UNL     1       4.467  18.451  33.283  1.00  0.00     0.041 C 
ATOM      5  O   UNL     1       5.464  18.173  32.567  1.00  0.00    -0.550 OA
ATOM      6  O   UNL     1       4.158  17.650  34.375  1.00  0.00    -0.550 OA
ENDBRANCH   3   4
ENDBRANCH   2   3
ENDBRANCH   1   2
BRANCH   1   7
ATOM      7  C   UNL     1       0.696  21.395  32.765  1.00  0.00     0.000 C 
BRANCH   7   8
ATOM      8  C   UNL     1       0.434  21.227  34.269  1.00  0.00     0.004 C 
BRANCH   8   9
ATOM      9  C   UNL     1      -0.231  22.479  34.853  1.00  0.00     0.027 C 
BRANCH   9  10
ATOM     10  C   UNL     1      -0.768  23.370  33.765  1.00  0.00    -0.035 C 
ATOM     11  C   UNL     1      -1.752  24.244  33.996  1.00  0.00     0.004 C 
ENDBRANCH   9  10
ENDBRANCH   8   9
ENDBRANCH   7   8
ENDBRANCH   1   7
TORSDOF 7
ENDMDL
MODEL 7
REMARK VINA RESULT:    -3.742     10.914     12.479
REMARK INTER + INTRA:          -5.834
REMARK INTER:                  -5.545
REMARK INTRA:                  -0.290
REMARK UNBOUND:                -0.561
REMARK SMILES C=CCCCCCCC(=O)[O-]
REMARK SMILES IDX 6 1 7 2 8 3 9 4 10 5 11 6 5 7 4 8 3 9 2 10 1 11
REMARK H PARENT
REMARK Flexibility Score: inf
ROOT
ATOM      1  C   UNL     1       2.123  19.896  32.084  1.00  0.00     0.000 C 
ENDROOT
BRANCH   1   2
ATOM      2  C   UNL     1       0.950  20.210  33.029  1.00  0.00     0.006 C 
BRANCH   2   3
ATOM      3  C   UNL     1       0.024  21.293  32.460  1.00  0.00     0.053 C 
BRANCH   3   4
ATOM      4  C   UNL     1      -0.120  22.452  33.399  1.00  0.00     0.041 C 
ATOM      5  O   UNL     1      -0.985  23.341  33.181  1.00  0.00    -0.550 OA
ATOM      6  O   UNL     1       0.722  22.566  34.498  1.00  0.00    -0.550 OA
ENDBRANCH   3   4
ENDBRANCH   2   3
ENDBRANCH   1   2
BRANCH   1   7
ATOM      7  C   UNL     1       3.459  19.748  32.829  1.00  0.00     0.000 C 
BRANCH   7   8
ATOM      8  C   UNL     1       3.445  18.598  33.848  1.00  0.00     0.004 C 
BRANCH   8   9
ATOM      9  C   UNL     1       4.856  18.036  34.058  1.00  0.00     0.027 C 
BRANCH   9  10
ATOM     10  C   UNL     1       5.534  17.755  32.745  1.00  0.00    -0.035 C 
ATOM     11  C   UNL     1       6.166  16.601  32.513  1.00  0.00     0.004 C 
ENDBRANCH   9  10
ENDBRANCH   8   9
ENDBRANCH   7   8
ENDBRANCH   1   7
TORSDOF 7
ENDMDL
MODEL 8
REMARK VINA RESULT:    -3.667     11.767     13.343
REMARK INTER + INTRA:          -5.729
REMARK INTER:                  -5.411
REMARK INTRA:                  -0.317
REMARK UNBOUND:                -0.561
REMARK SMILES C=CCCCCCCC(=O)[O-]
REMARK SMILES IDX 6 1 7 2 8 3 9 4 10 5 11 6 5 7 4 8 3 9 2 10 1 11
REMARK H PARENT
REMARK Flexibility Score: inf
ROOT
ATOM      1  C   UNL     1       1.213  20.288  32.178  1.00  0.00     0.000 C 
ENDROOT
BRANCH   1   2
ATOM      2  C   UNL     1       0.646  21.170  33.305  1.00  0.00     0.006 C 
BRANCH   2   3
ATOM      3  C   UNL     1      -0.284  22.266  32.768  1.00  0.00     0.053 C 
BRANCH   3   4
ATOM      4  C   UNL     1      -0.570  23.311  33.802  1.00  0.00     0.041 C 
ATOM      5  O   UNL     1       0.221  23.482  34.766  1.00  0.00    -0.550 OA
ATOM      6  O   UNL     1      -1.726  24.076  33.716  1.00  0.00    -0.550 OA
ENDBRANCH   3   4
ENDBRANCH   2   3
ENDBRANCH   1   2
BRANCH   1   7
ATOM      7  C   UNL     1       2.450  19.490  32.618  1.00  0.00     0.000 C 
BRANCH   7   8
ATOM      8  C   UNL     1       3.032  19.984  33.951  1.00  0.00     0.004 C 
BRANCH   8   9
ATOM      9  C   UNL     1       4.464  19.475  34.147  1.00  0.00     0.027 C 
BRANCH   9  10
ATOM     10  C   UNL     1       4.698  18.197  33.388  1.00  0.00    -0.035 C 
ATOM     11  C   UNL     1       5.903  17.876  32.907  1.00  0.00     0.004 C 
ENDBRANCH   9  10
ENDBRANCH   8   9
ENDBRANCH   7   8
ENDBRANCH   1   7
TORSDOF 7
ENDMDL
