MODEL 1
REMARK VINA RESULT:    -4.886      0.000      0.000
REMARK INTER + INTRA:         -10.754
REMARK INTER:                  -9.457
REMARK INTRA:                  -1.298
REMARK UNBOUND:                -1.298
REMARK SMILES CCCCCCCCCCCCCCCCCC(=O)[O-]
REMARK SMILES IDX 10 1 11 2 12 3 13 4 14 5 15 6 16 7 17 8 18 9 19 10 20 11
REMARK SMILES IDX 9 12 8 13 7 14 6 15 5 16 4 17 3 18 2 19 1 20
REMARK H PARENT
REMARK Flexibility Score: inf
ROOT
ATOM      1  C   UNL     1      -5.493  -5.200  28.289  1.00  0.00     0.000 C 
ENDROOT
BRANCH   1   2
ATOM      2  C   UNL     1      -5.924  -6.678  28.311  1.00  0.00     0.000 C 
BRANCH   2   3
ATOM      3  C   UNL     1      -5.918  -7.278  29.727  1.00  0.00     0.000 C 
BRANCH   3   4
ATOM      4  C   UNL     1      -6.261  -8.777  29.734  1.00  0.00     0.000 C 
BRANCH   4   5
ATOM      5  C   UNL     1      -5.571  -9.556  28.600  1.00  0.00     0.000 C 
BRANCH   5   6
ATOM      6  C   UNL     1      -4.606 -10.668  29.055  1.00  0.00     0.000 C 
BRANCH   6   7
ATOM      7  C   UNL     1      -4.079 -11.586  27.936  1.00  0.00     0.006 C 
BRANCH   7   8
ATOM      8  C   UNL     1      -4.439 -11.111  26.516  1.00  0.00     0.053 C 
BRANCH   8   9
ATOM      9  C   UNL     1      -4.100 -12.127  25.469  1.00  0.00     0.041 C 
ATOM     10  O   UNL     1      -3.844 -13.316  25.796  1.00  0.00    -0.550 OA
ATOM     11  O   UNL     1      -4.032 -11.754  24.132  1.00  0.00    -0.550 OA
ENDBRANCH   8   9
ENDBRANCH   7   8
ENDBRANCH   6   7
ENDBRANCH   5   6
ENDBRANCH   4   5
ENDBRANCH   3   4
ENDBRANCH   2   3
ENDBRANCH   1   2
BRANCH   1  12
ATOM     12  C   UNL     1      -5.486  -4.564  29.689  1.00  0.00     0.000 C 
BRANCH  12  13
ATOM     13  C   UNL     1      -5.351  -3.033  29.641  1.00  0.00    -0.000 C 
BRANCH  13  14
ATOM     14  C   UNL     1      -5.243  -2.483  28.208  1.00  0.00    -0.000 C 
BRANCH  14  15
ATOM     15  C   UNL     1      -4.854  -0.996  28.105  1.00  0.00    -0.000 C 
BRANCH  15  16
ATOM     16  C   UNL     1      -3.424  -0.783  27.577  1.00  0.00    -0.000 C 
BRANCH  16  17
ATOM     17  C   UNL     1      -2.355  -1.031  28.662  1.00  0.00    -0.000 C 
BRANCH  17  18
ATOM     18  C   UNL     1      -1.066  -1.684  28.126  1.00  0.00    -0.000 C 
BRANCH  18  19
ATOM     19  C   UNL     1      -0.682  -3.007  28.807  1.00  0.00    -0.003 C 
ATOM     20  C   UNL     1      -1.861  -3.970  28.943  1.00  0.00     0.004 C 
ENDBRANCH  18  19
ENDBRANCH  17  18
ENDBRANCH  16  17
ENDBRANCH  15  16
ENDBRANCH  14  15
ENDBRANCH  13  14
ENDBRANCH  12  13
ENDBRANCH   1  12
TORSDOF 16
ENDMDL
MODEL 2
REMARK VINA RESULT:    -4.792      3.778      8.857
REMARK INTER + INTRA:         -10.573
REMARK INTER:                  -9.731
REMARK INTRA:                  -0.842
REMARK UNBOUND:                -1.298
REMARK SMILES CCCCCCCCCCCCCCCCCC(=O)[O-]
REMARK SMILES IDX 10 1 11 2 12 3 13 4 14 5 15 6 16 7 17 8 18 9 19 10 20 11
REMARK SMILES IDX 9 12 8 13 7 14 6 15 5 16 4 17 3 18 2 19 1 20
REMARK H PARENT
REMARK Flexibility Score: inf
ROOT
ATOM      1  C   UNL     1      -5.024  -5.086  28.356  1.00  0.00     0.000 C 
ENDROOT
BRANCH   1   2
ATOM      2  C   UNL     1      -5.409  -4.265  29.600  1.00  0.00     0.000 C 
BRANCH   2   3
ATOM      3  C   UNL     1      -4.742  -2.881  29.628  1.00  0.00     0.000 C 
BRANCH   3   4
ATOM      4  C   UNL     1      -5.352  -1.910  28.602  1.00  0.00     0.000 C 
BRANCH   4   5
ATOM      5  C   UNL     1      -4.290  -1.079  27.858  1.00  0.00     0.000 C 
BRANCH   5   6
ATOM      6  C   UNL     1      -3.066  -0.667  28.699  1.00  0.00     0.000 C 
BRANCH   6   7
ATOM      7  C   UNL     1      -1.840  -0.192  27.894  1.00  0.00     0.006 C 
BRANCH   7   8
ATOM      8  C   UNL     1      -0.879  -1.326  27.493  1.00  0.00     0.053 C 
BRANCH   8   9
ATOM      9  C   UNL     1      -0.114  -1.868  28.662  1.00  0.00     0.041 C 
ATOM     10  O   UNL     1       0.673  -1.125  29.306  1.00  0.00    -0.550 OA
ATOM     11  O   UNL     1      -0.243  -3.204  29.020  1.00  0.00    -0.550 OA
ENDBRANCH   8   9
ENDBRANCH   7   8
ENDBRANCH   6   7
ENDBRANCH   5   6
ENDBRANCH   4   5
ENDBRANCH   3   4
ENDBRANCH   2   3
ENDBRANCH   1   2
BRANCH   1  12
ATOM     12  C   UNL     1      -5.869  -6.361  28.202  1.00  0.00     0.000 C 
BRANCH  12  13
ATOM     13  C   UNL     1      -5.857  -7.234  29.468  1.00  0.00    -0.000 C 
BRANCH  13  14
ATOM     14  C   UNL     1      -6.167  -8.714  29.180  1.00  0.00    -0.000 C 
BRANCH  14  15
ATOM     15  C   UNL     1      -5.379  -9.726  30.033  1.00  0.00    -0.000 C 
BRANCH  15  16
ATOM     16  C   UNL     1      -4.642 -10.781  29.188  1.00  0.00    -0.000 C 
BRANCH  16  17
ATOM     17  C   UNL     1      -4.926 -10.625  27.678  1.00  0.00    -0.000 C 
BRANCH  17  18
ATOM     18  C   UNL     1      -4.164 -11.634  26.797  1.00  0.00    -0.000 C 
BRANCH  18  19
ATOM     19  C   UNL     1      -4.241 -11.359  25.287  1.00  0.00    -0.003 C 
ATOM     20  C   UNL     1      -3.431 -12.355  24.458  1.00  0.00     0.004 C 
ENDBRANCH  18  19
ENDBRANCH  17  18
ENDBRANCH  16  17
ENDBRANCH  15  16
ENDBRANCH  14  15
ENDBRANCH  13  14
ENDBRANCH  12  13
ENDBRANCH   1  12
TORSDOF 16
ENDMDL
MODEL 3
REMARK VINA RESULT:    -4.744      6.673      9.581
REMARK INTER + INTRA:         -10.478
REMARK INTER:                  -8.533
REMARK INTRA:                  -1.945
REMARK UNBOUND:                -1.298
REMARK SMILES CCCCCCCCCCCCCCCCCC(=O)[O-]
REMARK SMILES IDX 10 1 11 2 12 3 13 4 14 5 15 6 16 7 17 8 18 9 19 10 20 11
REMARK SMILES IDX 9 12 8 13 7 14 6 15 5 16 4 17 3 18 2 19 1 20
REMARK H PARENT
REMARK Flexibility Score: inf
ROOT
ATOM      1  C   UNL     1      -4.909  -1.529  28.179  1.00  0.00     0.000 C 
ENDROOT
BRANCH   1   2
ATOM      2  C   UNL     1      -5.605  -0.442  29.018  1.00  0.00     0.000 C 
BRANCH   2   3
ATOM      3  C   UNL     1      -4.644   0.674  29.459  1.00  0.00     0.000 C 
BRANCH   3   4
ATOM      4  C   UNL     1      -3.167   0.293  29.260  1.00  0.00     0.000 C 
BRANCH   4   5
ATOM      5  C   UNL     1      -2.195   1.318  29.873  1.00  0.00     0.000 C 
BRANCH   5   6
ATOM      6  C   UNL     1      -1.915   2.562  29.008  1.00  0.00     0.000 C 
BRANCH   6   7
ATOM      7  C   UNL     1      -0.538   2.590  28.315  1.00  0.00     0.006 C 
BRANCH   7   8
ATOM      8  C   UNL     1      -0.590   2.267  26.811  1.00  0.00     0.053 C 
BRANCH   8   9
ATOM      9  C   UNL     1       0.294   3.168  26.002  1.00  0.00     0.041 C 
ATOM     10  O   UNL     1      -0.148   3.726  24.963  1.00  0.00    -0.550 OA
ATOM     11  O   UNL     1       1.618   3.363  26.375  1.00  0.00    -0.550 OA
ENDBRANCH   8   9
ENDBRANCH   7   8
ENDBRANCH   6   7
ENDBRANCH   5   6
ENDBRANCH   4   5
ENDBRANCH   3   4
ENDBRANCH   2   3
ENDBRANCH   1   2
BRANCH   1  12
ATOM     12  C   UNL     1      -5.615  -2.891  28.272  1.00  0.00     0.000 C 
BRANCH  12  13
ATOM     13  C   UNL     1      -4.729  -3.973  28.914  1.00  0.00    -0.000 C 
BRANCH  13  14
ATOM     14  C   UNL     1      -3.360  -3.436  29.370  1.00  0.00    -0.000 C 
BRANCH  14  15
ATOM     15  C   UNL     1      -2.145  -4.262  28.905  1.00  0.00    -0.000 C 
BRANCH  15  16
ATOM     16  C   UNL     1      -0.847  -3.438  28.840  1.00  0.00    -0.000 C 
BRANCH  16  17
ATOM     17  C   UNL     1      -1.082  -2.013  28.295  1.00  0.00    -0.000 C 
BRANCH  17  18
ATOM     18  C   UNL     1      -0.053  -1.577  27.234  1.00  0.00    -0.000 C 
BRANCH  18  19
ATOM     19  C   UNL     1       1.226  -0.939  27.800  1.00  0.00    -0.003 C 
ATOM     20  C   UNL     1       1.083  -0.515  29.261  1.00  0.00     0.004 C 
ENDBRANCH  18  19
ENDBRANCH  17  18
ENDBRANCH  16  17
ENDBRANCH  15  16
ENDBRANCH  14  15
ENDBRANCH  13  14
ENDBRANCH  12  13
ENDBRANCH   1  12
TORSDOF 16
ENDMDL
MODEL 4
REMARK VINA RESULT:    -4.662      3.772      9.036
REMARK INTER + INTRA:         -10.321
REMARK INTER:                  -9.457
REMARK INTRA:                  -0.864
REMARK UNBOUND:                -1.298
REMARK SMILES CCCCCCCCCCCCCCCCCC(=O)[O-]
REMARK SMILES IDX 10 1 11 2 12 3 13 4 14 5 15 6 16 7 17 8 18 9 19 10 20 11
REMARK SMILES IDX 9 12 8 13 7 14 6 15 5 16 4 17 3 18 2 19 1 20
REMARK H PARENT
REMARK Flexibility Score: inf
ROOT
ATOM      1  C   UNL     1      -5.751  -6.534  28.121  1.00  0.00     0.000 C 
ENDROOT
BRANCH   1   2
ATOM      2  C   UNL     1      -5.737  -5.001  28.267  1.00  0.00     0.000 C 
BRANCH   2   3
ATOM      3  C   UNL     1      -5.264  -4.542  29.655  1.00  0.00     0.000 C 
BRANCH   3   4
ATOM      4  C   UNL     1      -5.005  -3.027  29.719  1.00  0.00     0.000 C 
BRANCH   4   5
ATOM      5  C   UNL     1      -5.344  -2.305  28.402  1.00  0.00     0.000 C 
BRANCH   5   6
ATOM      6  C   UNL     1      -4.627  -0.959  28.184  1.00  0.00     0.000 C 
BRANCH   6   7
ATOM      7  C   UNL     1      -3.152  -0.915  28.627  1.00  0.00     0.006 C 
BRANCH   7   8
ATOM      8  C   UNL     1      -2.174  -0.532  27.501  1.00  0.00     0.053 C 
BRANCH   8   9
ATOM      9  C   UNL     1      -0.811  -1.120  27.703  1.00  0.00     0.041 C 
ATOM     10  O   UNL     1       0.214  -0.496  27.321  1.00  0.00    -0.550 OA
ATOM     11  O   UNL     1      -0.672  -2.377  28.280  1.00  0.00    -0.550 OA
ENDBRANCH   8   9
ENDBRANCH   7   8
ENDBRANCH   6   7
ENDBRANCH   5   6
ENDBRANCH   4   5
ENDBRANCH   3   4
ENDBRANCH   2   3
ENDBRANCH   1   2
BRANCH   1  12
ATOM     12  C   UNL     1      -5.754  -7.258  29.477  1.00  0.00     0.000 C 
BRANCH  12  13
ATOM     13  C   UNL     1      -6.298  -8.693  29.380  1.00  0.00    -0.000 C 
BRANCH  13  14
ATOM     14  C   UNL     1      -5.424  -9.720  30.124  1.00  0.00    -0.000 C 
BRANCH  14  15
ATOM     15  C   UNL     1      -4.642 -10.692  29.221  1.00  0.00    -0.000 C 
BRANCH  15  16
ATOM     16  C   UNL     1      -5.022 -10.571  27.735  1.00  0.00    -0.000 C 
BRANCH  16  17
ATOM     17  C   UNL     1      -4.081 -11.385  26.820  1.00  0.00    -0.000 C 
BRANCH  17  18
ATOM     18  C   UNL     1      -4.666 -12.740  26.378  1.00  0.00    -0.000 C 
BRANCH  18  19
ATOM     19  C   UNL     1      -3.901 -13.431  25.238  1.00  0.00    -0.003 C 
ATOM     20  C   UNL     1      -3.142 -12.448  24.348  1.00  0.00     0.004 C 
ENDBRANCH  18  19
ENDBRANCH  17  18
ENDBRANCH  16  17
ENDBRANCH  15  16
ENDBRANCH  14  15
ENDBRANCH  13  14
ENDBRANCH  12  13
ENDBRANCH   1  12
TORSDOF 16
ENDMDL
MODEL 5
REMARK VINA RESULT:    -4.632      1.031      1.830
REMARK INTER + INTRA:         -10.262
REMARK INTER:                  -9.524
REMARK INTRA:                  -0.737
REMARK UNBOUND:                -1.298
REMARK SMILES CCCCCCCCCCCCCCCCCC(=O)[O-]
REMARK SMILES IDX 10 1 11 2 12 3 13 4 14 5 15 6 16 7 17 8 18 9 19 10 20 11
REMARK SMILES IDX 9 12 8 13 7 14 6 15 5 16 4 17 3 18 2 19 1 20
REMARK H PARENT
REMARK Flexibility Score: inf
ROOT
ATOM      1  C   UNL     1      -5.791  -6.952  28.564  1.00  0.00     0.000 C 
ENDROOT
BRANCH   1   2
ATOM      2  C   UNL     1      -6.073  -8.072  29.583  1.00  0.00     0.000 C 
BRANCH   2   3
ATOM      3  C   UNL     1      -5.909  -9.477  28.981  1.00  0.00     0.000 C 
BRANCH   3   4
ATOM      4  C   UNL     1      -4.991 -10.377  29.825  1.00  0.00     0.000 C 
BRANCH   4   5
ATOM      5  C   UNL     1      -4.271 -11.452  28.989  1.00  0.00     0.000 C 
BRANCH   5   6
ATOM      6  C   UNL     1      -3.978 -11.063  27.527  1.00  0.00     0.000 C 
BRANCH   6   7
ATOM      7  C   UNL     1      -4.633 -11.962  26.460  1.00  0.00     0.006 C 
BRANCH   7   8
ATOM      8  C   UNL     1      -4.303 -11.554  25.013  1.00  0.00     0.053 C 
BRANCH   8   9
ATOM      9  C   UNL     1      -3.280 -12.451  24.384  1.00  0.00     0.041 C 
ATOM     10  O   UNL     1      -3.379 -12.775  23.171  1.00  0.00    -0.550 OA
ATOM     11  O   UNL     1      -2.236 -12.959  25.146  1.00  0.00    -0.550 OA
ENDBRANCH   8   9
ENDBRANCH   7   8
ENDBRANCH   6   7
ENDBRANCH   5   6
ENDBRANCH   4   5
ENDBRANCH   3   4
ENDBRANCH   2   3
ENDBRANCH   1   2
BRANCH   1  12
ATOM     12  C   UNL     1      -5.590  -5.582  29.231  1.00  0.00     0.000 C 
BRANCH  12  13
ATOM     13  C   UNL     1      -4.978  -4.544  28.274  1.00  0.00    -0.000 C 
BRANCH  13  14
ATOM     14  C   UNL     1      -5.717  -3.194  28.298  1.00  0.00    -0.000 C 
BRANCH  14  15
ATOM     15  C   UNL     1      -4.947  -2.037  28.963  1.00  0.00    -0.000 C 
BRANCH  15  16
ATOM     16  C   UNL     1      -4.273  -1.100  27.946  1.00  0.00    -0.000 C 
BRANCH  16  17
ATOM     17  C   UNL     1      -2.893  -0.604  28.430  1.00  0.00    -0.000 C 
BRANCH  17  18
ATOM     18  C   UNL     1      -1.885  -0.364  27.290  1.00  0.00    -0.000 C 
BRANCH  18  19
ATOM     19  C   UNL     1      -0.606  -1.212  27.371  1.00  0.00    -0.003 C 
ATOM     20  C   UNL     1      -0.734  -2.391  28.334  1.00  0.00     0.004 C 
ENDBRANCH  18  19
ENDBRANCH  17  18
ENDBRANCH  16  17
ENDBRANCH  15  16
ENDBRANCH  14  15
ENDBRANCH  13  14
ENDBRANCH  12  13
ENDBRANCH   1  12
TORSDOF 16
ENDMDL
MODEL 6
REMARK VINA RESULT:    -4.606      5.490      7.223
REMARK INTER + INTRA:         -10.212
REMARK INTER:                  -8.310
REMARK INTRA:                  -1.902
REMARK UNBOUND:                -1.298
REMARK SMILES CCCCCCCCCCCCCCCCCC(=O)[O-]
REMARK SMILES IDX 10 1 11 2 12 3 13 4 14 5 15 6 16 7 17 8 18 9 19 10 20 11
REMARK SMILES IDX 9 12 8 13 7 14 6 15 5 16 4 17 3 18 2 19 1 20
REMARK H PARENT
REMARK Flexibility Score: inf
ROOT
ATOM      1  C   UNL     1      -4.728  -0.548  28.647  1.00  0.00     0.000 C 
ENDROOT
BRANCH   1   2
ATOM      2  C   UNL     1      -5.263  -1.960  28.345  1.00  0.00     0.000 C 
BRANCH   2   3
ATOM      3  C   UNL     1      -5.302  -2.859  29.592  1.00  0.00     0.000 C 
BRANCH   3   4
ATOM      4  C   UNL     1      -4.695  -4.248  29.337  1.00  0.00     0.000 C 
BRANCH   4   5
ATOM      5  C   UNL     1      -3.499  -4.211  28.368  1.00  0.00     0.000 C 
BRANCH   5   6
ATOM      6  C   UNL     1      -2.142  -3.861  29.007  1.00  0.00     0.000 C 
BRANCH   6   7
ATOM      7  C   UNL     1      -1.641  -2.425  28.754  1.00  0.00     0.006 C 
BRANCH   7   8
ATOM      8  C   UNL     1      -0.450  -2.342  27.783  1.00  0.00     0.053 C 
BRANCH   8   9
ATOM      9  C   UNL     1       0.834  -2.006  28.480  1.00  0.00     0.041 C 
ATOM     10  O   UNL     1       1.693  -1.281  27.914  1.00  0.00    -0.550 OA
ATOM     11  O   UNL     1       1.098  -2.524  29.742  1.00  0.00    -0.550 OA
ENDBRANCH   8   9
ENDBRANCH   7   8
ENDBRANCH   6   7
ENDBRANCH   5   6
ENDBRANCH   4   5
ENDBRANCH   3   4
ENDBRANCH   2   3
ENDBRANCH   1   2
BRANCH   1  12
ATOM     12  C   UNL     1      -5.781   0.355  29.310  1.00  0.00     0.000 C 
BRANCH  12  13
ATOM     13  C   UNL     1      -5.161   1.599  29.970  1.00  0.00    -0.000 C 
BRANCH  13  14
ATOM     14  C   UNL     1      -3.625   1.534  30.052  1.00  0.00    -0.000 C 
BRANCH  14  15
ATOM     15  C   UNL     1      -2.902   2.881  29.864  1.00  0.00    -0.000 C 
BRANCH  15  16
ATOM     16  C   UNL     1      -1.707   2.794  28.898  1.00  0.00    -0.000 C 
BRANCH  16  17
ATOM     17  C   UNL     1      -1.474   1.358  28.382  1.00  0.00    -0.000 C 
BRANCH  17  18
ATOM     18  C   UNL     1      -0.640   1.292  27.088  1.00  0.00    -0.000 C 
BRANCH  18  19
ATOM     19  C   UNL     1       0.354   2.449  26.901  1.00  0.00    -0.003 C 
ATOM     20  C   UNL     1       0.025   3.327  25.695  1.00  0.00     0.004 C 
ENDBRANCH  18  19
ENDBRANCH  17  18
ENDBRANCH  16  17
ENDBRANCH  15  16
ENDBRANCH  14  15
ENDBRANCH  13  14
ENDBRANCH  12  13
ENDBRANCH   1  12
TORSDOF 16
ENDMDL
MODEL 7
REMARK VINA RESULT:    -4.573      4.396      7.598
REMARK INTER + INTRA:         -10.148
REMARK INTER:                  -8.245
REMARK INTRA:                  -1.903
REMARK UNBOUND:                -1.298
REMARK SMILES CCCCCCCCCCCCCCCCCC(=O)[O-]
REMARK SMILES IDX 10 1 11 2 12 3 13 4 14 5 15 6 16 7 17 8 18 9 19 10 20 11
REMARK SMILES IDX 9 12 8 13 7 14 6 15 5 16 4 17 3 18 2 19 1 20
REMARK H PARENT
REMARK Flexibility Score: inf
ROOT
ATOM      1  C   UNL     1      -0.597  -2.535  28.339  1.00  0.00     0.000 C 
ENDROOT
BRANCH   1   2
ATOM      2  C   UNL     1      -0.364  -1.616  27.126  1.00  0.00     0.000 C 
BRANCH   2   3
ATOM      3  C   UNL     1      -1.424  -0.509  27.007  1.00  0.00     0.000 C 
BRANCH   3   4
ATOM      4  C   UNL     1      -2.481  -0.582  28.122  1.00  0.00     0.000 C 
BRANCH   4   5
ATOM      5  C   UNL     1      -3.895  -0.879  27.589  1.00  0.00     0.000 C 
BRANCH   5   6
ATOM      6  C   UNL     1      -4.992  -1.005  28.663  1.00  0.00     0.000 C 
BRANCH   6   7
ATOM      7  C   UNL     1      -4.981  -2.318  29.470  1.00  0.00     0.006 C 
BRANCH   7   8
ATOM      8  C   UNL     1      -5.783  -3.459  28.818  1.00  0.00     0.053 C 
BRANCH   8   9
ATOM      9  C   UNL     1      -4.918  -4.622  28.438  1.00  0.00     0.041 C 
ATOM     10  O   UNL     1      -3.668  -4.557  28.579  1.00  0.00    -0.550 OA
ATOM     11  O   UNL     1      -5.488  -5.767  27.896  1.00  0.00    -0.550 OA
ENDBRANCH   8   9
ENDBRANCH   7   8
ENDBRANCH   6   7
ENDBRANCH   5   6
ENDBRANCH   4   5
ENDBRANCH   3   4
ENDBRANCH   2   3
ENDBRANCH   1   2
BRANCH   1  12
ATOM     12  C   UNL     1       0.636  -2.638  29.251  1.00  0.00     0.000 C 
BRANCH  12  13
ATOM     13  C   UNL     1       1.596  -1.448  29.083  1.00  0.00    -0.000 C 
BRANCH  13  14
ATOM     14  C   UNL     1       1.234  -0.251  29.982  1.00  0.00    -0.000 C 
BRANCH  14  15
ATOM     15  C   UNL     1       1.333   1.129  29.306  1.00  0.00    -0.000 C 
BRANCH  15  16
ATOM     16  C   UNL     1       0.365   2.164  29.906  1.00  0.00    -0.000 C 
BRANCH  16  17
ATOM     17  C   UNL     1      -0.718   2.607  28.899  1.00  0.00    -0.000 C 
BRANCH  17  18
ATOM     18  C   UNL     1      -0.184   3.508  27.770  1.00  0.00    -0.000 C 
BRANCH  18  19
ATOM     19  C   UNL     1      -0.195   2.867  26.373  1.00  0.00    -0.003 C 
ATOM     20  C   UNL     1       0.401   3.775  25.297  1.00  0.00     0.004 C 
ENDBRANCH  18  19
ENDBRANCH  17  18
ENDBRANCH  16  17
ENDBRANCH  15  16
ENDBRANCH  14  15
ENDBRANCH  13  14
ENDBRANCH  12  13
ENDBRANCH   1  12
TORSDOF 16
ENDMDL
MODEL 8
REMARK VINA RESULT:    -4.551      5.368      7.598
REMARK INTER + INTRA:         -10.106
REMARK INTER:                  -7.357
REMARK INTRA:                  -2.750
REMARK UNBOUND:                -1.298
REMARK SMILES CCCCCCCCCCCCCCCCCC(=O)[O-]
REMARK SMILES IDX 10 1 11 2 12 3 13 4 14 5 15 6 16 7 17 8 18 9 19 10 20 11
REMARK SMILES IDX 9 12 8 13 7 14 6 15 5 16 4 17 3 18 2 19 1 20
REMARK H PARENT
REMARK Flexibility Score: inf
ROOT
ATOM      1  C   UNL     1      -1.050  -0.543  26.743  1.00  0.00     0.000 C 
ENDROOT
BRANCH   1   2
ATOM      2  C   UNL     1       0.183  -0.486  27.664  1.00  0.00     0.000 C 
BRANCH   2   3
ATOM      3  C   UNL     1       0.899  -1.841  27.781  1.00  0.00     0.000 C 
BRANCH   3   4
ATOM      4  C   UNL     1       0.354  -2.700  28.935  1.00  0.00     0.000 C 
BRANCH   4   5
ATOM      5  C   UNL     1      -0.719  -3.706  28.479  1.00  0.00     0.000 C 
BRANCH   5   6
ATOM      6  C   UNL     1      -1.866  -3.946  29.479  1.00  0.00     0.000 C 
BRANCH   6   7
ATOM      7  C   UNL     1      -3.286  -3.894  28.883  1.00  0.00     0.006 C 
BRANCH   7   8
ATOM      8  C   UNL     1      -4.279  -3.056  29.709  1.00  0.00     0.053 C 
BRANCH   8   9
ATOM      9  C   UNL     1      -5.353  -2.444  28.863  1.00  0.00     0.041 C 
ATOM     10  O   UNL     1      -5.691  -1.243  29.035  1.00  0.00    -0.550 OA
ATOM     11  O   UNL     1      -6.009  -3.210  27.906  1.00  0.00    -0.550 OA
ENDBRANCH   8   9
ENDBRANCH   7   8
ENDBRANCH   6   7
ENDBRANCH   5   6
ENDBRANCH   4   5
ENDBRANCH   3   4
ENDBRANCH   2   3
ENDBRANCH   1   2
BRANCH   1  12
ATOM     12  C   UNL     1      -2.374  -0.456  27.519  1.00  0.00     0.000 C 
BRANCH  12  13
ATOM     13  C   UNL     1      -2.170  -0.074  28.995  1.00  0.00    -0.000 C 
BRANCH  13  14
ATOM     14  C   UNL     1      -3.092   1.070  29.453  1.00  0.00    -0.000 C 
BRANCH  14  15
ATOM     15  C   UNL     1      -2.420   2.453  29.553  1.00  0.00    -0.000 C 
BRANCH  15  16
ATOM     16  C   UNL     1      -0.917   2.370  29.873  1.00  0.00    -0.000 C 
BRANCH  16  17
ATOM     17  C   UNL     1      -0.050   3.060  28.798  1.00  0.00    -0.000 C 
BRANCH  17  18
ATOM     18  C   UNL     1      -0.667   3.026  27.387  1.00  0.00    -0.000 C 
BRANCH  18  19
ATOM     19  C   UNL     1       0.283   3.454  26.257  1.00  0.00    -0.003 C 
ATOM     20  C   UNL     1       1.645   2.765  26.332  1.00  0.00     0.004 C 
ENDBRANCH  18  19
ENDBRANCH  17  18
ENDBRANCH  16  17
ENDBRANCH  15  16
ENDBRANCH  14  15
ENDBRANCH  13  14
ENDBRANCH  12  13
ENDBRANCH   1  12
TORSDOF 16
ENDMDL
MODEL 9
REMARK VINA RESULT:    -4.551      5.553      9.667
REMARK INTER + INTRA:         -10.105
REMARK INTER:                  -8.063
REMARK INTRA:                  -2.042
REMARK UNBOUND:                -1.298
REMARK SMILES CCCCCCCCCCCCCCCCCC(=O)[O-]
REMARK SMILES IDX 10 1 11 2 12 3 13 4 14 5 15 6 16 7 17 8 18 9 19 10 20 11
REMARK SMILES IDX 9 12 8 13 7 14 6 15 5 16 4 17 3 18 2 19 1 20
REMARK H PARENT
REMARK Flexibility Score: inf
ROOT
ATOM      1  C   UNL     1      -1.895  -0.559  27.300  1.00  0.00     0.000 C 
ENDROOT
BRANCH   1   2
ATOM      2  C   UNL     1      -0.627  -1.422  27.164  1.00  0.00     0.000 C 
BRANCH   2   3
ATOM      3  C   UNL     1      -0.392  -2.327  28.385  1.00  0.00     0.000 C 
BRANCH   3   4
ATOM      4  C   UNL     1       1.016  -2.161  28.980  1.00  0.00     0.000 C 
BRANCH   4   5
ATOM      5  C   UNL     1       1.704  -0.856  28.539  1.00  0.00     0.000 C 
BRANCH   5   6
ATOM      6  C   UNL     1       1.484   0.353  29.468  1.00  0.00     0.000 C 
BRANCH   6   7
ATOM      7  C   UNL     1       1.298   1.709  28.759  1.00  0.00     0.006 C 
BRANCH   7   8
ATOM      8  C   UNL     1       1.458   1.640  27.230  1.00  0.00     0.053 C 
BRANCH   8   9
ATOM      9  C   UNL     1       0.544   2.588  26.515  1.00  0.00     0.041 C 
ATOM     10  O   UNL     1       0.970   3.279  25.553  1.00  0.00    -0.550 OA
ATOM     11  O   UNL     1      -0.773   2.736  26.935  1.00  0.00    -0.550 OA
ENDBRANCH   8   9
ENDBRANCH   7   8
ENDBRANCH   6   7
ENDBRANCH   5   6
ENDBRANCH   4   5
ENDBRANCH   3   4
ENDBRANCH   2   3
ENDBRANCH   1   2
BRANCH   1  12
ATOM     12  C   UNL     1      -2.101  -0.029  28.728  1.00  0.00     0.000 C 
BRANCH  12  13
ATOM     13  C   UNL     1      -3.578   0.258  29.045  1.00  0.00    -0.000 C 
BRANCH  13  14
ATOM     14  C   UNL     1      -4.550  -0.563  28.178  1.00  0.00    -0.000 C 
BRANCH  14  15
ATOM     15  C   UNL     1      -5.385  -1.608  28.941  1.00  0.00    -0.000 C 
BRANCH  15  16
ATOM     16  C   UNL     1      -4.523  -2.612  29.725  1.00  0.00    -0.000 C 
BRANCH  16  17
ATOM     17  C   UNL     1      -4.190  -3.872  28.897  1.00  0.00    -0.000 C 
BRANCH  17  18
ATOM     18  C   UNL     1      -5.013  -5.112  29.296  1.00  0.00    -0.000 C 
BRANCH  18  19
ATOM     19  C   UNL     1      -5.633  -5.881  28.118  1.00  0.00    -0.003 C 
ATOM     20  C   UNL     1      -6.117  -7.278  28.509  1.00  0.00     0.004 C 
ENDBRANCH  18  19
ENDBRANCH  17  18
ENDBRANCH  16  17
ENDBRANCH  15  16
ENDBRANCH  14  15
ENDBRANCH  13  14
ENDBRANCH  12  13
ENDBRANCH   1  12
TORSDOF 16
ENDMDL
