MODEL 1
REMARK VINA RESULT:    -3.519      0.000      0.000
REMARK INTER + INTRA:          -4.760
REMARK INTER:                  -4.548
REMARK INTRA:                  -0.213
REMARK UNBOUND:                -0.213
REMARK SMILES CCO[C@H]1O[C@H](CO)[C@H](O)[C@@H](O)[C@@H]1O
REMARK SMILES IDX 4 1 13 2 11 3 9 4 6 5 5 6 3 7 2 8 1 9 14 10 12 12 7 14 8 15
REMARK SMILES IDX 10 17
REMARK H PARENT 14 11 12 13 8 16 10 18
REMARK Flexibility Score: inf
ROOT
ATOM      1  C   UNL     1       8.205  -7.119  -4.842  1.00  0.00     0.281 C 
ATOM      2  C   UNL     1       9.198  -8.297  -4.640  1.00  0.00     0.202 C 
ATOM      3  C   UNL     1       8.528  -9.667  -4.913  1.00  0.00     0.179 C 
ATOM      4  C   UNL     1       7.002  -9.635  -4.671  1.00  0.00     0.177 C 
ATOM      5  C   UNL     1       6.324  -8.434  -5.415  1.00  0.00     0.178 C 
ATOM      6  O   UNL     1       7.226  -7.414  -5.827  1.00  0.00    -0.341 OA
ENDROOT
BRANCH   1   7
ATOM      7  O   UNL     1       8.913  -5.923  -5.144  1.00  0.00    -0.350 OA
BRANCH   7   8
ATOM      8  C   UNL     1       9.361  -5.882  -6.486  1.00  0.00     0.160 C 
ATOM      9  C   UNL     1       9.189  -4.471  -7.025  1.00  0.00     0.035 C 
ENDBRANCH   7   8
ENDBRANCH   1   7
BRANCH   2  10
ATOM     10  O   UNL     1       9.694  -8.275  -3.325  1.00  0.00    -0.385 OA
ATOM     11  H   UNL     1       9.589  -7.345  -2.994  1.00  0.00     0.211 HD
ENDBRANCH   2  10
BRANCH   3  12
ATOM     12  O   UNL     1       8.809 -10.113  -6.219  1.00  0.00    -0.387 OA
ATOM     13  H   UNL     1       7.993  -9.986  -6.771  1.00  0.00     0.211 HD
ENDBRANCH   3  12
BRANCH   5  14
ATOM     14  C   UNL     1       5.113  -7.826  -4.680  1.00  0.00     0.191 C 
BRANCH  14  15
ATOM     15  O   UNL     1       3.912  -8.345  -5.185  1.00  0.00    -0.394 OA
ATOM     16  H   UNL     1       4.158  -9.012  -5.877  1.00  0.00     0.210 HD
ENDBRANCH  14  15
ENDBRANCH   5  14
BRANCH   4  17
ATOM     17  O   UNL     1       6.706  -9.660  -3.294  1.00  0.00    -0.387 OA
ATOM     18  H   UNL     1       6.092  -8.909  -3.091  1.00  0.00     0.211 HD
ENDBRANCH   4  17
TORSDOF 7
ENDMDL
MODEL 2
REMARK VINA RESULT:    -3.356     15.077     16.239
REMARK INTER + INTRA:          -4.550
REMARK INTER:                  -4.150
REMARK INTRA:                  -0.400
REMARK UNBOUND:                -0.213
REMARK SMILES CCO[C@H]1O[C@H](CO)[C@H](O)[C@@H](O)[C@@H]1O
REMARK SMILES IDX 4 1 13 2 11 3 9 4 6 5 5 6 3 7 2 8 1 9 14 10 12 12 7 14 8 15
REMARK SMILES IDX 10 17
REMARK H PARENT 14 11 12 13 8 16 10 18
REMARK Flexibility Score: inf
ROOT
ATOM      1  C   UNL     1       6.844  -0.971   8.443  1.00  0.00     0.281 C 
ATOM      2  C   UNL     1       8.217  -1.641   8.160  1.00  0.00     0.202 C 
ATOM      3  C   UNL     1       9.366  -0.949   8.938  1.00  0.00     0.179 C 
ATOM      4  C   UNL     1       9.057   0.533   9.247  1.00  0.00     0.177 C 
ATOM      5  C   UNL     1       7.647   0.705   9.908  1.00  0.00     0.178 C 
ATOM      6  O   UNL     1       6.784  -0.415   9.748  1.00  0.00    -0.341 OA
ENDROOT
BRANCH   1   7
ATOM      7  O   UNL     1       5.787  -1.895   8.214  1.00  0.00    -0.350 OA
BRANCH   7   8
ATOM      8  C   UNL     1       5.025  -1.573   7.065  1.00  0.00     0.160 C 
ATOM      9  C   UNL     1       4.545  -0.134   7.173  1.00  0.00     0.035 C 
ENDBRANCH   7   8
ENDBRANCH   1   7
BRANCH   2  10
ATOM     10  O   UNL     1       8.490  -1.592   6.783  1.00  0.00    -0.385 OA
ATOM     11  H   UNL     1       8.426  -2.523   6.444  1.00  0.00     0.211 HD
ENDBRANCH   2  10
BRANCH   3  12
ATOM     12  O   UNL     1       9.662  -1.648  10.124  1.00  0.00    -0.387 OA
ATOM     13  H   UNL     1       8.834  -1.697  10.668  1.00  0.00     0.211 HD
ENDBRANCH   3  12
BRANCH   5  14
ATOM     14  C   UNL     1       6.919   2.011   9.534  1.00  0.00     0.191 C 
BRANCH  14  15
ATOM     15  O   UNL     1       7.732   3.125   9.792  1.00  0.00    -0.394 OA
ATOM     16  H   UNL     1       7.437   3.496  10.664  1.00  0.00     0.210 HD
ENDBRANCH  14  15
ENDBRANCH   5  14
BRANCH   4  17
ATOM     17  O   UNL     1       9.223   1.336   8.102  1.00  0.00    -0.387 OA
ATOM     18  H   UNL     1       8.379   1.325   7.585  1.00  0.00     0.211 HD
ENDBRANCH   4  17
TORSDOF 7
ENDMDL
MODEL 3
REMARK VINA RESULT:    -3.329     15.363     17.320
REMARK INTER + INTRA:          -4.515
REMARK INTER:                  -4.131
REMARK INTRA:                  -0.384
REMARK UNBOUND:                -0.213
REMARK SMILES CCO[C@H]1O[C@H](CO)[C@H](O)[C@@H](O)[C@@H]1O
REMARK SMILES IDX 4 1 13 2 11 3 9 4 6 5 5 6 3 7 2 8 1 9 14 10 12 12 7 14 8 15
REMARK SMILES IDX 10 17
REMARK H PARENT 14 11 12 13 8 16 10 18
REMARK Flexibility Score: inf
ROOT
ATOM      1  C   UNL     1      -5.901  -0.477  -8.536  1.00  0.00     0.281 C 
ATOM      2  C   UNL     1      -7.116  -0.120  -7.637  1.00  0.00     0.202 C 
ATOM      3  C   UNL     1      -7.779   1.213  -8.067  1.00  0.00     0.179 C 
ATOM      4  C   UNL     1      -6.786   2.163  -8.772  1.00  0.00     0.177 C 
ATOM      5  C   UNL     1      -6.009   1.438  -9.923  1.00  0.00     0.178 C 
ATOM      6  O   UNL     1      -6.056   0.017  -9.859  1.00  0.00    -0.341 OA
ENDROOT
BRANCH   1   7
ATOM      7  O   UNL     1      -5.669  -1.880  -8.521  1.00  0.00    -0.350 OA
BRANCH   7   8
ATOM      8  C   UNL     1      -6.855  -2.627  -8.720  1.00  0.00     0.160 C 
ATOM      9  C   UNL     1      -6.498  -4.097  -8.863  1.00  0.00     0.035 C 
ENDBRANCH   7   8
ENDBRANCH   1   7
BRANCH   2  10
ATOM     10  O   UNL     1      -6.700  -0.024  -6.298  1.00  0.00    -0.385 OA
ATOM     11  H   UNL     1      -7.431   0.430  -5.802  1.00  0.00     0.211 HD
ENDBRANCH   2  10
BRANCH   3  12
ATOM     12  O   UNL     1      -8.899   0.977  -8.887  1.00  0.00    -0.387 OA
ATOM     13  H   UNL     1      -8.806   1.532  -9.704  1.00  0.00     0.211 HD
ENDBRANCH   3  12
BRANCH   5  14
ATOM     14  C   UNL     1      -4.561   1.925 -10.125  1.00  0.00     0.191 C 
BRANCH  14  15
ATOM     15  O   UNL     1      -4.502   3.327 -10.125  1.00  0.00    -0.394 OA
ATOM     16  H   UNL     1      -5.321   3.646  -9.663  1.00  0.00     0.210 HD
ENDBRANCH  14  15
ENDBRANCH   5  14
BRANCH   4  17
ATOM     17  O   UNL     1      -5.927   2.782  -7.841  1.00  0.00    -0.387 OA
ATOM     18  H   UNL     1      -5.493   3.555  -8.281  1.00  0.00     0.211 HD
ENDBRANCH   4  17
TORSDOF 7
ENDMDL
MODEL 4
REMARK VINA RESULT:    -3.199      1.381      4.312
REMARK INTER + INTRA:          -4.347
REMARK INTER:                  -4.242
REMARK INTRA:                  -0.105
REMARK UNBOUND:                -0.213
REMARK SMILES CCO[C@H]1O[C@H](CO)[C@H](O)[C@@H](O)[C@@H]1O
REMARK SMILES IDX 4 1 13 2 11 3 9 4 6 5 5 6 3 7 2 8 1 9 14 10 12 12 7 14 8 15
REMARK SMILES IDX 10 17
REMARK H PARENT 14 11 12 13 8 16 10 18
REMARK Flexibility Score: inf
ROOT
ATOM      1  C   UNL     1       6.932  -7.809  -5.348  1.00  0.00     0.281 C 
ATOM      2  C   UNL     1       7.591  -9.080  -4.744  1.00  0.00     0.202 C 
ATOM      3  C   UNL     1       9.030  -8.798  -4.240  1.00  0.00     0.179 C 
ATOM      4  C   UNL     1       9.698  -7.627  -4.994  1.00  0.00     0.177 C 
ATOM      5  C   UNL     1       8.776  -6.360  -5.029  1.00  0.00     0.178 C 
ATOM      6  O   UNL     1       7.409  -6.621  -4.733  1.00  0.00    -0.341 OA
ENDROOT
BRANCH   1   7
ATOM      7  O   UNL     1       5.515  -7.907  -5.278  1.00  0.00    -0.350 OA
BRANCH   7   8
ATOM      8  C   UNL     1       5.080  -8.690  -4.182  1.00  0.00     0.160 C 
ATOM      9  C   UNL     1       4.097  -9.739  -4.679  1.00  0.00     0.035 C 
ENDBRANCH   7   8
ENDBRANCH   1   7
BRANCH   2  10
ATOM     10  O   UNL     1       7.627 -10.098  -5.712  1.00  0.00    -0.385 OA
ATOM     11  H   UNL     1       6.715 -10.489  -5.752  1.00  0.00     0.211 HD
ENDBRANCH   2  10
BRANCH   3  12
ATOM     12  O   UNL     1       9.039  -8.558  -2.852  1.00  0.00    -0.387 OA
ATOM     13  H   UNL     1       9.961  -8.711  -2.519  1.00  0.00     0.211 HD
ENDBRANCH   3  12
BRANCH   5  14
ATOM     14  C   UNL     1       8.902  -5.511  -6.309  1.00  0.00     0.191 C 
BRANCH  14  15
ATOM     15  O   UNL     1       9.797  -4.448  -6.115  1.00  0.00    -0.394 OA
ATOM     16  H   UNL     1      10.428  -4.733  -5.404  1.00  0.00     0.210 HD
ENDBRANCH  14  15
ENDBRANCH   5  14
BRANCH   4  17
ATOM     17  O   UNL     1      10.124  -8.025  -6.276  1.00  0.00    -0.387 OA
ATOM     18  H   UNL     1      10.189  -9.013  -6.292  1.00  0.00     0.211 HD
ENDBRANCH   4  17
TORSDOF 7
ENDMDL
MODEL 5
REMARK VINA RESULT:    -3.126      1.970      4.437
REMARK INTER + INTRA:          -4.252
REMARK INTER:                  -4.042
REMARK INTRA:                  -0.210
REMARK UNBOUND:                -0.213
REMARK SMILES CCO[C@H]1O[C@H](CO)[C@H](O)[C@@H](O)[C@@H]1O
REMARK SMILES IDX 4 1 13 2 11 3 9 4 6 5 5 6 3 7 2 8 1 9 14 10 12 12 7 14 8 15
REMARK SMILES IDX 10 17
REMARK H PARENT 14 11 12 13 8 16 10 18
REMARK Flexibility Score: inf
ROOT
ATOM      1  C   UNL     1       7.149  -8.863  -5.559  1.00  0.00     0.281 C 
ATOM      2  C   UNL     1       7.418  -7.933  -4.344  1.00  0.00     0.202 C 
ATOM      3  C   UNL     1       8.084  -6.601  -4.774  1.00  0.00     0.179 C 
ATOM      4  C   UNL     1       8.896  -6.745  -6.081  1.00  0.00     0.177 C 
ATOM      5  C   UNL     1       8.056  -7.432  -7.211  1.00  0.00     0.178 C 
ATOM      6  O   UNL     1       6.903  -8.125  -6.747  1.00  0.00    -0.341 OA
ENDROOT
BRANCH   1   7
ATOM      7  O   UNL     1       6.087  -9.762  -5.267  1.00  0.00    -0.350 OA
BRANCH   7   8
ATOM      8  C   UNL     1       4.912  -9.094  -4.846  1.00  0.00     0.160 C 
ATOM      9  C   UNL     1       3.841 -10.125  -4.528  1.00  0.00     0.035 C 
ENDBRANCH   7   8
ENDBRANCH   1   7
BRANCH   2  10
ATOM     10  O   UNL     1       8.247  -8.592  -3.420  1.00  0.00    -0.385 OA
ATOM     11  H   UNL     1       8.973  -7.958  -3.182  1.00  0.00     0.211 HD
ENDBRANCH   2  10
BRANCH   3  12
ATOM     12  O   UNL     1       7.126  -5.577  -4.901  1.00  0.00    -0.387 OA
ATOM     13  H   UNL     1       6.629  -5.511  -4.044  1.00  0.00     0.211 HD
ENDBRANCH   3  12
BRANCH   5  14
ATOM     14  C   UNL     1       8.875  -8.319  -8.169  1.00  0.00     0.191 C 
BRANCH  14  15
ATOM     15  O   UNL     1       8.177  -8.534  -9.367  1.00  0.00    -0.394 OA
ATOM     16  H   UNL     1       8.012  -9.511  -9.429  1.00  0.00     0.210 HD
ENDBRANCH  14  15
ENDBRANCH   5  14
BRANCH   4  17
ATOM     17  O   UNL     1      10.125  -7.393  -5.846  1.00  0.00    -0.387 OA
ATOM     18  H   UNL     1      10.088  -7.823  -4.955  1.00  0.00     0.211 HD
ENDBRANCH   4  17
TORSDOF 7
ENDMDL
MODEL 6
REMARK VINA RESULT:    -3.089     15.255     17.622
REMARK INTER + INTRA:          -4.205
REMARK INTER:                  -3.816
REMARK INTRA:                  -0.389
REMARK UNBOUND:                -0.213
REMARK SMILES CCO[C@H]1O[C@H](CO)[C@H](O)[C@@H](O)[C@@H]1O
REMARK SMILES IDX 4 1 13 2 11 3 9 4 6 5 5 6 3 7 2 8 1 9 14 10 12 12 7 14 8 15
REMARK SMILES IDX 10 17
REMARK H PARENT 14 11 12 13 8 16 10 18
REMARK Flexibility Score: inf
ROOT
ATOM      1  C   UNL     1      -6.379   2.011  -9.233  1.00  0.00     0.281 C 
ATOM      2  C   UNL     1      -7.788   2.235  -8.620  1.00  0.00     0.202 C 
ATOM      3  C   UNL     1      -8.164   1.116  -7.615  1.00  0.00     0.179 C 
ATOM      4  C   UNL     1      -7.443  -0.215  -7.923  1.00  0.00     0.177 C 
ATOM      5  C   UNL     1      -5.900  -0.011  -8.100  1.00  0.00     0.178 C 
ATOM      6  O   UNL     1      -5.510   1.337  -8.334  1.00  0.00    -0.341 OA
ENDROOT
BRANCH   1   7
ATOM      7  O   UNL     1      -5.829   3.246  -9.672  1.00  0.00    -0.350 OA
BRANCH   7   8
ATOM      8  C   UNL     1      -5.058   3.883  -8.671  1.00  0.00     0.160 C 
ATOM      9  C   UNL     1      -3.903   4.623  -9.327  1.00  0.00     0.035 C 
ENDBRANCH   7   8
ENDBRANCH   1   7
BRANCH   2  10
ATOM     10  O   UNL     1      -8.747   2.283  -9.646  1.00  0.00    -0.385 OA
ATOM     11  H   UNL     1      -9.461   2.903  -9.344  1.00  0.00     0.211 HD
ENDBRANCH   2  10
BRANCH   3  12
ATOM     12  O   UNL     1      -7.906   1.521  -6.292  1.00  0.00    -0.387 OA
ATOM     13  H   UNL     1      -7.304   0.850  -5.876  1.00  0.00     0.211 HD
ENDBRANCH   3  12
BRANCH   5  14
ATOM     14  C   UNL     1      -5.243  -0.953  -9.127  1.00  0.00     0.191 C 
BRANCH  14  15
ATOM     15  O   UNL     1      -5.446  -2.295  -8.773  1.00  0.00    -0.394 OA
ATOM     16  H   UNL     1      -4.547  -2.703  -8.674  1.00  0.00     0.210 HD
ENDBRANCH  14  15
ENDBRANCH   5  14
BRANCH   4  17
ATOM     17  O   UNL     1      -8.035  -0.872  -9.020  1.00  0.00    -0.387 OA
ATOM     18  H   UNL     1      -9.004  -0.667  -9.023  1.00  0.00     0.211 HD
ENDBRANCH   4  17
TORSDOF 7
ENDMDL
MODEL 7
REMARK VINA RESULT:    -3.046      2.060      2.848
REMARK INTER + INTRA:          -4.149
REMARK INTER:                  -3.750
REMARK INTRA:                  -0.399
REMARK UNBOUND:                -0.213
REMARK SMILES CCO[C@H]1O[C@H](CO)[C@H](O)[C@@H](O)[C@@H]1O
REMARK SMILES IDX 4 1 13 2 11 3 9 4 6 5 5 6 3 7 2 8 1 9 14 10 12 12 7 14 8 15
REMARK SMILES IDX 10 17
REMARK H PARENT 14 11 12 13 8 16 10 18
REMARK Flexibility Score: inf
ROOT
ATOM      1  C   UNL     1       8.356  -7.713  -7.311  1.00  0.00     0.281 C 
ATOM      2  C   UNL     1       9.606  -7.234  -6.523  1.00  0.00     0.202 C 
ATOM      3  C   UNL     1       9.425  -7.411  -4.993  1.00  0.00     0.179 C 
ATOM      4  C   UNL     1       7.940  -7.372  -4.569  1.00  0.00     0.177 C 
ATOM      5  C   UNL     1       7.066  -8.345  -5.431  1.00  0.00     0.178 C 
ATOM      6  O   UNL     1       7.680  -8.768  -6.643  1.00  0.00    -0.341 OA
ENDROOT
BRANCH   1   7
ATOM      7  O   UNL     1       8.718  -8.075  -8.637  1.00  0.00    -0.350 OA
BRANCH   7   8
ATOM      8  C   UNL     1       7.825  -7.554  -9.604  1.00  0.00     0.160 C 
ATOM      9  C   UNL     1       8.193  -6.107  -9.893  1.00  0.00     0.035 C 
ENDBRANCH   7   8
ENDBRANCH   1   7
BRANCH   2  10
ATOM     10  O   UNL     1       9.856  -5.881  -6.810  1.00  0.00    -0.385 OA
ATOM     11  H   UNL     1      10.601  -5.859  -7.464  1.00  0.00     0.211 HD
ENDBRANCH   2  10
BRANCH   3  12
ATOM     12  O   UNL     1      10.032  -8.601  -4.549  1.00  0.00    -0.387 OA
ATOM     13  H   UNL     1      10.000  -9.260  -5.290  1.00  0.00     0.211 HD
ENDBRANCH   3  12
BRANCH   5  14
ATOM     14  C   UNL     1       5.628  -7.856  -5.691  1.00  0.00     0.191 C 
BRANCH  14  15
ATOM     15  O   UNL     1       5.011  -7.464  -4.493  1.00  0.00    -0.394 OA
ATOM     16  H   UNL     1       4.413  -8.208  -4.224  1.00  0.00     0.210 HD
ENDBRANCH  14  15
ENDBRANCH   5  14
BRANCH   4  17
ATOM     17  O   UNL     1       7.446  -6.052  -4.570  1.00  0.00    -0.387 OA
ATOM     18  H   UNL     1       7.126  -5.836  -3.658  1.00  0.00     0.211 HD
ENDBRANCH   4  17
TORSDOF 7
ENDMDL
MODEL 8
REMARK VINA RESULT:    -2.967      2.076      3.388
REMARK INTER + INTRA:          -4.047
REMARK INTER:                  -3.657
REMARK INTRA:                  -0.390
REMARK UNBOUND:                -0.213
REMARK SMILES CCO[C@H]1O[C@H](CO)[C@H](O)[C@@H](O)[C@@H]1O
REMARK SMILES IDX 4 1 13 2 11 3 9 4 6 5 5 6 3 7 2 8 1 9 14 10 12 12 7 14 8 15
REMARK SMILES IDX 10 17
REMARK H PARENT 14 11 12 13 8 16 10 18
REMARK Flexibility Score: inf
ROOT
ATOM      1  C   UNL     1       9.123  -5.781  -6.293  1.00  0.00     0.281 C 
ATOM      2  C   UNL     1       8.540  -6.074  -4.883  1.00  0.00     0.202 C 
ATOM      3  C   UNL     1       8.566  -7.588  -4.552  1.00  0.00     0.179 C 
ATOM      4  C   UNL     1       8.518  -8.468  -5.822  1.00  0.00     0.177 C 
ATOM      5  C   UNL     1       9.592  -8.027  -6.873  1.00  0.00     0.178 C 
ATOM      6  O   UNL     1      10.121  -6.723  -6.660  1.00  0.00    -0.341 OA
ENDROOT
BRANCH   1   7
ATOM      7  O   UNL     1       9.607  -4.446  -6.359  1.00  0.00    -0.350 OA
BRANCH   7   8
ATOM      8  C   UNL     1      10.123  -4.119  -7.636  1.00  0.00     0.160 C 
ATOM      9  C   UNL     1       9.004  -4.200  -8.661  1.00  0.00     0.035 C 
ENDBRANCH   7   8
ENDBRANCH   1   7
BRANCH   2  10
ATOM     10  O   UNL     1       7.217  -5.604  -4.813  1.00  0.00    -0.385 OA
ATOM     11  H   UNL     1       7.192  -4.740  -5.302  1.00  0.00     0.211 HD
ENDBRANCH   2  10
BRANCH   3  12
ATOM     12  O   UNL     1       9.691  -7.913  -3.772  1.00  0.00    -0.387 OA
ATOM     13  H   UNL     1      10.342  -7.167  -3.843  1.00  0.00     0.211 HD
ENDBRANCH   3  12
BRANCH   5  14
ATOM     14  C   UNL     1       9.164  -8.207  -8.342  1.00  0.00     0.191 C 
BRANCH  14  15
ATOM     15  O   UNL     1       8.939  -9.561  -8.632  1.00  0.00    -0.394 OA
ATOM     16  H   UNL     1       8.668  -9.994  -7.781  1.00  0.00     0.210 HD
ENDBRANCH  14  15
ENDBRANCH   5  14
BRANCH   4  17
ATOM     17  O   UNL     1       7.216  -8.513  -6.360  1.00  0.00    -0.387 OA
ATOM     18  H   UNL     1       7.107  -9.368  -6.847  1.00  0.00     0.211 HD
ENDBRANCH   4  17
TORSDOF 7
ENDMDL
