MODEL 1
REMARK VINA RESULT:    -4.622      0.000      0.000
REMARK INTER + INTRA:          -4.892
REMARK INTER:                  -4.892
REMARK INTRA:                   0.000
REMARK UNBOUND:                 0.000
REMARK SMILES Cc1cc(O)c(C)c(C)c1O
REMARK SMILES IDX 1 1 2 2 3 3 4 4 6 5 8 6 10 7 9 8 7 9 11 10 5 12
REMARK H PARENT 11 11 5 13
REMARK Flexibility Score: inf
ROOT
ATOM      1  C   UNL     1      21.411   6.465 106.374  1.00  0.00     0.048 C 
ATOM      2  C   UNL     1      21.459   5.148 105.649  1.00  0.00    -0.005 A 
ATOM      3  C   UNL     1      22.469   4.904 104.715  1.00  0.00     0.053 A 
ATOM      4  C   UNL     1      22.514   3.705 104.004  1.00  0.00     0.119 A 
ATOM      5  C   UNL     1      21.518   2.721 104.209  1.00  0.00    -0.003 A 
ATOM      6  C   UNL     1      20.561   2.910 105.246  1.00  0.00    -0.002 A 
ATOM      7  C   UNL     1      20.497   4.161 105.911  1.00  0.00     0.121 A 
ATOM      8  C   UNL     1      19.605   1.804 105.636  1.00  0.00     0.049 C 
ATOM      9  C   UNL     1      21.497   1.483 103.342  1.00  0.00     0.049 C 
ENDROOT
BRANCH   7  10
ATOM     10  O   UNL     1      19.481   4.456 106.829  1.00  0.00    -0.507 OA
ATOM     11  H   UNL     1      19.611   4.453 107.831  1.00  0.00     0.293 HD
ENDBRANCH   7  10
BRANCH   4  12
ATOM     12  O   UNL     1      23.572   3.524 103.109  1.00  0.00    -0.508 OA
ATOM     13  H   UNL     1      24.546   3.608 103.367  1.00  0.00     0.293 HD
ENDBRANCH   4  12
TORSDOF 2
ENDMDL
MODEL 2
REMARK VINA RESULT:    -4.589     12.444     12.767
REMARK INTER + INTRA:          -4.858
REMARK INTER:                  -4.858
REMARK INTRA:                   0.000
REMARK UNBOUND:                 0.000
REMARK SMILES Cc1cc(O)c(C)c(C)c1O
REMARK SMILES IDX 1 1 2 2 3 3 4 4 6 5 8 6 10 7 9 8 7 9 11 10 5 12
REMARK H PARENT 11 11 5 13
REMARK Flexibility Score: inf
ROOT
ATOM      1  C   UNL     1      31.808   4.862  98.012  1.00  0.00     0.048 C 
ATOM      2  C   UNL     1      32.321   4.294  99.307  1.00  0.00    -0.005 A 
ATOM      3  C   UNL     1      32.615   5.147 100.374  1.00  0.00     0.053 A 
ATOM      4  C   UNL     1      33.127   4.648 101.571  1.00  0.00     0.119 A 
ATOM      5  C   UNL     1      33.371   3.261 101.715  1.00  0.00    -0.003 A 
ATOM      6  C   UNL     1      32.958   2.374 100.681  1.00  0.00    -0.002 A 
ATOM      7  C   UNL     1      32.499   2.909  99.450  1.00  0.00     0.121 A 
ATOM      8  C   UNL     1      33.014   0.874 100.872  1.00  0.00     0.049 C 
ATOM      9  C   UNL     1      34.048   2.745 102.965  1.00  0.00     0.049 C 
ENDROOT
BRANCH   7  10
ATOM     10  O   UNL     1      32.226   2.090  98.347  1.00  0.00    -0.507 OA
ATOM     11  H   UNL     1      31.361   2.122  97.825  1.00  0.00     0.293 HD
ENDBRANCH   7  10
BRANCH   4  12
ATOM     12  O   UNL     1      33.368   5.561 102.602  1.00  0.00    -0.508 OA
ATOM     13  H   UNL     1      33.127   5.391 103.569  1.00  0.00     0.293 HD
ENDBRANCH   4  12
TORSDOF 2
ENDMDL
MODEL 3
REMARK VINA RESULT:    -4.550      3.759      5.540
REMARK INTER + INTRA:          -4.816
REMARK INTER:                  -4.816
REMARK INTRA:                   0.000
REMARK UNBOUND:                 0.000
REMARK SMILES Cc1cc(O)c(C)c(C)c1O
REMARK SMILES IDX 1 1 2 2 3 3 4 4 6 5 8 6 10 7 9 8 7 9 11 10 5 12
REMARK H PARENT 11 11 5 13
REMARK Flexibility Score: inf
ROOT
ATOM      1  C   UNL     1      19.758   5.019  99.995  1.00  0.00     0.048 C 
ATOM      2  C   UNL     1      21.109   5.007 100.657  1.00  0.00    -0.005 A 
ATOM      3  C   UNL     1      21.444   3.976 101.538  1.00  0.00     0.053 A 
ATOM      4  C   UNL     1      22.675   3.963 102.192  1.00  0.00     0.119 A 
ATOM      5  C   UNL     1      23.602   5.012 101.980  1.00  0.00    -0.003 A 
ATOM      6  C   UNL     1      23.320   5.997 100.991  1.00  0.00    -0.002 A 
ATOM      7  C   UNL     1      22.037   6.025 100.387  1.00  0.00     0.121 A 
ATOM      8  C   UNL     1      24.361   7.018 100.588  1.00  0.00     0.049 C 
ATOM      9  C   UNL     1      24.878   5.061 102.790  1.00  0.00     0.049 C 
ENDROOT
BRANCH   7  10
ATOM     10  O   UNL     1      21.652   7.059  99.524  1.00  0.00    -0.507 OA
ATOM     11  H   UNL     1      20.924   6.968  98.828  1.00  0.00     0.293 HD
ENDBRANCH   7  10
BRANCH   4  12
ATOM     12  O   UNL     1      22.948   2.883 103.036  1.00  0.00    -0.508 OA
ATOM     13  H   UNL     1      22.598   2.807 103.981  1.00  0.00     0.293 HD
ENDBRANCH   4  12
TORSDOF 2
ENDMDL
MODEL 4
REMARK VINA RESULT:    -4.444     12.082     12.497
REMARK INTER + INTRA:          -4.703
REMARK INTER:                  -4.703
REMARK INTRA:                   0.000
REMARK UNBOUND:                 0.000
REMARK SMILES Cc1cc(O)c(C)c(C)c1O
REMARK SMILES IDX 1 1 2 2 3 3 4 4 6 5 8 6 10 7 9 8 7 9 11 10 5 12
REMARK H PARENT 11 11 5 13
REMARK Flexibility Score: inf
ROOT
ATOM      1  C   UNL     1      31.890   4.995  97.674  1.00  0.00     0.048 C 
ATOM      2  C   UNL     1      32.190   4.226  98.932  1.00  0.00    -0.005 A 
ATOM      3  C   UNL     1      32.220   2.830  98.904  1.00  0.00     0.053 A 
ATOM      4  C   UNL     1      32.459   2.094 100.064  1.00  0.00     0.119 A 
ATOM      5  C   UNL     1      32.661   2.759 101.296  1.00  0.00    -0.003 A 
ATOM      6  C   UNL     1      32.756   4.179 101.310  1.00  0.00    -0.002 A 
ATOM      7  C   UNL     1      32.447   4.906 100.132  1.00  0.00     0.121 A 
ATOM      8  C   UNL     1      33.168   4.921 102.563  1.00  0.00     0.049 C 
ATOM      9  C   UNL     1      32.788   1.954 102.570  1.00  0.00     0.049 C 
ENDROOT
BRANCH   7  10
ATOM     10  O   UNL     1      32.375   6.305 100.127  1.00  0.00    -0.507 OA
ATOM     11  H   UNL     1      32.885   6.892  99.481  1.00  0.00     0.293 HD
ENDBRANCH   7  10
BRANCH   4  12
ATOM     12  O   UNL     1      32.503   0.702  99.949  1.00  0.00    -0.508 OA
ATOM     13  H   UNL     1      32.397   0.207  99.073  1.00  0.00     0.293 HD
ENDBRANCH   4  12
TORSDOF 2
ENDMDL
MODEL 5
REMARK VINA RESULT:    -4.398     10.296     10.767
REMARK INTER + INTRA:          -4.656
REMARK INTER:                  -4.656
REMARK INTRA:                   0.000
REMARK UNBOUND:                 0.000
REMARK SMILES Cc1cc(O)c(C)c(C)c1O
REMARK SMILES IDX 1 1 2 2 3 3 4 4 6 5 8 6 10 7 9 8 7 9 11 10 5 12
REMARK H PARENT 11 11 5 13
REMARK Flexibility Score: inf
ROOT
ATOM      1  C   UNL     1      21.987  -5.989 107.386  1.00  0.00     0.048 C 
ATOM      2  C   UNL     1      22.470  -6.212 105.979  1.00  0.00    -0.005 A 
ATOM      3  C   UNL     1      21.547  -6.419 104.950  1.00  0.00     0.053 A 
ATOM      4  C   UNL     1      21.971  -6.664 103.645  1.00  0.00     0.119 A 
ATOM      5  C   UNL     1      23.354  -6.723 103.347  1.00  0.00    -0.003 A 
ATOM      6  C   UNL     1      24.295  -6.390 104.361  1.00  0.00    -0.002 A 
ATOM      7  C   UNL     1      23.844  -6.206 105.694  1.00  0.00     0.121 A 
ATOM      8  C   UNL     1      25.767  -6.243 104.042  1.00  0.00     0.049 C 
ATOM      9  C   UNL     1      23.806  -7.119 101.960  1.00  0.00     0.049 C 
ENDROOT
BRANCH   7  10
ATOM     10  O   UNL     1      24.738  -6.028 106.757  1.00  0.00    -0.507 OA
ATOM     11  H   UNL     1      25.328  -6.763 107.123  1.00  0.00     0.293 HD
ENDBRANCH   7  10
BRANCH   4  12
ATOM     12  O   UNL     1      20.988  -6.833 102.666  1.00  0.00    -0.508 OA
ATOM     13  H   UNL     1      20.962  -7.614 102.025  1.00  0.00     0.293 HD
ENDBRANCH   4  12
TORSDOF 2
ENDMDL
MODEL 6
REMARK VINA RESULT:    -4.317      9.930     10.402
REMARK INTER + INTRA:          -4.569
REMARK INTER:                  -4.569
REMARK INTRA:                   0.000
REMARK UNBOUND:                 0.000
REMARK SMILES Cc1cc(O)c(C)c(C)c1O
REMARK SMILES IDX 1 1 2 2 3 3 4 4 6 5 8 6 10 7 9 8 7 9 11 10 5 12
REMARK H PARENT 11 11 5 13
REMARK Flexibility Score: inf
ROOT
ATOM      1  C   UNL     1      22.831  -6.122 101.092  1.00  0.00     0.048 C 
ATOM      2  C   UNL     1      22.963  -6.041 102.588  1.00  0.00    -0.005 A 
ATOM      3  C   UNL     1      24.140  -5.550 103.158  1.00  0.00     0.053 A 
ATOM      4  C   UNL     1      24.301  -5.499 104.542  1.00  0.00     0.119 A 
ATOM      5  C   UNL     1      23.269  -5.962 105.393  1.00  0.00    -0.003 A 
ATOM      6  C   UNL     1      22.021  -6.345 104.824  1.00  0.00    -0.002 A 
ATOM      7  C   UNL     1      21.904  -6.448 103.415  1.00  0.00     0.121 A 
ATOM      8  C   UNL     1      20.827  -6.654 105.700  1.00  0.00     0.049 C 
ATOM      9  C   UNL     1      23.501  -6.026 106.886  1.00  0.00     0.049 C 
ENDROOT
BRANCH   7  10
ATOM     10  O   UNL     1      20.753  -6.965 102.807  1.00  0.00    -0.507 OA
ATOM     11  H   UNL     1      20.768  -7.680 102.092  1.00  0.00     0.293 HD
ENDBRANCH   7  10
BRANCH   4  12
ATOM     12  O   UNL     1      25.496  -4.968 105.036  1.00  0.00    -0.508 OA
ATOM     13  H   UNL     1      25.737  -3.988 104.986  1.00  0.00     0.293 HD
ENDBRANCH   4  12
TORSDOF 2
ENDMDL
MODEL 7
REMARK VINA RESULT:    -4.314     10.083     10.182
REMARK INTER + INTRA:          -4.566
REMARK INTER:                  -4.566
REMARK INTRA:                   0.000
REMARK UNBOUND:                 0.000
REMARK SMILES Cc1cc(O)c(C)c(C)c1O
REMARK SMILES IDX 1 1 2 2 3 3 4 4 6 5 8 6 10 7 9 8 7 9 11 10 5 12
REMARK H PARENT 11 11 5 13
REMARK Flexibility Score: inf
ROOT
ATOM      1  C   UNL     1      21.748  -5.996 107.977  1.00  0.00     0.048 C 
ATOM      2  C   UNL     1      22.406  -6.035 106.625  1.00  0.00    -0.005 A 
ATOM      3  C   UNL     1      23.793  -5.903 106.522  1.00  0.00     0.053 A 
ATOM      4  C   UNL     1      24.423  -5.899 105.278  1.00  0.00     0.119 A 
ATOM      5  C   UNL     1      23.655  -6.013 104.094  1.00  0.00    -0.003 A 
ATOM      6  C   UNL     1      22.259  -6.274 104.196  1.00  0.00    -0.002 A 
ATOM      7  C   UNL     1      21.633  -6.210 105.467  1.00  0.00     0.121 A 
ATOM      8  C   UNL     1      21.435  -6.602 102.970  1.00  0.00     0.049 C 
ATOM      9  C   UNL     1      24.329  -5.876 102.747  1.00  0.00     0.049 C 
ENDROOT
BRANCH   7  10
ATOM     10  O   UNL     1      20.242  -6.305 105.609  1.00  0.00    -0.507 OA
ATOM     11  H   UNL     1      19.583  -5.877 104.975  1.00  0.00     0.293 HD
ENDBRANCH   7  10
BRANCH   4  12
ATOM     12  O   UNL     1      25.816  -5.792 105.258  1.00  0.00    -0.508 OA
ATOM     13  H   UNL     1      26.379  -5.953 104.435  1.00  0.00     0.293 HD
ENDBRANCH   4  12
TORSDOF 2
ENDMDL
MODEL 8
REMARK VINA RESULT:    -4.216     11.464     12.070
REMARK INTER + INTRA:          -4.463
REMARK INTER:                  -4.463
REMARK INTRA:                   0.000
REMARK UNBOUND:                 0.000
REMARK SMILES Cc1cc(O)c(C)c(C)c1O
REMARK SMILES IDX 1 1 2 2 3 3 4 4 6 5 8 6 10 7 9 8 7 9 11 10 5 12
REMARK H PARENT 11 11 5 13
REMARK Flexibility Score: inf
ROOT
ATOM      1  C   UNL     1      32.935   3.440 104.421  1.00  0.00     0.048 C 
ATOM      2  C   UNL     1      32.662   3.428 102.941  1.00  0.00    -0.005 A 
ATOM      3  C   UNL     1      32.146   2.279 102.338  1.00  0.00     0.053 A 
ATOM      4  C   UNL     1      31.918   2.231 100.963  1.00  0.00     0.119 A 
ATOM      5  C   UNL     1      32.224   3.351 100.154  1.00  0.00    -0.003 A 
ATOM      6  C   UNL     1      32.630   4.566 100.777  1.00  0.00    -0.002 A 
ATOM      7  C   UNL     1      32.915   4.570 102.166  1.00  0.00     0.121 A 
ATOM      8  C   UNL     1      32.775   5.842  99.978  1.00  0.00     0.049 C 
ATOM      9  C   UNL     1      32.099   3.248  98.651  1.00  0.00     0.049 C 
ENDROOT
BRANCH   7  10
ATOM     10  O   UNL     1      33.463   5.692 102.802  1.00  0.00    -0.507 OA
ATOM     11  H   UNL     1      33.541   6.601 102.368  1.00  0.00     0.293 HD
ENDBRANCH   7  10
BRANCH   4  12
ATOM     12  O   UNL     1      31.373   1.056 100.438  1.00  0.00    -0.508 OA
ATOM     13  H   UNL     1      30.432   0.987 100.074  1.00  0.00     0.293 HD
ENDBRANCH   4  12
TORSDOF 2
ENDMDL
MODEL 9
REMARK VINA RESULT:    -4.170      9.898     10.419
REMARK INTER + INTRA:          -4.414
REMARK INTER:                  -4.414
REMARK INTRA:                   0.000
REMARK UNBOUND:                 0.000
REMARK SMILES Cc1cc(O)c(C)c(C)c1O
REMARK SMILES IDX 1 1 2 2 3 3 4 4 6 5 8 6 10 7 9 8 7 9 11 10 5 12
REMARK H PARENT 11 11 5 13
REMARK Flexibility Score: inf
ROOT
ATOM      1  C   UNL     1      25.300  -5.035 102.136  1.00  0.00     0.048 C 
ATOM      2  C   UNL     1      24.180  -5.518 103.017  1.00  0.00    -0.005 A 
ATOM      3  C   UNL     1      23.016  -6.036 102.443  1.00  0.00     0.053 A 
ATOM      4  C   UNL     1      21.950  -6.456 103.238  1.00  0.00     0.119 A 
ATOM      5  C   UNL     1      22.030  -6.346 104.647  1.00  0.00    -0.003 A 
ATOM      6  C   UNL     1      23.257  -5.938 105.242  1.00  0.00    -0.002 A 
ATOM      7  C   UNL     1      24.303  -5.457 104.413  1.00  0.00     0.121 A 
ATOM      8  C   UNL     1      23.455  -5.996 106.741  1.00  0.00     0.049 C 
ATOM      9  C   UNL     1      20.823  -6.679 105.494  1.00  0.00     0.049 C 
ENDROOT
BRANCH   7  10
ATOM     10  O   UNL     1      25.471  -4.900 104.950  1.00  0.00    -0.507 OA
ATOM     11  H   UNL     1      26.034  -4.209 104.473  1.00  0.00     0.293 HD
ENDBRANCH   7  10
BRANCH   4  12
ATOM     12  O   UNL     1      20.832  -6.990 102.591  1.00  0.00    -0.508 OA
ATOM     13  H   UNL     1      20.861  -7.401 101.669  1.00  0.00     0.293 HD
ENDBRANCH   4  12
TORSDOF 2
ENDMDL
