MODEL 1
REMARK VINA RESULT:    -9.933      0.000      0.000
REMARK INTER + INTRA:         -11.964
REMARK INTER:                 -11.675
REMARK INTRA:                  -0.289
REMARK UNBOUND:                -0.289
REMARK SMILES O=c1cc(-c2ccc(O)c(O)c2)oc2cc(O)cc(O)c12
REMARK SMILES IDX 4 1 3 2 2 3 1 4 21 5 19 6 18 7 16 8 15 9 14 10 13 11 5 12
REMARK SMILES IDX 6 13 7 14 8 15 12 16 10 17 9 18 11 20 20 22 17 24
REMARK H PARENT 9 19 11 21 20 23 17 25
REMARK Flexibility Score: inf
ROOT
ATOM      1  C   UNL     1     119.083 119.021 114.884  1.00  0.00     0.138 A 
ATOM      2  C   UNL     1     117.967 119.350 115.671  1.00  0.00     0.100 A 
ATOM      3  C   UNL     1     118.151 119.712 117.006  1.00  0.00     0.197 A 
ATOM      4  O   UNL     1     117.142 120.004 117.705  1.00  0.00    -0.289 OA
ATOM      5  C   UNL     1     119.451 119.738 117.548  1.00  0.00     0.107 A 
ATOM      6  C   UNL     1     119.725 120.093 118.889  1.00  0.00     0.134 A 
ATOM      7  C   UNL     1     121.049 120.088 119.354  1.00  0.00     0.093 A 
ATOM      8  C   UNL     1     122.102 119.735 118.501  1.00  0.00     0.123 A 
ATOM      9  C   UNL     1     121.836 119.384 117.177  1.00  0.00     0.094 A 
ATOM     10  C   UNL     1     120.524 119.383 116.695  1.00  0.00     0.146 A 
ATOM     11  O   UNL     1     120.298 119.046 115.429  1.00  0.00    -0.456 OA
ENDROOT
BRANCH   1  12
ATOM     12  C   UNL     1     118.949 118.628 113.460  1.00  0.00     0.021 A 
ATOM     13  C   UNL     1     119.910 117.780 112.882  1.00  0.00     0.016 A 
ATOM     14  C   UNL     1     119.810 117.402 111.542  1.00  0.00     0.051 A 
ATOM     15  C   UNL     1     118.757 117.869 110.751  1.00  0.00     0.157 A 
ATOM     16  C   UNL     1     117.896 119.108 112.655  1.00  0.00     0.062 A 
ATOM     17  C   UNL     1     117.797 118.729 111.308  1.00  0.00     0.158 A 
BRANCH  15  18
ATOM     18  O   UNL     1     118.683 117.472 109.416  1.00  0.00    -0.504 OA
ATOM     19  H   UNL     1     118.100 116.700 109.115  1.00  0.00     0.293 HD
ENDBRANCH  15  18
BRANCH  17  20
ATOM     20  O   UNL     1     116.749 119.207 110.521  1.00  0.00    -0.504 OA
ATOM     21  H   UNL     1     116.899 119.914 109.811  1.00  0.00     0.293 HD
ENDBRANCH  17  20
ENDBRANCH   1  12
BRANCH   6  22
ATOM     22  O   UNL     1     118.696 120.450 119.762  1.00  0.00    -0.507 OA
ATOM     23  H   UNL     1     117.731 120.199 119.580  1.00  0.00     0.293 HD
ENDBRANCH   6  22
BRANCH   8  24
ATOM     24  O   UNL     1     123.416 119.730 118.962  1.00  0.00    -0.508 OA
ATOM     25  H   UNL     1     123.638 119.908 119.935  1.00  0.00     0.293 HD
ENDBRANCH   8  24
TORSDOF 5
ENDMDL
MODEL 2
REMARK VINA RESULT:    -9.932      2.226      2.676
REMARK INTER + INTRA:         -11.962
REMARK INTER:                 -11.673
REMARK INTRA:                  -0.290
REMARK UNBOUND:                -0.289
REMARK SMILES O=c1cc(-c2ccc(O)c(O)c2)oc2cc(O)cc(O)c12
REMARK SMILES IDX 4 1 3 2 2 3 1 4 21 5 19 6 18 7 16 8 15 9 14 10 13 11 5 12
REMARK SMILES IDX 6 13 7 14 8 15 12 16 10 17 9 18 11 20 20 22 17 24
REMARK H PARENT 9 19 11 21 20 23 17 25
REMARK Flexibility Score: inf
ROOT
ATOM      1  C   UNL     1     119.959 119.096 114.868  1.00  0.00     0.138 A 
ATOM      2  C   UNL     1     119.591 117.985 115.644  1.00  0.00     0.100 A 
ATOM      3  C   UNL     1     119.215 118.172 116.976  1.00  0.00     0.197 A 
ATOM      4  O   UNL     1     118.888 117.168 117.665  1.00  0.00    -0.289 OA
ATOM      5  C   UNL     1     119.215 119.470 117.523  1.00  0.00     0.107 A 
ATOM      6  C   UNL     1     118.848 119.747 118.861  1.00  0.00     0.134 A 
ATOM      7  C   UNL     1     118.881 121.068 119.332  1.00  0.00     0.093 A 
ATOM      8  C   UNL     1     119.272 122.116 118.489  1.00  0.00     0.123 A 
ATOM      9  C   UNL     1     119.635 121.847 117.168  1.00  0.00     0.094 A 
ATOM     10  C   UNL     1     119.609 120.538 116.680  1.00  0.00     0.146 A 
ATOM     11  O   UNL     1     119.957 120.308 115.418  1.00  0.00    -0.456 OA
ENDROOT
BRANCH   1  12
ATOM     12  C   UNL     1     120.369 118.958 113.448  1.00  0.00     0.021 A 
ATOM     13  C   UNL     1     121.224 119.916 112.878  1.00  0.00     0.016 A 
ATOM     14  C   UNL     1     121.618 119.813 111.542  1.00  0.00     0.051 A 
ATOM     15  C   UNL     1     121.158 118.760 110.749  1.00  0.00     0.157 A 
ATOM     16  C   UNL     1     119.895 117.905 112.640  1.00  0.00     0.062 A 
ATOM     17  C   UNL     1     120.290 117.802 111.298  1.00  0.00     0.158 A 
BRANCH  15  18
ATOM     18  O   UNL     1     121.570 118.683 109.419  1.00  0.00    -0.504 OA
ATOM     19  H   UNL     1     121.895 117.816 109.005  1.00  0.00     0.293 HD
ENDBRANCH  15  18
BRANCH  17  20
ATOM     20  O   UNL     1     119.818 116.754 110.507  1.00  0.00    -0.504 OA
ATOM     21  H   UNL     1     120.055 116.682 109.525  1.00  0.00     0.293 HD
ENDBRANCH  17  20
ENDBRANCH   1  12
BRANCH   6  22
ATOM     22  O   UNL     1     118.454 118.723 119.724  1.00  0.00    -0.507 OA
ATOM     23  H   UNL     1     118.522 118.818 120.730  1.00  0.00     0.293 HD
ENDBRANCH   6  22
BRANCH   8  24
ATOM     24  O   UNL     1     119.305 123.427 118.957  1.00  0.00    -0.508 OA
ATOM     25  H   UNL     1     118.649 124.125 118.625  1.00  0.00     0.293 HD
ENDBRANCH   8  24
TORSDOF 5
ENDMDL
MODEL 3
REMARK VINA RESULT:    -9.923      2.389      3.784
REMARK INTER + INTRA:         -11.953
REMARK INTER:                 -11.664
REMARK INTRA:                  -0.288
REMARK UNBOUND:                -0.289
REMARK SMILES O=c1cc(-c2ccc(O)c(O)c2)oc2cc(O)cc(O)c12
REMARK SMILES IDX 4 1 3 2 2 3 1 4 21 5 19 6 18 7 16 8 15 9 14 10 13 11 5 12
REMARK SMILES IDX 6 13 7 14 8 15 12 16 10 17 9 18 11 20 20 22 17 24
REMARK H PARENT 9 19 11 21 20 23 17 25
REMARK Flexibility Score: inf
ROOT
ATOM      1  C   UNL     1     119.973 119.968 114.893  1.00  0.00     0.138 A 
ATOM      2  C   UNL     1     121.086 119.627 115.680  1.00  0.00     0.100 A 
ATOM      3  C   UNL     1     120.899 119.270 117.016  1.00  0.00     0.197 A 
ATOM      4  O   UNL     1     121.904 118.968 117.714  1.00  0.00    -0.289 OA
ATOM      5  C   UNL     1     119.599 119.261 117.559  1.00  0.00     0.107 A 
ATOM      6  C   UNL     1     119.322 118.911 118.901  1.00  0.00     0.134 A 
ATOM      7  C   UNL     1     117.999 118.933 119.366  1.00  0.00     0.093 A 
ATOM      8  C   UNL     1     116.949 119.297 118.514  1.00  0.00     0.123 A 
ATOM      9  C   UNL     1     117.218 119.642 117.188  1.00  0.00     0.094 A 
ATOM     10  C   UNL     1     118.530 119.626 116.705  1.00  0.00     0.146 A 
ATOM     11  O   UNL     1     118.759 119.958 115.439  1.00  0.00    -0.456 OA
ENDROOT
BRANCH   1  12
ATOM     12  C   UNL     1     120.111 120.357 113.467  1.00  0.00     0.021 A 
ATOM     13  C   UNL     1     119.175 121.235 112.896  1.00  0.00     0.016 A 
ATOM     14  C   UNL     1     119.279 121.610 111.555  1.00  0.00     0.051 A 
ATOM     15  C   UNL     1     120.310 121.109 110.757  1.00  0.00     0.157 A 
ATOM     16  C   UNL     1     121.142 119.842 112.656  1.00  0.00     0.062 A 
ATOM     17  C   UNL     1     121.245 120.217 111.308  1.00  0.00     0.158 A 
BRANCH  15  18
ATOM     18  O   UNL     1     120.388 121.503 109.422  1.00  0.00    -0.504 OA
ATOM     19  H   UNL     1     119.887 121.018 108.687  1.00  0.00     0.293 HD
ENDBRANCH  15  18
BRANCH  17  20
ATOM     20  O   UNL     1     122.271 119.705 110.514  1.00  0.00    -0.504 OA
ATOM     21  H   UNL     1     122.097 119.367 109.575  1.00  0.00     0.293 HD
ENDBRANCH  17  20
ENDBRANCH   1  12
BRANCH   6  22
ATOM     22  O   UNL     1     120.347 118.545 119.774  1.00  0.00    -0.507 OA
ATOM     23  H   UNL     1     120.210 118.518 120.777  1.00  0.00     0.293 HD
ENDBRANCH   6  22
BRANCH   8  24
ATOM     24  O   UNL     1     115.635 119.318 118.976  1.00  0.00    -0.508 OA
ATOM     25  H   UNL     1     114.971 118.596 118.721  1.00  0.00     0.293 HD
ENDBRANCH   8  24
TORSDOF 5
ENDMDL
MODEL 4
REMARK VINA RESULT:    -9.912      2.238      2.700
REMARK INTER + INTRA:         -11.939
REMARK INTER:                 -11.652
REMARK INTRA:                  -0.288
REMARK UNBOUND:                -0.289
REMARK SMILES O=c1cc(-c2ccc(O)c(O)c2)oc2cc(O)cc(O)c12
REMARK SMILES IDX 4 1 3 2 2 3 1 4 21 5 19 6 18 7 16 8 15 9 14 10 13 11 5 12
REMARK SMILES IDX 6 13 7 14 8 15 12 16 10 17 9 18 11 20 20 22 17 24
REMARK H PARENT 9 19 11 21 20 23 17 25
REMARK Flexibility Score: inf
ROOT
ATOM      1  C   UNL     1     119.031 120.002 114.879  1.00  0.00     0.138 A 
ATOM      2  C   UNL     1     119.350 121.118 115.670  1.00  0.00     0.100 A 
ATOM      3  C   UNL     1     119.697 120.934 117.009  1.00  0.00     0.197 A 
ATOM      4  O   UNL     1     119.981 121.942 117.711  1.00  0.00    -0.289 OA
ATOM      5  C   UNL     1     119.718 119.633 117.550  1.00  0.00     0.107 A 
ATOM      6  C   UNL     1     120.059 119.359 118.895  1.00  0.00     0.134 A 
ATOM      7  C   UNL     1     120.050 118.036 119.359  1.00  0.00     0.093 A 
ATOM      8  C   UNL     1     119.707 116.982 118.502  1.00  0.00     0.123 A 
ATOM      9  C   UNL     1     119.370 117.249 117.174  1.00  0.00     0.094 A 
ATOM     10  C   UNL     1     119.374 118.561 116.692  1.00  0.00     0.146 A 
ATOM     11  O   UNL     1     119.051 118.787 115.424  1.00  0.00    -0.456 OA
ENDROOT
BRANCH   1  12
ATOM     12  C   UNL     1     118.653 120.137 113.450  1.00  0.00     0.021 A 
ATOM     13  C   UNL     1     117.766 119.209 112.878  1.00  0.00     0.016 A 
ATOM     14  C   UNL     1     117.402 119.310 111.534  1.00  0.00     0.051 A 
ATOM     15  C   UNL     1     117.921 120.330 110.734  1.00  0.00     0.157 A 
ATOM     16  C   UNL     1     119.186 121.157 112.636  1.00  0.00     0.062 A 
ATOM     17  C   UNL     1     118.821 121.257 111.286  1.00  0.00     0.158 A 
BRANCH  15  18
ATOM     18  O   UNL     1     117.537 120.405 109.396  1.00  0.00    -0.504 OA
ATOM     19  H   UNL     1     117.502 121.285 108.894  1.00  0.00     0.293 HD
ENDBRANCH  15  18
BRANCH  17  20
ATOM     20  O   UNL     1     119.352 122.272 110.489  1.00  0.00    -0.504 OA
ATOM     21  H   UNL     1     119.804 123.083 110.895  1.00  0.00     0.293 HD
ENDBRANCH  17  20
ENDBRANCH   1  12
BRANCH   6  22
ATOM     22  O   UNL     1     120.405 120.388 119.772  1.00  0.00    -0.507 OA
ATOM     23  H   UNL     1     120.044 120.426 120.718  1.00  0.00     0.293 HD
ENDBRANCH   6  22
BRANCH   8  24
ATOM     24  O   UNL     1     119.698 115.668 118.963  1.00  0.00    -0.508 OA
ATOM     25  H   UNL     1     120.556 115.142 119.084  1.00  0.00     0.293 HD
ENDBRANCH   8  24
TORSDOF 5
ENDMDL
MODEL 5
REMARK VINA RESULT:    -9.629      2.184      2.188
REMARK INTER + INTRA:         -11.607
REMARK INTER:                 -11.329
REMARK INTRA:                  -0.278
REMARK UNBOUND:                -0.289
REMARK SMILES O=c1cc(-c2ccc(O)c(O)c2)oc2cc(O)cc(O)c12
REMARK SMILES IDX 4 1 3 2 2 3 1 4 21 5 19 6 18 7 16 8 15 9 14 10 13 11 5 12
REMARK SMILES IDX 6 13 7 14 8 15 12 16 10 17 9 18 11 20 20 22 17 24
REMARK H PARENT 9 19 11 21 20 23 17 25
REMARK Flexibility Score: inf
ROOT
ATOM      1  C   UNL     1     119.966 119.966 114.603  1.00  0.00     0.138 A 
ATOM      2  C   UNL     1     118.671 119.657 115.051  1.00  0.00     0.100 A 
ATOM      3  C   UNL     1     118.463 119.364 116.399  1.00  0.00     0.197 A 
ATOM      4  O   UNL     1     117.297 119.085 116.791  1.00  0.00    -0.289 OA
ATOM      5  C   UNL     1     119.553 119.378 117.291  1.00  0.00     0.107 A 
ATOM      6  C   UNL     1     119.429 119.094 118.672  1.00  0.00     0.134 A 
ATOM      7  C   UNL     1     120.566 119.123 119.492  1.00  0.00     0.093 A 
ATOM      8  C   UNL     1     121.823 119.431 118.958  1.00  0.00     0.123 A 
ATOM      9  C   UNL     1     121.949 119.712 117.597  1.00  0.00     0.094 A 
ATOM     10  C   UNL     1     120.829 119.689 116.762  1.00  0.00     0.146 A 
ATOM     11  O   UNL     1     120.976 119.962 115.470  1.00  0.00    -0.456 OA
ENDROOT
BRANCH   1  12
ATOM     12  C   UNL     1     120.248 120.285 113.181  1.00  0.00     0.021 A 
ATOM     13  C   UNL     1     121.362 119.705 112.550  1.00  0.00     0.016 A 
ATOM     14  C   UNL     1     121.653 119.994 111.215  1.00  0.00     0.051 A 
ATOM     15  C   UNL     1     120.845 120.873 110.489  1.00  0.00     0.157 A 
ATOM     16  C   UNL     1     119.444 121.182 112.450  1.00  0.00     0.062 A 
ATOM     17  C   UNL     1     119.738 121.474 111.109  1.00  0.00     0.158 A 
BRANCH  15  18
ATOM     18  O   UNL     1     121.161 121.141 109.158  1.00  0.00    -0.504 OA
ATOM     19  H   UNL     1     120.541 120.889 108.396  1.00  0.00     0.293 HD
ENDBRANCH  15  18
BRANCH  17  20
ATOM     20  O   UNL     1     118.934 122.361 110.393  1.00  0.00    -0.504 OA
ATOM     21  H   UNL     1     118.214 122.911 110.848  1.00  0.00     0.293 HD
ENDBRANCH  17  20
ENDBRANCH   1  12
BRANCH   6  22
ATOM     22  O   UNL     1     118.189 118.783 119.232  1.00  0.00    -0.507 OA
ATOM     23  H   UNL     1     117.384 119.388 119.116  1.00  0.00     0.293 HD
ENDBRANCH   6  22
BRANCH   8  24
ATOM     24  O   UNL     1     122.952 119.460 119.774  1.00  0.00    -0.508 OA
ATOM     25  H   UNL     1     122.960 119.016 120.684  1.00  0.00     0.293 HD
ENDBRANCH   8  24
TORSDOF 5
ENDMDL
MODEL 6
REMARK VINA RESULT:    -9.624      2.163      2.617
REMARK INTER + INTRA:         -11.601
REMARK INTER:                 -11.306
REMARK INTRA:                  -0.295
REMARK UNBOUND:                -0.289
REMARK SMILES O=c1cc(-c2ccc(O)c(O)c2)oc2cc(O)cc(O)c12
REMARK SMILES IDX 4 1 3 2 2 3 1 4 21 5 19 6 18 7 16 8 15 9 14 10 13 11 5 12
REMARK SMILES IDX 6 13 7 14 8 15 12 16 10 17 9 18 11 20 20 22 17 24
REMARK H PARENT 9 19 11 21 20 23 17 25
REMARK Flexibility Score: inf
ROOT
ATOM      1  C   UNL     1     120.022 119.182 114.689  1.00  0.00     0.138 A 
ATOM      2  C   UNL     1     119.616 120.426 115.199  1.00  0.00     0.100 A 
ATOM      3  C   UNL     1     119.264 120.534 116.545  1.00  0.00     0.197 A 
ATOM      4  O   UNL     1     118.899 121.656 116.993  1.00  0.00    -0.289 OA
ATOM      5  C   UNL     1     119.316 119.395 117.372  1.00  0.00     0.107 A 
ATOM      6  C   UNL     1     118.978 119.419 118.745  1.00  0.00     0.134 A 
ATOM      7  C   UNL     1     119.050 118.238 119.499  1.00  0.00     0.093 A 
ATOM      8  C   UNL     1     119.456 117.036 118.905  1.00  0.00     0.123 A 
ATOM      9  C   UNL     1     119.791 117.010 117.551  1.00  0.00     0.094 A 
ATOM     10  C   UNL     1     119.725 118.175 116.782  1.00  0.00     0.146 A 
ATOM     11  O   UNL     1     120.051 118.123 115.495  1.00  0.00    -0.456 OA
ENDROOT
BRANCH   1  12
ATOM     12  C   UNL     1     120.406 119.006 113.266  1.00  0.00     0.021 A 
ATOM     13  C   UNL     1     121.203 119.980 112.639  1.00  0.00     0.016 A 
ATOM     14  C   UNL     1     121.571 119.842 111.300  1.00  0.00     0.051 A 
ATOM     15  C   UNL     1     121.145 118.738 110.558  1.00  0.00     0.157 A 
ATOM     16  C   UNL     1     119.965 117.901 112.511  1.00  0.00     0.062 A 
ATOM     17  C   UNL     1     120.334 117.764 111.164  1.00  0.00     0.158 A 
BRANCH  15  18
ATOM     18  O   UNL     1     121.531 118.627 109.223  1.00  0.00    -0.504 OA
ATOM     19  H   UNL     1     121.447 119.400 108.572  1.00  0.00     0.293 HD
ENDBRANCH  15  18
BRANCH  17  20
ATOM     20  O   UNL     1     119.896 116.664 110.426  1.00  0.00    -0.504 OA
ATOM     21  H   UNL     1     120.304 115.745 110.550  1.00  0.00     0.293 HD
ENDBRANCH  17  20
ENDBRANCH   1  12
BRANCH   6  22
ATOM     22  O   UNL     1     118.571 120.601 119.365  1.00  0.00    -0.507 OA
ATOM     23  H   UNL     1     117.795 121.149 119.010  1.00  0.00     0.293 HD
ENDBRANCH   6  22
BRANCH   8  24
ATOM     24  O   UNL     1     119.527 115.864 119.654  1.00  0.00    -0.508 OA
ATOM     25  H   UNL     1     119.382 115.866 120.657  1.00  0.00     0.293 HD
ENDBRANCH   8  24
TORSDOF 5
ENDMDL
MODEL 7
REMARK VINA RESULT:    -9.605      1.319      2.780
REMARK INTER + INTRA:         -11.579
REMARK INTER:                 -11.285
REMARK INTRA:                  -0.294
REMARK UNBOUND:                -0.289
REMARK SMILES O=c1cc(-c2ccc(O)c(O)c2)oc2cc(O)cc(O)c12
REMARK SMILES IDX 4 1 3 2 2 3 1 4 21 5 19 6 18 7 16 8 15 9 14 10 13 11 5 12
REMARK SMILES IDX 6 13 7 14 8 15 12 16 10 17 9 18 11 20 20 22 17 24
REMARK H PARENT 9 19 11 21 20 23 17 25
REMARK Flexibility Score: inf
ROOT
ATOM      1  C   UNL     1     119.163 118.977 114.561  1.00  0.00     0.138 A 
ATOM      2  C   UNL     1     120.426 119.339 115.058  1.00  0.00     0.100 A 
ATOM      3  C   UNL     1     120.562 119.679 116.405  1.00  0.00     0.197 A 
ATOM      4  O   UNL     1     121.700 120.004 116.842  1.00  0.00    -0.289 OA
ATOM      5  C   UNL     1     119.432 119.659 117.246  1.00  0.00     0.107 A 
ATOM      6  C   UNL     1     119.483 119.988 118.621  1.00  0.00     0.134 A 
ATOM      7  C   UNL     1     118.310 119.949 119.388  1.00  0.00     0.093 A 
ATOM      8  C   UNL     1     117.088 119.587 118.807  1.00  0.00     0.123 A 
ATOM      9  C   UNL     1     117.034 119.261 117.451  1.00  0.00     0.094 A 
ATOM     10  C   UNL     1     118.192 119.293 116.668  1.00  0.00     0.146 A 
ATOM     11  O   UNL     1     118.114 118.977 115.380  1.00  0.00    -0.456 OA
ENDROOT
BRANCH   1  12
ATOM     12  C   UNL     1     118.959 118.607 113.138  1.00  0.00     0.021 A 
ATOM     13  C   UNL     1     119.885 117.762 112.503  1.00  0.00     0.016 A 
ATOM     14  C   UNL     1     119.718 117.405 111.163  1.00  0.00     0.051 A 
ATOM     15  C   UNL     1     118.634 117.893 110.430  1.00  0.00     0.157 A 
ATOM     16  C   UNL     1     117.874 119.108 112.392  1.00  0.00     0.062 A 
ATOM     17  C   UNL     1     117.708 118.752 111.045  1.00  0.00     0.158 A 
BRANCH  15  18
ATOM     18  O   UNL     1     118.494 117.517 109.095  1.00  0.00    -0.504 OA
ATOM     19  H   UNL     1     119.165 116.915 108.632  1.00  0.00     0.293 HD
ENDBRANCH  15  18
BRANCH  17  20
ATOM     20  O   UNL     1     116.629 119.250 110.316  1.00  0.00    -0.504 OA
ATOM     21  H   UNL     1     116.316 120.209 110.419  1.00  0.00     0.293 HD
ENDBRANCH  17  20
ENDBRANCH   1  12
BRANCH   6  22
ATOM     22  O   UNL     1     120.685 120.352 119.228  1.00  0.00    -0.507 OA
ATOM     23  H   UNL     1     121.539 119.828 119.078  1.00  0.00     0.293 HD
ENDBRANCH   6  22
BRANCH   8  24
ATOM     24  O   UNL     1     115.923 119.549 119.569  1.00  0.00    -0.508 OA
ATOM     25  H   UNL     1     115.838 120.071 120.433  1.00  0.00     0.293 HD
ENDBRANCH   8  24
TORSDOF 5
ENDMDL
MODEL 8
REMARK VINA RESULT:    -9.600      1.983      2.689
REMARK INTER + INTRA:         -11.572
REMARK INTER:                 -11.290
REMARK INTRA:                  -0.282
REMARK UNBOUND:                -0.289
REMARK SMILES O=c1cc(-c2ccc(O)c(O)c2)oc2cc(O)cc(O)c12
REMARK SMILES IDX 4 1 3 2 2 3 1 4 21 5 19 6 18 7 16 8 15 9 14 10 13 11 5 12
REMARK SMILES IDX 6 13 7 14 8 15 12 16 10 17 9 18 11 20 20 22 17 24
REMARK H PARENT 9 19 11 21 20 23 17 25
REMARK Flexibility Score: inf
ROOT
ATOM      1  C   UNL     1     119.041 119.988 114.576  1.00  0.00     0.138 A 
ATOM      2  C   UNL     1     119.312 118.693 115.046  1.00  0.00     0.100 A 
ATOM      3  C   UNL     1     119.595 118.497 116.399  1.00  0.00     0.197 A 
ATOM      4  O   UNL     1     119.839 117.331 116.810  1.00  0.00    -0.289 OA
ATOM      5  C   UNL     1     119.608 119.602 117.274  1.00  0.00     0.107 A 
ATOM      6  C   UNL     1     119.883 119.492 118.657  1.00  0.00     0.134 A 
ATOM      7  C   UNL     1     119.883 120.642 119.459  1.00  0.00     0.093 A 
ATOM      8  C   UNL     1     119.612 121.899 118.904  1.00  0.00     0.123 A 
ATOM      9  C   UNL     1     119.340 122.011 117.540  1.00  0.00     0.094 A 
ATOM     10  C   UNL     1     119.334 120.877 116.723  1.00  0.00     0.146 A 
ATOM     11  O   UNL     1     119.071 121.011 115.428  1.00  0.00    -0.456 OA
ENDROOT
BRANCH   1  12
ATOM     12  C   UNL     1     118.735 120.256 113.149  1.00  0.00     0.021 A 
ATOM     13  C   UNL     1     119.255 121.408 112.535  1.00  0.00     0.016 A 
ATOM     14  C   UNL     1     118.976 121.687 111.195  1.00  0.00     0.051 A 
ATOM     15  C   UNL     1     118.167 120.828 110.447  1.00  0.00     0.157 A 
ATOM     16  C   UNL     1     117.908 119.399 112.395  1.00  0.00     0.062 A 
ATOM     17  C   UNL     1     117.626 119.680 111.050  1.00  0.00     0.158 A 
BRANCH  15  18
ATOM     18  O   UNL     1     117.908 121.132 109.111  1.00  0.00    -0.504 OA
ATOM     19  H   UNL     1     118.345 120.627 108.350  1.00  0.00     0.293 HD
ENDBRANCH  15  18
BRANCH  17  20
ATOM     20  O   UNL     1     116.809 118.825 110.312  1.00  0.00    -0.504 OA
ATOM     21  H   UNL     1     115.820 118.731 110.513  1.00  0.00     0.293 HD
ENDBRANCH  17  20
ENDBRANCH   1  12
BRANCH   6  22
ATOM     22  O   UNL     1     120.157 118.253 119.238  1.00  0.00    -0.507 OA
ATOM     23  H   UNL     1     119.983 117.383 118.747  1.00  0.00     0.293 HD
ENDBRANCH   6  22
BRANCH   8  24
ATOM     24  O   UNL     1     119.612 123.041 119.701  1.00  0.00    -0.508 OA
ATOM     25  H   UNL     1     119.373 123.001 120.685  1.00  0.00     0.293 HD
ENDBRANCH   8  24
TORSDOF 5
ENDMDL
MODEL 9
REMARK VINA RESULT:    -9.595      2.666      2.835
REMARK INTER + INTRA:         -11.567
REMARK INTER:                 -11.292
REMARK INTRA:                  -0.276
REMARK UNBOUND:                -0.289
REMARK SMILES O=c1cc(-c2ccc(O)c(O)c2)oc2cc(O)cc(O)c12
REMARK SMILES IDX 4 1 3 2 2 3 1 4 21 5 19 6 18 7 16 8 15 9 14 10 13 11 5 12
REMARK SMILES IDX 6 13 7 14 8 15 12 16 10 17 9 18 11 20 20 22 17 24
REMARK H PARENT 9 19 11 21 20 23 17 25
REMARK Flexibility Score: inf
ROOT
ATOM      1  C   UNL     1     119.894 119.993 114.791  1.00  0.00     0.138 A 
ATOM      2  C   UNL     1     119.606 118.695 115.244  1.00  0.00     0.100 A 
ATOM      3  C   UNL     1     119.337 118.484 116.597  1.00  0.00     0.197 A 
ATOM      4  O   UNL     1     119.082 117.314 116.995  1.00  0.00    -0.289 OA
ATOM      5  C   UNL     1     119.362 119.573 117.490  1.00  0.00     0.107 A 
ATOM      6  C   UNL     1     119.101 119.447 118.875  1.00  0.00     0.134 A 
ATOM      7  C   UNL     1     119.152 120.581 119.698  1.00  0.00     0.093 A 
ATOM      8  C   UNL     1     119.458 121.838 119.162  1.00  0.00     0.123 A 
ATOM      9  C   UNL     1     119.716 121.967 117.797  1.00  0.00     0.094 A 
ATOM     10  C   UNL     1     119.670 120.849 116.959  1.00  0.00     0.146 A 
ATOM     11  O   UNL     1     119.918 120.999 115.662  1.00  0.00    -0.456 OA
ENDROOT
BRANCH   1  12
ATOM     12  C   UNL     1     120.188 120.277 113.364  1.00  0.00     0.021 A 
ATOM     13  C   UNL     1     121.318 119.695 112.762  1.00  0.00     0.016 A 
ATOM     14  C   UNL     1     121.621 119.953 111.424  1.00  0.00     0.051 A 
ATOM     15  C   UNL     1     120.811 120.801 110.665  1.00  0.00     0.157 A 
ATOM     16  C   UNL     1     119.382 121.143 112.600  1.00  0.00     0.062 A 
ATOM     17  C   UNL     1     119.688 121.403 111.256  1.00  0.00     0.158 A 
BRANCH  15  18
ATOM     18  O   UNL     1     121.139 121.038 109.330  1.00  0.00    -0.504 OA
ATOM     19  H   UNL     1     121.184 120.291 108.647  1.00  0.00     0.293 HD
ENDBRANCH  15  18
BRANCH  17  20
ATOM     20  O   UNL     1     118.881 122.260 110.506  1.00  0.00    -0.504 OA
ATOM     21  H   UNL     1     119.157 122.578 109.585  1.00  0.00     0.293 HD
ENDBRANCH  17  20
ENDBRANCH   1  12
BRANCH   6  22
ATOM     22  O   UNL     1     118.793 118.207 119.437  1.00  0.00    -0.507 OA
ATOM     23  H   UNL     1     119.088 117.338 119.007  1.00  0.00     0.293 HD
ENDBRANCH   6  22
BRANCH   8  24
ATOM     24  O   UNL     1     119.508 122.964 119.981  1.00  0.00    -0.508 OA
ATOM     25  H   UNL     1     120.282 123.125 120.614  1.00  0.00     0.293 HD
ENDBRANCH   8  24
TORSDOF 5
ENDMDL
