MODEL 1
REMARK VINA RESULT:    22.677      0.000      0.000
REMARK INTER + INTRA:          35.962
REMARK INTER:                  35.934
REMARK INTRA:                   0.029
REMARK UNBOUND:                 0.029
REMARK SMILES C[C@@H]1O[C@H](O[C@H]2CC[C@]3(C)[C@H](CC[C@@]4(C)[C@@H]3C=C[C@]35OC[C@@]6(CCC(C)(C)C[C@@H]63)[C@H](O)C[C@]45C)[C@@]2(C)CO)[C@H](O)[C@@H](O[C@H]2O[C@@H](CO)[C@H](O)[C@@H](O)[C@@H]2O)[C@@H]1O
REMARK SMILES IDX 1 1 2 2 54 3 41 4 39 5 4 6 3 7 55 8 42 10 43 11 52 12 44 13
REMARK SMILES IDX 50 14 45 15 48 16 53 17 51 19 46 21 47 22 49 24 5 26 6 27
REMARK SMILES IDX 7 28 35 29 8 30 11 31 36 32 9 33 12 34 10 35 16 36 13 37
REMARK SMILES IDX 14 38 17 39 15 40 33 41 18 42 19 43 32 44 34 45 29 46 20 47
REMARK SMILES IDX 30 48 22 49 28 50 21 51 23 52 25 53 24 54 26 55 27 56 37 57
REMARK SMILES IDX 38 58 31 60 40 62
REMARK H PARENT 55 9 53 18 51 20 47 23 49 25 38 59 31 61 40 63
REMARK Flexibility Score: inf
ROOT
ATOM      1  C   UNL     1      20.614  27.463  25.093  1.00  0.00     0.041 C 
ATOM      2  C   UNL     1      21.282  26.880  23.839  1.00  0.00     0.150 C 
ATOM      3  C   UNL     1      20.559  25.589  23.302  1.00  0.00     0.175 C 
ATOM      4  C   UNL     1      20.193  25.779  21.828  1.00  0.00     0.186 C 
ATOM      5  C   UNL     1      21.483  26.213  21.084  1.00  0.00     0.202 C 
ATOM      6  C   UNL     1      22.035  27.568  21.694  1.00  0.00     0.282 C 
ATOM      7  O   UNL     1      21.303  27.914  22.866  1.00  0.00    -0.344 OA
ENDROOT
BRANCH   3   8
ATOM      8  O   UNL     1      19.423  25.264  24.055  1.00  0.00    -0.388 OA
ATOM      9  H   UNL     1      18.838  24.714  23.467  1.00  0.00     0.211 HD
ENDBRANCH   3   8
BRANCH   4  10
ATOM     10  O   UNL     1      19.616  24.597  21.249  1.00  0.00    -0.341 OA
BRANCH  10  11
ATOM     11  C   UNL     1      20.256  23.416  21.741  1.00  0.00     0.282 C 
ATOM     12  C   UNL     1      21.446  22.988  20.781  1.00  0.00     0.202 C 
ATOM     13  O   UNL     1      19.274  22.426  22.026  1.00  0.00    -0.341 OA
ATOM     14  C   UNL     1      21.631  21.445  20.581  1.00  0.00     0.179 C 
ATOM     15  C   UNL     1      19.119  21.413  21.059  1.00  0.00     0.178 C 
ATOM     16  C   UNL     1      20.407  20.579  20.935  1.00  0.00     0.177 C 
BRANCH  12  17
ATOM     17  O   UNL     1      22.665  23.551  21.195  1.00  0.00    -0.385 OA
ATOM     18  H   UNL     1      22.513  24.493  21.452  1.00  0.00     0.211 HD
ENDBRANCH  12  17
BRANCH  14  19
ATOM     19  O   UNL     1      22.063  21.190  19.260  1.00  0.00    -0.387 OA
ATOM     20  H   UNL     1      21.299  21.393  18.651  1.00  0.00     0.211 HD
ENDBRANCH  14  19
BRANCH  15  21
ATOM     21  C   UNL     1      18.574  21.905  19.715  1.00  0.00     0.191 C 
BRANCH  21  22
ATOM     22  O   UNL     1      19.472  21.543  18.688  1.00  0.00    -0.394 OA
ATOM     23  H   UNL     1      20.210  22.215  18.668  1.00  0.00     0.210 HD
ENDBRANCH  21  22
ENDBRANCH  15  21
BRANCH  16  24
ATOM     24  O   UNL     1      20.671  19.846  22.122  1.00  0.00    -0.387 OA
ATOM     25  H   UNL     1      21.006  18.956  21.851  1.00  0.00     0.211 HD
ENDBRANCH  16  24
ENDBRANCH  10  11
ENDBRANCH   4  10
BRANCH   6  26
ATOM     26  O   UNL     1      22.001  28.592  20.694  1.00  0.00    -0.346 OA
BRANCH  26  27
ATOM     27  C   UNL     1      21.259  29.792  20.960  1.00  0.00     0.130 C 
ATOM     28  C   UNL     1      21.858  30.515  22.262  1.00  0.00     0.033 C 
ATOM     29  C   UNL     1      21.369  30.741  19.726  1.00  0.00     0.020 C 
ATOM     30  C   UNL     1      22.730  31.886  22.118  1.00  0.00     0.010 C 
ATOM     31  C   UNL     1      22.917  31.214  19.746  1.00  0.00     0.006 C 
ATOM     32  C   UNL     1      20.215  31.779  19.994  1.00  0.00     0.017 C 
ATOM     33  C   UNL     1      23.204  32.432  20.668  1.00  0.00    -0.022 C 
ATOM     34  C   UNL     1      23.976  30.813  18.650  1.00  0.00     0.005 C 
ATOM     35  C   UNL     1      22.315  33.697  20.329  1.00  0.00     0.012 C 
ATOM     36  C   UNL     1      24.736  32.976  20.503  1.00  0.00     0.024 C 
ATOM     37  C   UNL     1      25.404  30.779  19.229  1.00  0.00     0.008 C 
ATOM     38  C   UNL     1      25.891  32.195  19.669  1.00  0.00    -0.017 C 
ATOM     39  C   UNL     1      25.272  33.811  21.651  1.00  0.00    -0.024 C 
ATOM     40  C   UNL     1      26.097  32.946  18.301  1.00  0.00     0.013 C 
ATOM     41  C   UNL     1      27.284  32.107  20.529  1.00  0.00     0.009 C 
ATOM     42  C   UNL     1      26.541  34.248  21.731  1.00  0.00     0.005 C 
ATOM     43  C   UNL     1      27.721  33.545  21.061  1.00  0.00     0.096 C 
ATOM     44  C   UNL     1      28.463  31.433  19.683  1.00  0.00     0.043 C 
ATOM     45  C   UNL     1      27.081  31.241  21.801  1.00  0.00     0.015 C 
ATOM     46  C   UNL     1      28.460  34.360  19.983  1.00  0.00     0.037 C 
ATOM     47  O   UNL     1      28.682  33.384  22.102  1.00  0.00    -0.369 OA
ATOM     48  C   UNL     1      29.698  32.301  19.286  1.00  0.00     0.124 C 
ATOM     49  C   UNL     1      29.814  33.686  20.014  1.00  0.00     0.026 C 
ATOM     50  C   UNL     1      28.510  35.891  20.297  1.00  0.00     0.014 C 
ATOM     51  C   UNL     1      29.966  33.432  21.517  1.00  0.00     0.171 C 
ATOM     52  C   UNL     1      31.001  34.538  19.414  1.00  0.00     0.013 C 
ATOM     53  C   UNL     1      29.510  36.624  19.371  1.00  0.00    -0.035 C 
ATOM     54  C   UNL     1      30.922  36.048  19.639  1.00  0.00     0.007 C 
ATOM     55  C   UNL     1      29.117  36.508  17.875  1.00  0.00     0.011 C 
ATOM     56  C   UNL     1      29.523  38.125  19.711  1.00  0.00     0.011 C 
BRANCH  29  57
ATOM     57  C   UNL     1      20.920  30.175  18.348  1.00  0.00     0.165 C 
BRANCH  57  58
ATOM     58  O   UNL     1      20.032  29.115  18.433  1.00  0.00    -0.396 OA
ATOM     59  H   UNL     1      20.491  28.333  18.030  1.00  0.00     0.210 HD
ENDBRANCH  57  58
ENDBRANCH  29  57
BRANCH  48  60
ATOM     60  O   UNL     1      29.796  32.426  17.895  1.00  0.00    -0.392 OA
ATOM     61  H   UNL     1      29.844  31.535  17.462  1.00  0.00     0.210 HD
ENDBRANCH  48  60
ENDBRANCH  26  27
ENDBRANCH   6  26
BRANCH   5  62
ATOM     62  O   UNL     1      21.218  26.372  19.707  1.00  0.00    -0.385 OA
ATOM     63  H   UNL     1      22.087  26.306  19.224  1.00  0.00     0.211 HD
ENDBRANCH   5  62
TORSDOF 14
ENDMDL
