MODEL 1
REMARK VINA RESULT:    -4.326      0.000      0.000
REMARK INTER + INTRA:          -7.203
REMARK INTER:                  -6.602
REMARK INTRA:                  -0.601
REMARK UNBOUND:                -0.601
REMARK SMILES O=C([O-])CCCCCCCCC(=O)[O-]
REMARK SMILES IDX 7 1 6 2 5 3 4 4 2 5 1 6 3 7 8 8 9 9 10 10 11 11 12 12 13 13
REMARK SMILES IDX 14 14
REMARK H PARENT
REMARK Flexibility Score: inf
ROOT
ATOM      1  C   UNL     1     173.492 171.034 150.190  1.00  0.00     0.000 C 
ENDROOT
BRANCH   1   2
ATOM      2  C   UNL     1     175.026 171.132 150.119  1.00  0.00     0.000 C 
BRANCH   2   3
ATOM      3  C   UNL     1     175.724 169.795 150.423  1.00  0.00     0.006 C 
BRANCH   3   4
ATOM      4  C   UNL     1     174.809 168.825 151.182  1.00  0.00     0.053 C 
BRANCH   4   5
ATOM      5  C   UNL     1     175.309 168.566 152.570  1.00  0.00     0.041 C 
ATOM      6  O   UNL     1     175.472 167.385 152.976  1.00  0.00    -0.550 OA
ATOM      7  O   UNL     1     175.559 169.630 153.429  1.00  0.00    -0.550 OA
ENDBRANCH   4   5
ENDBRANCH   3   4
ENDBRANCH   2   3
ENDBRANCH   1   2
BRANCH   1   8
ATOM      8  C   UNL     1     172.743 172.367 149.982  1.00  0.00     0.000 C 
BRANCH   8   9
ATOM      9  C   UNL     1     173.626 173.627 150.036  1.00  0.00     0.000 C 
BRANCH   9  10
ATOM     10  C   UNL     1     173.663 174.272 151.430  1.00  0.00     0.006 C 
BRANCH  10  11
ATOM     11  C   UNL     1     175.079 174.241 152.010  1.00  0.00     0.053 C 
BRANCH  11  12
ATOM     12  C   UNL     1     175.051 173.798 153.438  1.00  0.00     0.041 C 
ATOM     13  O   UNL     1     175.865 172.929 153.848  1.00  0.00    -0.550 OA
ATOM     14  O   UNL     1     174.159 174.380 154.330  1.00  0.00    -0.550 OA
ENDBRANCH  11  12
ENDBRANCH  10  11
ENDBRANCH   9  10
ENDBRANCH   8   9
ENDBRANCH   1   8
TORSDOF 9
ENDMDL
MODEL 2
REMARK VINA RESULT:    -4.245      1.462      5.023
REMARK INTER + INTRA:          -7.079
REMARK INTER:                  -6.145
REMARK INTRA:                  -0.934
REMARK UNBOUND:                -0.601
REMARK SMILES O=C([O-])CCCCCCCCC(=O)[O-]
REMARK SMILES IDX 7 1 6 2 5 3 4 4 2 5 1 6 3 7 8 8 9 9 10 10 11 11 12 12 13 13
REMARK SMILES IDX 14 14
REMARK H PARENT
REMARK Flexibility Score: inf
ROOT
ATOM      1  C   UNL     1     172.831 172.853 150.144  1.00  0.00     0.000 C 
ENDROOT
BRANCH   1   2
ATOM      2  C   UNL     1     174.172 173.497 149.747  1.00  0.00     0.000 C 
BRANCH   2   3
ATOM      3  C   UNL     1     175.005 173.938 150.963  1.00  0.00     0.006 C 
BRANCH   3   4
ATOM      4  C   UNL     1     174.140 174.142 152.213  1.00  0.00     0.053 C 
BRANCH   4   5
ATOM      5  C   UNL     1     174.903 173.846 153.467  1.00  0.00     0.041 C 
ATOM      6  O   UNL     1     175.752 172.916 153.490  1.00  0.00    -0.550 OA
ATOM      7  O   UNL     1     174.650 174.575 154.623  1.00  0.00    -0.550 OA
ENDBRANCH   4   5
ENDBRANCH   3   4
ENDBRANCH   2   3
ENDBRANCH   1   2
BRANCH   1   8
ATOM      8  C   UNL     1     172.766 171.322 149.972  1.00  0.00     0.000 C 
BRANCH   8   9
ATOM      9  C   UNL     1     173.078 170.508 151.241  1.00  0.00     0.000 C 
BRANCH   9  10
ATOM     10  C   UNL     1     174.582 170.265 151.439  1.00  0.00     0.006 C 
BRANCH  10  11
ATOM     11  C   UNL     1     175.203 169.630 150.192  1.00  0.00     0.053 C 
BRANCH  11  12
ATOM     12  C   UNL     1     174.830 168.185 150.098  1.00  0.00     0.041 C 
ATOM     13  O   UNL     1     174.529 167.679 148.985  1.00  0.00    -0.550 OA
ATOM     14  O   UNL     1     174.862 167.383 151.232  1.00  0.00    -0.550 OA
ENDBRANCH  11  12
ENDBRANCH  10  11
ENDBRANCH   9  10
ENDBRANCH   8   9
ENDBRANCH   1   8
TORSDOF 9
ENDMDL
MODEL 3
REMARK VINA RESULT:    -4.223      1.699      2.147
REMARK INTER + INTRA:          -7.045
REMARK INTER:                  -6.459
REMARK INTRA:                  -0.586
REMARK UNBOUND:                -0.601
REMARK SMILES O=C([O-])CCCCCCCCC(=O)[O-]
REMARK SMILES IDX 7 1 6 2 5 3 4 4 2 5 1 6 3 7 8 8 9 9 10 10 11 11 12 12 13 13
REMARK SMILES IDX 14 14
REMARK H PARENT
REMARK Flexibility Score: inf
ROOT
ATOM      1  C   UNL     1     173.560 171.032 150.200  1.00  0.00     0.000 C 
ENDROOT
BRANCH   1   2
ATOM      2  C   UNL     1     175.066 170.719 150.167  1.00  0.00     0.000 C 
BRANCH   2   3
ATOM      3  C   UNL     1     175.413 169.380 150.839  1.00  0.00     0.006 C 
BRANCH   3   4
ATOM      4  C   UNL     1     174.236 168.396 150.810  1.00  0.00     0.053 C 
BRANCH   4   5
ATOM      5  C   UNL     1     174.477 167.275 149.848  1.00  0.00     0.041 C 
ATOM      6  O   UNL     1     174.494 166.083 150.253  1.00  0.00    -0.550 OA
ATOM      7  O   UNL     1     174.718 167.549 148.507  1.00  0.00    -0.550 OA
ENDBRANCH   4   5
ENDBRANCH   3   4
ENDBRANCH   2   3
ENDBRANCH   1   2
BRANCH   1   8
ATOM      8  C   UNL     1     173.202 172.530 150.102  1.00  0.00     0.000 C 
BRANCH   8   9
ATOM      9  C   UNL     1     174.354 173.449 149.659  1.00  0.00     0.000 C 
BRANCH   9  10
ATOM     10  C   UNL     1     175.048 174.148 150.837  1.00  0.00     0.006 C 
BRANCH  10  11
ATOM     11  C   UNL     1     174.154 174.142 152.081  1.00  0.00     0.053 C 
BRANCH  11  12
ATOM     12  C   UNL     1     174.954 173.804 153.299  1.00  0.00     0.041 C 
ATOM     13  O   UNL     1     174.988 174.598 154.275  1.00  0.00    -0.550 OA
ATOM     14  O   UNL     1     175.621 172.587 153.378  1.00  0.00    -0.550 OA
ENDBRANCH  11  12
ENDBRANCH  10  11
ENDBRANCH   9  10
ENDBRANCH   8   9
ENDBRANCH   1   8
TORSDOF 9
ENDMDL
MODEL 4
REMARK VINA RESULT:    -4.209      0.485      4.741
REMARK INTER + INTRA:          -7.024
REMARK INTER:                  -6.358
REMARK INTRA:                  -0.665
REMARK UNBOUND:                -0.601
REMARK SMILES O=C([O-])CCCCCCCCC(=O)[O-]
REMARK SMILES IDX 7 1 6 2 5 3 4 4 2 5 1 6 3 7 8 8 9 9 10 10 11 11 12 12 13 13
REMARK SMILES IDX 14 14
REMARK H PARENT
REMARK Flexibility Score: inf
ROOT
ATOM      1  C   UNL     1     172.576 172.047 150.590  1.00  0.00     0.000 C 
ENDROOT
BRANCH   1   2
ATOM      2  C   UNL     1     173.171 173.422 150.240  1.00  0.00     0.000 C 
BRANCH   2   3
ATOM      3  C   UNL     1     173.505 174.263 151.484  1.00  0.00     0.006 C 
BRANCH   3   4
ATOM      4  C   UNL     1     174.998 174.209 151.835  1.00  0.00     0.053 C 
BRANCH   4   5
ATOM      5  C   UNL     1     175.215 173.845 153.270  1.00  0.00     0.041 C 
ATOM      6  O   UNL     1     174.973 174.680 154.182  1.00  0.00    -0.550 OA
ATOM      7  O   UNL     1     175.721 172.593 153.601  1.00  0.00    -0.550 OA
ENDBRANCH   4   5
ENDBRANCH   3   4
ENDBRANCH   2   3
ENDBRANCH   1   2
BRANCH   1   8
ATOM      8  C   UNL     1     173.370 170.836 150.055  1.00  0.00     0.000 C 
BRANCH   8   9
ATOM      9  C   UNL     1     174.901 170.971 150.137  1.00  0.00     0.000 C 
BRANCH   9  10
ATOM     10  C   UNL     1     175.569 169.773 150.828  1.00  0.00     0.006 C 
BRANCH  10  11
ATOM     11  C   UNL     1     174.586 169.058 151.758  1.00  0.00     0.053 C 
BRANCH  11  12
ATOM     12  C   UNL     1     175.313 168.419 152.899  1.00  0.00     0.041 C 
ATOM     13  O   UNL     1     175.422 167.166 152.958  1.00  0.00    -0.550 OA
ATOM     14  O   UNL     1     175.915 169.209 153.870  1.00  0.00    -0.550 OA
ENDBRANCH  11  12
ENDBRANCH  10  11
ENDBRANCH   9  10
ENDBRANCH   8   9
ENDBRANCH   1   8
TORSDOF 9
ENDMDL
MODEL 5
REMARK VINA RESULT:    -4.157      1.118      4.333
REMARK INTER + INTRA:          -6.946
REMARK INTER:                  -6.127
REMARK INTRA:                  -0.819
REMARK UNBOUND:                -0.601
REMARK SMILES O=C([O-])CCCCCCCCC(=O)[O-]
REMARK SMILES IDX 7 1 6 2 5 3 4 4 2 5 1 6 3 7 8 8 9 9 10 10 11 11 12 12 13 13
REMARK SMILES IDX 14 14
REMARK H PARENT
REMARK Flexibility Score: inf
ROOT
ATOM      1  C   UNL     1     174.124 173.484 149.754  1.00  0.00     0.000 C 
ENDROOT
BRANCH   1   2
ATOM      2  C   UNL     1     175.003 174.231 150.773  1.00  0.00     0.000 C 
BRANCH   2   3
ATOM      3  C   UNL     1     174.402 174.236 152.189  1.00  0.00     0.006 C 
BRANCH   3   4
ATOM      4  C   UNL     1     175.387 173.703 153.237  1.00  0.00     0.053 C 
BRANCH   4   5
ATOM      5  C   UNL     1     174.892 172.438 153.868  1.00  0.00     0.041 C 
ATOM      6  O   UNL     1     173.681 172.107 153.761  1.00  0.00    -0.550 OA
ATOM      7  O   UNL     1     175.760 171.643 154.606  1.00  0.00    -0.550 OA
ENDBRANCH   4   5
ENDBRANCH   3   4
ENDBRANCH   2   3
ENDBRANCH   1   2
BRANCH   1   8
ATOM      8  C   UNL     1     173.125 172.479 150.366  1.00  0.00     0.000 C 
BRANCH   8   9
ATOM      9  C   UNL     1     173.449 170.997 150.108  1.00  0.00     0.000 C 
BRANCH   9  10
ATOM     10  C   UNL     1     174.836 170.588 150.627  1.00  0.00     0.006 C 
BRANCH  10  11
ATOM     11  C   UNL     1     174.988 169.065 150.642  1.00  0.00     0.053 C 
BRANCH  11  12
ATOM     12  C   UNL     1     175.114 168.564 152.046  1.00  0.00     0.041 C 
ATOM     13  O   UNL     1     176.125 168.861 152.736  1.00  0.00    -0.550 OA
ATOM     14  O   UNL     1     174.092 167.812 152.610  1.00  0.00    -0.550 OA
ENDBRANCH  11  12
ENDBRANCH  10  11
ENDBRANCH   9  10
ENDBRANCH   8   9
ENDBRANCH   1   8
TORSDOF 9
ENDMDL
MODEL 6
REMARK VINA RESULT:    -4.138      2.477      5.747
REMARK INTER + INTRA:          -6.916
REMARK INTER:                  -6.421
REMARK INTRA:                  -0.495
REMARK UNBOUND:                -0.601
REMARK SMILES O=C([O-])CCCCCCCCC(=O)[O-]
REMARK SMILES IDX 7 1 6 2 5 3 4 4 2 5 1 6 3 7 8 8 9 9 10 10 11 11 12 12 13 13
REMARK SMILES IDX 14 14
REMARK H PARENT
REMARK Flexibility Score: inf
ROOT
ATOM      1  C   UNL     1     174.067 171.824 150.209  1.00  0.00     0.000 C 
ENDROOT
BRANCH   1   2
ATOM      2  C   UNL     1     174.609 173.256 150.057  1.00  0.00     0.000 C 
BRANCH   2   3
ATOM      3  C   UNL     1     174.300 174.144 151.274  1.00  0.00     0.006 C 
BRANCH   3   4
ATOM      4  C   UNL     1     175.521 174.323 152.185  1.00  0.00     0.053 C 
BRANCH   4   5
ATOM      5  C   UNL     1     175.272 173.777 153.556  1.00  0.00     0.041 C 
ATOM      6  O   UNL     1     175.847 172.722 153.934  1.00  0.00    -0.550 OA
ATOM      7  O   UNL     1     174.374 174.413 154.406  1.00  0.00    -0.550 OA
ENDBRANCH   4   5
ENDBRANCH   3   4
ENDBRANCH   2   3
ENDBRANCH   1   2
BRANCH   1   8
ATOM      8  C   UNL     1     175.028 170.831 150.894  1.00  0.00     0.000 C 
BRANCH   8   9
ATOM      9  C   UNL     1     175.393 169.591 150.058  1.00  0.00     0.000 C 
BRANCH   9  10
ATOM     10  C   UNL     1     174.482 168.388 150.344  1.00  0.00     0.006 C 
BRANCH  10  11
ATOM     11  C   UNL     1     174.012 167.735 149.041  1.00  0.00     0.053 C 
BRANCH  11  12
ATOM     12  C   UNL     1     172.528 167.859 148.899  1.00  0.00     0.041 C 
ATOM     13  O   UNL     1     171.793 166.843 149.018  1.00  0.00    -0.550 OA
ATOM     14  O   UNL     1     171.951 169.104 148.684  1.00  0.00    -0.550 OA
ENDBRANCH  11  12
ENDBRANCH  10  11
ENDBRANCH   9  10
ENDBRANCH   8   9
ENDBRANCH   1   8
TORSDOF 9
ENDMDL
MODEL 7
REMARK VINA RESULT:    -4.124      2.525      2.898
REMARK INTER + INTRA:          -6.894
REMARK INTER:                  -6.407
REMARK INTRA:                  -0.487
REMARK UNBOUND:                -0.601
REMARK SMILES O=C([O-])CCCCCCCCC(=O)[O-]
REMARK SMILES IDX 7 1 6 2 5 3 4 4 2 5 1 6 3 7 8 8 9 9 10 10 11 11 12 12 13 13
REMARK SMILES IDX 14 14
REMARK H PARENT
REMARK Flexibility Score: inf
ROOT
ATOM      1  C   UNL     1     174.902 170.965 150.874  1.00  0.00     0.000 C 
ENDROOT
BRANCH   1   2
ATOM      2  C   UNL     1     175.293 169.742 150.026  1.00  0.00     0.000 C 
BRANCH   2   3
ATOM      3  C   UNL     1     174.448 168.497 150.347  1.00  0.00     0.006 C 
BRANCH   3   4
ATOM      4  C   UNL     1     173.954 167.791 149.078  1.00  0.00     0.053 C 
BRANCH   4   5
ATOM      5  C   UNL     1     172.493 168.025 148.849  1.00  0.00     0.041 C 
ATOM      6  O   UNL     1     171.729 167.060 148.580  1.00  0.00    -0.550 OA
ATOM      7  O   UNL     1     171.980 169.315 148.896  1.00  0.00    -0.550 OA
ENDBRANCH   4   5
ENDBRANCH   3   4
ENDBRANCH   2   3
ENDBRANCH   1   2
BRANCH   1   8
ATOM      8  C   UNL     1     174.077 172.037 150.132  1.00  0.00     0.000 C 
BRANCH   8   9
ATOM      9  C   UNL     1     174.671 173.457 150.167  1.00  0.00     0.000 C 
BRANCH   9  10
ATOM     10  C   UNL     1     174.322 174.219 151.454  1.00  0.00     0.006 C 
BRANCH  10  11
ATOM     11  C   UNL     1     175.550 174.358 152.358  1.00  0.00     0.053 C 
BRANCH  11  12
ATOM     12  C   UNL     1     175.267 173.795 153.715  1.00  0.00     0.041 C 
ATOM     13  O   UNL     1     174.454 174.372 154.484  1.00  0.00    -0.550 OA
ATOM     14  O   UNL     1     175.864 172.605 154.112  1.00  0.00    -0.550 OA
ENDBRANCH  11  12
ENDBRANCH  10  11
ENDBRANCH   9  10
ENDBRANCH   8   9
ENDBRANCH   1   8
TORSDOF 9
ENDMDL
MODEL 8
REMARK VINA RESULT:    -4.119      1.556      4.882
REMARK INTER + INTRA:          -6.887
REMARK INTER:                  -6.189
REMARK INTRA:                  -0.698
REMARK UNBOUND:                -0.601
REMARK SMILES O=C([O-])CCCCCCCCC(=O)[O-]
REMARK SMILES IDX 7 1 6 2 5 3 4 4 2 5 1 6 3 7 8 8 9 9 10 10 11 11 12 12 13 13
REMARK SMILES IDX 14 14
REMARK H PARENT
REMARK Flexibility Score: inf
ROOT
ATOM      1  C   UNL     1     174.175 174.229 151.588  1.00  0.00     0.000 C 
ENDROOT
BRANCH   1   2
ATOM      2  C   UNL     1     175.464 174.329 152.424  1.00  0.00     0.000 C 
BRANCH   2   3
ATOM      3  C   UNL     1     175.460 173.388 153.641  1.00  0.00     0.006 C 
BRANCH   3   4
ATOM      4  C   UNL     1     174.045 173.145 154.180  1.00  0.00     0.053 C 
BRANCH   4   5
ATOM      5  C   UNL     1     173.917 173.573 155.609  1.00  0.00     0.041 C 
ATOM      6  O   UNL     1     174.036 174.788 155.922  1.00  0.00    -0.550 OA
ATOM      7  O   UNL     1     173.702 172.625 156.603  1.00  0.00    -0.550 OA
ENDBRANCH   4   5
ENDBRANCH   3   4
ENDBRANCH   2   3
ENDBRANCH   1   2
BRANCH   1   8
ATOM      8  C   UNL     1     174.306 173.415 150.283  1.00  0.00     0.000 C 
BRANCH   8   9
ATOM      9  C   UNL     1     173.133 172.463 149.988  1.00  0.00     0.000 C 
BRANCH   9  10
ATOM     10  C   UNL     1     173.493 170.986 150.208  1.00  0.00     0.006 C 
BRANCH  10  11
ATOM     11  C   UNL     1     175.001 170.813 150.409  1.00  0.00     0.053 C 
BRANCH  11  12
ATOM     12  C   UNL     1     175.318 169.409 150.814  1.00  0.00     0.041 C 
ATOM     13  O   UNL     1     174.967 168.444 150.085  1.00  0.00    -0.550 OA
ATOM     14  O   UNL     1     176.047 169.166 151.972  1.00  0.00    -0.550 OA
ENDBRANCH  11  12
ENDBRANCH  10  11
ENDBRANCH   9  10
ENDBRANCH   8   9
ENDBRANCH   1   8
TORSDOF 9
ENDMDL
MODEL 9
REMARK VINA RESULT:    -4.002      1.637      2.329
REMARK INTER + INTRA:          -6.709
REMARK INTER:                  -6.224
REMARK INTRA:                  -0.484
REMARK UNBOUND:                -0.601
REMARK SMILES O=C([O-])CCCCCCCCC(=O)[O-]
REMARK SMILES IDX 7 1 6 2 5 3 4 4 2 5 1 6 3 7 8 8 9 9 10 10 11 11 12 12 13 13
REMARK SMILES IDX 14 14
REMARK H PARENT
REMARK Flexibility Score: inf
ROOT
ATOM      1  C   UNL     1     175.070 170.910 150.661  1.00  0.00     0.000 C 
ENDROOT
BRANCH   1   2
ATOM      2  C   UNL     1     175.353 169.494 150.128  1.00  0.00     0.000 C 
BRANCH   2   3
ATOM      3  C   UNL     1     174.069 168.706 149.816  1.00  0.00     0.006 C 
BRANCH   3   4
ATOM      4  C   UNL     1     174.359 167.240 149.469  1.00  0.00     0.053 C 
BRANCH   4   5
ATOM      5  C   UNL     1     174.109 166.335 150.635  1.00  0.00     0.041 C 
ATOM      6  O   UNL     1     174.939 166.273 151.581  1.00  0.00    -0.550 OA
ATOM      7  O   UNL     1     172.975 165.532 150.662  1.00  0.00    -0.550 OA
ENDBRANCH   4   5
ENDBRANCH   3   4
ENDBRANCH   2   3
ENDBRANCH   1   2
BRANCH   1   8
ATOM      8  C   UNL     1     173.753 171.543 150.167  1.00  0.00     0.000 C 
BRANCH   8   9
ATOM      9  C   UNL     1     173.824 173.052 149.871  1.00  0.00     0.000 C 
BRANCH   9  10
ATOM     10  C   UNL     1     174.663 173.823 150.900  1.00  0.00     0.006 C 
BRANCH  10  11
ATOM     11  C   UNL     1     173.829 174.174 152.135  1.00  0.00     0.053 C 
BRANCH  11  12
ATOM     12  C   UNL     1     174.592 173.874 153.386  1.00  0.00     0.041 C 
ATOM     13  O   UNL     1     174.192 174.318 154.494  1.00  0.00    -0.550 OA
ATOM     14  O   UNL     1     175.717 173.060 153.336  1.00  0.00    -0.550 OA
ENDBRANCH  11  12
ENDBRANCH  10  11
ENDBRANCH   9  10
ENDBRANCH   8   9
ENDBRANCH   1   8
TORSDOF 9
ENDMDL
