MODEL 1
REMARK VINA RESULT:    -3.505      0.000      0.000
REMARK INTER + INTRA:          -4.377
REMARK INTER:                  -4.222
REMARK INTRA:                  -0.155
REMARK UNBOUND:                -0.155
REMARK SMILES CC[C@@H](C)[C@@H]([NH3+])C(=O)[O-]
REMARK SMILES IDX 3 1 4 2 5 3 6 4 7 8 8 9 9 10 2 11 1 12
REMARK H PARENT 6 5 6 6 6 7
REMARK Flexibility Score: inf
ROOT
ATOM      1  C   UNL     1     145.774 134.630 146.689  1.00  0.00     0.050 C 
ATOM      2  C   UNL     1     146.456 133.251 146.600  1.00  0.00     0.014 C 
ENDROOT
BRANCH   1   3
ATOM      3  C   UNL     1     144.268 134.528 146.281  1.00  0.00     0.230 C 
BRANCH   3   4
ATOM      4  N   UNL     1     143.368 134.800 147.410  1.00  0.00    -0.350 N 
ATOM      5  H   UNL     1     142.938 133.913 147.757  1.00  0.00     0.345 HD
ATOM      6  H   UNL     1     143.885 135.272 148.188  1.00  0.00     0.345 HD
ATOM      7  H   UNL     1     142.585 135.421 147.101  1.00  0.00     0.345 HD
ENDBRANCH   3   4
BRANCH   3   8
ATOM      8  C   UNL     1     143.947 135.483 145.156  1.00  0.00     0.099 C 
ATOM      9  O   UNL     1     142.894 135.336 144.481  1.00  0.00    -0.544 OA
ATOM     10  O   UNL     1     144.810 136.532 144.861  1.00  0.00    -0.544 OA
ENDBRANCH   3   8
ENDBRANCH   1   3
BRANCH   1  11
ATOM     11  C   UNL     1     145.961 135.204 148.124  1.00  0.00     0.006 C 
ATOM     12  C   UNL     1     146.386 136.673 148.122  1.00  0.00     0.004 C 
ENDBRANCH   1  11
TORSDOF 4
ENDMDL
MODEL 2
REMARK VINA RESULT:    -3.425      2.812      3.190
REMARK INTER + INTRA:          -4.280
REMARK INTER:                  -4.179
REMARK INTRA:                  -0.101
REMARK UNBOUND:                -0.155
REMARK SMILES CC[C@@H](C)[C@@H]([NH3+])C(=O)[O-]
REMARK SMILES IDX 3 1 4 2 5 3 6 4 7 8 8 9 9 10 2 11 1 12
REMARK H PARENT 6 5 6 6 6 7
REMARK Flexibility Score: inf
ROOT
ATOM      1  C   UNL     1     145.101 134.738 146.971  1.00  0.00     0.050 C 
ATOM      2  C   UNL     1     143.623 134.608 147.388  1.00  0.00     0.014 C 
ENDROOT
BRANCH   1   3
ATOM      3  C   UNL     1     145.369 133.960 145.641  1.00  0.00     0.230 C 
BRANCH   3   4
ATOM      4  N   UNL     1     145.682 134.863 144.525  1.00  0.00    -0.350 N 
ATOM      5  H   UNL     1     144.863 134.945 143.881  1.00  0.00     0.345 HD
ATOM      6  H   UNL     1     145.950 135.810 144.881  1.00  0.00     0.345 HD
ATOM      7  H   UNL     1     146.476 134.476 143.964  1.00  0.00     0.345 HD
ENDBRANCH   3   4
BRANCH   3   8
ATOM      8  C   UNL     1     146.502 132.976 145.809  1.00  0.00     0.099 C 
ATOM      9  O   UNL     1     146.815 132.203 144.866  1.00  0.00    -0.544 OA
ATOM     10  O   UNL     1     147.209 132.920 147.004  1.00  0.00    -0.544 OA
ENDBRANCH   3   8
ENDBRANCH   1   3
BRANCH   1  11
ATOM     11  C   UNL     1     145.474 136.245 146.862  1.00  0.00     0.006 C 
ATOM     12  C   UNL     1     146.152 136.779 148.125  1.00  0.00     0.004 C 
ENDBRANCH   1  11
TORSDOF 4
ENDMDL
MODEL 3
REMARK VINA RESULT:    -3.371     11.528     12.806
REMARK INTER + INTRA:          -4.215
REMARK INTER:                  -4.123
REMARK INTRA:                  -0.092
REMARK UNBOUND:                -0.155
REMARK SMILES CC[C@@H](C)[C@@H]([NH3+])C(=O)[O-]
REMARK SMILES IDX 3 1 4 2 5 3 6 4 7 8 8 9 9 10 2 11 1 12
REMARK H PARENT 6 5 6 6 6 7
REMARK Flexibility Score: inf
ROOT
ATOM      1  C   UNL     1     131.957 135.081 147.336  1.00  0.00     0.050 C 
ATOM      2  C   UNL     1     132.023 133.758 148.125  1.00  0.00     0.014 C 
ENDROOT
BRANCH   1   3
ATOM      3  C   UNL     1     133.393 135.564 146.950  1.00  0.00     0.230 C 
BRANCH   3   4
ATOM      4  N   UNL     1     134.095 134.591 146.102  1.00  0.00    -0.350 N 
ATOM      5  H   UNL     1     134.928 135.033 145.652  1.00  0.00     0.345 HD
ATOM      6  H   UNL     1     134.394 133.760 146.664  1.00  0.00     0.345 HD
ATOM      7  H   UNL     1     133.465 134.269 145.332  1.00  0.00     0.345 HD
ENDBRANCH   3   4
BRANCH   3   8
ATOM      8  C   UNL     1     133.342 136.893 146.235  1.00  0.00     0.099 C 
ATOM      9  O   UNL     1     133.016 137.936 146.860  1.00  0.00    -0.544 OA
ATOM     10  O   UNL     1     133.657 136.973 144.884  1.00  0.00    -0.544 OA
ENDBRANCH   3   8
ENDBRANCH   1   3
BRANCH   1  11
ATOM     11  C   UNL     1     131.041 134.891 146.092  1.00  0.00     0.006 C 
ATOM     12  C   UNL     1     129.601 134.538 146.467  1.00  0.00     0.004 C 
ENDBRANCH   1  11
TORSDOF 4
ENDMDL
MODEL 4
REMARK VINA RESULT:    -3.361      2.205      2.842
REMARK INTER + INTRA:          -4.203
REMARK INTER:                  -4.109
REMARK INTRA:                  -0.095
REMARK UNBOUND:                -0.155
REMARK SMILES CC[C@@H](C)[C@@H]([NH3+])C(=O)[O-]
REMARK SMILES IDX 3 1 4 2 5 3 6 4 7 8 8 9 9 10 2 11 1 12
REMARK H PARENT 6 5 6 6 6 7
REMARK Flexibility Score: inf
ROOT
ATOM      1  C   UNL     1     145.233 134.106 146.391  1.00  0.00     0.050 C 
ATOM      2  C   UNL     1     146.457 133.169 146.427  1.00  0.00     0.014 C 
ENDROOT
BRANCH   1   3
ATOM      3  C   UNL     1     145.031 134.802 147.776  1.00  0.00     0.230 C 
BRANCH   3   4
ATOM      4  N   UNL     1     146.157 135.679 148.124  1.00  0.00    -0.350 N 
ATOM      5  H   UNL     1     146.413 135.563 149.130  1.00  0.00     0.345 HD
ATOM      6  H   UNL     1     146.987 135.472 147.521  1.00  0.00     0.345 HD
ATOM      7  H   UNL     1     145.884 136.680 147.991  1.00  0.00     0.345 HD
ENDBRANCH   3   4
BRANCH   3   8
ATOM      8  C   UNL     1     143.755 135.610 147.794  1.00  0.00     0.099 C 
ATOM      9  O   UNL     1     142.646 135.045 147.604  1.00  0.00    -0.544 OA
ATOM     10  O   UNL     1     143.798 136.979 148.024  1.00  0.00    -0.544 OA
ENDBRANCH   3   8
ENDBRANCH   1   3
BRANCH   1  11
ATOM     11  C   UNL     1     145.405 135.131 145.232  1.00  0.00     0.006 C 
ATOM     12  C   UNL     1     145.715 134.461 143.892  1.00  0.00     0.004 C 
ENDBRANCH   1  11
TORSDOF 4
ENDMDL
MODEL 5
REMARK VINA RESULT:    -3.355     11.957     12.932
REMARK INTER + INTRA:          -4.196
REMARK INTER:                  -4.101
REMARK INTRA:                  -0.095
REMARK UNBOUND:                -0.155
REMARK SMILES CC[C@@H](C)[C@@H]([NH3+])C(=O)[O-]
REMARK SMILES IDX 3 1 4 2 5 3 6 4 7 8 8 9 9 10 2 11 1 12
REMARK H PARENT 6 5 6 6 6 7
REMARK Flexibility Score: inf
ROOT
ATOM      1  C   UNL     1     139.200 146.564 146.445  1.00  0.00     0.050 C 
ATOM      2  C   UNL     1     139.428 148.088 146.461  1.00  0.00     0.014 C 
ENDROOT
BRANCH   1   3
ATOM      3  C   UNL     1     138.635 146.077 147.819  1.00  0.00     0.230 C 
BRANCH   3   4
ATOM      4  N   UNL     1     137.328 146.677 148.124  1.00  0.00    -0.350 N 
ATOM      5  H   UNL     1     136.559 146.002 147.917  1.00  0.00     0.345 HD
ATOM      6  H   UNL     1     137.282 146.972 149.127  1.00  0.00     0.345 HD
ATOM      7  H   UNL     1     137.172 147.516 147.518  1.00  0.00     0.345 HD
ENDBRANCH   3   4
BRANCH   3   8
ATOM      8  C   UNL     1     138.503 144.573 147.847  1.00  0.00     0.099 C 
ATOM      9  O   UNL     1     139.527 143.846 147.767  1.00  0.00    -0.544 OA
ATOM     10  O   UNL     1     137.250 143.982 147.963  1.00  0.00    -0.544 OA
ENDBRANCH   3   8
ENDBRANCH   1   3
BRANCH   1  11
ATOM     11  C   UNL     1     138.266 146.197 145.255  1.00  0.00     0.006 C 
ATOM     12  C   UNL     1     138.707 146.838 143.939  1.00  0.00     0.004 C 
ENDBRANCH   1  11
TORSDOF 4
ENDMDL
MODEL 6
REMARK VINA RESULT:    -3.320     11.206     12.071
REMARK INTER + INTRA:          -4.154
REMARK INTER:                  -4.084
REMARK INTRA:                  -0.070
REMARK UNBOUND:                -0.155
REMARK SMILES CC[C@@H](C)[C@@H]([NH3+])C(=O)[O-]
REMARK SMILES IDX 3 1 4 2 5 3 6 4 7 8 8 9 9 10 2 11 1 12
REMARK H PARENT 6 5 6 6 6 7
REMARK Flexibility Score: inf
ROOT
ATOM      1  C   UNL     1     138.963 146.148 147.200  1.00  0.00     0.050 C 
ATOM      2  C   UNL     1     137.845 146.669 148.125  1.00  0.00     0.014 C 
ENDROOT
BRANCH   1   3
ATOM      3  C   UNL     1     138.731 144.642 146.848  1.00  0.00     0.230 C 
BRANCH   3   4
ATOM      4  N   UNL     1     137.923 144.477 145.633  1.00  0.00    -0.350 N 
ATOM      5  H   UNL     1     137.285 143.655 145.727  1.00  0.00     0.345 HD
ATOM      6  H   UNL     1     137.364 145.340 145.440  1.00  0.00     0.345 HD
ATOM      7  H   UNL     1     138.545 144.289 144.813  1.00  0.00     0.345 HD
ENDBRANCH   3   4
BRANCH   3   8
ATOM      8  C   UNL     1     140.045 143.921 146.667  1.00  0.00     0.099 C 
ATOM      9  O   UNL     1     140.377 143.487 145.533  1.00  0.00    -0.544 OA
ATOM     10  O   UNL     1     140.897 143.736 147.749  1.00  0.00    -0.544 OA
ENDBRANCH   3   8
ENDBRANCH   1   3
BRANCH   1  11
ATOM     11  C   UNL     1     139.042 147.048 145.932  1.00  0.00     0.006 C 
ATOM     12  C   UNL     1     139.751 148.378 146.195  1.00  0.00     0.004 C 
ENDBRANCH   1  11
TORSDOF 4
ENDMDL
MODEL 7
REMARK VINA RESULT:    -2.821     11.817     12.674
REMARK INTER + INTRA:          -3.553
REMARK INTER:                  -3.437
REMARK INTRA:                  -0.115
REMARK UNBOUND:                -0.155
REMARK SMILES CC[C@@H](C)[C@@H]([NH3+])C(=O)[O-]
REMARK SMILES IDX 3 1 4 2 5 3 6 4 7 8 8 9 9 10 2 11 1 12
REMARK H PARENT 6 5 6 6 6 7
REMARK Flexibility Score: inf
ROOT
ATOM      1  C   UNL     1     138.529 146.842 146.690  1.00  0.00     0.050 C 
ATOM      2  C   UNL     1     139.399 148.113 146.625  1.00  0.00     0.014 C 
ENDROOT
BRANCH   1   3
ATOM      3  C   UNL     1     139.352 145.587 146.252  1.00  0.00     0.230 C 
BRANCH   3   4
ATOM      4  N   UNL     1     139.585 144.662 147.369  1.00  0.00    -0.350 N 
ATOM      5  H   UNL     1     139.018 144.942 148.201  1.00  0.00     0.345 HD
ATOM      6  H   UNL     1     139.348 143.681 147.092  1.00  0.00     0.345 HD
ATOM      7  H   UNL     1     140.590 144.697 147.658  1.00  0.00     0.345 HD
ENDBRANCH   3   4
BRANCH   3   8
ATOM      8  C   UNL     1     138.655 144.846 145.137  1.00  0.00     0.099 C 
ATOM      9  O   UNL     1     139.083 143.724 144.758  1.00  0.00    -0.544 OA
ATOM     10  O   UNL     1     137.535 145.395 144.524  1.00  0.00    -0.544 OA
ENDBRANCH   3   8
ENDBRANCH   1   3
BRANCH   1  11
ATOM     11  C   UNL     1     137.941 146.696 148.124  1.00  0.00     0.006 C 
ATOM     12  C   UNL     1     136.520 146.130 148.125  1.00  0.00     0.004 C 
ENDBRANCH   1  11
TORSDOF 4
ENDMDL
