MODEL 1
REMARK VINA RESULT:    -6.666      0.000      0.000
REMARK INTER + INTRA:          -6.861
REMARK INTER:                  -6.861
REMARK INTRA:                   0.000
REMARK UNBOUND:                 0.000
REMARK SMILES C[C@@H]1CC[C@]2(OC1)O[C@H]1C[C@H]3[C@H]4CC=C5C[C@@H](O)CC[C@]5(C)[C@@H]4CC[C@]3(C)[C@H]1[C@@H]2C
REMARK SMILES IDX 1 1 2 2 3 3 4 4 5 5 29 6 28 7 9 8 8 9 10 10 11 11 26 12
REMARK SMILES IDX 25 13 24 14 23 15 12 16 13 17 14 18 15 19 21 20 20 21 19 22
REMARK SMILES IDX 17 23 16 24 22 25 27 26 30 27 6 28 7 29 18 30
REMARK H PARENT 18 31
REMARK Flexibility Score: inf
ROOT
ATOM      1  C   UNL     1       5.410  23.486 136.278  1.00  0.00     0.010 C 
ATOM      2  C   UNL     1       6.636  22.721 135.693  1.00  0.00     0.012 C 
ATOM      3  C   UNL     1       7.547  23.415 134.738  1.00  0.00     0.011 C 
ATOM      4  C   UNL     1       8.739  22.249 134.530  1.00  0.00     0.066 C 
ATOM      5  C   UNL     1       8.363  21.575 133.185  1.00  0.00     0.171 C 
ATOM      6  C   UNL     1       9.685  22.125 132.278  1.00  0.00     0.052 C 
ATOM      7  C   UNL     1      10.359  21.226 131.090  1.00  0.00     0.033 C 
ATOM      8  C   UNL     1       9.025  20.336 131.396  1.00  0.00     0.126 C 
ATOM      9  O   UNL     1       8.782  20.263 132.888  1.00  0.00    -0.346 OA
ATOM     10  C   UNL     1       7.986  21.034 130.529  1.00  0.00     0.037 C 
ATOM     11  C   UNL     1       8.856  20.942 129.208  1.00  0.00     0.002 C 
ATOM     12  C   UNL     1      10.512  20.945 129.396  1.00  0.00    -0.024 C 
ATOM     13  C   UNL     1      10.859  19.478 128.716  1.00  0.00     0.008 C 
ATOM     14  C   UNL     1      10.052  19.320 127.288  1.00  0.00     0.005 C 
ATOM     15  C   UNL     1       9.180  20.486 126.771  1.00  0.00     0.003 C 
ATOM     16  C   UNL     1       8.237  21.093 127.936  1.00  0.00     0.000 C 
ATOM     17  C   UNL     1       7.830  22.473 127.704  1.00  0.00     0.031 C 
ATOM     18  C   UNL     1       7.168  22.595 126.402  1.00  0.00    -0.027 C 
ATOM     19  C   UNL     1       7.279  21.577 125.438  1.00  0.00    -0.065 C 
ATOM     20  C   UNL     1       8.112  20.195 125.624  1.00  0.00    -0.008 C 
ATOM     21  C   UNL     1       7.234  19.032 126.051  1.00  0.00     0.014 C 
ATOM     22  C   UNL     1       5.815  19.039 125.373  1.00  0.00     0.033 C 
ATOM     23  C   UNL     1       5.142  20.417 124.955  1.00  0.00     0.118 C 
ATOM     24  C   UNL     1       6.089  21.513 124.501  1.00  0.00     0.063 C 
ATOM     25  C   UNL     1       8.832  19.875 124.253  1.00  0.00     0.016 C 
ATOM     26  C   UNL     1      11.635  21.862 128.392  1.00  0.00     0.012 C 
ATOM     27  C   UNL     1      11.084  22.148 133.197  1.00  0.00     0.014 C 
ATOM     28  O   UNL     1       6.868  21.176 133.476  1.00  0.00    -0.349 OA
ATOM     29  C   UNL     1       6.063  21.499 134.773  1.00  0.00     0.167 C 
ENDROOT
BRANCH  23  30
ATOM     30  O   UNL     1       4.283  20.105 123.875  1.00  0.00    -0.393 OA
ATOM     31  H   UNL     1       3.842  20.949 123.518  1.00  0.00     0.210 HD
ENDBRANCH  23  30
TORSDOF 1
ENDMDL
MODEL 2
REMARK VINA RESULT:    -5.696      4.952      8.460
REMARK INTER + INTRA:          -5.862
REMARK INTER:                  -5.862
REMARK INTRA:                   0.000
REMARK UNBOUND:                 0.000
REMARK SMILES C[C@@H]1CC[C@]2(OC1)O[C@H]1C[C@H]3[C@H]4CC=C5C[C@@H](O)CC[C@]5(C)[C@@H]4CC[C@]3(C)[C@H]1[C@@H]2C
REMARK SMILES IDX 1 1 2 2 3 3 4 4 5 5 29 6 28 7 9 8 8 9 10 10 11 11 26 12
REMARK SMILES IDX 25 13 24 14 23 15 12 16 13 17 14 18 15 19 21 20 20 21 19 22
REMARK SMILES IDX 17 23 16 24 22 25 27 26 30 27 6 28 7 29 18 30
REMARK H PARENT 18 31
REMARK Flexibility Score: inf
ROOT
ATOM      1  C   UNL     1      10.329  19.803 131.699  1.00  0.00     0.010 C 
ATOM      2  C   UNL     1       9.553  20.654 132.749  1.00  0.00     0.012 C 
ATOM      3  C   UNL     1       8.478  20.016 133.561  1.00  0.00     0.011 C 
ATOM      4  C   UNL     1       8.073  21.273 134.599  1.00  0.00     0.066 C 
ATOM      5  C   UNL     1       6.794  21.877 133.964  1.00  0.00     0.171 C 
ATOM      6  C   UNL     1       5.701  21.419 135.175  1.00  0.00     0.052 C 
ATOM      7  C   UNL     1       4.411  22.340 135.578  1.00  0.00     0.033 C 
ATOM      8  C   UNL     1       4.908  23.121 134.233  1.00  0.00     0.126 C 
ATOM      9  O   UNL     1       6.418  23.212 134.215  1.00  0.00    -0.346 OA
ATOM     10  C   UNL     1       4.221  22.314 133.139  1.00  0.00     0.037 C 
ATOM     11  C   UNL     1       2.780  22.444 133.786  1.00  0.00     0.002 C 
ATOM     12  C   UNL     1       2.711  22.588 135.445  1.00  0.00    -0.024 C 
ATOM     13  C   UNL     1       1.966  24.061 135.553  1.00  0.00     0.008 C 
ATOM     14  C   UNL     1       0.677  24.111 134.527  1.00  0.00     0.005 C 
ATOM     15  C   UNL     1       0.316  22.862 133.692  1.00  0.00     0.003 C 
ATOM     16  C   UNL     1       1.621  22.207 132.996  1.00  0.00     0.000 C 
ATOM     17  C   UNL     1       1.472  20.792 132.682  1.00  0.00     0.031 C 
ATOM     18  C   UNL     1       0.290  20.579 131.844  1.00  0.00    -0.027 C 
ATOM     19  C   UNL     1      -0.693  21.577 131.715  1.00  0.00    -0.065 C 
ATOM     20  C   UNL     1      -0.655  23.030 132.441  1.00  0.00    -0.008 C 
ATOM     21  C   UNL     1      -0.113  24.125 131.539  1.00  0.00     0.014 C 
ATOM     22  C   UNL     1      -0.564  23.978 130.039  1.00  0.00     0.033 C 
ATOM     23  C   UNL     1      -0.855  22.537 129.435  1.00  0.00     0.118 C 
ATOM     24  C   UNL     1      -1.436  21.514 130.395  1.00  0.00     0.063 C 
ATOM     25  C   UNL     1      -2.125  23.374 132.912  1.00  0.00     0.016 C 
ATOM     26  C   UNL     1       1.557  21.745 136.479  1.00  0.00     0.012 C 
ATOM     27  C   UNL     1       6.393  21.540 136.695  1.00  0.00     0.014 C 
ATOM     28  O   UNL     1       7.307  22.154 132.501  1.00  0.00    -0.349 OA
ATOM     29  C   UNL     1       8.716  21.798 131.936  1.00  0.00     0.167 C 
ENDROOT
BRANCH  23  30
ATOM     30  O   UNL     1      -1.794  22.745 128.398  1.00  0.00    -0.393 OA
ATOM     31  H   UNL     1      -1.464  23.468 127.761  1.00  0.00     0.210 HD
ENDBRANCH  23  30
TORSDOF 1
ENDMDL
MODEL 3
REMARK VINA RESULT:    -5.468      2.278      4.141
REMARK INTER + INTRA:          -5.628
REMARK INTER:                  -5.628
REMARK INTRA:                   0.000
REMARK UNBOUND:                 0.000
REMARK SMILES C[C@@H]1CC[C@]2(OC1)O[C@H]1C[C@H]3[C@H]4CC=C5C[C@@H](O)CC[C@]5(C)[C@@H]4CC[C@]3(C)[C@H]1[C@@H]2C
REMARK SMILES IDX 1 1 2 2 3 3 4 4 5 5 29 6 28 7 9 8 8 9 10 10 11 11 26 12
REMARK SMILES IDX 25 13 24 14 23 15 12 16 13 17 14 18 15 19 21 20 20 21 19 22
REMARK SMILES IDX 17 23 16 24 22 25 27 26 30 27 6 28 7 29 18 30
REMARK H PARENT 18 31
REMARK Flexibility Score: inf
ROOT
ATOM      1  C   UNL     1       0.976  23.854 134.065  1.00  0.00     0.010 C 
ATOM      2  C   UNL     1       2.317  23.356 134.684  1.00  0.00     0.012 C 
ATOM      3  C   UNL     1       3.570  24.124 134.436  1.00  0.00     0.011 C 
ATOM      4  C   UNL     1       4.656  23.285 135.405  1.00  0.00     0.066 C 
ATOM      5  C   UNL     1       5.402  22.362 134.406  1.00  0.00     0.171 C 
ATOM      6  C   UNL     1       6.923  23.104 134.504  1.00  0.00     0.052 C 
ATOM      7  C   UNL     1       8.315  22.256 134.374  1.00  0.00     0.033 C 
ATOM      8  C   UNL     1       7.240  21.104 133.945  1.00  0.00     0.126 C 
ATOM      9  O   UNL     1       6.022  21.173 134.840  1.00  0.00    -0.346 OA
ATOM     10  C   UNL     1       7.062  21.389 132.460  1.00  0.00     0.037 C 
ATOM     11  C   UNL     1       8.615  21.346 132.146  1.00  0.00     0.002 C 
ATOM     12  C   UNL     1       9.644  21.798 133.377  1.00  0.00    -0.024 C 
ATOM     13  C   UNL     1      10.497  20.391 133.539  1.00  0.00     0.008 C 
ATOM     14  C   UNL     1      10.954  19.840 132.054  1.00  0.00     0.005 C 
ATOM     15  C   UNL     1      10.605  20.663 130.794  1.00  0.00     0.003 C 
ATOM     16  C   UNL     1       9.066  21.161 130.810  1.00  0.00     0.000 C 
ATOM     17  C   UNL     1       8.823  22.346 129.998  1.00  0.00     0.031 C 
ATOM     18  C   UNL     1       9.268  22.119 128.621  1.00  0.00    -0.027 C 
ATOM     19  C   UNL     1      10.117  21.042 128.305  1.00  0.00    -0.065 C 
ATOM     20  C   UNL     1      10.691  19.957 129.368  1.00  0.00    -0.008 C 
ATOM     21  C   UNL     1       9.876  18.677 129.402  1.00  0.00     0.014 C 
ATOM     22  C   UNL     1       9.358  18.230 127.986  1.00  0.00     0.033 C 
ATOM     23  C   UNL     1       9.060  19.320 126.868  1.00  0.00     0.118 C 
ATOM     24  C   UNL     1       9.949  20.551 126.881  1.00  0.00     0.063 C 
ATOM     25  C   UNL     1      12.194  19.651 128.983  1.00  0.00     0.016 C 
ATOM     26  C   UNL     1      11.061  22.827 133.174  1.00  0.00     0.012 C 
ATOM     27  C   UNL     1       7.254  23.608 136.066  1.00  0.00     0.014 C 
ATOM     28  O   UNL     1       4.182  21.638 133.724  1.00  0.00    -0.349 OA
ATOM     29  C   UNL     1       2.672  21.915 134.001  1.00  0.00     0.167 C 
ENDROOT
BRANCH  23  30
ATOM     30  O   UNL     1       9.248  18.657 125.633  1.00  0.00    -0.393 OA
ATOM     31  H   UNL     1       8.379  18.639 125.105  1.00  0.00     0.210 HD
ENDBRANCH  23  30
TORSDOF 1
ENDMDL
MODEL 4
REMARK VINA RESULT:    -4.675      1.622      7.931
REMARK INTER + INTRA:          -4.812
REMARK INTER:                  -4.812
REMARK INTRA:                   0.000
REMARK UNBOUND:                 0.000
REMARK SMILES C[C@@H]1CC[C@]2(OC1)O[C@H]1C[C@H]3[C@H]4CC=C5C[C@@H](O)CC[C@]5(C)[C@@H]4CC[C@]3(C)[C@H]1[C@@H]2C
REMARK SMILES IDX 1 1 2 2 3 3 4 4 5 5 29 6 28 7 9 8 8 9 10 10 11 11 26 12
REMARK SMILES IDX 25 13 24 14 23 15 12 16 13 17 14 18 15 19 21 20 20 21 19 22
REMARK SMILES IDX 17 23 16 24 22 25 27 26 30 27 6 28 7 29 18 30
REMARK H PARENT 18 31
REMARK Flexibility Score: inf
ROOT
ATOM      1  C   UNL     1       3.218  18.686 123.875  1.00  0.00     0.010 C 
ATOM      2  C   UNL     1       4.520  19.539 123.959  1.00  0.00     0.012 C 
ATOM      3  C   UNL     1       5.806  18.881 124.327  1.00  0.00     0.011 C 
ATOM      4  C   UNL     1       6.882  20.157 124.140  1.00  0.00     0.066 C 
ATOM      5  C   UNL     1       7.099  20.671 125.587  1.00  0.00     0.171 C 
ATOM      6  C   UNL     1       8.721  20.208 125.752  1.00  0.00     0.052 C 
ATOM      7  C   UNL     1       9.791  21.079 126.631  1.00  0.00     0.033 C 
ATOM      8  C   UNL     1       8.401  21.829 127.050  1.00  0.00     0.126 C 
ATOM      9  O   UNL     1       7.516  21.994 125.834  1.00  0.00    -0.346 OA
ATOM     10  C   UNL     1       7.908  20.945 128.188  1.00  0.00     0.037 C 
ATOM     11  C   UNL     1       9.266  21.029 128.999  1.00  0.00     0.002 C 
ATOM     12  C   UNL     1      10.661  21.236 128.110  1.00  0.00    -0.024 C 
ATOM     13  C   UNL     1      11.173  22.673 128.749  1.00  0.00     0.008 C 
ATOM     14  C   UNL     1      11.078  22.618 130.394  1.00  0.00     0.005 C 
ATOM     15  C   UNL     1      10.609  21.320 131.088  1.00  0.00     0.003 C 
ATOM     16  C   UNL     1       9.290  20.703 130.383  1.00  0.00     0.000 C 
ATOM     17  C   UNL     1       9.126  19.271 130.595  1.00  0.00     0.031 C 
ATOM     18  C   UNL     1       9.124  18.966 132.027  1.00  0.00    -0.027 C 
ATOM     19  C   UNL     1       9.582  19.908 132.967  1.00  0.00    -0.065 C 
ATOM     20  C   UNL     1      10.146  21.389 132.611  1.00  0.00    -0.008 C 
ATOM     21  C   UNL     1       9.093  22.472 132.758  1.00  0.00     0.014 C 
ATOM     22  C   UNL     1       8.128  22.243 133.979  1.00  0.00     0.033 C 
ATOM     23  C   UNL     1       7.808  20.766 134.473  1.00  0.00     0.118 C 
ATOM     24  C   UNL     1       8.932  19.754 134.328  1.00  0.00     0.063 C 
ATOM     25  C   UNL     1      11.378  21.677 133.560  1.00  0.00     0.016 C 
ATOM     26  C   UNL     1      12.174  20.379 128.402  1.00  0.00     0.012 C 
ATOM     27  C   UNL     1       9.563  20.424 124.321  1.00  0.00     0.014 C 
ATOM     28  O   UNL     1       5.608  20.913 126.028  1.00  0.00    -0.349 OA
ATOM     29  C   UNL     1       4.334  20.606 125.182  1.00  0.00     0.167 C 
ENDROOT
BRANCH  23  30
ATOM     30  O   UNL     1       7.501  20.886 135.848  1.00  0.00    -0.393 OA
ATOM     31  H   UNL     1       7.229  21.841 136.068  1.00  0.00     0.210 HD
ENDBRANCH  23  30
TORSDOF 1
ENDMDL
MODEL 5
REMARK VINA RESULT:    -3.854      2.387      2.943
REMARK INTER + INTRA:          -3.966
REMARK INTER:                  -3.966
REMARK INTRA:                   0.000
REMARK UNBOUND:                 0.000
REMARK SMILES C[C@@H]1CC[C@]2(OC1)O[C@H]1C[C@H]3[C@H]4CC=C5C[C@@H](O)CC[C@]5(C)[C@@H]4CC[C@]3(C)[C@H]1[C@@H]2C
REMARK SMILES IDX 1 1 2 2 3 3 4 4 5 5 29 6 28 7 9 8 8 9 10 10 11 11 26 12
REMARK SMILES IDX 25 13 24 14 23 15 12 16 13 17 14 18 15 19 21 20 20 21 19 22
REMARK SMILES IDX 17 23 16 24 22 25 27 26 30 27 6 28 7 29 18 30
REMARK H PARENT 18 31
REMARK Flexibility Score: inf
ROOT
ATOM      1  C   UNL     1       9.355  17.669 136.145  1.00  0.00     0.010 C 
ATOM      2  C   UNL     1      10.250  18.503 135.179  1.00  0.00     0.012 C 
ATOM      3  C   UNL     1       9.768  19.826 134.691  1.00  0.00     0.011 C 
ATOM      4  C   UNL     1      11.111  20.358 133.833  1.00  0.00     0.066 C 
ATOM      5  C   UNL     1      10.754  20.042 132.357  1.00  0.00     0.171 C 
ATOM      6  C   UNL     1      10.609  21.640 131.811  1.00  0.00     0.052 C 
ATOM      7  C   UNL     1      11.026  22.083 130.293  1.00  0.00     0.033 C 
ATOM      8  C   UNL     1      11.120  20.459 130.151  1.00  0.00     0.126 C 
ATOM      9  O   UNL     1      11.760  19.867 131.387  1.00  0.00    -0.346 OA
ATOM     10  C   UNL     1       9.673  20.095 129.843  1.00  0.00     0.037 C 
ATOM     11  C   UNL     1       9.553  21.108 128.631  1.00  0.00     0.002 C 
ATOM     12  C   UNL     1      10.494  22.483 128.703  1.00  0.00    -0.024 C 
ATOM     13  C   UNL     1      11.390  22.264 127.331  1.00  0.00     0.008 C 
ATOM     14  C   UNL     1      10.404  21.837 126.082  1.00  0.00     0.005 C 
ATOM     15  C   UNL     1       8.878  21.749 126.310  1.00  0.00     0.003 C 
ATOM     16  C   UNL     1       8.518  20.948 127.669  1.00  0.00     0.000 C 
ATOM     17  C   UNL     1       7.216  21.290 128.226  1.00  0.00     0.031 C 
ATOM     18  C   UNL     1       6.166  21.087 127.225  1.00  0.00    -0.027 C 
ATOM     19  C   UNL     1       6.486  20.939 125.863  1.00  0.00    -0.065 C 
ATOM     20  C   UNL     1       7.986  20.970 125.243  1.00  0.00    -0.008 C 
ATOM     21  C   UNL     1       8.567  19.583 125.033  1.00  0.00     0.014 C 
ATOM     22  C   UNL     1       7.507  18.532 124.539  1.00  0.00     0.033 C 
ATOM     23  C   UNL     1       5.980  18.689 124.952  1.00  0.00     0.118 C 
ATOM     24  C   UNL     1       5.470  20.112 125.100  1.00  0.00     0.063 C 
ATOM     25  C   UNL     1       7.928  21.763 123.875  1.00  0.00     0.016 C 
ATOM     26  C   UNL     1       9.940  24.102 128.281  1.00  0.00     0.012 C 
ATOM     27  C   UNL     1      11.752  22.632 132.526  1.00  0.00     0.014 C 
ATOM     28  O   UNL     1      10.407  18.511 132.471  1.00  0.00    -0.349 OA
ATOM     29  C   UNL     1      10.384  17.666 133.782  1.00  0.00     0.167 C 
ENDROOT
BRANCH  23  30
ATOM     30  O   UNL     1       5.243  18.065 123.919  1.00  0.00    -0.393 OA
ATOM     31  H   UNL     1       4.253  18.286 124.006  1.00  0.00     0.210 HD
ENDBRANCH  23  30
TORSDOF 1
ENDMDL
MODEL 6
REMARK VINA RESULT:    -3.768      2.973      3.767
REMARK INTER + INTRA:          -3.878
REMARK INTER:                  -3.878
REMARK INTRA:                   0.000
REMARK UNBOUND:                 0.000
REMARK SMILES C[C@@H]1CC[C@]2(OC1)O[C@H]1C[C@H]3[C@H]4CC=C5C[C@@H](O)CC[C@]5(C)[C@@H]4CC[C@]3(C)[C@H]1[C@@H]2C
REMARK SMILES IDX 1 1 2 2 3 3 4 4 5 5 29 6 28 7 9 8 8 9 10 10 11 11 26 12
REMARK SMILES IDX 25 13 24 14 23 15 12 16 13 17 14 18 15 19 21 20 20 21 19 22
REMARK SMILES IDX 17 23 16 24 22 25 27 26 30 27 6 28 7 29 18 30
REMARK H PARENT 18 31
REMARK Flexibility Score: inf
ROOT
ATOM      1  C   UNL     1       9.912  17.980 134.967  1.00  0.00     0.010 C 
ATOM      2  C   UNL     1      10.662  18.288 133.635  1.00  0.00     0.012 C 
ATOM      3  C   UNL     1      10.881  19.704 133.227  1.00  0.00     0.011 C 
ATOM      4  C   UNL     1      11.824  19.499 131.852  1.00  0.00     0.066 C 
ATOM      5  C   UNL     1      10.813  19.653 130.686  1.00  0.00     0.171 C 
ATOM      6  C   UNL     1      11.409  21.110 130.059  1.00  0.00     0.052 C 
ATOM      7  C   UNL     1      11.376  21.448 128.459  1.00  0.00     0.033 C 
ATOM      8  C   UNL     1      10.461  20.096 128.483  1.00  0.00     0.126 C 
ATOM      9  O   UNL     1      11.065  19.078 129.424  1.00  0.00    -0.346 OA
ATOM     10  C   UNL     1       9.087  20.662 128.817  1.00  0.00     0.037 C 
ATOM     11  C   UNL     1       9.110  21.725 127.642  1.00  0.00     0.002 C 
ATOM     12  C   UNL     1      10.603  22.299 127.175  1.00  0.00    -0.024 C 
ATOM     13  C   UNL     1      10.595  21.808 125.596  1.00  0.00     0.008 C 
ATOM     14  C   UNL     1       9.153  22.196 124.898  1.00  0.00     0.005 C 
ATOM     15  C   UNL     1       8.087  22.955 125.719  1.00  0.00     0.003 C 
ATOM     16  C   UNL     1       7.896  22.315 127.193  1.00  0.00     0.000 C 
ATOM     17  C   UNL     1       7.365  23.251 128.175  1.00  0.00     0.031 C 
ATOM     18  C   UNL     1       6.101  23.821 127.703  1.00  0.00    -0.027 C 
ATOM     19  C   UNL     1       5.720  23.713 126.353  1.00  0.00    -0.065 C 
ATOM     20  C   UNL     1       6.584  22.978 125.191  1.00  0.00    -0.008 C 
ATOM     21  C   UNL     1       6.131  21.552 124.932  1.00  0.00     0.014 C 
ATOM     22  C   UNL     1       4.571  21.367 125.024  1.00  0.00     0.033 C 
ATOM     23  C   UNL     1       3.716  22.300 125.986  1.00  0.00     0.118 C 
ATOM     24  C   UNL     1       4.217  23.724 126.157  1.00  0.00     0.063 C 
ATOM     25  C   UNL     1       6.465  23.848 123.875  1.00  0.00     0.016 C 
ATOM     26  C   UNL     1      10.964  23.988 126.820  1.00  0.00     0.012 C 
ATOM     27  C   UNL     1      13.080  21.168 130.142  1.00  0.00     0.014 C 
ATOM     28  O   UNL     1       9.731  18.589 131.106  1.00  0.00    -0.349 OA
ATOM     29  C   UNL     1       9.740  17.729 132.408  1.00  0.00     0.167 C 
ENDROOT
BRANCH  23  30
ATOM     30  O   UNL     1       2.426  22.356 125.410  1.00  0.00    -0.393 OA
ATOM     31  H   UNL     1       2.437  21.948 124.477  1.00  0.00     0.210 HD
ENDBRANCH  23  30
TORSDOF 1
ENDMDL
