MODEL 1
REMARK VINA RESULT:     6.712      0.000      0.000
REMARK INTER + INTRA:          14.106
REMARK INTER:                  15.344
REMARK INTRA:                  -1.238
REMARK UNBOUND:                -1.238
REMARK SMILES CCCCCCCCCCCCCCCCCCCCCCCC(=O)[O-]
REMARK SMILES IDX 13 1 14 2 15 3 16 4 17 5 18 6 19 7 20 8 21 9 22 10 23 11
REMARK SMILES IDX 24 12 25 13 26 14 12 15 11 16 10 17 9 18 8 19 7 20 6 21 5 22
REMARK SMILES IDX 4 23 3 24 2 25 1 26
REMARK H PARENT
REMARK Flexibility Score: inf
ROOT
ATOM      1  C   UNL     1      14.110  17.199  -6.470  1.00  0.00     0.000 C 
ENDROOT
BRANCH   1   2
ATOM      2  C   UNL     1      12.787  17.517  -5.753  1.00  0.00     0.000 C 
BRANCH   2   3
ATOM      3  C   UNL     1      11.832  16.312  -5.708  1.00  0.00     0.000 C 
BRANCH   3   4
ATOM      4  C   UNL     1      11.762  15.664  -4.314  1.00  0.00     0.000 C 
BRANCH   4   5
ATOM      5  C   UNL     1      10.953  14.354  -4.306  1.00  0.00     0.000 C 
BRANCH   5   6
ATOM      6  C   UNL     1      11.076  13.513  -3.019  1.00  0.00     0.000 C 
BRANCH   6   7
ATOM      7  C   UNL     1      11.023  14.313  -1.705  1.00  0.00     0.000 C 
BRANCH   7   8
ATOM      8  C   UNL     1      10.473  13.494  -0.528  1.00  0.00     0.000 C 
BRANCH   8   9
ATOM      9  C   UNL     1      11.566  13.233   0.518  1.00  0.00     0.000 C 
BRANCH   9  10
ATOM     10  C   UNL     1      11.344  14.020   1.820  1.00  0.00     0.006 C 
BRANCH  10  11
ATOM     11  C   UNL     1       9.931  14.610   1.923  1.00  0.00     0.053 C 
BRANCH  11  12
ATOM     12  C   UNL     1       9.972  16.102   1.798  1.00  0.00     0.041 C 
ATOM     13  O   UNL     1      11.043  16.682   1.474  1.00  0.00    -0.550 OA
ATOM     14  O   UNL     1       8.826  16.852   2.038  1.00  0.00    -0.550 OA
ENDBRANCH  11  12
ENDBRANCH  10  11
ENDBRANCH   9  10
ENDBRANCH   8   9
ENDBRANCH   7   8
ENDBRANCH   6   7
ENDBRANCH   5   6
ENDBRANCH   4   5
ENDBRANCH   3   4
ENDBRANCH   2   3
ENDBRANCH   1   2
BRANCH   1  15
ATOM     15  C   UNL     1      13.927  16.240  -7.660  1.00  0.00     0.000 C 
BRANCH  15  16
ATOM     16  C   UNL     1      15.200  15.486  -8.096  1.00  0.00     0.000 C 
BRANCH  16  17
ATOM     17  C   UNL     1      15.701  15.817  -9.514  1.00  0.00     0.000 C 
BRANCH  17  18
ATOM     18  C   UNL     1      14.785  15.264 -10.616  1.00  0.00    -0.000 C 
BRANCH  18  19
ATOM     19  C   UNL     1      15.601  14.532 -11.692  1.00  0.00    -0.000 C 
BRANCH  19  20
ATOM     20  C   UNL     1      16.072  15.460 -12.827  1.00  0.00    -0.000 C 
BRANCH  20  21
ATOM     21  C   UNL     1      17.592  15.457 -13.085  1.00  0.00    -0.000 C 
BRANCH  21  22
ATOM     22  C   UNL     1      18.294  16.811 -12.865  1.00  0.00    -0.000 C 
BRANCH  22  23
ATOM     23  C   UNL     1      17.925  17.530 -11.551  1.00  0.00    -0.000 C 
BRANCH  23  24
ATOM     24  C   UNL     1      18.726  18.812 -11.265  1.00  0.00    -0.000 C 
BRANCH  24  25
ATOM     25  C   UNL     1      18.736  19.789 -12.450  1.00  0.00    -0.003 C 
ATOM     26  C   UNL     1      19.811  20.856 -12.275  1.00  0.00     0.004 C 
ENDBRANCH  24  25
ENDBRANCH  23  24
ENDBRANCH  22  23
ENDBRANCH  21  22
ENDBRANCH  20  21
ENDBRANCH  19  20
ENDBRANCH  18  19
ENDBRANCH  17  18
ENDBRANCH  16  17
ENDBRANCH  15  16
ENDBRANCH   1  15
TORSDOF 22
ENDMDL
MODEL 2
REMARK VINA RESULT:     7.288      4.891     12.632
REMARK INTER + INTRA:          15.423
REMARK INTER:                  16.719
REMARK INTRA:                  -1.296
REMARK UNBOUND:                -1.238
REMARK SMILES CCCCCCCCCCCCCCCCCCCCCCCC(=O)[O-]
REMARK SMILES IDX 13 1 14 2 15 3 16 4 17 5 18 6 19 7 20 8 21 9 22 10 23 11
REMARK SMILES IDX 24 12 25 13 26 14 12 15 11 16 10 17 9 18 8 19 7 20 6 21 5 22
REMARK SMILES IDX 4 23 3 24 2 25 1 26
REMARK H PARENT
REMARK Flexibility Score: inf
ROOT
ATOM      1  C   UNL     1      13.790  16.650  -7.524  1.00  0.00     0.000 C 
ENDROOT
BRANCH   1   2
ATOM      2  C   UNL     1      14.925  15.629  -7.710  1.00  0.00     0.000 C 
BRANCH   2   3
ATOM      3  C   UNL     1      15.478  15.614  -9.145  1.00  0.00     0.000 C 
BRANCH   3   4
ATOM      4  C   UNL     1      14.447  15.116 -10.171  1.00  0.00     0.000 C 
BRANCH   4   5
ATOM      5  C   UNL     1      15.094  14.382 -11.360  1.00  0.00     0.000 C 
BRANCH   5   6
ATOM      6  C   UNL     1      15.676  15.293 -12.460  1.00  0.00     0.000 C 
BRANCH   6   7
ATOM      7  C   UNL     1      17.009  14.818 -13.067  1.00  0.00     0.000 C 
BRANCH   7   8
ATOM      8  C   UNL     1      18.038  15.949 -13.207  1.00  0.00     0.000 C 
BRANCH   8   9
ATOM      9  C   UNL     1      17.930  16.938 -12.036  1.00  0.00     0.000 C 
BRANCH   9  10
ATOM     10  C   UNL     1      19.053  17.987 -12.038  1.00  0.00     0.006 C 
BRANCH  10  11
ATOM     11  C   UNL     1      18.625  19.315 -11.397  1.00  0.00     0.053 C 
BRANCH  11  12
ATOM     12  C   UNL     1      18.673  20.425 -12.402  1.00  0.00     0.041 C 
ATOM     13  O   UNL     1      19.596  21.282 -12.357  1.00  0.00    -0.550 OA
ATOM     14  O   UNL     1      17.698  20.511 -13.389  1.00  0.00    -0.550 OA
ENDBRANCH  11  12
ENDBRANCH  10  11
ENDBRANCH   9  10
ENDBRANCH   8   9
ENDBRANCH   7   8
ENDBRANCH   6   7
ENDBRANCH   5   6
ENDBRANCH   4   5
ENDBRANCH   3   4
ENDBRANCH   2   3
ENDBRANCH   1   2
BRANCH   1  15
ATOM     15  C   UNL     1      13.700  17.188  -6.084  1.00  0.00     0.000 C 
BRANCH  15  16
ATOM     16  C   UNL     1      12.330  17.006  -5.400  1.00  0.00     0.000 C 
BRANCH  16  17
ATOM     17  C   UNL     1      11.804  15.559  -5.366  1.00  0.00     0.000 C 
BRANCH  17  18
ATOM     18  C   UNL     1      10.836  15.303  -4.202  1.00  0.00    -0.000 C 
BRANCH  18  19
ATOM     19  C   UNL     1      11.137  13.959  -3.522  1.00  0.00    -0.000 C 
BRANCH  19  20
ATOM     20  C   UNL     1      10.659  13.902  -2.060  1.00  0.00    -0.000 C 
BRANCH  20  21
ATOM     21  C   UNL     1      11.784  13.845  -1.007  1.00  0.00    -0.000 C 
BRANCH  21  22
ATOM     22  C   UNL     1      11.409  13.142   0.312  1.00  0.00    -0.000 C 
BRANCH  22  23
ATOM     23  C   UNL     1      11.383  14.057   1.553  1.00  0.00    -0.000 C 
BRANCH  23  24
ATOM     24  C   UNL     1       9.994  14.601   1.930  1.00  0.00    -0.000 C 
BRANCH  24  25
ATOM     25  C   UNL     1       9.900  16.130   1.817  1.00  0.00    -0.003 C 
ATOM     26  C   UNL     1      11.267  16.746   1.537  1.00  0.00     0.004 C 
ENDBRANCH  24  25
ENDBRANCH  23  24
ENDBRANCH  22  23
ENDBRANCH  21  22
ENDBRANCH  20  21
ENDBRANCH  19  20
ENDBRANCH  18  19
ENDBRANCH  17  18
ENDBRANCH  16  17
ENDBRANCH  15  16
ENDBRANCH   1  15
TORSDOF 22
ENDMDL
