MODEL 1
REMARK VINA RESULT:    -4.455      0.000      0.000
REMARK INTER + INTRA:          -6.063
REMARK INTER:                  -6.017
REMARK INTRA:                  -0.046
REMARK UNBOUND:                -0.046
REMARK SMILES [NH3+]CCCC[C@@H]([NH3+])C(=O)[O-]
REMARK SMILES IDX 4 1 3 2 2 3 1 4 5 8 6 9 7 10 8 14 9 15 10 16
REMARK H PARENT 1 5 1 6 1 7 7 11 7 12 7 13
REMARK Flexibility Score: inf
ROOT
ATOM      1  C   UNL     1     203.162 203.065 240.072  1.00  0.00     0.012 C 
ENDROOT
BRANCH   1   2
ATOM      2  C   UNL     1     204.143 202.673 238.957  1.00  0.00     0.061 C 
BRANCH   2   3
ATOM      3  C   UNL     1     204.084 203.629 237.754  1.00  0.00     0.258 C 
BRANCH   3   4
ATOM      4  N   UNL     1     204.937 203.182 236.650  1.00  0.00    -0.358 N 
ATOM      5  H   UNL     1     205.596 203.953 236.397  1.00  0.00     0.344 HD
ATOM      6  H   UNL     1     205.500 202.351 236.940  1.00  0.00     0.344 HD
ATOM      7  H   UNL     1     204.357 202.948 235.812  1.00  0.00     0.344 HD
ENDBRANCH   3   4
ENDBRANCH   2   3
ENDBRANCH   1   2
BRANCH   1   8
ATOM      8  C   UNL     1     203.900 203.265 241.407  1.00  0.00     0.072 C 
BRANCH   8   9
ATOM      9  C   UNL     1     202.981 203.260 242.650  1.00  0.00     0.227 C 
BRANCH   9  10
ATOM     10  N   UNL     1     201.657 203.827 242.360  1.00  0.00    -0.350 N 
ATOM     11  H   UNL     1     200.909 203.169 242.680  1.00  0.00     0.345 HD
ATOM     12  H   UNL     1     201.554 203.961 241.328  1.00  0.00     0.345 HD
ATOM     13  H   UNL     1     201.524 204.751 242.830  1.00  0.00     0.345 HD
ENDBRANCH   9  10
BRANCH   9  14
ATOM     14  C   UNL     1     202.868 201.880 243.249  1.00  0.00     0.099 C 
ATOM     15  O   UNL     1     202.405 200.934 242.560  1.00  0.00    -0.544 OA
ATOM     16  O   UNL     1     203.222 201.649 244.574  1.00  0.00    -0.544 OA
ENDBRANCH   9  14
ENDBRANCH   8   9
ENDBRANCH   1   8
TORSDOF 7
ENDMDL
MODEL 2
REMARK VINA RESULT:    -4.448      1.959      2.007
REMARK INTER + INTRA:          -6.054
REMARK INTER:                  -5.986
REMARK INTRA:                  -0.068
REMARK UNBOUND:                -0.046
REMARK SMILES [NH3+]CCCC[C@@H]([NH3+])C(=O)[O-]
REMARK SMILES IDX 4 1 3 2 2 3 1 4 5 8 6 9 7 10 8 14 9 15 10 16
REMARK H PARENT 1 5 1 6 1 7 7 11 7 12 7 13
REMARK Flexibility Score: inf
ROOT
ATOM      1  C   UNL     1     203.985 202.646 239.788  1.00  0.00     0.012 C 
ENDROOT
BRANCH   1   2
ATOM      2  C   UNL     1     202.844 202.945 238.805  1.00  0.00     0.061 C 
BRANCH   2   3
ATOM      3  C   UNL     1     202.888 202.050 237.556  1.00  0.00     0.258 C 
BRANCH   3   4
ATOM      4  N   UNL     1     202.136 202.622 236.438  1.00  0.00    -0.358 N 
ATOM      5  H   UNL     1     202.198 203.665 236.486  1.00  0.00     0.344 HD
ATOM      6  H   UNL     1     202.545 202.312 235.528  1.00  0.00     0.344 HD
ATOM      7  H   UNL     1     201.130 202.343 236.494  1.00  0.00     0.344 HD
ENDBRANCH   3   4
ENDBRANCH   2   3
ENDBRANCH   1   2
BRANCH   1   8
ATOM      8  C   UNL     1     203.594 203.046 241.221  1.00  0.00     0.072 C 
BRANCH   8   9
ATOM      9  C   UNL     1     203.879 201.961 242.286  1.00  0.00     0.227 C 
BRANCH   9  10
ATOM     10  N   UNL     1     205.308 201.876 242.619  1.00  0.00    -0.350 N 
ATOM     11  H   UNL     1     205.425 201.521 243.596  1.00  0.00     0.345 HD
ATOM     12  H   UNL     1     205.734 202.830 242.565  1.00  0.00     0.345 HD
ATOM     13  H   UNL     1     205.818 201.245 241.960  1.00  0.00     0.345 HD
ENDBRANCH   9  10
BRANCH   9  14
ATOM     14  C   UNL     1     203.039 202.163 243.522  1.00  0.00     0.099 C 
ATOM     15  O   UNL     1     202.076 202.975 243.500  1.00  0.00    -0.544 OA
ATOM     16  O   UNL     1     203.343 201.500 244.705  1.00  0.00    -0.544 OA
ENDBRANCH   9  14
ENDBRANCH   8   9
ENDBRANCH   1   8
TORSDOF 7
ENDMDL
MODEL 3
REMARK VINA RESULT:    -4.414      2.038      2.251
REMARK INTER + INTRA:          -6.008
REMARK INTER:                  -5.930
REMARK INTRA:                  -0.078
REMARK UNBOUND:                -0.046
REMARK SMILES [NH3+]CCCC[C@@H]([NH3+])C(=O)[O-]
REMARK SMILES IDX 4 1 3 2 2 3 1 4 5 8 6 9 7 10 8 14 9 15 10 16
REMARK H PARENT 1 5 1 6 1 7 7 11 7 12 7 13
REMARK Flexibility Score: inf
ROOT
ATOM      1  C   UNL     1     204.056 202.477 239.784  1.00  0.00     0.012 C 
ENDROOT
BRANCH   1   2
ATOM      2  C   UNL     1     203.086 202.853 238.654  1.00  0.00     0.061 C 
BRANCH   2   3
ATOM      3  C   UNL     1     203.689 203.868 237.669  1.00  0.00     0.258 C 
BRANCH   3   4
ATOM      4  N   UNL     1     204.811 203.306 236.914  1.00  0.00    -0.358 N 
ATOM      5  H   UNL     1     205.204 202.495 237.444  1.00  0.00     0.344 HD
ATOM      6  H   UNL     1     204.487 202.963 235.982  1.00  0.00     0.344 HD
ATOM      7  H   UNL     1     205.563 204.022 236.791  1.00  0.00     0.344 HD
ENDBRANCH   3   4
ENDBRANCH   2   3
ENDBRANCH   1   2
BRANCH   1   8
ATOM      8  C   UNL     1     203.550 203.002 241.139  1.00  0.00     0.072 C 
BRANCH   8   9
ATOM      9  C   UNL     1     204.135 202.265 242.366  1.00  0.00     0.227 C 
BRANCH   9  10
ATOM     10  N   UNL     1     205.421 201.623 242.063  1.00  0.00    -0.350 N 
ATOM     11  H   UNL     1     206.209 202.240 242.371  1.00  0.00     0.345 HD
ATOM     12  H   UNL     1     205.504 201.480 241.030  1.00  0.00     0.345 HD
ATOM     13  H   UNL     1     205.507 200.696 242.536  1.00  0.00     0.345 HD
ENDBRANCH   9  10
BRANCH   9  14
ATOM     14  C   UNL     1     204.246 203.181 243.560  1.00  0.00     0.099 C 
ATOM     15  O   UNL     1     204.518 202.703 244.693  1.00  0.00    -0.544 OA
ATOM     16  O   UNL     1     204.003 204.544 243.437  1.00  0.00    -0.544 OA
ENDBRANCH   9  14
ENDBRANCH   8   9
ENDBRANCH   1   8
TORSDOF 7
ENDMDL
MODEL 4
REMARK VINA RESULT:    -4.406      1.973      2.203
REMARK INTER + INTRA:          -5.997
REMARK INTER:                  -5.838
REMARK INTRA:                  -0.159
REMARK UNBOUND:                -0.046
REMARK SMILES [NH3+]CCCC[C@@H]([NH3+])C(=O)[O-]
REMARK SMILES IDX 4 1 3 2 2 3 1 4 5 8 6 9 7 10 8 14 9 15 10 16
REMARK H PARENT 1 5 1 6 1 7 7 11 7 12 7 13
REMARK Flexibility Score: inf
ROOT
ATOM      1  C   UNL     1     203.988 203.409 239.560  1.00  0.00     0.012 C 
ENDROOT
BRANCH   1   2
ATOM      2  C   UNL     1     204.175 202.845 238.143  1.00  0.00     0.061 C 
BRANCH   2   3
ATOM      3  C   UNL     1     203.050 201.880 237.737  1.00  0.00     0.258 C 
BRANCH   3   4
ATOM      4  N   UNL     1     202.214 202.424 236.665  1.00  0.00    -0.358 N 
ATOM      5  H   UNL     1     201.256 202.012 236.739  1.00  0.00     0.344 HD
ATOM      6  H   UNL     1     202.134 203.461 236.758  1.00  0.00     0.344 HD
ATOM      7  H   UNL     1     202.614 202.177 235.730  1.00  0.00     0.344 HD
ENDBRANCH   3   4
ENDBRANCH   2   3
ENDBRANCH   1   2
BRANCH   1   8
ATOM      8  C   UNL     1     203.283 202.387 240.468  1.00  0.00     0.072 C 
BRANCH   8   9
ATOM      9  C   UNL     1     202.934 202.921 241.877  1.00  0.00     0.227 C 
BRANCH   9  10
ATOM     10  N   UNL     1     202.147 201.955 242.654  1.00  0.00    -0.350 N 
ATOM     11  H   UNL     1     202.068 202.276 243.647  1.00  0.00     0.345 HD
ATOM     12  H   UNL     1     202.631 201.028 242.649  1.00  0.00     0.345 HD
ATOM     13  H   UNL     1     201.188 201.833 242.256  1.00  0.00     0.345 HD
ENDBRANCH   9  10
BRANCH   9  14
ATOM     14  C   UNL     1     204.169 203.353 242.628  1.00  0.00     0.099 C 
ATOM     15  O   UNL     1     204.361 204.574 242.870  1.00  0.00    -0.544 OA
ATOM     16  O   UNL     1     205.128 202.424 243.014  1.00  0.00    -0.544 OA
ENDBRANCH   9  14
ENDBRANCH   8   9
ENDBRANCH   1   8
TORSDOF 7
ENDMDL
MODEL 5
REMARK VINA RESULT:    -4.322     10.625     11.176
REMARK INTER + INTRA:          -5.884
REMARK INTER:                  -5.412
REMARK INTRA:                  -0.473
REMARK UNBOUND:                -0.046
REMARK SMILES [NH3+]CCCC[C@@H]([NH3+])C(=O)[O-]
REMARK SMILES IDX 4 1 3 2 2 3 1 4 5 8 6 9 7 10 8 14 9 15 10 16
REMARK H PARENT 1 5 1 6 1 7 7 11 7 12 7 13
REMARK Flexibility Score: inf
ROOT
ATOM      1  C   UNL     1     204.828 202.999 229.857  1.00  0.00     0.012 C 
ENDROOT
BRANCH   1   2
ATOM      2  C   UNL     1     205.195 204.148 230.807  1.00  0.00     0.061 C 
BRANCH   2   3
ATOM      3  C   UNL     1     204.904 205.532 230.204  1.00  0.00     0.258 C 
BRANCH   3   4
ATOM      4  N   UNL     1     203.619 206.072 230.653  1.00  0.00    -0.358 N 
ATOM      5  H   UNL     1     202.897 205.886 229.919  1.00  0.00     0.344 HD
ATOM      6  H   UNL     1     203.316 205.604 231.536  1.00  0.00     0.344 HD
ATOM      7  H   UNL     1     203.688 207.105 230.800  1.00  0.00     0.344 HD
ENDBRANCH   3   4
ENDBRANCH   2   3
ENDBRANCH   1   2
BRANCH   1   8
ATOM      8  C   UNL     1     203.868 202.009 230.538  1.00  0.00     0.072 C 
BRANCH   8   9
ATOM      9  C   UNL     1     202.468 201.926 229.886  1.00  0.00     0.227 C 
BRANCH   9  10
ATOM     10  N   UNL     1     201.866 200.595 230.038  1.00  0.00    -0.350 N 
ATOM     11  H   UNL     1     201.272 200.568 230.898  1.00  0.00     0.345 HD
ATOM     12  H   UNL     1     202.624 199.881 230.142  1.00  0.00     0.345 HD
ATOM     13  H   UNL     1     201.282 200.342 229.209  1.00  0.00     0.345 HD
ENDBRANCH   9  10
BRANCH   9  14
ATOM     14  C   UNL     1     201.551 203.006 230.405  1.00  0.00     0.099 C 
ATOM     15  O   UNL     1     201.479 204.109 229.804  1.00  0.00    -0.544 OA
ATOM     16  O   UNL     1     200.818 202.816 231.571  1.00  0.00    -0.544 OA
ENDBRANCH   9  14
ENDBRANCH   8   9
ENDBRANCH   1   8
TORSDOF 7
ENDMDL
MODEL 6
REMARK VINA RESULT:    -4.317     10.406     11.213
REMARK INTER + INTRA:          -5.878
REMARK INTER:                  -5.639
REMARK INTRA:                  -0.239
REMARK UNBOUND:                -0.046
REMARK SMILES [NH3+]CCCC[C@@H]([NH3+])C(=O)[O-]
REMARK SMILES IDX 4 1 3 2 2 3 1 4 5 8 6 9 7 10 8 14 9 15 10 16
REMARK H PARENT 1 5 1 6 1 7 7 11 7 12 7 13
REMARK Flexibility Score: inf
ROOT
ATOM      1  C   UNL     1     202.804 202.999 229.625  1.00  0.00     0.012 C 
ENDROOT
BRANCH   1   2
ATOM      2  C   UNL     1     202.430 201.962 230.694  1.00  0.00     0.061 C 
BRANCH   2   3
ATOM      3  C   UNL     1     202.445 200.523 230.154  1.00  0.00     0.258 C 
BRANCH   3   4
ATOM      4  N   UNL     1     203.577 199.750 230.668  1.00  0.00    -0.358 N 
ATOM      5  H   UNL     1     203.299 199.298 231.569  1.00  0.00     0.344 HD
ATOM      6  H   UNL     1     203.841 198.998 229.993  1.00  0.00     0.344 HD
ATOM      7  H   UNL     1     204.396 200.376 230.845  1.00  0.00     0.344 HD
ENDBRANCH   3   4
ENDBRANCH   2   3
ENDBRANCH   1   2
BRANCH   1   8
ATOM      8  C   UNL     1     204.324 203.018 229.388  1.00  0.00     0.072 C 
BRANCH   8   9
ATOM      9  C   UNL     1     205.166 203.238 230.667  1.00  0.00     0.227 C 
BRANCH   9  10
ATOM     10  N   UNL     1     206.563 202.822 230.487  1.00  0.00    -0.350 N 
ATOM     11  H   UNL     1     206.636 201.780 230.550  1.00  0.00     0.345 HD
ATOM     12  H   UNL     1     207.150 203.237 231.247  1.00  0.00     0.345 HD
ATOM     13  H   UNL     1     206.941 203.137 229.565  1.00  0.00     0.345 HD
ENDBRANCH   9  10
BRANCH   9  14
ATOM     14  C   UNL     1     205.076 204.664 231.151  1.00  0.00     0.099 C 
ATOM     15  O   UNL     1     205.252 205.613 230.342  1.00  0.00    -0.544 OA
ATOM     16  O   UNL     1     204.849 204.947 232.492  1.00  0.00    -0.544 OA
ENDBRANCH   9  14
ENDBRANCH   8   9
ENDBRANCH   1   8
TORSDOF 7
ENDMDL
MODEL 7
REMARK VINA RESULT:    -4.312      3.367      4.894
REMARK INTER + INTRA:          -5.871
REMARK INTER:                  -5.691
REMARK INTRA:                  -0.180
REMARK UNBOUND:                -0.046
REMARK SMILES [NH3+]CCCC[C@@H]([NH3+])C(=O)[O-]
REMARK SMILES IDX 4 1 3 2 2 3 1 4 5 8 6 9 7 10 8 14 9 15 10 16
REMARK H PARENT 1 5 1 6 1 7 7 11 7 12 7 13
REMARK Flexibility Score: inf
ROOT
ATOM      1  C   UNL     1     203.906 203.105 241.584  1.00  0.00     0.012 C 
ENDROOT
BRANCH   1   2
ATOM      2  C   UNL     1     204.021 201.877 242.499  1.00  0.00     0.061 C 
BRANCH   2   3
ATOM      3  C   UNL     1     202.654 201.377 242.993  1.00  0.00     0.258 C 
BRANCH   3   4
ATOM      4  N   UNL     1     202.109 200.321 242.138  1.00  0.00    -0.358 N 
ATOM      5  H   UNL     1     201.075 200.264 242.287  1.00  0.00     0.344 HD
ATOM      6  H   UNL     1     202.283 200.542 241.132  1.00  0.00     0.344 HD
ATOM      7  H   UNL     1     202.534 199.398 242.382  1.00  0.00     0.344 HD
ENDBRANCH   3   4
ENDBRANCH   2   3
ENDBRANCH   1   2
BRANCH   1   8
ATOM      8  C   UNL     1     204.327 202.759 240.145  1.00  0.00     0.072 C 
BRANCH   8   9
ATOM      9  C   UNL     1     203.159 202.341 239.222  1.00  0.00     0.227 C 
BRANCH   9  10
ATOM     10  N   UNL     1     202.087 203.345 239.200  1.00  0.00    -0.350 N 
ATOM     11  H   UNL     1     201.668 203.441 240.154  1.00  0.00     0.345 HD
ATOM     12  H   UNL     1     201.334 203.035 238.543  1.00  0.00     0.345 HD
ATOM     13  H   UNL     1     202.440 204.277 238.885  1.00  0.00     0.345 HD
ENDBRANCH   9  10
BRANCH   9  14
ATOM     14  C   UNL     1     203.641 202.022 237.829  1.00  0.00     0.099 C 
ATOM     15  O   UNL     1     203.510 200.856 237.372  1.00  0.00    -0.544 OA
ATOM     16  O   UNL     1     204.275 202.988 237.057  1.00  0.00    -0.544 OA
ENDBRANCH   9  14
ENDBRANCH   8   9
ENDBRANCH   1   8
TORSDOF 7
ENDMDL
MODEL 8
REMARK VINA RESULT:    -4.274     10.100     10.988
REMARK INTER + INTRA:          -5.819
REMARK INTER:                  -5.559
REMARK INTRA:                  -0.260
REMARK UNBOUND:                -0.046
REMARK SMILES [NH3+]CCCC[C@@H]([NH3+])C(=O)[O-]
REMARK SMILES IDX 4 1 3 2 2 3 1 4 5 8 6 9 7 10 8 14 9 15 10 16
REMARK H PARENT 1 5 1 6 1 7 7 11 7 12 7 13
REMARK Flexibility Score: inf
ROOT
ATOM      1  C   UNL     1     203.703 203.854 229.856  1.00  0.00     0.012 C 
ENDROOT
BRANCH   1   2
ATOM      2  C   UNL     1     202.538 204.175 230.805  1.00  0.00     0.061 C 
BRANCH   2   3
ATOM      3  C   UNL     1     201.168 204.067 230.116  1.00  0.00     0.258 C 
BRANCH   3   4
ATOM      4  N   UNL     1     200.333 203.018 230.706  1.00  0.00    -0.358 N 
ATOM      5  H   UNL     1     200.643 202.851 231.691  1.00  0.00     0.344 HD
ATOM      6  H   UNL     1     199.332 203.318 230.725  1.00  0.00     0.344 HD
ATOM      7  H   UNL     1     200.431 202.127 230.168  1.00  0.00     0.344 HD
ENDBRANCH   3   4
ENDBRANCH   2   3
ENDBRANCH   1   2
BRANCH   1   8
ATOM      8  C   UNL     1     203.734 202.355 229.512  1.00  0.00     0.072 C 
BRANCH   8   9
ATOM      9  C   UNL     1     203.809 201.421 230.742  1.00  0.00     0.227 C 
BRANCH   9  10
ATOM     10  N   UNL     1     203.399 200.047 230.418  1.00  0.00    -0.350 N 
ATOM     11  H   UNL     1     202.373 199.932 230.589  1.00  0.00     0.345 HD
ATOM     12  H   UNL     1     203.910 199.377 231.037  1.00  0.00     0.345 HD
ATOM     13  H   UNL     1     203.609 199.809 229.423  1.00  0.00     0.345 HD
ENDBRANCH   9  10
BRANCH   9  14
ATOM     14  C   UNL     1     205.177 201.450 231.377  1.00  0.00     0.099 C 
ATOM     15  O   UNL     1     205.287 201.627 232.619  1.00  0.00    -0.544 OA
ATOM     16  O   UNL     1     206.324 201.332 230.601  1.00  0.00    -0.544 OA
ENDBRANCH   9  14
ENDBRANCH   8   9
ENDBRANCH   1   8
TORSDOF 7
ENDMDL
MODEL 9
REMARK VINA RESULT:    -4.252     10.152     10.830
REMARK INTER + INTRA:          -5.790
REMARK INTER:                  -5.536
REMARK INTRA:                  -0.254
REMARK UNBOUND:                -0.046
REMARK SMILES [NH3+]CCCC[C@@H]([NH3+])C(=O)[O-]
REMARK SMILES IDX 4 1 3 2 2 3 1 4 5 8 6 9 7 10 8 14 9 15 10 16
REMARK H PARENT 1 5 1 6 1 7 7 11 7 12 7 13
REMARK Flexibility Score: inf
ROOT
ATOM      1  C   UNL     1     204.470 202.997 229.903  1.00  0.00     0.012 C 
ENDROOT
BRANCH   1   2
ATOM      2  C   UNL     1     204.818 204.169 230.832  1.00  0.00     0.061 C 
BRANCH   2   3
ATOM      3  C   UNL     1     204.599 205.537 230.166  1.00  0.00     0.258 C 
BRANCH   3   4
ATOM      4  N   UNL     1     203.614 206.350 230.884  1.00  0.00    -0.358 N 
ATOM      5  H   UNL     1     203.047 206.888 230.189  1.00  0.00     0.344 HD
ATOM      6  H   UNL     1     202.968 205.739 231.431  1.00  0.00     0.344 HD
ATOM      7  H   UNL     1     204.094 207.027 231.521  1.00  0.00     0.344 HD
ENDBRANCH   3   4
ENDBRANCH   2   3
ENDBRANCH   1   2
BRANCH   1   8
ATOM      8  C   UNL     1     202.994 203.057 229.474  1.00  0.00     0.072 C 
BRANCH   8   9
ATOM      9  C   UNL     1     201.986 202.877 230.633  1.00  0.00     0.227 C 
BRANCH   9  10
ATOM     10  N   UNL     1     200.623 203.265 230.245  1.00  0.00    -0.350 N 
ATOM     11  H   UNL     1     200.482 203.096 229.222  1.00  0.00     0.345 HD
ATOM     12  H   UNL     1     200.487 204.286 230.429  1.00  0.00     0.345 HD
ATOM     13  H   UNL     1     199.904 202.731 230.784  1.00  0.00     0.345 HD
ENDBRANCH   9  10
BRANCH   9  14
ATOM     14  C   UNL     1     202.020 201.473 231.184  1.00  0.00     0.099 C 
ATOM     15  O   UNL     1     202.267 201.284 232.404  1.00  0.00    -0.544 OA
ATOM     16  O   UNL     1     201.832 200.377 230.350  1.00  0.00    -0.544 OA
ENDBRANCH   9  14
ENDBRANCH   8   9
ENDBRANCH   1   8
TORSDOF 7
ENDMDL
