MODEL 1
REMARK VINA RESULT:    -5.607      0.000      0.000
REMARK INTER + INTRA:          -6.752
REMARK INTER:                  -6.590
REMARK INTRA:                  -0.162
REMARK UNBOUND:                -0.162
REMARK SMILES COc1ccc(C=CC(=O)[O-])cc1
REMARK SMILES IDX 6 1 5 2 12 3 4 4 13 5 3 6 7 7 8 8 9 9 10 10 11 11 2 12 1 13
REMARK H PARENT
REMARK Flexibility Score: inf
ROOT
ATOM      1  C   UNL     1     -33.515  11.726 -35.640  1.00  0.00    -0.025 A 
ATOM      2  C   UNL     1     -33.311  12.282 -36.913  1.00  0.00     0.012 A 
ATOM      3  C   UNL     1     -33.879  10.368 -35.543  1.00  0.00     0.012 A 
ATOM      4  C   UNL     1     -33.491  11.511 -38.066  1.00  0.00     0.047 A 
ATOM      5  C   UNL     1     -34.057   9.600 -36.696  1.00  0.00     0.047 A 
ATOM      6  C   UNL     1     -33.870  10.160 -37.963  1.00  0.00     0.118 A 
ENDROOT
BRANCH   1   7
ATOM      7  C   UNL     1     -33.302  12.584 -34.448  1.00  0.00     0.010 C 
ATOM      8  C   UNL     1     -32.347  12.366 -33.534  1.00  0.00     0.025 C 
BRANCH   8   9
ATOM      9  C   UNL     1     -32.179  13.237 -32.361  1.00  0.00     0.064 C 
ATOM     10  O   UNL     1     -31.789  14.424 -32.519  1.00  0.00    -0.545 OA
ATOM     11  O   UNL     1     -32.446  12.773 -31.078  1.00  0.00    -0.545 OA
ENDBRANCH   8   9
ENDBRANCH   1   7
BRANCH   6  12
ATOM     12  O   UNL     1     -34.063   9.346 -39.089  1.00  0.00    -0.497 OA
ATOM     13  C   UNL     1     -33.800   9.749 -40.429  1.00  0.00     0.278 C 
ENDBRANCH   6  12
TORSDOF 3
ENDMDL
MODEL 2
REMARK VINA RESULT:    -5.571      0.171      1.352
REMARK INTER + INTRA:          -6.709
REMARK INTER:                  -6.543
REMARK INTRA:                  -0.166
REMARK UNBOUND:                -0.162
REMARK SMILES COc1ccc(C=CC(=O)[O-])cc1
REMARK SMILES IDX 6 1 5 2 12 3 4 4 13 5 3 6 7 7 8 8 9 9 10 10 11 11 2 12 1 13
REMARK H PARENT
REMARK Flexibility Score: inf
ROOT
ATOM      1  C   UNL     1     -33.434  11.772 -35.677  1.00  0.00    -0.025 A 
ATOM      2  C   UNL     1     -33.824  10.433 -35.506  1.00  0.00     0.012 A 
ATOM      3  C   UNL     1     -33.257  12.265 -36.985  1.00  0.00     0.012 A 
ATOM      4  C   UNL     1     -34.008   9.596 -36.610  1.00  0.00     0.047 A 
ATOM      5  C   UNL     1     -33.443  11.426 -38.088  1.00  0.00     0.047 A 
ATOM      6  C   UNL     1     -33.815  10.091 -37.914  1.00  0.00     0.118 A 
ENDROOT
BRANCH   1   7
ATOM      7  C   UNL     1     -33.261  12.621 -34.472  1.00  0.00     0.010 C 
ATOM      8  C   UNL     1     -32.313  12.417 -33.547  1.00  0.00     0.025 C 
BRANCH   8   9
ATOM      9  C   UNL     1     -32.186  13.278 -32.361  1.00  0.00     0.064 C 
ATOM     10  O   UNL     1     -31.774  14.460 -32.493  1.00  0.00    -0.545 OA
ATOM     11  O   UNL     1     -32.515  12.810 -31.094  1.00  0.00    -0.545 OA
ENDBRANCH   8   9
ENDBRANCH   1   7
BRANCH   6  12
ATOM     12  O   UNL     1     -33.987   9.291 -39.054  1.00  0.00    -0.497 OA
ATOM     13  C   UNL     1     -33.330   9.511 -40.298  1.00  0.00     0.278 C 
ENDBRANCH   6  12
TORSDOF 3
ENDMDL
MODEL 3
REMARK VINA RESULT:    -5.392      1.946      3.000
REMARK INTER + INTRA:          -6.499
REMARK INTER:                  -6.344
REMARK INTRA:                  -0.155
REMARK UNBOUND:                -0.162
REMARK SMILES COc1ccc(C=CC(=O)[O-])cc1
REMARK SMILES IDX 6 1 5 2 12 3 4 4 13 5 3 6 7 7 8 8 9 9 10 10 11 11 2 12 1 13
REMARK H PARENT
REMARK Flexibility Score: inf
ROOT
ATOM      1  C   UNL     1     -33.566  11.590 -37.964  1.00  0.00    -0.025 A 
ATOM      2  C   UNL     1     -33.688  10.272 -38.433  1.00  0.00     0.012 A 
ATOM      3  C   UNL     1     -34.093  12.639 -38.743  1.00  0.00     0.012 A 
ATOM      4  C   UNL     1     -34.296  10.005 -39.663  1.00  0.00     0.047 A 
ATOM      5  C   UNL     1     -34.702  12.369 -39.972  1.00  0.00     0.047 A 
ATOM      6  C   UNL     1     -34.807  11.058 -40.444  1.00  0.00     0.118 A 
ENDROOT
BRANCH   1   7
ATOM      7  C   UNL     1     -32.920  11.819 -36.647  1.00  0.00     0.010 C 
ATOM      8  C   UNL     1     -33.576  11.784 -35.480  1.00  0.00     0.025 C 
BRANCH   8   9
ATOM      9  C   UNL     1     -32.896  12.029 -34.198  1.00  0.00     0.064 C 
ATOM     10  O   UNL     1     -32.098  11.167 -33.744  1.00  0.00    -0.545 OA
ATOM     11  O   UNL     1     -33.119  13.197 -33.478  1.00  0.00    -0.545 OA
ENDBRANCH   8   9
ENDBRANCH   1   7
BRANCH   6  12
ATOM     12  O   UNL     1     -35.425  10.842 -41.685  1.00  0.00    -0.497 OA
ATOM     13  C   UNL     1     -36.794  10.485 -41.851  1.00  0.00     0.278 C 
ENDBRANCH   6  12
TORSDOF 3
ENDMDL
MODEL 4
REMARK VINA RESULT:    -5.285      1.516      6.284
REMARK INTER + INTRA:          -6.374
REMARK INTER:                  -6.197
REMARK INTRA:                  -0.177
REMARK UNBOUND:                -0.162
REMARK SMILES COc1ccc(C=CC(=O)[O-])cc1
REMARK SMILES IDX 6 1 5 2 12 3 4 4 13 5 3 6 7 7 8 8 9 9 10 10 11 11 2 12 1 13
REMARK H PARENT
REMARK Flexibility Score: inf
ROOT
ATOM      1  C   UNL     1     -33.146  10.664 -36.762  1.00  0.00    -0.025 A 
ATOM      2  C   UNL     1     -33.588  11.923 -36.323  1.00  0.00     0.012 A 
ATOM      3  C   UNL     1     -32.378   9.872 -35.886  1.00  0.00     0.012 A 
ATOM      4  C   UNL     1     -33.250  12.395 -35.051  1.00  0.00     0.047 A 
ATOM      5  C   UNL     1     -32.042  10.345 -34.614  1.00  0.00     0.047 A 
ATOM      6  C   UNL     1     -32.469  11.606 -34.187  1.00  0.00     0.118 A 
ENDROOT
BRANCH   1   7
ATOM      7  C   UNL     1     -33.541  10.205 -38.117  1.00  0.00     0.010 C 
ATOM      8  C   UNL     1     -33.941  11.029 -39.095  1.00  0.00     0.025 C 
BRANCH   8   9
ATOM      9  C   UNL     1     -34.334  10.528 -40.421  1.00  0.00     0.064 C 
ATOM     10  O   UNL     1     -33.704   9.566 -40.934  1.00  0.00    -0.545 OA
ATOM     11  O   UNL     1     -35.392  11.098 -41.120  1.00  0.00    -0.545 OA
ENDBRANCH   8   9
ENDBRANCH   1   7
BRANCH   6  12
ATOM     12  O   UNL     1     -32.103  12.035 -32.902  1.00  0.00    -0.497 OA
ATOM     13  C   UNL     1     -32.090  13.395 -32.481  1.00  0.00     0.278 C 
ENDBRANCH   6  12
TORSDOF 3
ENDMDL
MODEL 5
REMARK VINA RESULT:    -5.279      1.475      6.347
REMARK INTER + INTRA:          -6.367
REMARK INTER:                  -6.196
REMARK INTRA:                  -0.170
REMARK UNBOUND:                -0.162
REMARK SMILES COc1ccc(C=CC(=O)[O-])cc1
REMARK SMILES IDX 6 1 5 2 12 3 4 4 13 5 3 6 7 7 8 8 9 9 10 10 11 11 2 12 1 13
REMARK H PARENT
REMARK Flexibility Score: inf
ROOT
ATOM      1  C   UNL     1     -33.245  10.840 -36.621  1.00  0.00    -0.025 A 
ATOM      2  C   UNL     1     -32.462   9.987 -35.825  1.00  0.00     0.012 A 
ATOM      3  C   UNL     1     -33.601  12.105 -36.112  1.00  0.00     0.012 A 
ATOM      4  C   UNL     1     -32.065  10.373 -34.542  1.00  0.00     0.047 A 
ATOM      5  C   UNL     1     -33.201  12.489 -34.829  1.00  0.00     0.047 A 
ATOM      6  C   UNL     1     -32.436  11.631 -34.033  1.00  0.00     0.118 A 
ENDROOT
BRANCH   1   7
ATOM      7  C   UNL     1     -33.633  10.387 -37.980  1.00  0.00     0.010 C 
ATOM      8  C   UNL     1     -33.972  11.218 -38.974  1.00  0.00     0.025 C 
BRANCH   8   9
ATOM      9  C   UNL     1     -34.361  10.723 -40.303  1.00  0.00     0.064 C 
ATOM     10  O   UNL     1     -33.787   9.710 -40.781  1.00  0.00    -0.545 OA
ATOM     11  O   UNL     1     -35.354  11.355 -41.043  1.00  0.00    -0.545 OA
ENDBRANCH   8   9
ENDBRANCH   1   7
BRANCH   6  12
ATOM     12  O   UNL     1     -32.063  12.064 -32.752  1.00  0.00    -0.497 OA
ATOM     13  C   UNL     1     -32.328  13.363 -32.232  1.00  0.00     0.278 C 
ENDBRANCH   6  12
TORSDOF 3
ENDMDL
MODEL 6
REMARK VINA RESULT:    -5.030      2.302      7.109
REMARK INTER + INTRA:          -6.074
REMARK INTER:                  -5.916
REMARK INTRA:                  -0.158
REMARK UNBOUND:                -0.162
REMARK SMILES COc1ccc(C=CC(=O)[O-])cc1
REMARK SMILES IDX 6 1 5 2 12 3 4 4 13 5 3 6 7 7 8 8 9 9 10 10 11 11 2 12 1 13
REMARK H PARENT
REMARK Flexibility Score: inf
ROOT
ATOM      1  C   UNL     1     -33.962  10.679 -38.879  1.00  0.00    -0.025 A 
ATOM      2  C   UNL     1     -33.960   9.699 -37.873  1.00  0.00     0.012 A 
ATOM      3  C   UNL     1     -33.613  12.001 -38.538  1.00  0.00     0.012 A 
ATOM      4  C   UNL     1     -33.643  10.031 -36.553  1.00  0.00     0.047 A 
ATOM      5  C   UNL     1     -33.295  12.331 -37.218  1.00  0.00     0.047 A 
ATOM      6  C   UNL     1     -33.310  11.356 -36.216  1.00  0.00     0.118 A 
ENDROOT
BRANCH   1   7
ATOM      7  C   UNL     1     -34.296  10.272 -40.266  1.00  0.00     0.010 C 
ATOM      8  C   UNL     1     -35.316  10.785 -40.968  1.00  0.00     0.025 C 
BRANCH   8   9
ATOM      9  C   UNL     1     -35.617  10.343 -42.339  1.00  0.00     0.064 C 
ATOM     10  O   UNL     1     -35.409   9.146 -42.665  1.00  0.00    -0.545 OA
ATOM     11  O   UNL     1     -36.130  11.227 -43.282  1.00  0.00    -0.545 OA
ENDBRANCH   8   9
ENDBRANCH   1   7
BRANCH   6  12
ATOM     12  O   UNL     1     -32.986  11.740 -34.906  1.00  0.00    -0.497 OA
ATOM     13  C   UNL     1     -33.633  12.787 -34.190  1.00  0.00     0.278 C 
ENDBRANCH   6  12
TORSDOF 3
ENDMDL
MODEL 7
REMARK VINA RESULT:    -4.004      3.044      4.438
REMARK INTER + INTRA:          -4.868
REMARK INTER:                  -4.686
REMARK INTRA:                  -0.181
REMARK UNBOUND:                -0.162
REMARK SMILES COc1ccc(C=CC(=O)[O-])cc1
REMARK SMILES IDX 6 1 5 2 12 3 4 4 13 5 3 6 7 7 8 8 9 9 10 10 11 11 2 12 1 13
REMARK H PARENT
REMARK Flexibility Score: inf
ROOT
ATOM      1  C   UNL     1     -34.164  10.034 -39.328  1.00  0.00    -0.025 A 
ATOM      2  C   UNL     1     -34.477  11.380 -39.574  1.00  0.00     0.012 A 
ATOM      3  C   UNL     1     -34.526   9.067 -40.287  1.00  0.00     0.012 A 
ATOM      4  C   UNL     1     -35.158  11.754 -40.736  1.00  0.00     0.047 A 
ATOM      5  C   UNL     1     -35.206   9.444 -41.449  1.00  0.00     0.047 A 
ATOM      6  C   UNL     1     -35.530  10.783 -41.683  1.00  0.00     0.118 A 
ENDROOT
BRANCH   1   7
ATOM      7  C   UNL     1     -33.432   9.690 -38.083  1.00  0.00     0.010 C 
ATOM      8  C   UNL     1     -33.174  10.568 -37.104  1.00  0.00     0.025 C 
BRANCH   8   9
ATOM      9  C   UNL     1     -32.434  10.185 -35.892  1.00  0.00     0.064 C 
ATOM     10  O   UNL     1     -31.187  10.024 -35.950  1.00  0.00    -0.545 OA
ATOM     11  O   UNL     1     -33.089  10.000 -34.679  1.00  0.00    -0.545 OA
ENDBRANCH   8   9
ENDBRANCH   1   7
BRANCH   6  12
ATOM     12  O   UNL     1     -36.215  11.107 -42.864  1.00  0.00    -0.497 OA
ATOM     13  C   UNL     1     -36.624  10.159 -43.844  1.00  0.00     0.278 C 
ENDBRANCH   6  12
TORSDOF 3
ENDMDL
MODEL 8
REMARK VINA RESULT:    -2.869     14.628     17.564
REMARK INTER + INTRA:          -3.533
REMARK INTER:                  -3.375
REMARK INTRA:                  -0.158
REMARK UNBOUND:                -0.162
REMARK SMILES COc1ccc(C=CC(=O)[O-])cc1
REMARK SMILES IDX 6 1 5 2 12 3 4 4 13 5 3 6 7 7 8 8 9 9 10 10 11 11 2 12 1 13
REMARK H PARENT
REMARK Flexibility Score: inf
ROOT
ATOM      1  C   UNL     1     -24.537  25.528 -34.130  1.00  0.00    -0.025 A 
ATOM      2  C   UNL     1     -23.487  24.854 -33.485  1.00  0.00     0.012 A 
ATOM      3  C   UNL     1     -24.501  26.936 -34.193  1.00  0.00     0.012 A 
ATOM      4  C   UNL     1     -22.439  25.564 -32.892  1.00  0.00     0.047 A 
ATOM      5  C   UNL     1     -23.452  27.644 -33.600  1.00  0.00     0.047 A 
ATOM      6  C   UNL     1     -22.417  26.970 -32.945  1.00  0.00     0.118 A 
ENDROOT
BRANCH   1   7
ATOM      7  C   UNL     1     -25.620  24.727 -34.751  1.00  0.00     0.010 C 
ATOM      8  C   UNL     1     -26.659  24.225 -34.071  1.00  0.00     0.025 C 
BRANCH   8   9
ATOM      9  C   UNL     1     -27.706  23.426 -34.727  1.00  0.00     0.064 C 
ATOM     10  O   UNL     1     -28.000  23.655 -35.929  1.00  0.00    -0.545 OA
ATOM     11  O   UNL     1     -28.377  22.419 -34.042  1.00  0.00    -0.545 OA
ENDBRANCH   8   9
ENDBRANCH   1   7
BRANCH   6  12
ATOM     12  O   UNL     1     -21.389  27.728 -32.365  1.00  0.00    -0.497 OA
ATOM     13  C   UNL     1     -21.581  28.691 -31.333  1.00  0.00     0.278 C 
ENDBRANCH   6  12
TORSDOF 3
ENDMDL
