MODEL 1
REMARK VINA RESULT:    -4.383      0.000      0.000
REMARK INTER + INTRA:          -6.512
REMARK INTER:                  -5.920
REMARK INTRA:                  -0.592
REMARK UNBOUND:                -0.592
REMARK SMILES CCCCCCCC(=O)[O-]
REMARK SMILES IDX 5 1 6 2 7 3 8 4 9 5 10 6 4 7 3 8 2 9 1 10
REMARK H PARENT
REMARK Flexibility Score: inf
ROOT
ATOM      1  C   UNL     1      53.135  16.917   1.788  1.00  0.00     0.000 C 
ENDROOT
BRANCH   1   2
ATOM      2  C   UNL     1      54.539  17.062   2.400  1.00  0.00     0.006 C 
BRANCH   2   3
ATOM      3  C   UNL     1      55.465  17.918   1.528  1.00  0.00     0.053 C 
BRANCH   3   4
ATOM      4  C   UNL     1      56.145  17.104   0.470  1.00  0.00     0.041 C 
ATOM      5  O   UNL     1      57.126  16.372   0.765  1.00  0.00    -0.550 OA
ATOM      6  O   UNL     1      55.713  17.177  -0.848  1.00  0.00    -0.550 OA
ENDBRANCH   3   4
ENDBRANCH   2   3
ENDBRANCH   1   2
BRANCH   1   7
ATOM      7  C   UNL     1      52.735  15.450   1.549  1.00  0.00     0.000 C 
BRANCH   7   8
ATOM      8  C   UNL     1      53.912  14.459   1.441  1.00  0.00    -0.000 C 
BRANCH   8   9
ATOM      9  C   UNL     1      54.227  13.975   0.015  1.00  0.00    -0.003 C 
ATOM     10  C   UNL     1      53.296  14.576  -1.037  1.00  0.00     0.004 C 
ENDBRANCH   8   9
ENDBRANCH   7   8
ENDBRANCH   1   7
TORSDOF 6
ENDMDL
MODEL 2
REMARK VINA RESULT:    -4.381      2.121      4.042
REMARK INTER + INTRA:          -6.509
REMARK INTER:                  -5.922
REMARK INTRA:                  -0.587
REMARK UNBOUND:                -0.592
REMARK SMILES CCCCCCCC(=O)[O-]
REMARK SMILES IDX 5 1 6 2 7 3 8 4 9 5 10 6 4 7 3 8 2 9 1 10
REMARK H PARENT
REMARK Flexibility Score: inf
ROOT
ATOM      1  C   UNL     1      53.063  16.914  -1.540  1.00  0.00     0.000 C 
ENDROOT
BRANCH   1   2
ATOM      2  C   UNL     1      53.613  15.510  -1.845  1.00  0.00     0.006 C 
BRANCH   2   3
ATOM      3  C   UNL     1      53.082  14.455  -0.866  1.00  0.00     0.053 C 
BRANCH   3   4
ATOM      4  C   UNL     1      54.138  14.006   0.096  1.00  0.00     0.041 C 
ATOM      5  O   UNL     1      55.146  13.374  -0.317  1.00  0.00    -0.550 OA
ATOM      6  O   UNL     1      53.995  14.259   1.455  1.00  0.00    -0.550 OA
ENDBRANCH   3   4
ENDBRANCH   2   3
ENDBRANCH   1   2
BRANCH   1   7
ATOM      7  C   UNL     1      54.095  17.823  -0.849  1.00  0.00     0.000 C 
BRANCH   7   8
ATOM      8  C   UNL     1      55.526  17.253  -0.775  1.00  0.00    -0.000 C 
BRANCH   8   9
ATOM      9  C   UNL     1      56.118  17.163   0.642  1.00  0.00    -0.003 C 
ATOM     10  C   UNL     1      55.141  17.617   1.726  1.00  0.00     0.004 C 
ENDBRANCH   8   9
ENDBRANCH   7   8
ENDBRANCH   1   7
TORSDOF 6
ENDMDL
MODEL 3
REMARK VINA RESULT:    -4.371      2.413      3.517
REMARK INTER + INTRA:          -6.497
REMARK INTER:                  -5.888
REMARK INTRA:                  -0.609
REMARK UNBOUND:                -0.592
REMARK SMILES CCCCCCCC(=O)[O-]
REMARK SMILES IDX 5 1 6 2 7 3 8 4 9 5 10 6 4 7 3 8 2 9 1 10
REMARK H PARENT
REMARK Flexibility Score: inf
ROOT
ATOM      1  C   UNL     1      55.980  16.964   0.616  1.00  0.00     0.000 C 
ENDROOT
BRANCH   1   2
ATOM      2  C   UNL     1      55.155  17.897   1.519  1.00  0.00     0.006 C 
BRANCH   2   3
ATOM      3  C   UNL     1      54.371  17.125   2.588  1.00  0.00     0.053 C 
BRANCH   3   4
ATOM      4  C   UNL     1      52.964  16.850   2.158  1.00  0.00     0.041 C 
ATOM      5  O   UNL     1      52.100  17.766   2.190  1.00  0.00    -0.550 OA
ATOM      6  O   UNL     1      52.598  15.573   1.748  1.00  0.00    -0.550 OA
ENDBRANCH   3   4
ENDBRANCH   2   3
ENDBRANCH   1   2
BRANCH   1   7
ATOM      7  C   UNL     1      55.542  17.016  -0.858  1.00  0.00     0.000 C 
BRANCH   7   8
ATOM      8  C   UNL     1      54.247  17.809  -1.129  1.00  0.00    -0.000 C 
BRANCH   8   9
ATOM      9  C   UNL     1      53.040  16.957  -1.559  1.00  0.00    -0.003 C 
ATOM     10  C   UNL     1      53.381  15.475  -1.710  1.00  0.00     0.004 C 
ENDBRANCH   8   9
ENDBRANCH   7   8
ENDBRANCH   1   7
TORSDOF 6
ENDMDL
MODEL 4
REMARK VINA RESULT:    -4.345      1.642      3.776
REMARK INTER + INTRA:          -6.461
REMARK INTER:                  -5.869
REMARK INTRA:                  -0.592
REMARK UNBOUND:                -0.592
REMARK SMILES CCCCCCCC(=O)[O-]
REMARK SMILES IDX 5 1 6 2 7 3 8 4 9 5 10 6 4 7 3 8 2 9 1 10
REMARK H PARENT
REMARK Flexibility Score: inf
ROOT
ATOM      1  C   UNL     1      54.334  14.225   0.055  1.00  0.00     0.000 C 
ENDROOT
BRANCH   1   2
ATOM      2  C   UNL     1      53.167  14.478  -0.915  1.00  0.00     0.006 C 
BRANCH   2   3
ATOM      3  C   UNL     1      53.524  15.510  -1.993  1.00  0.00     0.053 C 
BRANCH   3   4
ATOM      4  C   UNL     1      53.116  16.895  -1.594  1.00  0.00     0.041 C 
ATOM      5  O   UNL     1      51.906  17.240  -1.647  1.00  0.00    -0.550 OA
ATOM      6  O   UNL     1      54.077  17.815  -1.194  1.00  0.00    -0.550 OA
ENDBRANCH   3   4
ENDBRANCH   2   3
ENDBRANCH   1   2
BRANCH   1   7
ATOM      7  C   UNL     1      53.985  14.571   1.513  1.00  0.00     0.000 C 
BRANCH   7   8
ATOM      8  C   UNL     1      52.736  15.458   1.696  1.00  0.00    -0.000 C 
BRANCH   8   9
ATOM      9  C   UNL     1      53.025  16.909   2.119  1.00  0.00    -0.003 C 
ATOM     10  C   UNL     1      54.513  17.182   2.333  1.00  0.00     0.004 C 
ENDBRANCH   8   9
ENDBRANCH   7   8
ENDBRANCH   1   7
TORSDOF 6
ENDMDL
MODEL 5
REMARK VINA RESULT:    -4.247      1.525      2.549
REMARK INTER + INTRA:          -6.329
REMARK INTER:                  -5.761
REMARK INTRA:                  -0.568
REMARK UNBOUND:                -0.592
REMARK SMILES CCCCCCCC(=O)[O-]
REMARK SMILES IDX 5 1 6 2 7 3 8 4 9 5 10 6 4 7 3 8 2 9 1 10
REMARK H PARENT
REMARK Flexibility Score: inf
ROOT
ATOM      1  C   UNL     1      52.998  16.970  -1.366  1.00  0.00     0.000 C 
ENDROOT
BRANCH   1   2
ATOM      2  C   UNL     1      54.090  17.956  -0.915  1.00  0.00     0.006 C 
BRANCH   2   3
ATOM      3  C   UNL     1      55.461  17.280  -0.785  1.00  0.00     0.053 C 
BRANCH   3   4
ATOM      4  C   UNL     1      55.968  17.316   0.624  1.00  0.00     0.041 C 
ATOM      5  O   UNL     1      55.340  17.956   1.508  1.00  0.00    -0.550 OA
ATOM      6  O   UNL     1      57.151  16.666   0.954  1.00  0.00    -0.550 OA
ENDBRANCH   3   4
ENDBRANCH   2   3
ENDBRANCH   1   2
BRANCH   1   7
ATOM      7  C   UNL     1      53.568  15.624  -1.846  1.00  0.00     0.000 C 
BRANCH   7   8
ATOM      8  C   UNL     1      53.132  14.396  -1.021  1.00  0.00    -0.000 C 
BRANCH   8   9
ATOM      9  C   UNL     1      54.180  13.879  -0.020  1.00  0.00    -0.003 C 
ATOM     10  C   UNL     1      53.969  14.419   1.394  1.00  0.00     0.004 C 
ENDBRANCH   8   9
ENDBRANCH   7   8
ENDBRANCH   1   7
TORSDOF 6
ENDMDL
MODEL 6
REMARK VINA RESULT:    -4.234      1.757      3.441
REMARK INTER + INTRA:          -6.311
REMARK INTER:                  -5.722
REMARK INTRA:                  -0.590
REMARK UNBOUND:                -0.592
REMARK SMILES CCCCCCCC(=O)[O-]
REMARK SMILES IDX 5 1 6 2 7 3 8 4 9 5 10 6 4 7 3 8 2 9 1 10
REMARK H PARENT
REMARK Flexibility Score: inf
ROOT
ATOM      1  C   UNL     1      53.067  16.858   1.909  1.00  0.00     0.000 C 
ENDROOT
BRANCH   1   2
ATOM      2  C   UNL     1      52.710  15.409   1.534  1.00  0.00     0.006 C 
BRANCH   2   3
ATOM      3  C   UNL     1      53.937  14.489   1.552  1.00  0.00     0.053 C 
BRANCH   3   4
ATOM      4  C   UNL     1      54.246  13.947   0.190  1.00  0.00     0.041 C 
ATOM      5  O   UNL     1      53.454  14.148  -0.768  1.00  0.00    -0.550 OA
ATOM      6  O   UNL     1      55.396  13.194  -0.014  1.00  0.00    -0.550 OA
ENDBRANCH   3   4
ENDBRANCH   2   3
ENDBRANCH   1   2
BRANCH   1   7
ATOM      7  C   UNL     1      54.512  17.007   2.416  1.00  0.00     0.000 C 
BRANCH   7   8
ATOM      8  C   UNL     1      55.427  17.887   1.541  1.00  0.00    -0.000 C 
BRANCH   8   9
ATOM      9  C   UNL     1      56.213  17.130   0.456  1.00  0.00    -0.003 C 
ATOM     10  C   UNL     1      55.540  17.186  -0.915  1.00  0.00     0.004 C 
ENDBRANCH   8   9
ENDBRANCH   7   8
ENDBRANCH   1   7
TORSDOF 6
ENDMDL
MODEL 7
REMARK VINA RESULT:    -4.232      2.170      3.621
REMARK INTER + INTRA:          -6.309
REMARK INTER:                  -5.727
REMARK INTRA:                  -0.582
REMARK UNBOUND:                -0.592
REMARK SMILES CCCCCCCC(=O)[O-]
REMARK SMILES IDX 5 1 6 2 7 3 8 4 9 5 10 6 4 7 3 8 2 9 1 10
REMARK H PARENT
REMARK Flexibility Score: inf
ROOT
ATOM      1  C   UNL     1      55.983  16.899   0.441  1.00  0.00     0.000 C 
ENDROOT
BRANCH   1   2
ATOM      2  C   UNL     1      55.549  17.155  -1.013  1.00  0.00     0.006 C 
BRANCH   2   3
ATOM      3  C   UNL     1      54.218  17.914  -1.094  1.00  0.00     0.053 C 
BRANCH   3   4
ATOM      4  C   UNL     1      53.110  17.042  -1.600  1.00  0.00     0.041 C 
ATOM      5  O   UNL     1      51.925  17.468  -1.618  1.00  0.00    -0.550 OA
ATOM      6  O   UNL     1      53.382  15.747  -2.023  1.00  0.00    -0.550 OA
ENDBRANCH   3   4
ENDBRANCH   2   3
ENDBRANCH   1   2
BRANCH   1   7
ATOM      7  C   UNL     1      55.295  17.841   1.445  1.00  0.00     0.000 C 
BRANCH   7   8
ATOM      8  C   UNL     1      54.477  17.139   2.548  1.00  0.00    -0.000 C 
BRANCH   8   9
ATOM      9  C   UNL     1      53.005  16.866   2.192  1.00  0.00    -0.003 C 
ATOM     10  C   UNL     1      52.777  15.459   1.639  1.00  0.00     0.004 C 
ENDBRANCH   8   9
ENDBRANCH   7   8
ENDBRANCH   1   7
TORSDOF 6
ENDMDL
MODEL 8
REMARK VINA RESULT:    -4.220      2.127      4.019
REMARK INTER + INTRA:          -6.292
REMARK INTER:                  -5.760
REMARK INTRA:                  -0.532
REMARK UNBOUND:                -0.592
REMARK SMILES CCCCCCCC(=O)[O-]
REMARK SMILES IDX 5 1 6 2 7 3 8 4 9 5 10 6 4 7 3 8 2 9 1 10
REMARK H PARENT
REMARK Flexibility Score: inf
ROOT
ATOM      1  C   UNL     1      55.784  16.813  -0.794  1.00  0.00     0.000 C 
ENDROOT
BRANCH   1   2
ATOM      2  C   UNL     1      54.270  16.880  -1.063  1.00  0.00     0.006 C 
BRANCH   2   3
ATOM      3  C   UNL     1      53.706  15.532  -1.530  1.00  0.00     0.053 C 
BRANCH   3   4
ATOM      4  C   UNL     1      53.670  14.528  -0.419  1.00  0.00     0.041 C 
ATOM      5  O   UNL     1      52.965  14.737   0.603  1.00  0.00    -0.550 OA
ATOM      6  O   UNL     1      54.440  13.374  -0.499  1.00  0.00    -0.550 OA
ENDBRANCH   3   4
ENDBRANCH   2   3
ENDBRANCH   1   2
BRANCH   1   7
ATOM      7  C   UNL     1      56.136  17.002   0.692  1.00  0.00     0.000 C 
BRANCH   7   8
ATOM      8  C   UNL     1      55.172  17.909   1.484  1.00  0.00    -0.000 C 
BRANCH   8   9
ATOM      9  C   UNL     1      54.396  17.206   2.612  1.00  0.00    -0.003 C 
ATOM     10  C   UNL     1      52.908  17.555   2.618  1.00  0.00     0.004 C 
ENDBRANCH   8   9
ENDBRANCH   7   8
ENDBRANCH   1   7
TORSDOF 6
ENDMDL
MODEL 9
REMARK VINA RESULT:    -4.217      1.094      2.204
REMARK INTER + INTRA:          -6.289
REMARK INTER:                  -5.813
REMARK INTRA:                  -0.476
REMARK UNBOUND:                -0.592
REMARK SMILES CCCCCCCC(=O)[O-]
REMARK SMILES IDX 5 1 6 2 7 3 8 4 9 5 10 6 4 7 3 8 2 9 1 10
REMARK H PARENT
REMARK Flexibility Score: inf
ROOT
ATOM      1  C   UNL     1      53.771  14.619   1.559  1.00  0.00     0.000 C 
ENDROOT
BRANCH   1   2
ATOM      2  C   UNL     1      53.474  16.122   1.697  1.00  0.00     0.006 C 
BRANCH   2   3
ATOM      3  C   UNL     1      54.692  16.909   2.200  1.00  0.00     0.053 C 
BRANCH   3   4
ATOM      4  C   UNL     1      55.573  17.351   1.072  1.00  0.00     0.041 C 
ATOM      5  O   UNL     1      55.078  17.931   0.070  1.00  0.00    -0.550 OA
ATOM      6  O   UNL     1      56.937  17.094   1.114  1.00  0.00    -0.550 OA
ENDBRANCH   3   4
ENDBRANCH   2   3
ENDBRANCH   1   2
BRANCH   1   7
ATOM      7  C   UNL     1      54.204  14.223   0.136  1.00  0.00     0.000 C 
BRANCH   7   8
ATOM      8  C   UNL     1      53.141  14.446  -0.958  1.00  0.00    -0.000 C 
BRANCH   8   9
ATOM      9  C   UNL     1      53.476  15.549  -1.977  1.00  0.00    -0.003 C 
ATOM     10  C   UNL     1      52.507  16.730  -1.917  1.00  0.00     0.004 C 
ENDBRANCH   8   9
ENDBRANCH   7   8
ENDBRANCH   1   7
TORSDOF 6
ENDMDL
