MODEL 1
REMARK VINA RESULT:    -5.305      0.000      0.000
REMARK INTER + INTRA:          -6.088
REMARK INTER:                  -5.925
REMARK INTRA:                  -0.163
REMARK UNBOUND:                -0.163
REMARK SMILES O=C([O-])c1ccccc1C(=O)[O-]
REMARK SMILES IDX 4 1 9 2 5 3 8 4 6 5 7 6 2 7 1 8 3 9 10 10 11 11 12 12
REMARK H PARENT
REMARK Flexibility Score: inf
ROOT
ATOM      1  C   UNL     1     -12.440 -13.759 -14.622  1.00  0.00     0.006 A 
ATOM      2  C   UNL     1     -11.485 -12.712 -14.710  1.00  0.00     0.006 A 
ATOM      3  C   UNL     1     -12.666 -14.577 -15.745  1.00  0.00     0.010 A 
ATOM      4  C   UNL     1     -10.836 -12.478 -15.938  1.00  0.00     0.010 A 
ATOM      5  C   UNL     1     -11.995 -14.341 -16.946  1.00  0.00     0.001 A 
ATOM      6  C   UNL     1     -11.090 -13.287 -17.046  1.00  0.00     0.001 A 
ENDROOT
BRANCH   1   7
ATOM      7  C   UNL     1     -13.269 -13.985 -13.416  1.00  0.00     0.072 C 
ATOM      8  O   UNL     1     -14.154 -13.149 -13.087  1.00  0.00    -0.545 OA
ATOM      9  O   UNL     1     -13.042 -15.084 -12.595  1.00  0.00    -0.545 OA
ENDBRANCH   1   7
BRANCH   2  10
ATOM     10  C   UNL     1     -11.083 -11.896 -13.541  1.00  0.00     0.072 C 
ATOM     11  O   UNL     1     -10.156 -12.286 -12.783  1.00  0.00    -0.545 OA
ATOM     12  O   UNL     1     -11.763 -10.725 -13.227  1.00  0.00    -0.545 OA
ENDBRANCH   2  10
TORSDOF 2
ENDMDL
MODEL 2
REMARK VINA RESULT:    -5.295      5.628      6.872
REMARK INTER + INTRA:          -6.077
REMARK INTER:                  -5.864
REMARK INTRA:                  -0.212
REMARK UNBOUND:                -0.163
REMARK SMILES O=C([O-])c1ccccc1C(=O)[O-]
REMARK SMILES IDX 4 1 9 2 5 3 8 4 6 5 7 6 2 7 1 8 3 9 10 10 11 11 12 12
REMARK H PARENT
REMARK Flexibility Score: inf
ROOT
ATOM      1  C   UNL     1      -8.812 -14.354 -19.107  1.00  0.00     0.006 A 
ATOM      2  C   UNL     1      -8.992 -14.482 -20.510  1.00  0.00     0.006 A 
ATOM      3  C   UNL     1      -7.738 -15.022 -18.489  1.00  0.00     0.010 A 
ATOM      4  C   UNL     1      -8.130 -15.326 -21.237  1.00  0.00     0.010 A 
ATOM      5  C   UNL     1      -6.882 -15.836 -19.234  1.00  0.00     0.001 A 
ATOM      6  C   UNL     1      -7.085 -15.997 -20.602  1.00  0.00     0.001 A 
ENDROOT
BRANCH   1   7
ATOM      7  C   UNL     1      -9.754 -13.602 -18.246  1.00  0.00     0.072 C 
ATOM      8  O   UNL     1     -10.699 -14.201 -17.664  1.00  0.00    -0.545 OA
ATOM      9  O   UNL     1      -9.650 -12.222 -18.118  1.00  0.00    -0.545 OA
ENDBRANCH   1   7
BRANCH   2  10
ATOM     10  C   UNL     1     -10.006 -13.706 -21.260  1.00  0.00     0.072 C 
ATOM     11  O   UNL     1     -11.154 -14.185 -21.457  1.00  0.00    -0.545 OA
ATOM     12  O   UNL     1      -9.688 -12.469 -21.810  1.00  0.00    -0.545 OA
ENDBRANCH   2  10
TORSDOF 2
ENDMDL
MODEL 3
REMARK VINA RESULT:    -5.289      5.650      6.850
REMARK INTER + INTRA:          -6.070
REMARK INTER:                  -5.859
REMARK INTRA:                  -0.211
REMARK UNBOUND:                -0.163
REMARK SMILES O=C([O-])c1ccccc1C(=O)[O-]
REMARK SMILES IDX 4 1 9 2 5 3 8 4 6 5 7 6 2 7 1 8 3 9 10 10 11 11 12 12
REMARK H PARENT
REMARK Flexibility Score: inf
ROOT
ATOM      1  C   UNL     1      -8.992 -14.501 -20.530  1.00  0.00     0.006 A 
ATOM      2  C   UNL     1      -8.811 -14.364 -19.128  1.00  0.00     0.006 A 
ATOM      3  C   UNL     1      -8.132 -15.349 -21.253  1.00  0.00     0.010 A 
ATOM      4  C   UNL     1      -7.735 -15.029 -18.508  1.00  0.00     0.010 A 
ATOM      5  C   UNL     1      -7.086 -16.017 -20.614  1.00  0.00     0.001 A 
ATOM      6  C   UNL     1      -6.881 -15.848 -19.246  1.00  0.00     0.001 A 
ENDROOT
BRANCH   1   7
ATOM      7  C   UNL     1     -10.007 -13.729 -21.284  1.00  0.00     0.072 C 
ATOM      8  O   UNL     1     -11.164 -14.201 -21.456  1.00  0.00    -0.545 OA
ATOM      9  O   UNL     1      -9.683 -12.509 -21.865  1.00  0.00    -0.545 OA
ENDBRANCH   1   7
BRANCH   2  10
ATOM     10  C   UNL     1      -9.751 -13.606 -18.271  1.00  0.00     0.072 C 
ATOM     11  O   UNL     1     -10.701 -14.199 -17.692  1.00  0.00    -0.545 OA
ATOM     12  O   UNL     1      -9.640 -12.226 -18.143  1.00  0.00    -0.545 OA
ENDBRANCH   2  10
TORSDOF 2
ENDMDL
MODEL 4
REMARK VINA RESULT:    -5.090      4.306      5.875
REMARK INTER + INTRA:          -5.848
REMARK INTER:                  -5.642
REMARK INTRA:                  -0.206
REMARK UNBOUND:                -0.163
REMARK SMILES O=C([O-])c1ccccc1C(=O)[O-]
REMARK SMILES IDX 4 1 9 2 5 3 8 4 6 5 7 6 2 7 1 8 3 9 10 10 11 11 12 12
REMARK H PARENT
REMARK Flexibility Score: inf
ROOT
ATOM      1  C   UNL     1     -11.137 -13.609 -18.003  1.00  0.00     0.006 A 
ATOM      2  C   UNL     1     -12.097 -14.649 -18.126  1.00  0.00     0.006 A 
ATOM      3  C   UNL     1     -10.934 -13.008 -16.747  1.00  0.00     0.010 A 
ATOM      4  C   UNL     1     -12.866 -15.007 -17.003  1.00  0.00     0.010 A 
ATOM      5  C   UNL     1     -11.693 -13.395 -15.640  1.00  0.00     0.001 A 
ATOM      6  C   UNL     1     -12.665 -14.384 -15.771  1.00  0.00     0.001 A 
ENDROOT
BRANCH   1   7
ATOM      7  C   UNL     1     -10.385 -13.074 -19.162  1.00  0.00     0.072 C 
ATOM      8  O   UNL     1      -9.300 -13.609 -19.517  1.00  0.00    -0.545 OA
ATOM      9  O   UNL     1     -10.829 -11.940 -19.833  1.00  0.00    -0.545 OA
ENDBRANCH   1   7
BRANCH   2  10
ATOM     10  C   UNL     1     -12.275 -15.429 -19.372  1.00  0.00     0.072 C 
ATOM     11  O   UNL     1     -11.514 -16.400 -19.628  1.00  0.00    -0.545 OA
ATOM     12  O   UNL     1     -13.238 -15.064 -20.306  1.00  0.00    -0.545 OA
ENDBRANCH   2  10
TORSDOF 2
ENDMDL
MODEL 5
REMARK VINA RESULT:    -5.073      4.294      5.060
REMARK INTER + INTRA:          -5.829
REMARK INTER:                  -5.639
REMARK INTRA:                  -0.190
REMARK UNBOUND:                -0.163
REMARK SMILES O=C([O-])c1ccccc1C(=O)[O-]
REMARK SMILES IDX 4 1 9 2 5 3 8 4 6 5 7 6 2 7 1 8 3 9 10 10 11 11 12 12
REMARK H PARENT
REMARK Flexibility Score: inf
ROOT
ATOM      1  C   UNL     1     -12.026 -14.513 -18.090  1.00  0.00     0.006 A 
ATOM      2  C   UNL     1     -11.071 -13.461 -18.079  1.00  0.00     0.006 A 
ATOM      3  C   UNL     1     -12.707 -14.833 -16.901  1.00  0.00     0.010 A 
ATOM      4  C   UNL     1     -10.783 -12.810 -16.864  1.00  0.00     0.010 A 
ATOM      5  C   UNL     1     -12.422 -14.159 -15.712  1.00  0.00     0.001 A 
ATOM      6  C   UNL     1     -11.454 -13.158 -15.692  1.00  0.00     0.001 A 
ENDROOT
BRANCH   1   7
ATOM      7  C   UNL     1     -12.286 -15.343 -19.290  1.00  0.00     0.072 C 
ATOM      8  O   UNL     1     -13.330 -15.160 -19.973  1.00  0.00    -0.545 OA
ATOM      9  O   UNL     1     -11.422 -16.373 -19.641  1.00  0.00    -0.545 OA
ENDBRANCH   1   7
BRANCH   2  10
ATOM     10  C   UNL     1     -10.413 -12.966 -19.310  1.00  0.00     0.072 C 
ATOM     11  O   UNL     1      -9.385 -13.542 -19.757  1.00  0.00    -0.545 OA
ATOM     12  O   UNL     1     -10.878 -11.825 -19.953  1.00  0.00    -0.545 OA
ENDBRANCH   2  10
TORSDOF 2
ENDMDL
MODEL 6
REMARK VINA RESULT:    -4.999     11.338     13.009
REMARK INTER + INTRA:          -5.746
REMARK INTER:                  -5.537
REMARK INTRA:                  -0.209
REMARK UNBOUND:                -0.163
REMARK SMILES O=C([O-])c1ccccc1C(=O)[O-]
REMARK SMILES IDX 4 1 9 2 5 3 8 4 6 5 7 6 2 7 1 8 3 9 10 10 11 11 12 12
REMARK H PARENT
REMARK Flexibility Score: inf
ROOT
ATOM      1  C   UNL     1      -8.566 -22.517 -21.402  1.00  0.00     0.006 A 
ATOM      2  C   UNL     1      -8.622 -23.887 -21.771  1.00  0.00     0.006 A 
ATOM      3  C   UNL     1      -8.459 -21.539 -22.409  1.00  0.00     0.010 A 
ATOM      4  C   UNL     1      -8.504 -24.236 -23.130  1.00  0.00     0.010 A 
ATOM      5  C   UNL     1      -8.367 -21.907 -23.753  1.00  0.00     0.001 A 
ATOM      6  C   UNL     1      -8.377 -23.252 -24.111  1.00  0.00     0.001 A 
ENDROOT
BRANCH   1   7
ATOM      7  C   UNL     1      -8.541 -22.070 -19.990  1.00  0.00     0.072 C 
ATOM      8  O   UNL     1      -9.612 -21.752 -19.406  1.00  0.00    -0.545 OA
ATOM      9  O   UNL     1      -7.336 -21.934 -19.310  1.00  0.00    -0.545 OA
ENDBRANCH   1   7
BRANCH   2  10
ATOM     10  C   UNL     1      -8.874 -24.969 -20.792  1.00  0.00     0.072 C 
ATOM     11  O   UNL     1     -10.041 -25.414 -20.624  1.00  0.00    -0.545 OA
ATOM     12  O   UNL     1      -7.844 -25.464 -20.001  1.00  0.00    -0.545 OA
ENDBRANCH   2  10
TORSDOF 2
ENDMDL
MODEL 7
REMARK VINA RESULT:    -4.969     11.365     12.800
REMARK INTER + INTRA:          -5.713
REMARK INTER:                  -5.506
REMARK INTRA:                  -0.206
REMARK UNBOUND:                -0.163
REMARK SMILES O=C([O-])c1ccccc1C(=O)[O-]
REMARK SMILES IDX 4 1 9 2 5 3 8 4 6 5 7 6 2 7 1 8 3 9 10 10 11 11 12 12
REMARK H PARENT
REMARK Flexibility Score: inf
ROOT
ATOM      1  C   UNL     1      -8.520 -23.904 -21.666  1.00  0.00     0.006 A 
ATOM      2  C   UNL     1      -8.376 -22.532 -21.325  1.00  0.00     0.006 A 
ATOM      3  C   UNL     1      -8.535 -24.274 -23.024  1.00  0.00     0.010 A 
ATOM      4  C   UNL     1      -8.317 -21.573 -22.354  1.00  0.00     0.010 A 
ATOM      5  C   UNL     1      -8.452 -23.308 -24.028  1.00  0.00     0.001 A 
ATOM      6  C   UNL     1      -8.355 -21.960 -23.694  1.00  0.00     0.001 A 
ENDROOT
BRANCH   1   7
ATOM      7  C   UNL     1      -8.731 -24.961 -20.651  1.00  0.00     0.072 C 
ATOM      8  O   UNL     1      -7.743 -25.528 -20.110  1.00  0.00    -0.545 OA
ATOM      9  O   UNL     1     -10.014 -25.389 -20.328  1.00  0.00    -0.545 OA
ENDBRANCH   1   7
BRANCH   2  10
ATOM     10  C   UNL     1      -8.210 -22.069 -19.928  1.00  0.00     0.072 C 
ATOM     11  O   UNL     1      -9.190 -21.592 -19.297  1.00  0.00    -0.545 OA
ATOM     12  O   UNL     1      -6.962 -22.094 -19.316  1.00  0.00    -0.545 OA
ENDBRANCH   2  10
TORSDOF 2
ENDMDL
MODEL 8
REMARK VINA RESULT:    -4.959      6.113      7.273
REMARK INTER + INTRA:          -5.701
REMARK INTER:                  -5.493
REMARK INTRA:                  -0.208
REMARK UNBOUND:                -0.163
REMARK SMILES O=C([O-])c1ccccc1C(=O)[O-]
REMARK SMILES IDX 4 1 9 2 5 3 8 4 6 5 7 6 2 7 1 8 3 9 10 10 11 11 12 12
REMARK H PARENT
REMARK Flexibility Score: inf
ROOT
ATOM      1  C   UNL     1      -9.347 -14.512 -19.807  1.00  0.00     0.006 A 
ATOM      2  C   UNL     1     -10.170 -13.407 -20.157  1.00  0.00     0.006 A 
ATOM      3  C   UNL     1      -9.124 -14.796 -18.446  1.00  0.00     0.010 A 
ATOM      4  C   UNL     1     -10.687 -12.588 -19.135  1.00  0.00     0.010 A 
ATOM      5  C   UNL     1      -9.666 -13.983 -17.449  1.00  0.00     0.001 A 
ATOM      6  C   UNL     1     -10.435 -12.874 -17.793  1.00  0.00     0.001 A 
ENDROOT
BRANCH   1   7
ATOM      7  C   UNL     1      -8.649 -15.340 -20.817  1.00  0.00     0.072 C 
ATOM      8  O   UNL     1      -7.450 -15.095 -21.120  1.00  0.00    -0.545 OA
ATOM      9  O   UNL     1      -9.321 -16.353 -21.490  1.00  0.00    -0.545 OA
ENDBRANCH   1   7
BRANCH   2  10
ATOM     10  C   UNL     1     -10.570 -13.120 -21.553  1.00  0.00     0.072 C 
ATOM     11  O   UNL     1      -9.891 -12.328 -22.258  1.00  0.00    -0.545 OA
ATOM     12  O   UNL     1     -11.732 -13.668 -22.084  1.00  0.00    -0.545 OA
ENDBRANCH   2  10
TORSDOF 2
ENDMDL
MODEL 9
REMARK VINA RESULT:    -4.955      6.242      7.440
REMARK INTER + INTRA:          -5.697
REMARK INTER:                  -5.481
REMARK INTRA:                  -0.216
REMARK UNBOUND:                -0.163
REMARK SMILES O=C([O-])c1ccccc1C(=O)[O-]
REMARK SMILES IDX 4 1 9 2 5 3 8 4 6 5 7 6 2 7 1 8 3 9 10 10 11 11 12 12
REMARK H PARENT
REMARK Flexibility Score: inf
ROOT
ATOM      1  C   UNL     1     -10.045 -13.305 -20.295  1.00  0.00     0.006 A 
ATOM      2  C   UNL     1      -9.280 -14.432 -19.889  1.00  0.00     0.006 A 
ATOM      3  C   UNL     1     -10.514 -12.407 -19.319  1.00  0.00     0.010 A 
ATOM      4  C   UNL     1      -9.069 -14.655 -18.515  1.00  0.00     0.010 A 
ATOM      5  C   UNL     1     -10.273 -12.636 -17.963  1.00  0.00     0.001 A 
ATOM      6  C   UNL     1      -9.562 -13.764 -17.562  1.00  0.00     0.001 A 
ENDROOT
BRANCH   1   7
ATOM      7  C   UNL     1     -10.434 -13.071 -21.705  1.00  0.00     0.072 C 
ATOM      8  O   UNL     1      -9.760 -12.289 -22.429  1.00  0.00    -0.545 OA
ATOM      9  O   UNL     1     -11.580 -13.656 -22.231  1.00  0.00    -0.545 OA
ENDBRANCH   1   7
BRANCH   2  10
ATOM     10  C   UNL     1      -8.631 -15.347 -20.854  1.00  0.00     0.072 C 
ATOM     11  O   UNL     1      -7.433 -15.162 -21.197  1.00  0.00    -0.545 OA
ATOM     12  O   UNL     1      -9.348 -16.382 -21.443  1.00  0.00    -0.545 OA
ENDBRANCH   2  10
TORSDOF 2
ENDMDL
