MODEL 1
REMARK VINA RESULT:    -1.152      0.000      0.000
REMARK INTER + INTRA:          -5.503
REMARK INTER:                  -2.230
REMARK INTRA:                  -3.272
REMARK UNBOUND:                -3.272
REMARK SMILES CCCCCCCCCCCCCCCCCC(=O)[O-]
REMARK SMILES IDX 10 1 11 2 12 3 13 4 14 5 15 6 16 7 17 8 18 9 19 10 20 11
REMARK SMILES IDX 9 12 8 13 7 14 6 15 5 16 4 17 3 18 2 19 1 20
REMARK H PARENT
REMARK Flexibility Score: inf
ROOT
ATOM      1  C   UNL     1     145.421  39.400 -10.417  1.00  0.00     0.000 C 
ENDROOT
BRANCH   1   2
ATOM      2  C   UNL     1     146.822  40.028 -10.319  1.00  0.00     0.000 C 
BRANCH   2   3
ATOM      3  C   UNL     1     147.515  39.879  -8.952  1.00  0.00     0.000 C 
BRANCH   3   4
ATOM      4  C   UNL     1     147.738  38.413  -8.547  1.00  0.00     0.000 C 
BRANCH   4   5
ATOM      5  C   UNL     1     147.000  38.085  -7.241  1.00  0.00     0.000 C 
BRANCH   5   6
ATOM      6  C   UNL     1     146.397  39.331  -6.573  1.00  0.00     0.000 C 
BRANCH   6   7
ATOM      7  C   UNL     1     144.885  39.195  -6.323  1.00  0.00     0.006 C 
BRANCH   7   8
ATOM      8  C   UNL     1     144.069  40.186  -7.165  1.00  0.00     0.053 C 
BRANCH   8   9
ATOM      9  C   UNL     1     144.564  41.591  -7.005  1.00  0.00     0.041 C 
ATOM     10  O   UNL     1     145.006  42.223  -8.000  1.00  0.00    -0.550 OA
ATOM     11  O   UNL     1     144.573  42.188  -5.751  1.00  0.00    -0.550 OA
ENDBRANCH   8   9
ENDBRANCH   7   8
ENDBRANCH   6   7
ENDBRANCH   5   6
ENDBRANCH   4   5
ENDBRANCH   3   4
ENDBRANCH   2   3
ENDBRANCH   1   2
BRANCH   1  12
ATOM     12  C   UNL     1     145.359  38.222 -11.405  1.00  0.00     0.000 C 
BRANCH  12  13
ATOM     13  C   UNL     1     144.969  36.895 -10.731  1.00  0.00    -0.000 C 
BRANCH  13  14
ATOM     14  C   UNL     1     144.290  37.031  -9.352  1.00  0.00    -0.000 C 
BRANCH  14  15
ATOM     15  C   UNL     1     142.757  36.875  -9.361  1.00  0.00    -0.000 C 
BRANCH  15  16
ATOM     16  C   UNL     1     141.972  38.193  -9.507  1.00  0.00    -0.000 C 
BRANCH  16  17
ATOM     17  C   UNL     1     141.313  38.412 -10.884  1.00  0.00    -0.000 C 
BRANCH  17  18
ATOM     18  C   UNL     1     141.419  37.221 -11.852  1.00  0.00    -0.000 C 
BRANCH  18  19
ATOM     19  C   UNL     1     142.122  37.584 -13.169  1.00  0.00    -0.003 C 
ATOM     20  C   UNL     1     142.270  39.096 -13.314  1.00  0.00     0.004 C 
ENDBRANCH  18  19
ENDBRANCH  17  18
ENDBRANCH  16  17
ENDBRANCH  15  16
ENDBRANCH  14  15
ENDBRANCH  13  14
ENDBRANCH  12  13
ENDBRANCH   1  12
TORSDOF 16
ENDMDL
MODEL 2
REMARK VINA RESULT:    -1.027      1.713      3.546
REMARK INTER + INTRA:          -5.260
REMARK INTER:                  -2.168
REMARK INTRA:                  -3.092
REMARK UNBOUND:                -3.272
REMARK SMILES CCCCCCCCCCCCCCCCCC(=O)[O-]
REMARK SMILES IDX 10 1 11 2 12 3 13 4 14 5 15 6 16 7 17 8 18 9 19 10 20 11
REMARK SMILES IDX 9 12 8 13 7 14 6 15 5 16 4 17 3 18 2 19 1 20
REMARK H PARENT
REMARK Flexibility Score: inf
ROOT
ATOM      1  C   UNL     1     144.083  41.501  -9.969  1.00  0.00     0.000 C 
ENDROOT
BRANCH   1   2
ATOM      2  C   UNL     1     145.555  41.318 -10.377  1.00  0.00     0.000 C 
BRANCH   2   3
ATOM      3  C   UNL     1     145.780  40.580 -11.710  1.00  0.00     0.000 C 
BRANCH   3   4
ATOM      4  C   UNL     1     146.892  39.522 -11.632  1.00  0.00     0.000 C 
BRANCH   4   5
ATOM      5  C   UNL     1     147.736  39.705 -10.362  1.00  0.00     0.000 C 
BRANCH   5   6
ATOM      6  C   UNL     1     147.970  38.385  -9.611  1.00  0.00     0.000 C 
BRANCH   6   7
ATOM      7  C   UNL     1     147.493  38.444  -8.149  1.00  0.00     0.006 C 
BRANCH   7   8
ATOM      8  C   UNL     1     147.434  39.883  -7.618  1.00  0.00     0.053 C 
BRANCH   8   9
ATOM      9  C   UNL     1     146.400  40.038  -6.546  1.00  0.00     0.041 C 
ATOM     10  O   UNL     1     146.751  40.167  -5.343  1.00  0.00    -0.550 OA
ATOM     11  O   UNL     1     145.050  40.001  -6.869  1.00  0.00    -0.550 OA
ENDBRANCH   8   9
ENDBRANCH   7   8
ENDBRANCH   6   7
ENDBRANCH   5   6
ENDBRANCH   4   5
ENDBRANCH   3   4
ENDBRANCH   2   3
ENDBRANCH   1   2
BRANCH   1  12
ATOM     12  C   UNL     1     143.131  41.584 -11.175  1.00  0.00     0.000 C 
BRANCH  12  13
ATOM     13  C   UNL     1     142.083  40.457 -11.189  1.00  0.00    -0.000 C 
BRANCH  13  14
ATOM     14  C   UNL     1     142.146  39.514 -12.407  1.00  0.00    -0.000 C 
BRANCH  14  15
ATOM     15  C   UNL     1     141.387  38.183 -12.242  1.00  0.00    -0.000 C 
BRANCH  15  16
ATOM     16  C   UNL     1     142.284  36.936 -12.116  1.00  0.00    -0.000 C 
BRANCH  16  17
ATOM     17  C   UNL     1     143.800  37.219 -12.125  1.00  0.00    -0.000 C 
BRANCH  17  18
ATOM     18  C   UNL     1     144.533  36.875 -10.815  1.00  0.00    -0.000 C 
BRANCH  18  19
ATOM     19  C   UNL     1     144.172  37.824  -9.663  1.00  0.00    -0.003 C 
ATOM     20  C   UNL     1     143.730  37.045  -8.427  1.00  0.00     0.004 C 
ENDBRANCH  18  19
ENDBRANCH  17  18
ENDBRANCH  16  17
ENDBRANCH  15  16
ENDBRANCH  14  15
ENDBRANCH  13  14
ENDBRANCH  12  13
ENDBRANCH   1  12
TORSDOF 16
ENDMDL
MODEL 3
REMARK VINA RESULT:    -1.008      2.098      3.110
REMARK INTER + INTRA:          -5.224
REMARK INTER:                  -2.313
REMARK INTRA:                  -2.911
REMARK UNBOUND:                -3.272
REMARK SMILES CCCCCCCCCCCCCCCCCC(=O)[O-]
REMARK SMILES IDX 10 1 11 2 12 3 13 4 14 5 15 6 16 7 17 8 18 9 19 10 20 11
REMARK SMILES IDX 9 12 8 13 7 14 6 15 5 16 4 17 3 18 2 19 1 20
REMARK H PARENT
REMARK Flexibility Score: inf
ROOT
ATOM      1  C   UNL     1     144.248  40.468 -10.280  1.00  0.00     0.000 C 
ENDROOT
BRANCH   1   2
ATOM      2  C   UNL     1     144.880  41.871 -10.250  1.00  0.00     0.000 C 
BRANCH   2   3
ATOM      3  C   UNL     1     145.870  42.120  -9.097  1.00  0.00     0.000 C 
BRANCH   3   4
ATOM      4  C   UNL     1     147.305  41.683  -9.430  1.00  0.00     0.000 C 
BRANCH   4   5
ATOM      5  C   UNL     1     147.756  40.535  -8.516  1.00  0.00     0.000 C 
BRANCH   5   6
ATOM      6  C   UNL     1     147.787  39.179  -9.239  1.00  0.00     0.000 C 
BRANCH   6   7
ATOM      7  C   UNL     1     147.005  38.089  -8.485  1.00  0.00     0.006 C 
BRANCH   7   8
ATOM      8  C   UNL     1     145.949  38.682  -7.542  1.00  0.00     0.053 C 
BRANCH   8   9
ATOM      9  C   UNL     1     146.063  38.123  -6.158  1.00  0.00     0.041 C 
ATOM     10  O   UNL     1     146.881  37.195  -5.916  1.00  0.00    -0.550 OA
ATOM     11  O   UNL     1     145.241  38.596  -5.144  1.00  0.00    -0.550 OA
ENDBRANCH   8   9
ENDBRANCH   7   8
ENDBRANCH   6   7
ENDBRANCH   5   6
ENDBRANCH   4   5
ENDBRANCH   3   4
ENDBRANCH   2   3
ENDBRANCH   1   2
BRANCH   1  12
ATOM     12  C   UNL     1     144.854  39.559 -11.363  1.00  0.00     0.000 C 
BRANCH  12  13
ATOM     13  C   UNL     1     144.442  38.085 -11.207  1.00  0.00    -0.000 C 
BRANCH  13  14
ATOM     14  C   UNL     1     143.010  37.854 -10.681  1.00  0.00    -0.000 C 
BRANCH  14  15
ATOM     15  C   UNL     1     142.065  37.128 -11.658  1.00  0.00    -0.000 C 
BRANCH  15  16
ATOM     16  C   UNL     1     142.100  37.654 -13.105  1.00  0.00    -0.000 C 
BRANCH  16  17
ATOM     17  C   UNL     1     141.211  38.885 -13.376  1.00  0.00    -0.000 C 
BRANCH  17  18
ATOM     18  C   UNL     1     141.974  40.201 -13.603  1.00  0.00    -0.000 C 
BRANCH  18  19
ATOM     19  C   UNL     1     141.532  41.320 -12.648  1.00  0.00    -0.003 C 
ATOM     20  C   UNL     1     140.714  40.760 -11.487  1.00  0.00     0.004 C 
ENDBRANCH  18  19
ENDBRANCH  17  18
ENDBRANCH  16  17
ENDBRANCH  15  16
ENDBRANCH  14  15
ENDBRANCH  13  14
ENDBRANCH  12  13
ENDBRANCH   1  12
TORSDOF 16
ENDMDL
MODEL 4
REMARK VINA RESULT:    -1.003      2.229      4.069
REMARK INTER + INTRA:          -5.214
REMARK INTER:                  -2.366
REMARK INTRA:                  -2.848
REMARK UNBOUND:                -3.272
REMARK SMILES CCCCCCCCCCCCCCCCCC(=O)[O-]
REMARK SMILES IDX 10 1 11 2 12 3 13 4 14 5 15 6 16 7 17 8 18 9 19 10 20 11
REMARK SMILES IDX 9 12 8 13 7 14 6 15 5 16 4 17 3 18 2 19 1 20
REMARK H PARENT
REMARK Flexibility Score: inf
ROOT
ATOM      1  C   UNL     1     143.726  38.246 -10.708  1.00  0.00     0.000 C 
ENDROOT
BRANCH   1   2
ATOM      2  C   UNL     1     143.963  39.382  -9.698  1.00  0.00     0.000 C 
BRANCH   2   3
ATOM      3  C   UNL     1     143.418  39.125  -8.281  1.00  0.00     0.000 C 
BRANCH   3   4
ATOM      4  C   UNL     1     144.523  39.042  -7.216  1.00  0.00     0.000 C 
BRANCH   4   5
ATOM      5  C   UNL     1     145.318  37.736  -7.351  1.00  0.00     0.000 C 
BRANCH   5   6
ATOM      6  C   UNL     1     146.820  37.928  -7.090  1.00  0.00     0.000 C 
BRANCH   6   7
ATOM      7  C   UNL     1     147.531  38.665  -8.239  1.00  0.00     0.006 C 
BRANCH   7   8
ATOM      8  C   UNL     1     147.387  37.925  -9.576  1.00  0.00     0.053 C 
BRANCH   8   9
ATOM      9  C   UNL     1     147.495  38.858 -10.742  1.00  0.00     0.041 C 
ATOM     10  O   UNL     1     147.346  38.424 -11.916  1.00  0.00    -0.550 OA
ATOM     11  O   UNL     1     147.799  40.198 -10.538  1.00  0.00    -0.550 OA
ENDBRANCH   8   9
ENDBRANCH   7   8
ENDBRANCH   6   7
ENDBRANCH   5   6
ENDBRANCH   4   5
ENDBRANCH   3   4
ENDBRANCH   2   3
ENDBRANCH   1   2
BRANCH   1  12
ATOM     12  C   UNL     1     142.472  37.414 -10.393  1.00  0.00     0.000 C 
BRANCH  12  13
ATOM     13  C   UNL     1     141.542  37.248 -11.608  1.00  0.00    -0.000 C 
BRANCH  13  14
ATOM     14  C   UNL     1     142.243  37.272 -12.982  1.00  0.00    -0.000 C 
BRANCH  14  15
ATOM     15  C   UNL     1     141.802  38.411 -13.921  1.00  0.00    -0.000 C 
BRANCH  15  16
ATOM     16  C   UNL     1     140.918  39.488 -13.263  1.00  0.00    -0.000 C 
BRANCH  16  17
ATOM     17  C   UNL     1     141.670  40.747 -12.783  1.00  0.00    -0.000 C 
BRANCH  17  18
ATOM     18  C   UNL     1     141.294  41.229 -11.370  1.00  0.00    -0.000 C 
BRANCH  18  19
ATOM     19  C   UNL     1     139.983  40.614 -10.859  1.00  0.00    -0.003 C 
ATOM     20  C   UNL     1     140.114  40.169  -9.405  1.00  0.00     0.004 C 
ENDBRANCH  18  19
ENDBRANCH  17  18
ENDBRANCH  16  17
ENDBRANCH  15  16
ENDBRANCH  14  15
ENDBRANCH  13  14
ENDBRANCH  12  13
ENDBRANCH   1  12
TORSDOF 16
ENDMDL
MODEL 5
REMARK VINA RESULT:    -0.992      2.704      4.424
REMARK INTER + INTRA:          -5.193
REMARK INTER:                  -1.956
REMARK INTRA:                  -3.237
REMARK UNBOUND:                -3.272
REMARK SMILES CCCCCCCCCCCCCCCCCC(=O)[O-]
REMARK SMILES IDX 10 1 11 2 12 3 13 4 14 5 15 6 16 7 17 8 18 9 19 10 20 11
REMARK SMILES IDX 9 12 8 13 7 14 6 15 5 16 4 17 3 18 2 19 1 20
REMARK H PARENT
REMARK Flexibility Score: inf
ROOT
ATOM      1  C   UNL     1     146.778  41.657  -7.064  1.00  0.00     0.000 C 
ENDROOT
BRANCH   1   2
ATOM      2  C   UNL     1     145.523  41.464  -7.934  1.00  0.00     0.000 C 
BRANCH   2   3
ATOM      3  C   UNL     1     144.282  40.936  -7.190  1.00  0.00     0.000 C 
BRANCH   3   4
ATOM      4  C   UNL     1     144.099  41.569  -5.802  1.00  0.00     0.000 C 
BRANCH   4   5
ATOM      5  C   UNL     1     144.096  40.494  -4.705  1.00  0.00     0.000 C 
BRANCH   5   6
ATOM      6  C   UNL     1     144.108  39.067  -5.274  1.00  0.00     0.000 C 
BRANCH   6   7
ATOM      7  C   UNL     1     145.237  38.204  -4.683  1.00  0.00     0.006 C 
BRANCH   7   8
ATOM      8  C   UNL     1     146.504  39.023  -4.402  1.00  0.00     0.053 C 
BRANCH   8   9
ATOM      9  C   UNL     1     147.041  38.763  -3.028  1.00  0.00     0.041 C 
ATOM     10  O   UNL     1     147.541  37.642  -2.746  1.00  0.00    -0.550 OA
ATOM     11  O   UNL     1     146.954  39.744  -2.048  1.00  0.00    -0.550 OA
ENDBRANCH   8   9
ENDBRANCH   7   8
ENDBRANCH   6   7
ENDBRANCH   5   6
ENDBRANCH   4   5
ENDBRANCH   3   4
ENDBRANCH   2   3
ENDBRANCH   1   2
BRANCH   1  12
ATOM     12  C   UNL     1     147.995  40.872  -7.583  1.00  0.00     0.000 C 
BRANCH  12  13
ATOM     13  C   UNL     1     147.763  40.257  -8.974  1.00  0.00    -0.000 C 
BRANCH  13  14
ATOM     14  C   UNL     1     147.810  38.716  -9.030  1.00  0.00    -0.000 C 
BRANCH  14  15
ATOM     15  C   UNL     1     147.001  37.998  -7.932  1.00  0.00    -0.000 C 
BRANCH  15  16
ATOM     16  C   UNL     1     145.590  37.549  -8.356  1.00  0.00    -0.000 C 
BRANCH  16  17
ATOM     17  C   UNL     1     145.278  37.705  -9.859  1.00  0.00    -0.000 C 
BRANCH  17  18
ATOM     18  C   UNL     1     144.184  38.734 -10.192  1.00  0.00    -0.000 C 
BRANCH  18  19
ATOM     19  C   UNL     1     144.665  39.821 -11.165  1.00  0.00    -0.003 C 
ATOM     20  C   UNL     1     145.782  39.298 -12.064  1.00  0.00     0.004 C 
ENDBRANCH  18  19
ENDBRANCH  17  18
ENDBRANCH  16  17
ENDBRANCH  15  16
ENDBRANCH  14  15
ENDBRANCH  13  14
ENDBRANCH  12  13
ENDBRANCH   1  12
TORSDOF 16
ENDMDL
MODEL 6
REMARK VINA RESULT:    -0.990      1.867      5.132
REMARK INTER + INTRA:          -5.188
REMARK INTER:                  -2.095
REMARK INTRA:                  -3.093
REMARK UNBOUND:                -3.272
REMARK SMILES CCCCCCCCCCCCCCCCCC(=O)[O-]
REMARK SMILES IDX 10 1 11 2 12 3 13 4 14 5 15 6 16 7 17 8 18 9 19 10 20 11
REMARK SMILES IDX 9 12 8 13 7 14 6 15 5 16 4 17 3 18 2 19 1 20
REMARK H PARENT
REMARK Flexibility Score: inf
ROOT
ATOM      1  C   UNL     1     144.429  39.662 -11.624  1.00  0.00     0.000 C 
ENDROOT
BRANCH   1   2
ATOM      2  C   UNL     1     143.451  39.996 -12.764  1.00  0.00     0.000 C 
BRANCH   2   3
ATOM      3  C   UNL     1     142.920  38.784 -13.551  1.00  0.00     0.000 C 
BRANCH   3   4
ATOM      4  C   UNL     1     141.549  38.298 -13.055  1.00  0.00     0.000 C 
BRANCH   4   5
ATOM      5  C   UNL     1     141.703  37.122 -12.080  1.00  0.00     0.000 C 
BRANCH   5   6
ATOM      6  C   UNL     1     141.075  37.407 -10.706  1.00  0.00     0.000 C 
BRANCH   6   7
ATOM      7  C   UNL     1     142.107  37.373  -9.565  1.00  0.00     0.006 C 
BRANCH   7   8
ATOM      8  C   UNL     1     142.242  38.733  -8.867  1.00  0.00     0.053 C 
BRANCH   8   9
ATOM      9  C   UNL     1     142.175  38.602  -7.377  1.00  0.00     0.041 C 
ATOM     10  O   UNL     1     142.722  37.623  -6.802  1.00  0.00    -0.550 OA
ATOM     11  O   UNL     1     141.477  39.538  -6.626  1.00  0.00    -0.550 OA
ENDBRANCH   8   9
ENDBRANCH   7   8
ENDBRANCH   6   7
ENDBRANCH   5   6
ENDBRANCH   4   5
ENDBRANCH   3   4
ENDBRANCH   2   3
ENDBRANCH   1   2
BRANCH   1  12
ATOM     12  C   UNL     1     145.510  38.648 -12.038  1.00  0.00     0.000 C 
BRANCH  12  13
ATOM     13  C   UNL     1     145.398  37.312 -11.283  1.00  0.00    -0.000 C 
BRANCH  13  14
ATOM     14  C   UNL     1     146.366  37.144 -10.094  1.00  0.00    -0.000 C 
BRANCH  14  15
ATOM     15  C   UNL     1     145.714  37.243  -8.701  1.00  0.00    -0.000 C 
BRANCH  15  16
ATOM     16  C   UNL     1     146.447  38.161  -7.705  1.00  0.00    -0.000 C 
BRANCH  16  17
ATOM     17  C   UNL     1     145.792  39.540  -7.484  1.00  0.00    -0.000 C 
BRANCH  17  18
ATOM     18  C   UNL     1     146.113  40.592  -8.560  1.00  0.00    -0.000 C 
BRANCH  18  19
ATOM     19  C   UNL     1     147.571  40.531  -9.038  1.00  0.00    -0.003 C 
ATOM     20  C   UNL     1     147.719  41.138 -10.431  1.00  0.00     0.004 C 
ENDBRANCH  18  19
ENDBRANCH  17  18
ENDBRANCH  16  17
ENDBRANCH  15  16
ENDBRANCH  14  15
ENDBRANCH  13  14
ENDBRANCH  12  13
ENDBRANCH   1  12
TORSDOF 16
ENDMDL
MODEL 7
REMARK VINA RESULT:    -0.972      2.455      6.080
REMARK INTER + INTRA:          -5.153
REMARK INTER:                  -2.014
REMARK INTRA:                  -3.139
REMARK UNBOUND:                -3.272
REMARK SMILES CCCCCCCCCCCCCCCCCC(=O)[O-]
REMARK SMILES IDX 10 1 11 2 12 3 13 4 14 5 15 6 16 7 17 8 18 9 19 10 20 11
REMARK SMILES IDX 9 12 8 13 7 14 6 15 5 16 4 17 3 18 2 19 1 20
REMARK H PARENT
REMARK Flexibility Score: inf
ROOT
ATOM      1  C   UNL     1     146.119  41.413  -6.133  1.00  0.00     0.000 C 
ENDROOT
BRANCH   1   2
ATOM      2  C   UNL     1     147.427  40.833  -6.700  1.00  0.00     0.000 C 
BRANCH   2   3
ATOM      3  C   UNL     1     147.576  40.925  -8.230  1.00  0.00     0.000 C 
BRANCH   3   4
ATOM      4  C   UNL     1     147.804  39.559  -8.895  1.00  0.00     0.000 C 
BRANCH   4   5
ATOM      5  C   UNL     1     147.400  38.415  -7.954  1.00  0.00     0.000 C 
BRANCH   5   6
ATOM      6  C   UNL     1     146.130  37.685  -8.420  1.00  0.00     0.000 C 
BRANCH   6   7
ATOM      7  C   UNL     1     145.684  38.115  -9.829  1.00  0.00     0.006 C 
BRANCH   7   8
ATOM      8  C   UNL     1     144.244  38.646  -9.842  1.00  0.00     0.053 C 
BRANCH   8   9
ATOM      9  C   UNL     1     144.105  39.852 -10.718  1.00  0.00     0.041 C 
ATOM     10  O   UNL     1     144.911  40.814 -10.605  1.00  0.00    -0.550 OA
ATOM     11  O   UNL     1     143.063  39.933 -11.632  1.00  0.00    -0.550 OA
ENDBRANCH   8   9
ENDBRANCH   7   8
ENDBRANCH   6   7
ENDBRANCH   5   6
ENDBRANCH   4   5
ENDBRANCH   3   4
ENDBRANCH   2   3
ENDBRANCH   1   2
BRANCH   1  12
ATOM     12  C   UNL     1     144.901  41.142  -7.033  1.00  0.00     0.000 C 
BRANCH  12  13
ATOM     13  C   UNL     1     143.970  40.055  -6.469  1.00  0.00    -0.000 C 
BRANCH  13  14
ATOM     14  C   UNL     1     144.474  39.354  -5.191  1.00  0.00    -0.000 C 
BRANCH  14  15
ATOM     15  C   UNL     1     144.177  37.844  -5.114  1.00  0.00    -0.000 C 
BRANCH  15  16
ATOM     16  C   UNL     1     145.402  36.956  -4.824  1.00  0.00    -0.000 C 
BRANCH  16  17
ATOM     17  C   UNL     1     146.694  37.721  -4.470  1.00  0.00    -0.000 C 
BRANCH  17  18
ATOM     18  C   UNL     1     147.254  37.437  -3.064  1.00  0.00    -0.000 C 
BRANCH  18  19
ATOM     19  C   UNL     1     147.333  38.695  -2.188  1.00  0.00    -0.003 C 
ATOM     20  C   UNL     1     147.536  39.946  -3.040  1.00  0.00     0.004 C 
ENDBRANCH  18  19
ENDBRANCH  17  18
ENDBRANCH  16  17
ENDBRANCH  15  16
ENDBRANCH  14  15
ENDBRANCH  13  14
ENDBRANCH  12  13
ENDBRANCH   1  12
TORSDOF 16
ENDMDL
MODEL 8
REMARK VINA RESULT:    -0.957      2.619      5.205
REMARK INTER + INTRA:          -5.125
REMARK INTER:                  -1.982
REMARK INTRA:                  -3.143
REMARK UNBOUND:                -3.272
REMARK SMILES CCCCCCCCCCCCCCCCCC(=O)[O-]
REMARK SMILES IDX 10 1 11 2 12 3 13 4 14 5 15 6 16 7 17 8 18 9 19 10 20 11
REMARK SMILES IDX 9 12 8 13 7 14 6 15 5 16 4 17 3 18 2 19 1 20
REMARK H PARENT
REMARK Flexibility Score: inf
ROOT
ATOM      1  C   UNL     1     145.658  39.369  -4.927  1.00  0.00     0.000 C 
ENDROOT
BRANCH   1   2
ATOM      2  C   UNL     1     146.545  40.580  -5.268  1.00  0.00     0.000 C 
BRANCH   2   3
ATOM      3  C   UNL     1     146.055  41.441  -6.448  1.00  0.00     0.000 C 
BRANCH   3   4
ATOM      4  C   UNL     1     144.743  40.929  -7.062  1.00  0.00     0.000 C 
BRANCH   4   5
ATOM      5  C   UNL     1     144.548  41.484  -8.481  1.00  0.00     0.000 C 
BRANCH   5   6
ATOM      6  C   UNL     1     144.041  40.420  -9.467  1.00  0.00     0.000 C 
BRANCH   6   7
ATOM      7  C   UNL     1     143.036  39.448  -8.825  1.00  0.00     0.006 C 
BRANCH   7   8
ATOM      8  C   UNL     1     142.837  38.182  -9.669  1.00  0.00     0.053 C 
BRANCH   8   9
ATOM      9  C   UNL     1     141.488  38.152 -10.318  1.00  0.00     0.041 C 
ATOM     10  O   UNL     1     140.447  38.100  -9.611  1.00  0.00    -0.550 OA
ATOM     11  O   UNL     1     141.381  38.144 -11.703  1.00  0.00    -0.550 OA
ENDBRANCH   8   9
ENDBRANCH   7   8
ENDBRANCH   6   7
ENDBRANCH   5   6
ENDBRANCH   4   5
ENDBRANCH   3   4
ENDBRANCH   2   3
ENDBRANCH   1   2
BRANCH   1  12
ATOM     12  C   UNL     1     146.469  38.115  -4.560  1.00  0.00     0.000 C 
BRANCH  12  13
ATOM     13  C   UNL     1     146.620  37.134  -5.736  1.00  0.00    -0.000 C 
BRANCH  13  14
ATOM     14  C   UNL     1     145.630  37.344  -6.900  1.00  0.00    -0.000 C 
BRANCH  14  15
ATOM     15  C   UNL     1     146.278  37.684  -8.256  1.00  0.00    -0.000 C 
BRANCH  15  16
ATOM     16  C   UNL     1     147.580  38.504  -8.165  1.00  0.00    -0.000 C 
BRANCH  16  17
ATOM     17  C   UNL     1     147.752  39.580  -9.256  1.00  0.00    -0.000 C 
BRANCH  17  18
ATOM     18  C   UNL     1     147.926  39.034 -10.685  1.00  0.00    -0.000 C 
BRANCH  18  19
ATOM     19  C   UNL     1     146.777  39.436 -11.621  1.00  0.00    -0.003 C 
ATOM     20  C   UNL     1     145.877  38.242 -11.929  1.00  0.00     0.004 C 
ENDBRANCH  18  19
ENDBRANCH  17  18
ENDBRANCH  16  17
ENDBRANCH  15  16
ENDBRANCH  14  15
ENDBRANCH  13  14
ENDBRANCH  12  13
ENDBRANCH   1  12
TORSDOF 16
ENDMDL
MODEL 9
REMARK VINA RESULT:    -0.955      1.537      3.266
REMARK INTER + INTRA:          -5.121
REMARK INTER:                  -2.235
REMARK INTRA:                  -2.886
REMARK UNBOUND:                -3.272
REMARK SMILES CCCCCCCCCCCCCCCCCC(=O)[O-]
REMARK SMILES IDX 10 1 11 2 12 3 13 4 14 5 15 6 16 7 17 8 18 9 19 10 20 11
REMARK SMILES IDX 9 12 8 13 7 14 6 15 5 16 4 17 3 18 2 19 1 20
REMARK H PARENT
REMARK Flexibility Score: inf
ROOT
ATOM      1  C   UNL     1     143.692  40.581  -8.490  1.00  0.00     0.000 C 
ENDROOT
BRANCH   1   2
ATOM      2  C   UNL     1     143.937  39.062  -8.541  1.00  0.00     0.000 C 
BRANCH   2   3
ATOM      3  C   UNL     1     144.940  38.524  -7.504  1.00  0.00     0.000 C 
BRANCH   3   4
ATOM      4  C   UNL     1     146.055  37.672  -8.131  1.00  0.00     0.000 C 
BRANCH   4   5
ATOM      5  C   UNL     1     147.406  38.397  -8.060  1.00  0.00     0.000 C 
BRANCH   5   6
ATOM      6  C   UNL     1     147.665  39.288  -9.285  1.00  0.00     0.000 C 
BRANCH   6   7
ATOM      7  C   UNL     1     147.692  40.785  -8.932  1.00  0.00     0.006 C 
BRANCH   7   8
ATOM      8  C   UNL     1     147.913  41.022  -7.432  1.00  0.00     0.053 C 
BRANCH   8   9
ATOM      9  C   UNL     1     146.809  41.834  -6.829  1.00  0.00     0.041 C 
ATOM     10  O   UNL     1     146.157  41.387  -5.848  1.00  0.00    -0.550 OA
ATOM     11  O   UNL     1     146.475  43.068  -7.372  1.00  0.00    -0.550 OA
ENDBRANCH   8   9
ENDBRANCH   7   8
ENDBRANCH   6   7
ENDBRANCH   5   6
ENDBRANCH   4   5
ENDBRANCH   3   4
ENDBRANCH   2   3
ENDBRANCH   1   2
BRANCH   1  12
ATOM     12  C   UNL     1     142.898  41.102  -9.700  1.00  0.00     0.000 C 
BRANCH  12  13
ATOM     13  C   UNL     1     141.560  40.369  -9.900  1.00  0.00    -0.000 C 
BRANCH  13  14
ATOM     14  C   UNL     1     141.380  39.690 -11.274  1.00  0.00    -0.000 C 
BRANCH  14  15
ATOM     15  C   UNL     1     141.444  38.151 -11.254  1.00  0.00    -0.000 C 
BRANCH  15  16
ATOM     16  C   UNL     1     141.755  37.497 -12.614  1.00  0.00    -0.000 C 
BRANCH  16  17
ATOM     17  C   UNL     1     143.162  36.875 -12.733  1.00  0.00    -0.000 C 
BRANCH  17  18
ATOM     18  C   UNL     1     144.095  37.144 -11.539  1.00  0.00    -0.000 C 
BRANCH  18  19
ATOM     19  C   UNL     1     145.396  37.851 -11.946  1.00  0.00    -0.003 C 
ATOM     20  C   UNL     1     145.207  39.365 -11.992  1.00  0.00     0.004 C 
ENDBRANCH  18  19
ENDBRANCH  17  18
ENDBRANCH  16  17
ENDBRANCH  15  16
ENDBRANCH  14  15
ENDBRANCH  13  14
ENDBRANCH  12  13
ENDBRANCH   1  12
TORSDOF 16
ENDMDL
