MODEL 1
REMARK VINA RESULT:    40.854      0.000      0.000
REMARK INTER + INTRA:          56.355
REMARK INTER:                  56.378
REMARK INTRA:                  -0.023
REMARK UNBOUND:                -0.023
REMARK SMILES C[C@H]1OC(=O)[C@H](C)[C@@H]1C[C@H](O)[C@](C)(O)[C@@H]1CC[C@]2(O)C3=CC(=O)[C@@H]4C[C@@H](O)[C@@H](O)C[C@]4(C)[C@H]3CC[C@]12C
REMARK SMILES IDX 12 1 13 2 10 3 9 4 8 5 7 6 6 7 4 8 2 9 3 10 5 11 1 12 11 13
REMARK SMILES IDX 15 15 16 16 36 17 17 18 18 19 35 20 37 21 20 22 34 23 33 24
REMARK SMILES IDX 21 25 31 26 22 27 24 28 30 29 32 30 23 31 25 32 28 33 26 34
REMARK SMILES IDX 19 35 29 37 27 39 14 41
REMARK H PARENT 11 14 19 36 29 38 27 40 14 42
REMARK Flexibility Score: inf
ROOT
ATOM      1  C   UNL     1       3.072 -22.518 -17.794  1.00  0.00     0.091 C 
ATOM      2  C   UNL     1       3.400 -21.025 -18.111  1.00  0.00     0.045 C 
ENDROOT
BRANCH   1   3
ATOM      3  C   UNL     1       3.176 -23.401 -19.099  1.00  0.00     0.146 C 
BRANCH   3   4
ATOM      4  C   UNL     1       2.055 -24.462 -19.272  1.00  0.00     0.043 C 
BRANCH   4   5
ATOM      5  C   UNL     1       1.462 -24.477 -20.707  1.00  0.00     0.046 C 
ATOM      6  C   UNL     1      -0.918 -24.936 -19.726  1.00  0.00     0.020 C 
ATOM      7  C   UNL     1       0.061 -25.124 -20.896  1.00  0.00     0.103 C 
ATOM      8  C   UNL     1      -0.442 -24.346 -22.056  1.00  0.00     0.309 C 
ATOM      9  C   UNL     1       1.318 -23.060 -21.322  1.00  0.00     0.177 C 
ATOM     10  O   UNL     1       0.271 -23.187 -22.269  1.00  0.00    -0.462 OA
ATOM     11  O   UNL     1      -1.422 -24.688 -22.770  1.00  0.00    -0.252 OA
ATOM     12  C   UNL     1       2.592 -22.569 -22.009  1.00  0.00     0.053 C 
ENDBRANCH   4   5
ENDBRANCH   3   4
BRANCH   3  13
ATOM     13  O   UNL     1       4.442 -23.996 -19.240  1.00  0.00    -0.390 OA
ATOM     14  H   UNL     1       4.764 -24.233 -18.333  1.00  0.00     0.211 HD
ENDBRANCH   3  13
ENDBRANCH   1   3
BRANCH   1  15
ATOM     15  C   UNL     1       1.630 -22.713 -17.143  1.00  0.00     0.032 C 
ATOM     16  C   UNL     1       0.439 -22.109 -17.914  1.00  0.00     0.010 C 
ATOM     17  C   UNL     1       1.389 -22.298 -15.650  1.00  0.00     0.006 C 
ATOM     18  C   UNL     1      -0.700 -21.932 -16.908  1.00  0.00     0.041 C 
ATOM     19  C   UNL     1      -0.171 -22.369 -15.524  1.00  0.00     0.092 C 
ATOM     20  C   UNL     1       1.889 -20.854 -15.381  1.00  0.00     0.011 C 
ATOM     21  C   UNL     1       2.067 -23.293 -14.661  1.00  0.00     0.015 C 
ATOM     22  C   UNL     1      -0.781 -21.476 -14.433  1.00  0.00    -0.031 C 
ATOM     23  C   UNL     1       1.464 -20.345 -14.009  1.00  0.00     0.009 C 
ATOM     24  C   UNL     1      -0.069 -20.223 -13.917  1.00  0.00     0.025 C 
ATOM     25  C   UNL     1      -2.072 -21.685 -14.097  1.00  0.00     0.050 C 
ATOM     26  C   UNL     1      -0.582 -19.791 -12.484  1.00  0.00    -0.013 C 
ATOM     27  C   UNL     1      -2.786 -20.843 -13.124  1.00  0.00     0.159 C 
ATOM     28  C   UNL     1      -2.137 -19.626 -12.527  1.00  0.00     0.070 C 
ATOM     29  C   UNL     1       0.046 -18.450 -11.991  1.00  0.00     0.042 C 
ATOM     30  C   UNL     1      -0.223 -20.876 -11.429  1.00  0.00     0.013 C 
ATOM     31  O   UNL     1      -3.976 -21.125 -12.821  1.00  0.00    -0.295 OA
ATOM     32  C   UNL     1      -2.594 -18.375 -13.316  1.00  0.00     0.047 C 
ATOM     33  C   UNL     1      -0.393 -17.229 -12.814  1.00  0.00     0.143 C 
ATOM     34  C   UNL     1      -1.930 -17.091 -12.804  1.00  0.00     0.143 C 
BRANCH  19  35
ATOM     35  O   UNL     1      -0.569 -23.703 -15.254  1.00  0.00    -0.385 OA
ATOM     36  H   UNL     1      -1.076 -23.735 -14.401  1.00  0.00     0.211 HD
ENDBRANCH  19  35
BRANCH  33  37
ATOM     37  O   UNL     1       0.200 -16.078 -12.275  1.00  0.00    -0.390 OA
ATOM     38  H   UNL     1       0.934 -16.385 -11.681  1.00  0.00     0.211 HD
ENDBRANCH  33  37
BRANCH  34  39
ATOM     39  O   UNL     1      -2.398 -16.812 -11.508  1.00  0.00    -0.390 OA
ATOM     40  H   UNL     1      -3.093 -17.488 -11.296  1.00  0.00     0.211 HD
ENDBRANCH  34  39
ENDBRANCH   1  15
BRANCH   1  41
ATOM     41  O   UNL     1       4.019 -23.016 -16.874  1.00  0.00    -0.387 OA
ATOM     42  H   UNL     1       3.998 -24.006 -16.866  1.00  0.00     0.211 HD
ENDBRANCH   1  41
TORSDOF 9
ENDMDL
