MODEL 1
REMARK VINA RESULT:    -7.549      0.000      0.000
REMARK INTER + INTRA:          -8.968
REMARK INTER:                  -8.873
REMARK INTRA:                  -0.095
REMARK UNBOUND:                -0.095
REMARK SMILES O=c1c(O)c(-c2ccc(O)cc2)oc2cc(O)cc(O)c12
REMARK SMILES IDX 5 1 3 2 2 3 1 4 21 5 19 6 18 7 16 8 15 9 14 10 13 11 6 12
REMARK SMILES IDX 7 13 8 14 9 15 12 16 11 17 10 18 4 20 20 22 17 24
REMARK H PARENT 10 19 4 21 20 23 17 25
REMARK Flexibility Score: inf
ROOT
ATOM      1  C   UNL     1       1.935  45.669   2.624  1.00  0.00     0.180 A 
ATOM      2  C   UNL     1       1.525  45.177   1.372  1.00  0.00     0.208 A 
ATOM      3  C   UNL     1       0.181  44.818   1.189  1.00  0.00     0.238 A 
ATOM      4  O   UNL     1      -0.191  44.431   0.050  1.00  0.00    -0.285 OA
ATOM      5  C   UNL     1      -0.734  44.937   2.263  1.00  0.00     0.111 A 
ATOM      6  C   UNL     1      -2.110  44.564   2.201  1.00  0.00     0.134 A 
ATOM      7  C   UNL     1      -2.951  44.849   3.283  1.00  0.00     0.093 A 
ATOM      8  C   UNL     1      -2.453  45.433   4.450  1.00  0.00     0.123 A 
ATOM      9  C   UNL     1      -1.099  45.746   4.542  1.00  0.00     0.094 A 
ATOM     10  C   UNL     1      -0.241  45.508   3.465  1.00  0.00     0.146 A 
ATOM     11  O   UNL     1       1.040  45.831   3.591  1.00  0.00    -0.452 OA
ENDROOT
BRANCH   1  12
ATOM     12  C   UNL     1       3.341  46.045   2.902  1.00  0.00     0.021 A 
ATOM     13  C   UNL     1       4.071  45.325   3.863  1.00  0.00     0.016 A 
ATOM     14  C   UNL     1       5.406  45.649   4.126  1.00  0.00     0.047 A 
ATOM     15  C   UNL     1       6.031  46.684   3.423  1.00  0.00     0.115 A 
ATOM     16  C   UNL     1       3.981  47.071   2.183  1.00  0.00     0.016 A 
ATOM     17  C   UNL     1       5.316  47.392   2.448  1.00  0.00     0.047 A 
BRANCH  15  18
ATOM     18  O   UNL     1       7.361  46.995   3.696  1.00  0.00    -0.508 OA
ATOM     19  H   UNL     1       7.797  47.828   3.318  1.00  0.00     0.293 HD
ENDBRANCH  15  18
ENDBRANCH   1  12
BRANCH   2  20
ATOM     20  O   UNL     1       2.440  45.088   0.319  1.00  0.00    -0.502 OA
ATOM     21  H   UNL     1       2.293  45.553  -0.568  1.00  0.00     0.293 HD
ENDBRANCH   2  20
BRANCH   6  22
ATOM     22  O   UNL     1      -2.688  43.893   1.120  1.00  0.00    -0.507 OA
ATOM     23  H   UNL     1      -2.779  44.273   0.190  1.00  0.00     0.293 HD
ENDBRANCH   6  22
BRANCH   8  24
ATOM     24  O   UNL     1      -3.295  45.698   5.528  1.00  0.00    -0.508 OA
ATOM     25  H   UNL     1      -3.032  46.350   6.257  1.00  0.00     0.293 HD
ENDBRANCH   8  24
TORSDOF 5
ENDMDL
MODEL 2
REMARK VINA RESULT:    -7.310      5.776      7.445
REMARK INTER + INTRA:          -8.687
REMARK INTER:                  -8.756
REMARK INTRA:                   0.069
REMARK UNBOUND:                -0.095
REMARK SMILES O=c1c(O)c(-c2ccc(O)cc2)oc2cc(O)cc(O)c12
REMARK SMILES IDX 5 1 3 2 2 3 1 4 21 5 19 6 18 7 16 8 15 9 14 10 13 11 6 12
REMARK SMILES IDX 7 13 8 14 9 15 12 16 11 17 10 18 4 20 20 22 17 24
REMARK H PARENT 10 19 4 21 20 23 17 25
REMARK Flexibility Score: inf
ROOT
ATOM      1  C   UNL     1       6.994  45.970   5.327  1.00  0.00     0.180 A 
ATOM      2  C   UNL     1       7.694  46.359   6.482  1.00  0.00     0.208 A 
ATOM      3  C   UNL     1       7.231  45.929   7.736  1.00  0.00     0.238 A 
ATOM      4  O   UNL     1       7.893  46.233   8.762  1.00  0.00    -0.285 OA
ATOM      5  C   UNL     1       6.064  45.130   7.820  1.00  0.00     0.111 A 
ATOM      6  C   UNL     1       5.482  44.672   9.041  1.00  0.00     0.134 A 
ATOM      7  C   UNL     1       4.404  43.781   8.999  1.00  0.00     0.093 A 
ATOM      8  C   UNL     1       3.845  43.382   7.782  1.00  0.00     0.123 A 
ATOM      9  C   UNL     1       4.368  43.871   6.588  1.00  0.00     0.094 A 
ATOM     10  C   UNL     1       5.468  44.733   6.596  1.00  0.00     0.146 A 
ATOM     11  O   UNL     1       5.942  45.168   5.434  1.00  0.00    -0.452 OA
ENDROOT
BRANCH   1  12
ATOM     12  C   UNL     1       7.406  46.405   3.972  1.00  0.00     0.021 A 
ATOM     13  C   UNL     1       6.458  46.990   3.116  1.00  0.00     0.016 A 
ATOM     14  C   UNL     1       6.830  47.428   1.841  1.00  0.00     0.047 A 
ATOM     15  C   UNL     1       8.155  47.299   1.412  1.00  0.00     0.115 A 
ATOM     16  C   UNL     1       8.741  46.297   3.542  1.00  0.00     0.016 A 
ATOM     17  C   UNL     1       9.110  46.736   2.266  1.00  0.00     0.047 A 
BRANCH  15  18
ATOM     18  O   UNL     1       8.510  47.739   0.138  1.00  0.00    -0.508 OA
ATOM     19  H   UNL     1       8.503  47.112  -0.658  1.00  0.00     0.293 HD
ENDBRANCH  15  18
ENDBRANCH   1  12
BRANCH   2  20
ATOM     20  O   UNL     1       8.856  47.128   6.374  1.00  0.00    -0.502 OA
ATOM     21  H   UNL     1       9.689  46.791   5.907  1.00  0.00     0.293 HD
ENDBRANCH   2  20
BRANCH   6  22
ATOM     22  O   UNL     1       5.906  45.081  10.308  1.00  0.00    -0.507 OA
ATOM     23  H   UNL     1       6.855  45.026  10.643  1.00  0.00     0.293 HD
ENDBRANCH   6  22
BRANCH   8  24
ATOM     24  O   UNL     1       2.762  42.506   7.750  1.00  0.00    -0.508 OA
ATOM     25  H   UNL     1       1.994  42.590   8.405  1.00  0.00     0.293 HD
ENDBRANCH   8  24
TORSDOF 5
ENDMDL
MODEL 3
REMARK VINA RESULT:    -7.250      6.025      8.116
REMARK INTER + INTRA:          -8.616
REMARK INTER:                  -8.679
REMARK INTRA:                   0.063
REMARK UNBOUND:                -0.095
REMARK SMILES O=c1c(O)c(-c2ccc(O)cc2)oc2cc(O)cc(O)c12
REMARK SMILES IDX 5 1 3 2 2 3 1 4 21 5 19 6 18 7 16 8 15 9 14 10 13 11 6 12
REMARK SMILES IDX 7 13 8 14 9 15 12 16 11 17 10 18 4 20 20 22 17 24
REMARK H PARENT 10 19 4 21 20 23 17 25
REMARK Flexibility Score: inf
ROOT
ATOM      1  C   UNL     1       7.380  46.490   3.617  1.00  0.00     0.180 A 
ATOM      2  C   UNL     1       8.716  46.401   3.188  1.00  0.00     0.208 A 
ATOM      3  C   UNL     1       9.048  46.842   1.898  1.00  0.00     0.238 A 
ATOM      4  O   UNL     1      10.254  46.811   1.540  1.00  0.00    -0.285 OA
ATOM      5  C   UNL     1       8.038  47.351   1.045  1.00  0.00     0.111 A 
ATOM      6  C   UNL     1       8.254  47.788  -0.296  1.00  0.00     0.134 A 
ATOM      7  C   UNL     1       7.208  48.394  -1.001  1.00  0.00     0.093 A 
ATOM      8  C   UNL     1       5.936  48.520  -0.437  1.00  0.00     0.123 A 
ATOM      9  C   UNL     1       5.700  48.042   0.850  1.00  0.00     0.094 A 
ATOM     10  C   UNL     1       6.734  47.466   1.592  1.00  0.00     0.146 A 
ATOM     11  O   UNL     1       6.469  47.032   2.819  1.00  0.00    -0.452 OA
ENDROOT
BRANCH   1  12
ATOM     12  C   UNL     1       6.948  46.022   4.955  1.00  0.00     0.021 A 
ATOM     13  C   UNL     1       5.861  45.138   5.059  1.00  0.00     0.016 A 
ATOM     14  C   UNL     1       5.451  44.666   6.310  1.00  0.00     0.047 A 
ATOM     15  C   UNL     1       6.129  45.059   7.468  1.00  0.00     0.115 A 
ATOM     16  C   UNL     1       7.640  46.397   6.121  1.00  0.00     0.016 A 
ATOM     17  C   UNL     1       7.227  45.923   7.370  1.00  0.00     0.047 A 
BRANCH  15  18
ATOM     18  O   UNL     1       5.708  44.581   8.707  1.00  0.00    -0.508 OA
ATOM     19  H   UNL     1       5.976  43.662   9.037  1.00  0.00     0.293 HD
ENDBRANCH  15  18
ENDBRANCH   1  12
BRANCH   2  20
ATOM     20  O   UNL     1       9.701  45.916   4.054  1.00  0.00    -0.502 OA
ATOM     21  H   UNL     1      10.249  45.090   3.845  1.00  0.00     0.293 HD
ENDBRANCH   2  20
BRANCH   6  22
ATOM     22  O   UNL     1       9.459  47.626  -0.985  1.00  0.00    -0.507 OA
ATOM     23  H   UNL     1      10.346  47.419  -0.551  1.00  0.00     0.293 HD
ENDBRANCH   6  22
BRANCH   8  24
ATOM     24  O   UNL     1       4.896  49.111  -1.152  1.00  0.00    -0.508 OA
ATOM     25  H   UNL     1       4.245  48.557  -1.695  1.00  0.00     0.293 HD
ENDBRANCH   8  24
TORSDOF 5
ENDMDL
MODEL 4
REMARK VINA RESULT:    -7.227      1.651      3.582
REMARK INTER + INTRA:          -8.589
REMARK INTER:                  -8.491
REMARK INTRA:                  -0.099
REMARK UNBOUND:                -0.095
REMARK SMILES O=c1c(O)c(-c2ccc(O)cc2)oc2cc(O)cc(O)c12
REMARK SMILES IDX 5 1 3 2 2 3 1 4 21 5 19 6 18 7 16 8 15 9 14 10 13 11 6 12
REMARK SMILES IDX 7 13 8 14 9 15 12 16 11 17 10 18 4 20 20 22 17 24
REMARK H PARENT 10 19 4 21 20 23 17 25
REMARK Flexibility Score: inf
ROOT
ATOM      1  C   UNL     1       1.750  45.557   2.357  1.00  0.00     0.180 A 
ATOM      2  C   UNL     1       0.598  45.750   3.139  1.00  0.00     0.208 A 
ATOM      3  C   UNL     1      -0.663  45.674   2.526  1.00  0.00     0.238 A 
ATOM      4  O   UNL     1      -1.691  45.792   3.241  1.00  0.00    -0.285 OA
ATOM      5  C   UNL     1      -0.756  45.422   1.135  1.00  0.00     0.111 A 
ATOM      6  C   UNL     1      -1.979  45.364   0.403  1.00  0.00     0.134 A 
ATOM      7  C   UNL     1      -1.959  44.979  -0.943  1.00  0.00     0.093 A 
ATOM      8  C   UNL     1      -0.755  44.713  -1.599  1.00  0.00     0.123 A 
ATOM      9  C   UNL     1       0.449  44.826  -0.908  1.00  0.00     0.094 A 
ATOM     10  C   UNL     1       0.459  45.172   0.445  1.00  0.00     0.146 A 
ATOM     11  O   UNL     1       1.627  45.258   1.070  1.00  0.00    -0.452 OA
ENDROOT
BRANCH   1  12
ATOM     12  C   UNL     1       3.114  45.648   2.927  1.00  0.00     0.021 A 
ATOM     13  C   UNL     1       3.977  46.669   2.494  1.00  0.00     0.016 A 
ATOM     14  C   UNL     1       5.262  46.787   3.035  1.00  0.00     0.047 A 
ATOM     15  C   UNL     1       5.694  45.897   4.022  1.00  0.00     0.115 A 
ATOM     16  C   UNL     1       3.548  44.768   3.936  1.00  0.00     0.016 A 
ATOM     17  C   UNL     1       4.832  44.889   4.474  1.00  0.00     0.047 A 
BRANCH  15  18
ATOM     18  O   UNL     1       6.976  46.026   4.551  1.00  0.00    -0.508 OA
ATOM     19  H   UNL     1       7.429  45.258   5.032  1.00  0.00     0.293 HD
ENDBRANCH  15  18
ENDBRANCH   1  12
BRANCH   2  20
ATOM     20  O   UNL     1       0.712  45.976   4.514  1.00  0.00    -0.502 OA
ATOM     21  H   UNL     1       0.860  46.899   4.903  1.00  0.00     0.293 HD
ENDBRANCH   2  20
BRANCH   6  22
ATOM     22  O   UNL     1      -3.226  45.698   0.938  1.00  0.00    -0.507 OA
ATOM     23  H   UNL     1      -3.368  46.128   1.839  1.00  0.00     0.293 HD
ENDBRANCH   6  22
BRANCH   8  24
ATOM     24  O   UNL     1      -0.744  44.346  -2.944  1.00  0.00    -0.508 OA
ATOM     25  H   UNL     1      -1.514  43.837  -3.360  1.00  0.00     0.293 HD
ENDBRANCH   8  24
TORSDOF 5
ENDMDL
MODEL 5
REMARK VINA RESULT:    -7.063      3.263      6.378
REMARK INTER + INTRA:          -8.396
REMARK INTER:                  -8.746
REMARK INTRA:                   0.350
REMARK UNBOUND:                -0.095
REMARK SMILES O=c1c(O)c(-c2ccc(O)cc2)oc2cc(O)cc(O)c12
REMARK SMILES IDX 5 1 3 2 2 3 1 4 21 5 19 6 18 7 16 8 15 9 14 10 13 11 6 12
REMARK SMILES IDX 7 13 8 14 9 15 12 16 11 17 10 18 4 20 20 22 17 24
REMARK H PARENT 10 19 4 21 20 23 17 25
REMARK Flexibility Score: inf
ROOT
ATOM      1  C   UNL     1      -1.180  45.110   1.598  1.00  0.00     0.180 A 
ATOM      2  C   UNL     1       0.217  45.096   1.439  1.00  0.00     0.208 A 
ATOM      3  C   UNL     1       0.754  44.944   0.151  1.00  0.00     0.238 A 
ATOM      4  O   UNL     1       2.004  44.988   0.009  1.00  0.00    -0.285 OA
ATOM      5  C   UNL     1      -0.110  44.789  -0.960  1.00  0.00     0.111 A 
ATOM      6  C   UNL     1       0.326  44.587  -2.304  1.00  0.00     0.134 A 
ATOM      7  C   UNL     1      -0.615  44.578  -3.340  1.00  0.00     0.093 A 
ATOM      8  C   UNL     1      -1.981  44.698  -3.075  1.00  0.00     0.123 A 
ATOM      9  C   UNL     1      -2.421  44.836  -1.760  1.00  0.00     0.094 A 
ATOM     10  C   UNL     1      -1.503  44.886  -0.708  1.00  0.00     0.146 A 
ATOM     11  O   UNL     1      -1.963  45.028   0.529  1.00  0.00    -0.452 OA
ENDROOT
BRANCH   1  12
ATOM     12  C   UNL     1      -1.821  45.241   2.927  1.00  0.00     0.021 A 
ATOM     13  C   UNL     1      -3.078  44.653   3.148  1.00  0.00     0.016 A 
ATOM     14  C   UNL     1      -3.692  44.746   4.401  1.00  0.00     0.047 A 
ATOM     15  C   UNL     1      -3.052  45.413   5.450  1.00  0.00     0.115 A 
ATOM     16  C   UNL     1      -1.174  45.893   3.992  1.00  0.00     0.016 A 
ATOM     17  C   UNL     1      -1.790  45.983   5.244  1.00  0.00     0.047 A 
BRANCH  15  18
ATOM     18  O   UNL     1      -3.676  45.497   6.693  1.00  0.00    -0.508 OA
ATOM     19  H   UNL     1      -3.949  46.390   7.088  1.00  0.00     0.293 HD
ENDBRANCH  15  18
ENDBRANCH   1  12
BRANCH   2  20
ATOM     20  O   UNL     1       1.051  45.272   2.546  1.00  0.00    -0.502 OA
ATOM     21  H   UNL     1       0.873  45.974   3.255  1.00  0.00     0.293 HD
ENDBRANCH   2  20
BRANCH   6  22
ATOM     22  O   UNL     1       1.657  44.365  -2.667  1.00  0.00    -0.507 OA
ATOM     23  H   UNL     1       2.449  44.846  -2.270  1.00  0.00     0.293 HD
ENDBRANCH   6  22
BRANCH   8  24
ATOM     24  O   UNL     1      -2.912  44.672  -4.111  1.00  0.00    -0.508 OA
ATOM     25  H   UNL     1      -3.481  43.854  -4.292  1.00  0.00     0.293 HD
ENDBRANCH   8  24
TORSDOF 5
ENDMDL
MODEL 6
REMARK VINA RESULT:    -6.894      8.733     10.545
REMARK INTER + INTRA:          -8.197
REMARK INTER:                  -7.903
REMARK INTRA:                  -0.294
REMARK UNBOUND:                -0.095
REMARK SMILES O=c1c(O)c(-c2ccc(O)cc2)oc2cc(O)cc(O)c12
REMARK SMILES IDX 5 1 3 2 2 3 1 4 21 5 19 6 18 7 16 8 15 9 14 10 13 11 6 12
REMARK SMILES IDX 7 13 8 14 9 15 12 16 11 17 10 18 4 20 20 22 17 24
REMARK H PARENT 10 19 4 21 20 23 17 25
REMARK Flexibility Score: inf
ROOT
ATOM      1  C   UNL     1       5.070  41.040   9.384  1.00  0.00     0.180 A 
ATOM      2  C   UNL     1       5.492  40.633   8.106  1.00  0.00     0.208 A 
ATOM      3  C   UNL     1       5.911  39.306   7.919  1.00  0.00     0.238 A 
ATOM      4  O   UNL     1       6.234  38.932   6.761  1.00  0.00    -0.285 OA
ATOM      5  C   UNL     1       5.918  38.407   9.013  1.00  0.00     0.111 A 
ATOM      6  C   UNL     1       6.361  37.052   8.946  1.00  0.00     0.134 A 
ATOM      7  C   UNL     1       6.201  36.219  10.059  1.00  0.00     0.093 A 
ATOM      8  C   UNL     1       5.676  36.708  11.257  1.00  0.00     0.123 A 
ATOM      9  C   UNL     1       5.297  38.045  11.351  1.00  0.00     0.094 A 
ATOM     10  C   UNL     1       5.409  38.893  10.246  1.00  0.00     0.146 A 
ATOM     11  O   UNL     1       5.027  40.157  10.374  1.00  0.00    -0.452 OA
ENDROOT
BRANCH   1  12
ATOM     12  C   UNL     1       4.639  42.429   9.666  1.00  0.00     0.021 A 
ATOM     13  C   UNL     1       3.283  42.773   9.533  1.00  0.00     0.016 A 
ATOM     14  C   UNL     1       2.851  44.072   9.815  1.00  0.00     0.047 A 
ATOM     15  C   UNL     1       3.764  45.039  10.248  1.00  0.00     0.115 A 
ATOM     16  C   UNL     1       5.549  43.401  10.122  1.00  0.00     0.016 A 
ATOM     17  C   UNL     1       5.114  44.699  10.404  1.00  0.00     0.047 A 
BRANCH  15  18
ATOM     18  O   UNL     1       3.319  46.329  10.526  1.00  0.00    -0.508 OA
ATOM     19  H   UNL     1       2.545  46.497  11.157  1.00  0.00     0.293 HD
ENDBRANCH  15  18
ENDBRANCH   1  12
BRANCH   2  20
ATOM     20  O   UNL     1       5.455  41.530   7.035  1.00  0.00    -0.502 OA
ATOM     21  H   UNL     1       6.035  41.416   6.212  1.00  0.00     0.293 HD
ENDBRANCH   2  20
BRANCH   6  22
ATOM     22  O   UNL     1       6.983  36.489   7.828  1.00  0.00    -0.507 OA
ATOM     23  H   UNL     1       6.497  36.125   7.023  1.00  0.00     0.293 HD
ENDBRANCH   6  22
BRANCH   8  24
ATOM     24  O   UNL     1       5.535  35.875  12.366  1.00  0.00    -0.508 OA
ATOM     25  H   UNL     1       4.632  35.709  12.792  1.00  0.00     0.293 HD
ENDBRANCH   8  24
TORSDOF 5
ENDMDL
MODEL 7
REMARK VINA RESULT:    -6.793      8.501     10.912
REMARK INTER + INTRA:          -8.079
REMARK INTER:                  -7.784
REMARK INTRA:                  -0.294
REMARK UNBOUND:                -0.095
REMARK SMILES O=c1c(O)c(-c2ccc(O)cc2)oc2cc(O)cc(O)c12
REMARK SMILES IDX 5 1 3 2 2 3 1 4 21 5 19 6 18 7 16 8 15 9 14 10 13 11 6 12
REMARK SMILES IDX 7 13 8 14 9 15 12 16 11 17 10 18 4 20 20 22 17 24
REMARK H PARENT 10 19 4 21 20 23 17 25
REMARK Flexibility Score: inf
ROOT
ATOM      1  C   UNL     1       7.314  50.606  -1.344  1.00  0.00     0.180 A 
ATOM      2  C   UNL     1       6.778  50.904  -0.079  1.00  0.00     0.208 A 
ATOM      3  C   UNL     1       6.619  52.248   0.294  1.00  0.00     0.238 A 
ATOM      4  O   UNL     1       6.087  52.508   1.405  1.00  0.00    -0.285 OA
ATOM      5  C   UNL     1       7.014  53.278  -0.594  1.00  0.00     0.111 A 
ATOM      6  C   UNL     1       6.936  54.673  -0.303  1.00  0.00     0.134 A 
ATOM      7  C   UNL     1       7.231  55.604  -1.306  1.00  0.00     0.093 A 
ATOM      8  C   UNL     1       7.665  55.191  -2.568  1.00  0.00     0.123 A 
ATOM      9  C   UNL     1       7.802  53.832  -2.842  1.00  0.00     0.094 A 
ATOM     10  C   UNL     1       7.479  52.878  -1.874  1.00  0.00     0.146 A 
ATOM     11  O   UNL     1       7.614  51.593  -2.179  1.00  0.00    -0.452 OA
ENDROOT
BRANCH   1  12
ATOM     12  C   UNL     1       7.536  49.214  -1.799  1.00  0.00     0.021 A 
ATOM     13  C   UNL     1       6.582  48.597  -2.626  1.00  0.00     0.016 A 
ATOM     14  C   UNL     1       6.783  47.291  -3.085  1.00  0.00     0.047 A 
ATOM     15  C   UNL     1       7.942  46.592  -2.735  1.00  0.00     0.115 A 
ATOM     16  C   UNL     1       8.710  48.513  -1.467  1.00  0.00     0.016 A 
ATOM     17  C   UNL     1       8.907  47.207  -1.928  1.00  0.00     0.047 A 
BRANCH  15  18
ATOM     18  O   UNL     1       8.127  45.292  -3.199  1.00  0.00    -0.508 OA
ATOM     19  H   UNL     1       7.963  45.048  -4.169  1.00  0.00     0.293 HD
ENDBRANCH  15  18
ENDBRANCH   1  12
BRANCH   2  20
ATOM     20  O   UNL     1       6.374  49.872   0.774  1.00  0.00    -0.502 OA
ATOM     21  H   UNL     1       5.410  49.749   1.058  1.00  0.00     0.293 HD
ENDBRANCH   2  20
BRANCH   6  22
ATOM     22  O   UNL     1       6.602  55.191   0.951  1.00  0.00    -0.507 OA
ATOM     23  H   UNL     1       6.629  56.169   1.194  1.00  0.00     0.293 HD
ENDBRANCH   6  22
BRANCH   8  24
ATOM     24  O   UNL     1       7.973  56.125  -3.555  1.00  0.00    -0.508 OA
ATOM     25  H   UNL     1       7.425  56.198  -4.404  1.00  0.00     0.293 HD
ENDBRANCH   8  24
TORSDOF 5
ENDMDL
MODEL 8
REMARK VINA RESULT:    -6.715      5.390      7.376
REMARK INTER + INTRA:          -7.987
REMARK INTER:                  -8.070
REMARK INTRA:                   0.083
REMARK UNBOUND:                -0.095
REMARK SMILES O=c1c(O)c(-c2ccc(O)cc2)oc2cc(O)cc(O)c12
REMARK SMILES IDX 5 1 3 2 2 3 1 4 21 5 19 6 18 7 16 8 15 9 14 10 13 11 6 12
REMARK SMILES IDX 7 13 8 14 9 15 12 16 11 17 10 18 4 20 20 22 17 24
REMARK H PARENT 10 19 4 21 20 23 17 25
REMARK Flexibility Score: inf
ROOT
ATOM      1  C   UNL     1       6.259  45.569   5.291  1.00  0.00     0.180 A 
ATOM      2  C   UNL     1       5.191  44.657   5.336  1.00  0.00     0.208 A 
ATOM      3  C   UNL     1       4.832  44.088   6.568  1.00  0.00     0.238 A 
ATOM      4  O   UNL     1       3.840  43.315   6.611  1.00  0.00    -0.285 OA
ATOM      5  C   UNL     1       5.557  44.424   7.737  1.00  0.00     0.111 A 
ATOM      6  C   UNL     1       5.307  43.876   9.031  1.00  0.00     0.134 A 
ATOM      7  C   UNL     1       6.000  44.378  10.138  1.00  0.00     0.093 A 
ATOM      8  C   UNL     1       6.981  45.362   9.990  1.00  0.00     0.123 A 
ATOM      9  C   UNL     1       7.274  45.859   8.722  1.00  0.00     0.094 A 
ATOM     10  C   UNL     1       6.573  45.405   7.603  1.00  0.00     0.146 A 
ATOM     11  O   UNL     1       6.877  45.913   6.414  1.00  0.00    -0.452 OA
ENDROOT
BRANCH   1  12
ATOM     12  C   UNL     1       6.713  46.191   4.025  1.00  0.00     0.021 A 
ATOM     13  C   UNL     1       5.773  46.810   3.184  1.00  0.00     0.016 A 
ATOM     14  C   UNL     1       6.182  47.423   1.995  1.00  0.00     0.047 A 
ATOM     15  C   UNL     1       7.535  47.437   1.641  1.00  0.00     0.115 A 
ATOM     16  C   UNL     1       8.075  46.227   3.673  1.00  0.00     0.016 A 
ATOM     17  C   UNL     1       8.480  46.841   2.484  1.00  0.00     0.047 A 
BRANCH  15  18
ATOM     18  O   UNL     1       7.927  48.051   0.453  1.00  0.00    -0.508 OA
ATOM     19  H   UNL     1       8.335  47.519  -0.307  1.00  0.00     0.293 HD
ENDBRANCH  15  18
ENDBRANCH   1  12
BRANCH   2  20
ATOM     20  O   UNL     1       4.474  44.356   4.173  1.00  0.00    -0.502 OA
ATOM     21  H   UNL     1       3.462  44.373   4.140  1.00  0.00     0.293 HD
ENDBRANCH   2  20
BRANCH   6  22
ATOM     22  O   UNL     1       4.415  42.828   9.276  1.00  0.00    -0.507 OA
ATOM     23  H   UNL     1       3.878  42.716  10.122  1.00  0.00     0.293 HD
ENDBRANCH   6  22
BRANCH   8  24
ATOM     24  O   UNL     1       7.677  45.845  11.096  1.00  0.00    -0.508 OA
ATOM     25  H   UNL     1       7.759  46.838  11.278  1.00  0.00     0.293 HD
ENDBRANCH   8  24
TORSDOF 5
ENDMDL
MODEL 9
REMARK VINA RESULT:    -6.706      5.434      8.486
REMARK INTER + INTRA:          -7.977
REMARK INTER:                  -8.043
REMARK INTRA:                   0.066
REMARK UNBOUND:                -0.095
REMARK SMILES O=c1c(O)c(-c2ccc(O)cc2)oc2cc(O)cc(O)c12
REMARK SMILES IDX 5 1 3 2 2 3 1 4 21 5 19 6 18 7 16 8 15 9 14 10 13 11 6 12
REMARK SMILES IDX 7 13 8 14 9 15 12 16 11 17 10 18 4 20 20 22 17 24
REMARK H PARENT 10 19 4 21 20 23 17 25
REMARK Flexibility Score: inf
ROOT
ATOM      1  C   UNL     1       6.845  46.736   3.100  1.00  0.00     0.180 A 
ATOM      2  C   UNL     1       5.872  47.407   2.339  1.00  0.00     0.208 A 
ATOM      3  C   UNL     1       6.247  47.997   1.122  1.00  0.00     0.238 A 
ATOM      4  O   UNL     1       5.361  48.548   0.419  1.00  0.00    -0.285 OA
ATOM      5  C   UNL     1       7.593  47.924   0.688  1.00  0.00     0.111 A 
ATOM      6  C   UNL     1       8.093  48.520  -0.508  1.00  0.00     0.134 A 
ATOM      7  C   UNL     1       9.413  48.272  -0.903  1.00  0.00     0.093 A 
ATOM      8  C   UNL     1      10.270  47.504  -0.113  1.00  0.00     0.123 A 
ATOM      9  C   UNL     1       9.809  46.967   1.087  1.00  0.00     0.094 A 
ATOM     10  C   UNL     1       8.486  47.166   1.490  1.00  0.00     0.146 A 
ATOM     11  O   UNL     1       8.084  46.628   2.635  1.00  0.00    -0.452 OA
ENDROOT
BRANCH   1  12
ATOM     12  C   UNL     1       6.532  46.111   4.406  1.00  0.00     0.021 A 
ATOM     13  C   UNL     1       5.446  45.225   4.506  1.00  0.00     0.016 A 
ATOM     14  C   UNL     1       5.146  44.607   5.724  1.00  0.00     0.047 A 
ATOM     15  C   UNL     1       5.935  44.855   6.852  1.00  0.00     0.115 A 
ATOM     16  C   UNL     1       7.334  46.340   5.540  1.00  0.00     0.016 A 
ATOM     17  C   UNL     1       7.032  45.720   6.756  1.00  0.00     0.047 A 
BRANCH  15  18
ATOM     18  O   UNL     1       5.623  44.232   8.059  1.00  0.00    -0.508 OA
ATOM     19  H   UNL     1       6.271  43.596   8.507  1.00  0.00     0.293 HD
ENDBRANCH  15  18
ENDBRANCH   1  12
BRANCH   2  20
ATOM     20  O   UNL     1       4.545  47.448   2.775  1.00  0.00    -0.502 OA
ATOM     21  H   UNL     1       4.240  48.050   3.531  1.00  0.00     0.293 HD
ENDBRANCH   2  20
BRANCH   6  22
ATOM     22  O   UNL     1       7.348  49.378  -1.322  1.00  0.00    -0.507 OA
ATOM     23  H   UNL     1       6.765  50.128  -0.984  1.00  0.00     0.293 HD
ENDBRANCH   6  22
BRANCH   8  24
ATOM     24  O   UNL     1      11.587  47.275  -0.506  1.00  0.00    -0.508 OA
ATOM     25  H   UNL     1      12.006  46.355  -0.445  1.00  0.00     0.293 HD
ENDBRANCH   8  24
TORSDOF 5
ENDMDL
