MODEL 1
REMARK VINA RESULT:    -4.588      0.000      0.000
REMARK INTER + INTRA:          -6.525
REMARK INTER:                  -6.198
REMARK INTRA:                  -0.327
REMARK UNBOUND:                -0.327
REMARK SMILES COc1ccc(-c2cc(=O)c3c(OC)c(OC)c(OC)c(OC)c3o2)cc1
REMARK SMILES IDX 7 1 8 2 9 3 10 4 11 5 24 6 25 7 21 8 18 9 15 10 12 11 6 12
REMARK SMILES IDX 3 13 4 14 27 15 5 16 26 17 2 18 1 19 22 20 23 21 13 22 14 23
REMARK SMILES IDX 19 24 20 25 16 26 17 27
REMARK H PARENT
REMARK Flexibility Score: inf
ROOT
ATOM      1  C   UNL     1       3.757  -8.356  -9.864  1.00  0.00     0.138 A 
ATOM      2  C   UNL     1       4.297  -7.655  -8.779  1.00  0.00     0.100 A 
ATOM      3  C   UNL     1       5.618  -7.216  -8.836  1.00  0.00     0.197 A 
ATOM      4  O   UNL     1       6.082  -6.582  -7.850  1.00  0.00    -0.289 OA
ATOM      5  C   UNL     1       6.400  -7.485  -9.985  1.00  0.00     0.115 A 
ATOM      6  C   UNL     1       5.795  -8.223 -11.022  1.00  0.00     0.188 A 
ATOM      7  O   UNL     1       4.526  -8.615 -10.919  1.00  0.00    -0.452 OA
ATOM      8  C   UNL     1       6.509  -8.541 -12.182  1.00  0.00     0.209 A 
ATOM      9  C   UNL     1       7.825  -8.056 -12.366  1.00  0.00     0.211 A 
ATOM     10  C   UNL     1       8.454  -7.324 -11.321  1.00  0.00     0.208 A 
ATOM     11  C   UNL     1       7.741  -7.045 -10.122  1.00  0.00     0.179 A 
ENDROOT
BRANCH   1  12
ATOM     12  C   UNL     1       2.348  -8.827  -9.869  1.00  0.00     0.018 A 
ATOM     13  C   UNL     1      -0.342  -9.691  -9.931  1.00  0.00     0.118 A 
ATOM     14  C   UNL     1       0.311  -9.483  -8.702  1.00  0.00     0.047 A 
ATOM     15  C   UNL     1       0.355  -9.454 -11.120  1.00  0.00     0.047 A 
ATOM     16  C   UNL     1       1.640  -9.051  -8.672  1.00  0.00     0.016 A 
ATOM     17  C   UNL     1       1.683  -9.021 -11.092  1.00  0.00     0.016 A 
BRANCH  13  18
ATOM     18  O   UNL     1      -1.673 -10.125 -10.014  1.00  0.00    -0.497 OA
ATOM     19  C   UNL     1      -2.590 -10.116  -8.924  1.00  0.00     0.278 C 
ENDBRANCH  13  18
ENDBRANCH   1  12
BRANCH   8  20
ATOM     20  O   UNL     1       5.896  -9.332 -13.157  1.00  0.00    -0.490 OA
ATOM     21  C   UNL     1       5.008  -8.784 -14.125  1.00  0.00     0.278 C 
ENDBRANCH   8  20
BRANCH  11  22
ATOM     22  O   UNL     1       8.308  -6.333  -9.042  1.00  0.00    -0.492 OA
ATOM     23  C   UNL     1       8.484  -4.926  -8.919  1.00  0.00     0.278 C 
ENDBRANCH  11  22
BRANCH   9  24
ATOM     24  O   UNL     1       8.542  -8.277 -13.557  1.00  0.00    -0.490 OA
ATOM     25  C   UNL     1       9.674  -9.122 -13.742  1.00  0.00     0.279 C 
ENDBRANCH   9  24
BRANCH  10  26
ATOM     26  O   UNL     1       9.776  -6.848 -11.426  1.00  0.00    -0.490 OA
ATOM     27  C   UNL     1      10.258  -5.767 -12.218  1.00  0.00     0.278 C 
ENDBRANCH  10  26
TORSDOF 6
ENDMDL
MODEL 2
REMARK VINA RESULT:    -4.464      1.355      3.562
REMARK INTER + INTRA:          -6.357
REMARK INTER:                  -6.080
REMARK INTRA:                  -0.277
REMARK UNBOUND:                -0.327
REMARK SMILES COc1ccc(-c2cc(=O)c3c(OC)c(OC)c(OC)c(OC)c3o2)cc1
REMARK SMILES IDX 7 1 8 2 9 3 10 4 11 5 24 6 25 7 21 8 18 9 15 10 12 11 6 12
REMARK SMILES IDX 3 13 4 14 27 15 5 16 26 17 2 18 1 19 22 20 23 21 13 22 14 23
REMARK SMILES IDX 19 24 20 25 16 26 17 27
REMARK H PARENT
REMARK Flexibility Score: inf
ROOT
ATOM      1  C   UNL     1       4.685  -8.955 -11.148  1.00  0.00     0.138 A 
ATOM      2  C   UNL     1       5.034  -9.674 -12.298  1.00  0.00     0.100 A 
ATOM      3  C   UNL     1       6.279  -9.463 -12.886  1.00  0.00     0.197 A 
ATOM      4  O   UNL     1       6.575 -10.125 -13.917  1.00  0.00    -0.289 OA
ATOM      5  C   UNL     1       7.175  -8.523 -12.321  1.00  0.00     0.115 A 
ATOM      6  C   UNL     1       6.738  -7.816 -11.182  1.00  0.00     0.188 A 
ATOM      7  O   UNL     1       5.539  -8.060 -10.656  1.00  0.00    -0.452 OA
ATOM      8  C   UNL     1       7.561  -6.862 -10.577  1.00  0.00     0.209 A 
ATOM      9  C   UNL     1       8.876  -6.648 -11.051  1.00  0.00     0.211 A 
ATOM     10  C   UNL     1       9.325  -7.343 -12.208  1.00  0.00     0.208 A 
ATOM     11  C   UNL     1       8.466  -8.278 -12.851  1.00  0.00     0.179 A 
ENDROOT
BRANCH   1  12
ATOM     12  C   UNL     1       3.381  -9.156 -10.464  1.00  0.00     0.018 A 
ATOM     13  C   UNL     1       0.872  -9.531  -9.220  1.00  0.00     0.118 A 
ATOM     14  C   UNL     1       1.942  -8.960  -8.507  1.00  0.00     0.047 A 
ATOM     15  C   UNL     1       1.065  -9.901 -10.555  1.00  0.00     0.047 A 
ATOM     16  C   UNL     1       3.181  -8.771  -9.125  1.00  0.00     0.016 A 
ATOM     17  C   UNL     1       2.302  -9.711 -11.175  1.00  0.00     0.016 A 
BRANCH  13  18
ATOM     18  O   UNL     1      -0.390  -9.743  -8.645  1.00  0.00    -0.497 OA
ATOM     19  C   UNL     1      -1.626  -9.466  -9.295  1.00  0.00     0.278 C 
ENDBRANCH  13  18
ENDBRANCH   1  12
BRANCH   8  20
ATOM     20  O   UNL     1       7.066  -6.133  -9.491  1.00  0.00    -0.490 OA
ATOM     21  C   UNL     1       6.616  -4.790  -9.626  1.00  0.00     0.278 C 
ENDBRANCH   8  20
BRANCH  11  22
ATOM     22  O   UNL     1       8.844  -8.993 -14.009  1.00  0.00    -0.492 OA
ATOM     23  C   UNL     1       9.837 -10.006 -14.125  1.00  0.00     0.278 C 
ENDBRANCH  11  22
BRANCH   9  24
ATOM     24  O   UNL     1       9.766  -5.763 -10.412  1.00  0.00    -0.490 OA
ATOM     25  C   UNL     1      10.403  -4.621 -10.975  1.00  0.00     0.279 C 
ENDBRANCH   9  24
BRANCH  10  26
ATOM     26  O   UNL     1      10.609  -7.147 -12.753  1.00  0.00    -0.490 OA
ATOM     27  C   UNL     1      10.969  -6.379 -13.897  1.00  0.00     0.278 C 
ENDBRANCH  10  26
TORSDOF 6
ENDMDL
MODEL 3
REMARK VINA RESULT:    -3.820      2.078      3.229
REMARK INTER + INTRA:          -5.487
REMARK INTER:                  -5.534
REMARK INTRA:                   0.047
REMARK UNBOUND:                -0.327
REMARK SMILES COc1ccc(-c2cc(=O)c3c(OC)c(OC)c(OC)c(OC)c3o2)cc1
REMARK SMILES IDX 7 1 8 2 9 3 10 4 11 5 24 6 25 7 21 8 18 9 15 10 12 11 6 12
REMARK SMILES IDX 3 13 4 14 27 15 5 16 26 17 2 18 1 19 22 20 23 21 13 22 14 23
REMARK SMILES IDX 19 24 20 25 16 26 17 27
REMARK H PARENT
REMARK Flexibility Score: inf
ROOT
ATOM      1  C   UNL     1       4.843  -8.738 -10.762  1.00  0.00     0.138 A 
ATOM      2  C   UNL     1       5.894  -9.661 -10.702  1.00  0.00     0.100 A 
ATOM      3  C   UNL     1       7.167  -9.279 -11.121  1.00  0.00     0.197 A 
ATOM      4  O   UNL     1       8.100 -10.125 -11.053  1.00  0.00    -0.289 OA
ATOM      5  C   UNL     1       7.384  -7.967 -11.606  1.00  0.00     0.115 A 
ATOM      6  C   UNL     1       6.270  -7.106 -11.665  1.00  0.00     0.188 A 
ATOM      7  O   UNL     1       5.075  -7.520 -11.247  1.00  0.00    -0.452 OA
ATOM      8  C   UNL     1       6.403  -5.800 -12.147  1.00  0.00     0.209 A 
ATOM      9  C   UNL     1       7.675  -5.297 -12.507  1.00  0.00     0.211 A 
ATOM     10  C   UNL     1       8.805  -6.160 -12.467  1.00  0.00     0.208 A 
ATOM     11  C   UNL     1       8.657  -7.503 -12.023  1.00  0.00     0.179 A 
ENDROOT
BRANCH   1  12
ATOM     12  C   UNL     1       3.472  -9.082 -10.305  1.00  0.00     0.018 A 
ATOM     13  C   UNL     1       0.886  -9.742  -9.378  1.00  0.00     0.118 A 
ATOM     14  C   UNL     1       1.288 -10.096 -10.679  1.00  0.00     0.047 A 
ATOM     15  C   UNL     1       1.787  -9.068  -8.549  1.00  0.00     0.047 A 
ATOM     16  C   UNL     1       2.569  -9.774 -11.135  1.00  0.00     0.016 A 
ATOM     17  C   UNL     1       3.068  -8.745  -9.001  1.00  0.00     0.016 A 
BRANCH  13  18
ATOM     18  O   UNL     1      -0.389 -10.042  -8.876  1.00  0.00    -0.497 OA
ATOM     19  C   UNL     1      -1.610  -9.676  -9.511  1.00  0.00     0.278 C 
ENDBRANCH  13  18
ENDBRANCH   1  12
BRANCH   8  20
ATOM     20  O   UNL     1       5.262  -4.999 -12.253  1.00  0.00    -0.490 OA
ATOM     21  C   UNL     1       4.596  -4.479 -11.108  1.00  0.00     0.278 C 
ENDBRANCH   8  20
BRANCH  11  22
ATOM     22  O   UNL     1       9.734  -8.415 -11.970  1.00  0.00    -0.492 OA
ATOM     23  C   UNL     1      10.459  -8.975 -13.059  1.00  0.00     0.278 C 
ENDBRANCH  11  22
BRANCH   9  24
ATOM     24  O   UNL     1       7.863  -3.961 -12.908  1.00  0.00    -0.490 OA
ATOM     25  C   UNL     1       7.253  -3.293 -14.008  1.00  0.00     0.279 C 
ENDBRANCH   9  24
BRANCH  10  26
ATOM     26  O   UNL     1      10.092  -5.731 -12.850  1.00  0.00    -0.490 OA
ATOM     27  C   UNL     1      10.805  -4.585 -12.397  1.00  0.00     0.278 C 
ENDBRANCH  10  26
TORSDOF 6
ENDMDL
MODEL 4
REMARK VINA RESULT:    -3.292      2.296      3.223
REMARK INTER + INTRA:          -4.774
REMARK INTER:                  -5.380
REMARK INTRA:                   0.606
REMARK UNBOUND:                -0.327
REMARK SMILES COc1ccc(-c2cc(=O)c3c(OC)c(OC)c(OC)c(OC)c3o2)cc1
REMARK SMILES IDX 7 1 8 2 9 3 10 4 11 5 24 6 25 7 21 8 18 9 15 10 12 11 6 12
REMARK SMILES IDX 3 13 4 14 27 15 5 16 26 17 2 18 1 19 22 20 23 21 13 22 14 23
REMARK SMILES IDX 19 24 20 25 16 26 17 27
REMARK H PARENT
REMARK Flexibility Score: inf
ROOT
ATOM      1  C   UNL     1       5.314  -6.982 -10.874  1.00  0.00     0.138 A 
ATOM      2  C   UNL     1       5.144  -5.610 -11.096  1.00  0.00     0.100 A 
ATOM      3  C   UNL     1       6.166  -4.883 -11.702  1.00  0.00     0.197 A 
ATOM      4  O   UNL     1       5.989  -3.649 -11.897  1.00  0.00    -0.289 OA
ATOM      5  C   UNL     1       7.363  -5.533 -12.085  1.00  0.00     0.115 A 
ATOM      6  C   UNL     1       7.471  -6.910 -11.799  1.00  0.00     0.188 A 
ATOM      7  O   UNL     1       6.462  -7.559 -11.222  1.00  0.00    -0.452 OA
ATOM      8  C   UNL     1       8.629  -7.618 -12.133  1.00  0.00     0.209 A 
ATOM      9  C   UNL     1       9.679  -6.981 -12.835  1.00  0.00     0.211 A 
ATOM     10  C   UNL     1       9.591  -5.590 -13.115  1.00  0.00     0.208 A 
ATOM     11  C   UNL     1       8.431  -4.861 -12.730  1.00  0.00     0.179 A 
ENDROOT
BRANCH   1  12
ATOM     12  C   UNL     1       4.250  -7.813 -10.253  1.00  0.00     0.018 A 
ATOM     13  C   UNL     1       2.252  -9.381  -9.015  1.00  0.00     0.118 A 
ATOM     14  C   UNL     1       2.697  -9.690 -10.314  1.00  0.00     0.047 A 
ATOM     15  C   UNL     1       2.818  -8.293  -8.344  1.00  0.00     0.047 A 
ATOM     16  C   UNL     1       3.689  -8.917 -10.923  1.00  0.00     0.016 A 
ATOM     17  C   UNL     1       3.810  -7.520  -8.950  1.00  0.00     0.016 A 
BRANCH  13  18
ATOM     18  O   UNL     1       1.258 -10.125  -8.362  1.00  0.00    -0.497 OA
ATOM     19  C   UNL     1      -0.118 -10.125  -8.729  1.00  0.00     0.278 C 
ENDBRANCH  13  18
ENDBRANCH   1  12
BRANCH   8  20
ATOM     20  O   UNL     1       8.725  -8.965 -11.773  1.00  0.00    -0.490 OA
ATOM     21  C   UNL     1       7.912  -9.967 -12.374  1.00  0.00     0.278 C 
ENDBRANCH   8  20
BRANCH  11  22
ATOM     22  O   UNL     1       8.283  -3.477 -12.967  1.00  0.00    -0.492 OA
ATOM     23  C   UNL     1       7.750  -2.841 -14.124  1.00  0.00     0.278 C 
ENDBRANCH  11  22
BRANCH   9  24
ATOM     24  O   UNL     1      10.821  -7.683 -13.269  1.00  0.00    -0.490 OA
ATOM     25  C   UNL     1      10.862  -8.840 -14.098  1.00  0.00     0.279 C 
ENDBRANCH   9  24
BRANCH  10  26
ATOM     26  O   UNL     1      10.619  -4.889 -13.776  1.00  0.00    -0.490 OA
ATOM     27  C   UNL     1      11.124  -3.590 -13.483  1.00  0.00     0.278 C 
ENDBRANCH  10  26
TORSDOF 6
ENDMDL
