MODEL 1
REMARK VINA RESULT:    -3.895      0.000      0.000
REMARK INTER + INTRA:          -6.409
REMARK INTER:                  -5.717
REMARK INTRA:                  -0.692
REMARK UNBOUND:                -0.692
REMARK SMILES O=C([O-])CCCCCCCC(=O)[O-]
REMARK SMILES IDX 7 1 6 2 5 3 4 4 2 5 1 6 3 7 8 8 9 9 10 10 11 11 12 12 13 13
REMARK H PARENT
REMARK Flexibility Score: inf
ROOT
ATOM      1  C   UNL     1       1.103  -3.669  -6.002  1.00  0.00     0.000 C 
ENDROOT
BRANCH   1   2
ATOM      2  C   UNL     1       0.778  -4.906  -6.863  1.00  0.00     0.000 C 
BRANCH   2   3
ATOM      3  C   UNL     1       0.658  -4.639  -8.377  1.00  0.00     0.006 C 
BRANCH   3   4
ATOM      4  C   UNL     1       1.548  -5.534  -9.251  1.00  0.00     0.053 C 
BRANCH   4   5
ATOM      5  C   UNL     1       2.983  -5.108  -9.209  1.00  0.00     0.041 C 
ATOM      6  O   UNL     1       3.857  -5.872  -8.721  1.00  0.00    -0.550 OA
ATOM      7  O   UNL     1       3.351  -3.854  -9.680  1.00  0.00    -0.550 OA
ENDBRANCH   4   5
ENDBRANCH   3   4
ENDBRANCH   2   3
ENDBRANCH   1   2
BRANCH   1   8
ATOM      8  C   UNL     1       2.422  -2.960  -6.352  1.00  0.00     0.000 C 
BRANCH   8   9
ATOM      9  C   UNL     1       2.206  -1.567  -6.968  1.00  0.00     0.006 C 
BRANCH   9  10
ATOM     10  C   UNL     1       0.723  -1.173  -7.001  1.00  0.00     0.053 C 
BRANCH  10  11
ATOM     11  C   UNL     1       0.313  -0.671  -8.352  1.00  0.00     0.041 C 
ATOM     12  O   UNL     1       1.017   0.184  -8.950  1.00  0.00    -0.550 OA
ATOM     13  O   UNL     1      -0.867  -1.120  -8.933  1.00  0.00    -0.550 OA
ENDBRANCH  10  11
ENDBRANCH   9  10
ENDBRANCH   8   9
ENDBRANCH   1   8
TORSDOF 8
ENDMDL
MODEL 2
REMARK VINA RESULT:    -3.845      0.967      4.716
REMARK INTER + INTRA:          -6.336
REMARK INTER:                  -5.731
REMARK INTRA:                  -0.604
REMARK UNBOUND:                -0.692
REMARK SMILES O=C([O-])CCCCCCCC(=O)[O-]
REMARK SMILES IDX 7 1 6 2 5 3 4 4 2 5 1 6 3 7 8 8 9 9 10 10 11 11 12 12 13 13
REMARK H PARENT
REMARK Flexibility Score: inf
ROOT
ATOM      1  C   UNL     1       0.768  -4.508  -6.632  1.00  0.00     0.000 C 
ENDROOT
BRANCH   1   2
ATOM      2  C   UNL     1       2.249  -4.231  -6.304  1.00  0.00     0.000 C 
BRANCH   2   3
ATOM      3  C   UNL     1       2.694  -2.763  -6.465  1.00  0.00     0.006 C 
BRANCH   3   4
ATOM      4  C   UNL     1       1.593  -1.732  -6.173  1.00  0.00     0.053 C 
BRANCH   4   5
ATOM      5  C   UNL     1       1.096  -1.076  -7.423  1.00  0.00     0.041 C 
ATOM      6  O   UNL     1      -0.118  -0.758  -7.532  1.00  0.00    -0.550 OA
ATOM      7  O   UNL     1       1.965  -0.844  -8.481  1.00  0.00    -0.550 OA
ENDBRANCH   4   5
ENDBRANCH   3   4
ENDBRANCH   2   3
ENDBRANCH   1   2
BRANCH   1   8
ATOM      8  C   UNL     1       0.521  -5.233  -7.966  1.00  0.00     0.000 C 
BRANCH   8   9
ATOM      9  C   UNL     1       1.208  -4.541  -9.157  1.00  0.00     0.006 C 
BRANCH   9  10
ATOM     10  C   UNL     1       2.189  -5.474  -9.880  1.00  0.00     0.053 C 
BRANCH  10  11
ATOM     11  C   UNL     1       3.610  -5.179  -9.509  1.00  0.00     0.041 C 
ATOM     12  O   UNL     1       4.317  -6.063  -8.957  1.00  0.00    -0.550 OA
ATOM     13  O   UNL     1       4.142  -3.917  -9.739  1.00  0.00    -0.550 OA
ENDBRANCH  10  11
ENDBRANCH   9  10
ENDBRANCH   8   9
ENDBRANCH   1   8
TORSDOF 8
ENDMDL
MODEL 3
REMARK VINA RESULT:    -3.834      2.613      5.315
REMARK INTER + INTRA:          -6.319
REMARK INTER:                  -5.864
REMARK INTRA:                  -0.455
REMARK UNBOUND:                -0.692
REMARK SMILES O=C([O-])CCCCCCCC(=O)[O-]
REMARK SMILES IDX 7 1 6 2 5 3 4 4 2 5 1 6 3 7 8 8 9 9 10 10 11 11 12 12 13 13
REMARK H PARENT
REMARK Flexibility Score: inf
ROOT
ATOM      1  C   UNL     1       0.813  -4.793  -6.995  1.00  0.00     0.000 C 
ENDROOT
BRANCH   1   2
ATOM      2  C   UNL     1       1.916  -4.329  -6.022  1.00  0.00     0.000 C 
BRANCH   2   3
ATOM      3  C   UNL     1       2.610  -3.005  -6.401  1.00  0.00     0.006 C 
BRANCH   3   4
ATOM      4  C   UNL     1       1.804  -1.744  -6.052  1.00  0.00     0.053 C 
BRANCH   4   5
ATOM      5  C   UNL     1       1.184  -1.122  -7.264  1.00  0.00     0.041 C 
ATOM      6  O   UNL     1      -0.042  -0.835  -7.271  1.00  0.00    -0.550 OA
ATOM      7  O   UNL     1       1.952  -0.890  -8.398  1.00  0.00    -0.550 OA
ENDBRANCH   4   5
ENDBRANCH   3   4
ENDBRANCH   2   3
ENDBRANCH   1   2
BRANCH   1   8
ATOM      8  C   UNL     1       1.184  -4.713  -8.486  1.00  0.00     0.000 C 
BRANCH   8   9
ATOM      9  C   UNL     1       0.142  -5.385  -9.397  1.00  0.00     0.006 C 
BRANCH   9  10
ATOM     10  C   UNL     1       0.438  -6.875  -9.613  1.00  0.00     0.053 C 
BRANCH  10  11
ATOM     11  C   UNL     1      -0.723  -7.734  -9.214  1.00  0.00     0.041 C 
ATOM     12  O   UNL     1      -0.701  -8.973  -9.438  1.00  0.00    -0.550 OA
ATOM     13  O   UNL     1      -1.845  -7.160  -8.629  1.00  0.00    -0.550 OA
ENDBRANCH  10  11
ENDBRANCH   9  10
ENDBRANCH   8   9
ENDBRANCH   1   8
TORSDOF 8
ENDMDL
MODEL 4
REMARK VINA RESULT:    -3.823      2.107      3.772
REMARK INTER + INTRA:          -6.304
REMARK INTER:                  -5.407
REMARK INTRA:                  -0.897
REMARK UNBOUND:                -0.692
REMARK SMILES O=C([O-])CCCCCCCC(=O)[O-]
REMARK SMILES IDX 7 1 6 2 5 3 4 4 2 5 1 6 3 7 8 8 9 9 10 10 11 11 12 12 13 13
REMARK H PARENT
REMARK Flexibility Score: inf
ROOT
ATOM      1  C   UNL     1       0.273  -1.291  -7.388  1.00  0.00     0.000 C 
ENDROOT
BRANCH   1   2
ATOM      2  C   UNL     1       0.433  -0.436  -8.661  1.00  0.00     0.000 C 
BRANCH   2   3
ATOM      3  C   UNL     1       1.727  -0.688  -9.462  1.00  0.00     0.006 C 
BRANCH   3   4
ATOM      4  C   UNL     1       2.027  -2.170  -9.732  1.00  0.00     0.053 C 
BRANCH   4   5
ATOM      5  C   UNL     1       3.440  -2.527  -9.389  1.00  0.00     0.041 C 
ATOM      6  O   UNL     1       4.168  -1.707  -8.770  1.00  0.00    -0.550 OA
ATOM      7  O   UNL     1       3.963  -3.753  -9.781  1.00  0.00    -0.550 OA
ENDBRANCH   4   5
ENDBRANCH   3   4
ENDBRANCH   2   3
ENDBRANCH   1   2
BRANCH   1   8
ATOM      8  C   UNL     1       1.409  -1.147  -6.361  1.00  0.00     0.000 C 
BRANCH   8   9
ATOM      9  C   UNL     1       2.039  -2.497  -5.975  1.00  0.00     0.006 C 
BRANCH   9  10
ATOM     10  C   UNL     1       1.065  -3.667  -6.174  1.00  0.00     0.053 C 
BRANCH  10  11
ATOM     11  C   UNL     1       1.652  -4.733  -7.048  1.00  0.00     0.041 C 
ATOM     12  O   UNL     1       1.003  -5.171  -8.034  1.00  0.00    -0.550 OA
ATOM     13  O   UNL     1       2.899  -5.269  -6.751  1.00  0.00    -0.550 OA
ENDBRANCH  10  11
ENDBRANCH   9  10
ENDBRANCH   8   9
ENDBRANCH   1   8
TORSDOF 8
ENDMDL
MODEL 5
REMARK VINA RESULT:    -3.614      3.655      5.718
REMARK INTER + INTRA:          -5.997
REMARK INTER:                  -5.697
REMARK INTRA:                  -0.300
REMARK UNBOUND:                -0.692
REMARK SMILES O=C([O-])CCCCCCCC(=O)[O-]
REMARK SMILES IDX 7 1 6 2 5 3 4 4 2 5 1 6 3 7 8 8 9 9 10 10 11 11 12 12 13 13
REMARK H PARENT
REMARK Flexibility Score: inf
ROOT
ATOM      1  C   UNL     1       0.623  -4.711  -8.200  1.00  0.00     0.000 C 
ENDROOT
BRANCH   1   2
ATOM      2  C   UNL     1       1.967  -4.973  -7.493  1.00  0.00     0.000 C 
BRANCH   2   3
ATOM      3  C   UNL     1       2.295  -4.015  -6.330  1.00  0.00     0.006 C 
BRANCH   3   4
ATOM      4  C   UNL     1       1.245  -2.917  -6.099  1.00  0.00     0.053 C 
BRANCH   4   5
ATOM      5  C   UNL     1       1.764  -1.561  -6.465  1.00  0.00     0.041 C 
ATOM      6  O   UNL     1       1.401  -0.547  -5.813  1.00  0.00    -0.550 OA
ATOM      7  O   UNL     1       2.623  -1.413  -7.547  1.00  0.00    -0.550 OA
ENDBRANCH   4   5
ENDBRANCH   3   4
ENDBRANCH   2   3
ENDBRANCH   1   2
BRANCH   1   8
ATOM      8  C   UNL     1       0.199  -5.789  -9.213  1.00  0.00     0.000 C 
BRANCH   8   9
ATOM      9  C   UNL     1      -0.822  -6.783  -8.634  1.00  0.00     0.006 C 
BRANCH   9  10
ATOM     10  C   UNL     1      -2.197  -6.657  -9.305  1.00  0.00     0.053 C 
BRANCH  10  11
ATOM     11  C   UNL     1      -3.152  -7.701  -8.812  1.00  0.00     0.041 C 
ATOM     12  O   UNL     1      -4.190  -7.364  -8.185  1.00  0.00    -0.550 OA
ATOM     13  O   UNL     1      -2.876  -9.048  -9.014  1.00  0.00    -0.550 OA
ENDBRANCH  10  11
ENDBRANCH   9  10
ENDBRANCH   8   9
ENDBRANCH   1   8
TORSDOF 8
ENDMDL
MODEL 6
REMARK VINA RESULT:    -3.590      3.513      4.274
REMARK INTER + INTRA:          -5.961
REMARK INTER:                  -5.703
REMARK INTRA:                  -0.258
REMARK UNBOUND:                -0.692
REMARK SMILES O=C([O-])CCCCCCCC(=O)[O-]
REMARK SMILES IDX 7 1 6 2 5 3 4 4 2 5 1 6 3 7 8 8 9 9 10 10 11 11 12 12 13 13
REMARK H PARENT
REMARK Flexibility Score: inf
ROOT
ATOM      1  C   UNL     1       0.419  -5.209  -8.236  1.00  0.00     0.000 C 
ENDROOT
BRANCH   1   2
ATOM      2  C   UNL     1       0.778  -6.299  -9.267  1.00  0.00     0.000 C 
BRANCH   2   3
ATOM      3  C   UNL     1      -0.321  -7.351  -9.518  1.00  0.00     0.006 C 
BRANCH   3   4
ATOM      4  C   UNL     1      -1.595  -7.149  -8.684  1.00  0.00     0.053 C 
BRANCH   4   5
ATOM      5  C   UNL     1      -2.714  -8.030  -9.148  1.00  0.00     0.041 C 
ATOM      6  O   UNL     1      -2.493  -9.236  -9.431  1.00  0.00    -0.550 OA
ATOM      7  O   UNL     1      -3.993  -7.510  -9.299  1.00  0.00    -0.550 OA
ENDBRANCH   4   5
ENDBRANCH   3   4
ENDBRANCH   2   3
ENDBRANCH   1   2
BRANCH   1   8
ATOM      8  C   UNL     1       1.590  -4.731  -7.361  1.00  0.00     0.000 C 
BRANCH   8   9
ATOM      9  C   UNL     1       1.144  -3.784  -6.233  1.00  0.00     0.006 C 
BRANCH   9  10
ATOM     10  C   UNL     1       2.175  -2.679  -5.964  1.00  0.00     0.053 C 
BRANCH  10  11
ATOM     11  C   UNL     1       1.927  -1.470  -6.813  1.00  0.00     0.041 C 
ATOM     12  O   UNL     1       2.510  -1.345  -7.922  1.00  0.00    -0.550 OA
ATOM     13  O   UNL     1       1.080  -0.465  -6.363  1.00  0.00    -0.550 OA
ENDBRANCH  10  11
ENDBRANCH   9  10
ENDBRANCH   8   9
ENDBRANCH   1   8
TORSDOF 8
ENDMDL
MODEL 7
REMARK VINA RESULT:    -3.533      2.689      5.959
REMARK INTER + INTRA:          -5.878
REMARK INTER:                  -5.605
REMARK INTRA:                  -0.273
REMARK UNBOUND:                -0.692
REMARK SMILES O=C([O-])CCCCCCCC(=O)[O-]
REMARK SMILES IDX 7 1 6 2 5 3 4 4 2 5 1 6 3 7 8 8 9 9 10 10 11 11 12 12 13 13
REMARK H PARENT
REMARK Flexibility Score: inf
ROOT
ATOM      1  C   UNL     1      -0.095  -0.719  -7.831  1.00  0.00     0.000 C 
ENDROOT
BRANCH   1   2
ATOM      2  C   UNL     1      -0.622  -1.635  -8.955  1.00  0.00     0.000 C 
BRANCH   2   3
ATOM      3  C   UNL     1      -1.764  -1.041  -9.804  1.00  0.00     0.006 C 
BRANCH   3   4
ATOM      4  C   UNL     1      -2.714  -0.115  -9.029  1.00  0.00     0.053 C 
BRANCH   4   5
ATOM      5  C   UNL     1      -4.131  -0.598  -9.079  1.00  0.00     0.041 C 
ATOM      6  O   UNL     1      -4.377  -1.822  -9.237  1.00  0.00    -0.550 OA
ATOM      7  O   UNL     1      -5.179   0.308  -8.984  1.00  0.00    -0.550 OA
ENDBRANCH   4   5
ENDBRANCH   3   4
ENDBRANCH   2   3
ENDBRANCH   1   2
BRANCH   1   8
ATOM      8  C   UNL     1       1.213  -1.186  -7.171  1.00  0.00     0.000 C 
BRANCH   8   9
ATOM      9  C   UNL     1       1.151  -2.645  -6.689  1.00  0.00     0.006 C 
BRANCH   9  10
ATOM     10  C   UNL     1       2.543  -3.211  -6.375  1.00  0.00     0.053 C 
BRANCH  10  11
ATOM     11  C   UNL     1       2.580  -4.702  -6.515  1.00  0.00     0.041 C 
ATOM     12  O   UNL     1       2.730  -5.229  -7.649  1.00  0.00    -0.550 OA
ATOM     13  O   UNL     1       2.412  -5.510  -5.397  1.00  0.00    -0.550 OA
ENDBRANCH  10  11
ENDBRANCH   9  10
ENDBRANCH   8   9
ENDBRANCH   1   8
TORSDOF 8
ENDMDL
MODEL 8
REMARK VINA RESULT:    -3.517     16.448     17.704
REMARK INTER + INTRA:          -5.854
REMARK INTER:                  -5.558
REMARK INTRA:                  -0.297
REMARK UNBOUND:                -0.692
REMARK SMILES O=C([O-])CCCCCCCC(=O)[O-]
REMARK SMILES IDX 7 1 6 2 5 3 4 4 2 5 1 6 3 7 8 8 9 9 10 10 11 11 12 12 13 13
REMARK H PARENT
REMARK Flexibility Score: inf
ROOT
ATOM      1  C   UNL     1       8.131   1.928   8.040  1.00  0.00     0.000 C 
ENDROOT
BRANCH   1   2
ATOM      2  C   UNL     1       7.648   1.554   9.456  1.00  0.00     0.000 C 
BRANCH   2   3
ATOM      3  C   UNL     1       6.674   0.361   9.523  1.00  0.00     0.006 C 
BRANCH   3   4
ATOM      4  C   UNL     1       7.278  -0.917  10.125  1.00  0.00     0.053 C 
BRANCH   4   5
ATOM      5  C   UNL     1       7.615  -1.926   9.071  1.00  0.00     0.041 C 
ATOM      6  O   UNL     1       6.744  -2.745   8.677  1.00  0.00    -0.550 OA
ATOM      7  O   UNL     1       8.900  -1.984   8.548  1.00  0.00    -0.550 OA
ENDBRANCH   4   5
ENDBRANCH   3   4
ENDBRANCH   2   3
ENDBRANCH   1   2
BRANCH   1   8
ATOM      8  C   UNL     1       9.493   2.640   7.984  1.00  0.00     0.000 C 
BRANCH   8   9
ATOM      9  C   UNL     1       9.719   3.393   6.662  1.00  0.00     0.006 C 
BRANCH   9  10
ATOM     10  C   UNL     1       8.877   2.815   5.516  1.00  0.00     0.053 C 
BRANCH  10  11
ATOM     11  C   UNL     1       8.894   3.705   4.311  1.00  0.00     0.041 C 
ATOM     12  O   UNL     1       9.054   3.215   3.163  1.00  0.00    -0.550 OA
ATOM     13  O   UNL     1       8.769   5.081   4.461  1.00  0.00    -0.550 OA
ENDBRANCH  10  11
ENDBRANCH   9  10
ENDBRANCH   8   9
ENDBRANCH   1   8
TORSDOF 8
ENDMDL
MODEL 9
REMARK VINA RESULT:    -3.442      4.699      6.422
REMARK INTER + INTRA:          -5.743
REMARK INTER:                  -5.489
REMARK INTRA:                  -0.254
REMARK UNBOUND:                -0.692
REMARK SMILES O=C([O-])CCCCCCCC(=O)[O-]
REMARK SMILES IDX 7 1 6 2 5 3 4 4 2 5 1 6 3 7 8 8 9 9 10 10 11 11 12 12 13 13
REMARK H PARENT
REMARK Flexibility Score: inf
ROOT
ATOM      1  C   UNL     1      -0.559  -6.636  -8.709  1.00  0.00     0.000 C 
ENDROOT
BRANCH   1   2
ATOM      2  C   UNL     1       0.040  -5.327  -9.260  1.00  0.00     0.000 C 
BRANCH   2   3
ATOM      3  C   UNL     1       1.279  -4.803  -8.506  1.00  0.00     0.006 C 
BRANCH   3   4
ATOM      4  C   UNL     1       0.996  -4.340  -7.068  1.00  0.00     0.053 C 
BRANCH   4   5
ATOM      5  C   UNL     1       2.241  -4.300  -6.238  1.00  0.00     0.041 C 
ATOM      6  O   UNL     1       2.622  -5.327  -5.618  1.00  0.00    -0.550 OA
ATOM      7  O   UNL     1       2.963  -3.119  -6.123  1.00  0.00    -0.550 OA
ENDBRANCH   4   5
ENDBRANCH   3   4
ENDBRANCH   2   3
ENDBRANCH   1   2
BRANCH   1   8
ATOM      8  C   UNL     1      -0.638  -7.792  -9.722  1.00  0.00     0.000 C 
BRANCH   8   9
ATOM      9  C   UNL     1      -1.981  -8.541  -9.668  1.00  0.00     0.006 C 
BRANCH   9  10
ATOM     10  C   UNL     1      -2.966  -7.892  -8.687  1.00  0.00     0.053 C 
BRANCH  10  11
ATOM     11  C   UNL     1      -4.004  -8.866  -8.217  1.00  0.00     0.041 C 
ATOM     12  O   UNL     1      -4.627  -8.659  -7.143  1.00  0.00    -0.550 OA
ATOM     13  O   UNL     1      -4.255 -10.021  -8.948  1.00  0.00    -0.550 OA
ENDBRANCH  10  11
ENDBRANCH   9  10
ENDBRANCH   8   9
ENDBRANCH   1   8
TORSDOF 8
ENDMDL
