MODEL 1
REMARK VINA RESULT:    -3.070      0.000      0.000
REMARK INTER + INTRA:          -8.835
REMARK INTER:                  -5.942
REMARK INTRA:                  -2.892
REMARK UNBOUND:                -2.892
REMARK SMILES CCCCCCCCCCCCCCCCCC(=O)[O-]
REMARK SMILES IDX 10 1 11 2 12 3 13 4 14 5 15 6 16 7 17 8 18 9 19 10 20 11
REMARK SMILES IDX 9 12 8 13 7 14 6 15 5 16 4 17 3 18 2 19 1 20
REMARK H PARENT
REMARK Flexibility Score: inf
ROOT
ATOM      1  C   UNL     1      27.889  -4.512 -28.815  1.00  0.00     0.000 C 
ENDROOT
BRANCH   1   2
ATOM      2  C   UNL     1      27.690  -5.160 -30.191  1.00  0.00     0.000 C 
BRANCH   2   3
ATOM      3  C   UNL     1      26.691  -4.356 -31.038  1.00  0.00     0.000 C 
BRANCH   3   4
ATOM      4  C   UNL     1      27.030  -4.389 -32.537  1.00  0.00     0.000 C 
BRANCH   4   5
ATOM      5  C   UNL     1      25.853  -4.878 -33.395  1.00  0.00     0.000 C 
BRANCH   5   6
ATOM      6  C   UNL     1      24.527  -4.928 -32.618  1.00  0.00     0.000 C 
BRANCH   6   7
ATOM      7  C   UNL     1      23.532  -3.815 -33.013  1.00  0.00     0.006 C 
BRANCH   7   8
ATOM      8  C   UNL     1      23.841  -2.486 -32.313  1.00  0.00     0.053 C 
BRANCH   8   9
ATOM      9  C   UNL     1      22.591  -1.685 -32.127  1.00  0.00     0.041 C 
ATOM     10  O   UNL     1      22.131  -0.999 -33.076  1.00  0.00    -0.550 OA
ATOM     11  O   UNL     1      21.910  -1.730 -30.916  1.00  0.00    -0.550 OA
ENDBRANCH   8   9
ENDBRANCH   7   8
ENDBRANCH   6   7
ENDBRANCH   5   6
ENDBRANCH   4   5
ENDBRANCH   3   4
ENDBRANCH   2   3
ENDBRANCH   1   2
BRANCH   1  12
ATOM     12  C   UNL     1      27.787  -5.558 -27.693  1.00  0.00     0.000 C 
BRANCH  12  13
ATOM     13  C   UNL     1      28.059  -6.991 -28.187  1.00  0.00    -0.000 C 
BRANCH  13  14
ATOM     14  C   UNL     1      27.145  -8.062 -27.561  1.00  0.00    -0.000 C 
BRANCH  14  15
ATOM     15  C   UNL     1      25.645  -7.683 -27.563  1.00  0.00    -0.000 C 
BRANCH  15  16
ATOM     16  C   UNL     1      24.996  -7.757 -28.957  1.00  0.00    -0.000 C 
BRANCH  16  17
ATOM     17  C   UNL     1      24.165  -6.518 -29.342  1.00  0.00    -0.000 C 
BRANCH  17  18
ATOM     18  C   UNL     1      24.243  -5.342 -28.346  1.00  0.00    -0.000 C 
BRANCH  18  19
ATOM     19  C   UNL     1      23.796  -3.980 -28.906  1.00  0.00    -0.003 C 
ATOM     20  C   UNL     1      24.573  -2.806 -28.314  1.00  0.00     0.004 C 
ENDBRANCH  18  19
ENDBRANCH  17  18
ENDBRANCH  16  17
ENDBRANCH  15  16
ENDBRANCH  14  15
ENDBRANCH  13  14
ENDBRANCH  12  13
ENDBRANCH   1  12
TORSDOF 16
ENDMDL
MODEL 2
REMARK VINA RESULT:    -3.015      6.163      9.327
REMARK INTER + INTRA:          -8.727
REMARK INTER:                  -5.867
REMARK INTRA:                  -2.860
REMARK UNBOUND:                -2.892
REMARK SMILES CCCCCCCCCCCCCCCCCC(=O)[O-]
REMARK SMILES IDX 10 1 11 2 12 3 13 4 14 5 15 6 16 7 17 8 18 9 19 10 20 11
REMARK SMILES IDX 9 12 8 13 7 14 6 15 5 16 4 17 3 18 2 19 1 20
REMARK H PARENT
REMARK Flexibility Score: inf
ROOT
ATOM      1  C   UNL     1      31.241  -4.432 -38.739  1.00  0.00     0.000 C 
ENDROOT
BRANCH   1   2
ATOM      2  C   UNL     1      29.762  -4.533 -39.130  1.00  0.00     0.000 C 
BRANCH   2   3
ATOM      3  C   UNL     1      29.267  -3.219 -39.755  1.00  0.00     0.000 C 
BRANCH   3   4
ATOM      4  C   UNL     1      28.264  -2.479 -38.855  1.00  0.00     0.000 C 
BRANCH   4   5
ATOM      5  C   UNL     1      27.852  -3.309 -37.629  1.00  0.00     0.000 C 
BRANCH   5   6
ATOM      6  C   UNL     1      26.656  -2.705 -36.874  1.00  0.00     0.000 C 
BRANCH   6   7
ATOM      7  C   UNL     1      25.640  -3.755 -36.375  1.00  0.00     0.006 C 
BRANCH   7   8
ATOM      8  C   UNL     1      26.327  -4.997 -35.796  1.00  0.00     0.053 C 
BRANCH   8   9
ATOM      9  C   UNL     1      26.438  -4.892 -34.307  1.00  0.00     0.041 C 
ATOM     10  O   UNL     1      27.473  -4.407 -33.782  1.00  0.00    -0.550 OA
ATOM     11  O   UNL     1      25.379  -5.293 -33.502  1.00  0.00    -0.550 OA
ENDBRANCH   8   9
ENDBRANCH   7   8
ENDBRANCH   6   7
ENDBRANCH   5   6
ENDBRANCH   4   5
ENDBRANCH   3   4
ENDBRANCH   2   3
ENDBRANCH   1   2
BRANCH   1  12
ATOM     12  C   UNL     1      31.912  -3.233 -39.429  1.00  0.00     0.000 C 
BRANCH  12  13
ATOM     13  C   UNL     1      32.619  -2.291 -38.437  1.00  0.00    -0.000 C 
BRANCH  13  14
ATOM     14  C   UNL     1      32.077  -0.848 -38.438  1.00  0.00    -0.000 C 
BRANCH  14  15
ATOM     15  C   UNL     1      31.137  -0.533 -37.251  1.00  0.00    -0.000 C 
BRANCH  15  16
ATOM     16  C   UNL     1      31.448  -1.354 -35.987  1.00  0.00    -0.000 C 
BRANCH  16  17
ATOM     17  C   UNL     1      30.285  -2.238 -35.496  1.00  0.00    -0.000 C 
BRANCH  17  18
ATOM     18  C   UNL     1      30.660  -3.703 -35.191  1.00  0.00    -0.000 C 
BRANCH  18  19
ATOM     19  C   UNL     1      32.077  -3.912 -34.629  1.00  0.00    -0.003 C 
ATOM     20  C   UNL     1      32.975  -4.727 -35.558  1.00  0.00     0.004 C 
ENDBRANCH  18  19
ENDBRANCH  17  18
ENDBRANCH  16  17
ENDBRANCH  15  16
ENDBRANCH  14  15
ENDBRANCH  13  14
ENDBRANCH  12  13
ENDBRANCH   1  12
TORSDOF 16
ENDMDL
MODEL 3
REMARK VINA RESULT:    -3.013     10.719     12.719
REMARK INTER + INTRA:          -8.724
REMARK INTER:                  -7.547
REMARK INTRA:                  -1.178
REMARK UNBOUND:                -2.892
REMARK SMILES CCCCCCCCCCCCCCCCCC(=O)[O-]
REMARK SMILES IDX 10 1 11 2 12 3 13 4 14 5 15 6 16 7 17 8 18 9 19 10 20 11
REMARK SMILES IDX 9 12 8 13 7 14 6 15 5 16 4 17 3 18 2 19 1 20
REMARK H PARENT
REMARK Flexibility Score: inf
ROOT
ATOM      1  C   UNL     1      32.148   3.136 -33.320  1.00  0.00     0.000 C 
ENDROOT
BRANCH   1   2
ATOM      2  C   UNL     1      33.145   1.971 -33.377  1.00  0.00     0.000 C 
BRANCH   2   3
ATOM      3  C   UNL     1      32.456   0.639 -33.042  1.00  0.00     0.000 C 
BRANCH   3   4
ATOM      4  C   UNL     1      32.582  -0.391 -34.176  1.00  0.00     0.000 C 
BRANCH   4   5
ATOM      5  C   UNL     1      33.489   0.099 -35.316  1.00  0.00     0.000 C 
BRANCH   5   6
ATOM      6  C   UNL     1      33.517  -0.867 -36.514  1.00  0.00     0.000 C 
BRANCH   6   7
ATOM      7  C   UNL     1      33.200  -0.191 -37.865  1.00  0.00     0.006 C 
BRANCH   7   8
ATOM      8  C   UNL     1      31.764  -0.469 -38.329  1.00  0.00     0.053 C 
BRANCH   8   9
ATOM      9  C   UNL     1      30.922   0.762 -38.202  1.00  0.00     0.041 C 
ATOM     10  O   UNL     1      30.594   1.190 -37.065  1.00  0.00    -0.550 OA
ATOM     11  O   UNL     1      30.535   1.459 -39.339  1.00  0.00    -0.550 OA
ENDBRANCH   8   9
ENDBRANCH   7   8
ENDBRANCH   6   7
ENDBRANCH   5   6
ENDBRANCH   4   5
ENDBRANCH   3   4
ENDBRANCH   2   3
ENDBRANCH   1   2
BRANCH   1  12
ATOM     12  C   UNL     1      32.878   4.477 -33.140  1.00  0.00     0.000 C 
BRANCH  12  13
ATOM     13  C   UNL     1      34.399   4.310 -32.964  1.00  0.00    -0.000 C 
BRANCH  13  14
ATOM     14  C   UNL     1      35.189   5.633 -32.989  1.00  0.00    -0.000 C 
BRANCH  14  15
ATOM     15  C   UNL     1      35.672   6.099 -31.595  1.00  0.00    -0.000 C 
BRANCH  15  16
ATOM     16  C   UNL     1      35.080   5.277 -30.436  1.00  0.00    -0.000 C 
BRANCH  16  17
ATOM     17  C   UNL     1      33.813   5.883 -29.803  1.00  0.00    -0.000 C 
BRANCH  17  18
ATOM     18  C   UNL     1      33.350   7.221 -30.418  1.00  0.00    -0.000 C 
BRANCH  18  19
ATOM     19  C   UNL     1      32.818   8.254 -29.409  1.00  0.00    -0.003 C 
ATOM     20  C   UNL     1      32.143   9.450 -30.078  1.00  0.00     0.004 C 
ENDBRANCH  18  19
ENDBRANCH  17  18
ENDBRANCH  16  17
ENDBRANCH  15  16
ENDBRANCH  14  15
ENDBRANCH  13  14
ENDBRANCH  12  13
ENDBRANCH   1  12
TORSDOF 16
ENDMDL
MODEL 4
REMARK VINA RESULT:    -3.013      7.712     10.643
REMARK INTER + INTRA:          -8.724
REMARK INTER:                  -5.864
REMARK INTRA:                  -2.860
REMARK UNBOUND:                -2.892
REMARK SMILES CCCCCCCCCCCCCCCCCC(=O)[O-]
REMARK SMILES IDX 10 1 11 2 12 3 13 4 14 5 15 6 16 7 17 8 18 9 19 10 20 11
REMARK SMILES IDX 9 12 8 13 7 14 6 15 5 16 4 17 3 18 2 19 1 20
REMARK H PARENT
REMARK Flexibility Score: inf
ROOT
ATOM      1  C   UNL     1      29.577   0.158 -37.726  1.00  0.00     0.000 C 
ENDROOT
BRANCH   1   2
ATOM      2  C   UNL     1      30.604   0.546 -38.797  1.00  0.00     0.000 C 
BRANCH   2   3
ATOM      3  C   UNL     1      32.032   0.507 -38.229  1.00  0.00     0.000 C 
BRANCH   3   4
ATOM      4  C   UNL     1      32.757  -0.810 -38.551  1.00  0.00     0.000 C 
BRANCH   4   5
ATOM      5  C   UNL     1      33.011  -1.662 -37.298  1.00  0.00     0.000 C 
BRANCH   5   6
ATOM      6  C   UNL     1      33.315  -0.816 -36.050  1.00  0.00     0.000 C 
BRANCH   6   7
ATOM      7  C   UNL     1      32.228  -0.904 -34.957  1.00  0.00     0.006 C 
BRANCH   7   8
ATOM      8  C   UNL     1      32.519   0.027 -33.774  1.00  0.00     0.053 C 
BRANCH   8   9
ATOM      9  C   UNL     1      32.218   1.447 -34.134  1.00  0.00     0.041 C 
ATOM     10  O   UNL     1      31.216   1.722 -34.844  1.00  0.00    -0.550 OA
ATOM     11  O   UNL     1      33.022   2.472 -33.652  1.00  0.00    -0.550 OA
ENDBRANCH   8   9
ENDBRANCH   7   8
ENDBRANCH   6   7
ENDBRANCH   5   6
ENDBRANCH   4   5
ENDBRANCH   3   4
ENDBRANCH   2   3
ENDBRANCH   1   2
BRANCH   1  12
ATOM     12  C   UNL     1      28.397  -0.608 -38.348  1.00  0.00     0.000 C 
BRANCH  12  13
ATOM     13  C   UNL     1      28.624  -0.952 -39.831  1.00  0.00    -0.000 C 
BRANCH  13  14
ATOM     14  C   UNL     1      28.747  -2.461 -40.121  1.00  0.00    -0.000 C 
BRANCH  14  15
ATOM     15  C   UNL     1      30.076  -3.084 -39.634  1.00  0.00    -0.000 C 
BRANCH  15  16
ATOM     16  C   UNL     1      29.891  -4.145 -38.535  1.00  0.00    -0.000 C 
BRANCH  16  17
ATOM     17  C   UNL     1      30.030  -3.608 -37.097  1.00  0.00    -0.000 C 
BRANCH  17  18
ATOM     18  C   UNL     1      28.745  -3.676 -36.246  1.00  0.00    -0.000 C 
BRANCH  18  19
ATOM     19  C   UNL     1      27.477  -4.097 -37.009  1.00  0.00    -0.003 C 
ATOM     20  C   UNL     1      26.257  -3.249 -36.654  1.00  0.00     0.004 C 
ENDBRANCH  18  19
ENDBRANCH  17  18
ENDBRANCH  16  17
ENDBRANCH  15  16
ENDBRANCH  14  15
ENDBRANCH  13  14
ENDBRANCH  12  13
ENDBRANCH   1  12
TORSDOF 16
ENDMDL
MODEL 5
REMARK VINA RESULT:    -2.986      6.379      9.400
REMARK INTER + INTRA:          -8.671
REMARK INTER:                  -5.808
REMARK INTRA:                  -2.863
REMARK UNBOUND:                -2.892
REMARK SMILES CCCCCCCCCCCCCCCCCC(=O)[O-]
REMARK SMILES IDX 10 1 11 2 12 3 13 4 14 5 15 6 16 7 17 8 18 9 19 10 20 11
REMARK SMILES IDX 9 12 8 13 7 14 6 15 5 16 4 17 3 18 2 19 1 20
REMARK H PARENT
REMARK Flexibility Score: inf
ROOT
ATOM      1  C   UNL     1      31.057   0.837 -36.365  1.00  0.00     0.000 C 
ENDROOT
BRANCH   1   2
ATOM      2  C   UNL     1      29.697   0.459 -35.765  1.00  0.00     0.000 C 
BRANCH   2   3
ATOM      3  C   UNL     1      29.209  -0.892 -36.313  1.00  0.00     0.000 C 
BRANCH   3   4
ATOM      4  C   UNL     1      28.493  -0.754 -37.666  1.00  0.00     0.000 C 
BRANCH   4   5
ATOM      5  C   UNL     1      27.471  -1.875 -37.907  1.00  0.00     0.000 C 
BRANCH   5   6
ATOM      6  C   UNL     1      28.131  -3.238 -38.177  1.00  0.00     0.000 C 
BRANCH   6   7
ATOM      7  C   UNL     1      27.817  -4.305 -37.107  1.00  0.00     0.006 C 
BRANCH   7   8
ATOM      8  C   UNL     1      26.373  -4.209 -36.599  1.00  0.00     0.053 C 
BRANCH   8   9
ATOM      9  C   UNL     1      26.340  -4.191 -35.103  1.00  0.00     0.041 C 
ATOM     10  O   UNL     1      26.312  -5.270 -34.457  1.00  0.00    -0.550 OA
ATOM     11  O   UNL     1      26.380  -2.981 -34.422  1.00  0.00    -0.550 OA
ENDBRANCH   8   9
ENDBRANCH   7   8
ENDBRANCH   6   7
ENDBRANCH   5   6
ENDBRANCH   4   5
ENDBRANCH   3   4
ENDBRANCH   2   3
ENDBRANCH   1   2
BRANCH   1  12
ATOM     12  C   UNL     1      32.193   0.049 -35.694  1.00  0.00     0.000 C 
BRANCH  12  13
ATOM     13  C   UNL     1      33.278  -0.401 -36.690  1.00  0.00    -0.000 C 
BRANCH  13  14
ATOM     14  C   UNL     1      32.863  -0.293 -38.171  1.00  0.00    -0.000 C 
BRANCH  14  15
ATOM     15  C   UNL     1      32.791  -1.654 -38.901  1.00  0.00    -0.000 C 
BRANCH  15  16
ATOM     16  C   UNL     1      31.675  -2.574 -38.375  1.00  0.00    -0.000 C 
BRANCH  16  17
ATOM     17  C   UNL     1      32.167  -3.922 -37.814  1.00  0.00    -0.000 C 
BRANCH  17  18
ATOM     18  C   UNL     1      31.411  -4.428 -36.568  1.00  0.00    -0.000 C 
BRANCH  18  19
ATOM     19  C   UNL     1      31.563  -3.552 -35.312  1.00  0.00    -0.003 C 
ATOM     20  C   UNL     1      30.342  -3.606 -34.395  1.00  0.00     0.004 C 
ENDBRANCH  18  19
ENDBRANCH  17  18
ENDBRANCH  16  17
ENDBRANCH  15  16
ENDBRANCH  14  15
ENDBRANCH  13  14
ENDBRANCH  12  13
ENDBRANCH   1  12
TORSDOF 16
ENDMDL
MODEL 6
REMARK VINA RESULT:    -2.979      6.320      9.574
REMARK INTER + INTRA:          -8.657
REMARK INTER:                  -6.281
REMARK INTRA:                  -2.376
REMARK UNBOUND:                -2.892
REMARK SMILES CCCCCCCCCCCCCCCCCC(=O)[O-]
REMARK SMILES IDX 10 1 11 2 12 3 13 4 14 5 15 6 16 7 17 8 18 9 19 10 20 11
REMARK SMILES IDX 9 12 8 13 7 14 6 15 5 16 4 17 3 18 2 19 1 20
REMARK H PARENT
REMARK Flexibility Score: inf
ROOT
ATOM      1  C   UNL     1      29.022  -3.521 -39.026  1.00  0.00     0.000 C 
ENDROOT
BRANCH   1   2
ATOM      2  C   UNL     1      28.043  -2.433 -38.567  1.00  0.00     0.000 C 
BRANCH   2   3
ATOM      3  C   UNL     1      27.782  -2.530 -37.055  1.00  0.00     0.000 C 
BRANCH   3   4
ATOM      4  C   UNL     1      27.864  -3.974 -36.535  1.00  0.00     0.000 C 
BRANCH   4   5
ATOM      5  C   UNL     1      26.483  -4.643 -36.440  1.00  0.00     0.000 C 
BRANCH   5   6
ATOM      6  C   UNL     1      25.359  -3.648 -36.105  1.00  0.00     0.000 C 
BRANCH   6   7
ATOM      7  C   UNL     1      25.043  -3.550 -34.597  1.00  0.00     0.006 C 
BRANCH   7   8
ATOM      8  C   UNL     1      25.486  -4.802 -33.830  1.00  0.00     0.053 C 
BRANCH   8   9
ATOM      9  C   UNL     1      26.423  -4.437 -32.722  1.00  0.00     0.041 C 
ATOM     10  O   UNL     1      26.151  -4.749 -31.534  1.00  0.00    -0.550 OA
ATOM     11  O   UNL     1      27.617  -3.787 -33.008  1.00  0.00    -0.550 OA
ENDBRANCH   8   9
ENDBRANCH   7   8
ENDBRANCH   6   7
ENDBRANCH   5   6
ENDBRANCH   4   5
ENDBRANCH   3   4
ENDBRANCH   2   3
ENDBRANCH   1   2
BRANCH   1  12
ATOM     12  C   UNL     1      30.145  -2.921 -39.889  1.00  0.00     0.000 C 
BRANCH  12  13
ATOM     13  C   UNL     1      31.551  -3.276 -39.370  1.00  0.00    -0.000 C 
BRANCH  13  14
ATOM     14  C   UNL     1      31.735  -3.079 -37.852  1.00  0.00    -0.000 C 
BRANCH  14  15
ATOM     15  C   UNL     1      32.846  -2.068 -37.484  1.00  0.00    -0.000 C 
BRANCH  15  16
ATOM     16  C   UNL     1      33.024  -0.947 -38.523  1.00  0.00    -0.000 C 
BRANCH  16  17
ATOM     17  C   UNL     1      32.314   0.374 -38.167  1.00  0.00    -0.000 C 
BRANCH  17  18
ATOM     18  C   UNL     1      30.828   0.449 -38.577  1.00  0.00    -0.000 C 
BRANCH  18  19
ATOM     19  C   UNL     1      29.860   0.855 -37.452  1.00  0.00    -0.003 C 
ATOM     20  C   UNL     1      30.139   0.133 -36.135  1.00  0.00     0.004 C 
ENDBRANCH  18  19
ENDBRANCH  17  18
ENDBRANCH  16  17
ENDBRANCH  15  16
ENDBRANCH  14  15
ENDBRANCH  13  14
ENDBRANCH  12  13
ENDBRANCH   1  12
TORSDOF 16
ENDMDL
MODEL 7
REMARK VINA RESULT:    -2.970      8.547     10.537
REMARK INTER + INTRA:          -8.640
REMARK INTER:                  -5.551
REMARK INTRA:                  -3.089
REMARK UNBOUND:                -2.892
REMARK SMILES CCCCCCCCCCCCCCCCCC(=O)[O-]
REMARK SMILES IDX 10 1 11 2 12 3 13 4 14 5 15 6 16 7 17 8 18 9 19 10 20 11
REMARK SMILES IDX 9 12 8 13 7 14 6 15 5 16 4 17 3 18 2 19 1 20
REMARK H PARENT
REMARK Flexibility Score: inf
ROOT
ATOM      1  C   UNL     1      31.479  -2.007 -34.895  1.00  0.00     0.000 C 
ENDROOT
BRANCH   1   2
ATOM      2  C   UNL     1      30.148  -1.760 -35.617  1.00  0.00     0.000 C 
BRANCH   2   3
ATOM      3  C   UNL     1      29.846  -0.257 -35.715  1.00  0.00     0.000 C 
BRANCH   3   4
ATOM      4  C   UNL     1      29.170   0.123 -37.042  1.00  0.00     0.000 C 
BRANCH   4   5
ATOM      5  C   UNL     1      29.746   1.412 -37.648  1.00  0.00     0.000 C 
BRANCH   5   6
ATOM      6  C   UNL     1      30.169   1.246 -39.117  1.00  0.00     0.000 C 
BRANCH   6   7
ATOM      7  C   UNL     1      29.017   1.452 -40.124  1.00  0.00     0.006 C 
BRANCH   7   8
ATOM      8  C   UNL     1      27.886   2.310 -39.543  1.00  0.00     0.053 C 
BRANCH   8   9
ATOM      9  C   UNL     1      26.575   1.596 -39.650  1.00  0.00     0.041 C 
ATOM     10  O   UNL     1      25.505   2.250 -39.748  1.00  0.00    -0.550 OA
ATOM     11  O   UNL     1      26.541   0.208 -39.682  1.00  0.00    -0.550 OA
ENDBRANCH   8   9
ENDBRANCH   7   8
ENDBRANCH   6   7
ENDBRANCH   5   6
ENDBRANCH   4   5
ENDBRANCH   3   4
ENDBRANCH   2   3
ENDBRANCH   1   2
BRANCH   1  12
ATOM     12  C   UNL     1      32.435  -0.818 -35.081  1.00  0.00     0.000 C 
BRANCH  12  13
ATOM     13  C   UNL     1      33.501  -1.073 -36.162  1.00  0.00    -0.000 C 
BRANCH  13  14
ATOM     14  C   UNL     1      33.299  -0.261 -37.456  1.00  0.00    -0.000 C 
BRANCH  14  15
ATOM     15  C   UNL     1      32.684  -1.078 -38.616  1.00  0.00    -0.000 C 
BRANCH  15  16
ATOM     16  C   UNL     1      32.653  -2.593 -38.351  1.00  0.00    -0.000 C 
BRANCH  16  17
ATOM     17  C   UNL     1      31.329  -3.283 -38.731  1.00  0.00    -0.000 C 
BRANCH  17  18
ATOM     18  C   UNL     1      30.362  -2.424 -39.572  1.00  0.00    -0.000 C 
BRANCH  18  19
ATOM     19  C   UNL     1      28.868  -2.644 -39.278  1.00  0.00    -0.003 C 
ATOM     20  C   UNL     1      28.613  -3.809 -38.323  1.00  0.00     0.004 C 
ENDBRANCH  18  19
ENDBRANCH  17  18
ENDBRANCH  16  17
ENDBRANCH  15  16
ENDBRANCH  14  15
ENDBRANCH  13  14
ENDBRANCH  12  13
ENDBRANCH   1  12
TORSDOF 16
ENDMDL
MODEL 8
REMARK VINA RESULT:    -2.952      6.397      9.649
REMARK INTER + INTRA:          -8.605
REMARK INTER:                  -5.700
REMARK INTRA:                  -2.906
REMARK UNBOUND:                -2.892
REMARK SMILES CCCCCCCCCCCCCCCCCC(=O)[O-]
REMARK SMILES IDX 10 1 11 2 12 3 13 4 14 5 15 6 16 7 17 8 18 9 19 10 20 11
REMARK SMILES IDX 9 12 8 13 7 14 6 15 5 16 4 17 3 18 2 19 1 20
REMARK H PARENT
REMARK Flexibility Score: inf
ROOT
ATOM      1  C   UNL     1      29.464   0.134 -36.857  1.00  0.00     0.000 C 
ENDROOT
BRANCH   1   2
ATOM      2  C   UNL     1      28.560  -1.104 -36.920  1.00  0.00     0.000 C 
BRANCH   2   3
ATOM      3  C   UNL     1      28.174  -1.431 -38.371  1.00  0.00     0.000 C 
BRANCH   3   4
ATOM      4  C   UNL     1      28.377  -2.915 -38.714  1.00  0.00     0.000 C 
BRANCH   4   5
ATOM      5  C   UNL     1      28.739  -3.759 -37.482  1.00  0.00     0.000 C 
BRANCH   5   6
ATOM      6  C   UNL     1      27.638  -4.764 -37.102  1.00  0.00     0.000 C 
BRANCH   6   7
ATOM      7  C   UNL     1      26.769  -4.315 -35.908  1.00  0.00     0.006 C 
BRANCH   7   8
ATOM      8  C   UNL     1      25.486  -3.606 -36.359  1.00  0.00     0.053 C 
BRANCH   8   9
ATOM      9  C   UNL     1      24.970  -2.711 -35.276  1.00  0.00     0.041 C 
ATOM     10  O   UNL     1      25.594  -1.662 -34.971  1.00  0.00    -0.550 OA
ATOM     11  O   UNL     1      23.778  -3.017 -34.632  1.00  0.00    -0.550 OA
ENDBRANCH   8   9
ENDBRANCH   7   8
ENDBRANCH   6   7
ENDBRANCH   5   6
ENDBRANCH   4   5
ENDBRANCH   3   4
ENDBRANCH   2   3
ENDBRANCH   1   2
BRANCH   1  12
ATOM     12  C   UNL     1      29.495   0.861 -38.211  1.00  0.00     0.000 C 
BRANCH  12  13
ATOM     13  C   UNL     1      30.904   0.907 -38.832  1.00  0.00    -0.000 C 
BRANCH  13  14
ATOM     14  C   UNL     1      32.033   0.478 -37.875  1.00  0.00    -0.000 C 
BRANCH  14  15
ATOM     15  C   UNL     1      32.908  -0.676 -38.418  1.00  0.00    -0.000 C 
BRANCH  15  16
ATOM     16  C   UNL     1      32.090  -1.865 -38.955  1.00  0.00    -0.000 C 
BRANCH  16  17
ATOM     17  C   UNL     1      32.253  -3.168 -38.149  1.00  0.00    -0.000 C 
BRANCH  17  18
ATOM     18  C   UNL     1      32.844  -2.994 -36.734  1.00  0.00    -0.000 C 
BRANCH  18  19
ATOM     19  C   UNL     1      31.809  -2.946 -35.596  1.00  0.00    -0.003 C 
ATOM     20  C   UNL     1      31.887  -1.662 -34.773  1.00  0.00     0.004 C 
ENDBRANCH  18  19
ENDBRANCH  17  18
ENDBRANCH  16  17
ENDBRANCH  15  16
ENDBRANCH  14  15
ENDBRANCH  13  14
ENDBRANCH  12  13
ENDBRANCH   1  12
TORSDOF 16
ENDMDL
MODEL 9
REMARK VINA RESULT:    -2.947      6.839      9.485
REMARK INTER + INTRA:          -8.597
REMARK INTER:                  -5.389
REMARK INTRA:                  -3.208
REMARK UNBOUND:                -2.892
REMARK SMILES CCCCCCCCCCCCCCCCCC(=O)[O-]
REMARK SMILES IDX 10 1 11 2 12 3 13 4 14 5 15 6 16 7 17 8 18 9 19 10 20 11
REMARK SMILES IDX 9 12 8 13 7 14 6 15 5 16 4 17 3 18 2 19 1 20
REMARK H PARENT
REMARK Flexibility Score: inf
ROOT
ATOM      1  C   UNL     1      33.094  -0.516 -38.249  1.00  0.00     0.000 C 
ENDROOT
BRANCH   1   2
ATOM      2  C   UNL     1      31.898   0.435 -38.115  1.00  0.00     0.000 C 
BRANCH   2   3
ATOM      3  C   UNL     1      30.596  -0.250 -38.560  1.00  0.00     0.000 C 
BRANCH   3   4
ATOM      4  C   UNL     1      29.393   0.151 -37.693  1.00  0.00     0.000 C 
BRANCH   4   5
ATOM      5  C   UNL     1      28.763  -1.050 -36.970  1.00  0.00     0.000 C 
BRANCH   5   6
ATOM      6  C   UNL     1      29.216  -2.401 -37.549  1.00  0.00     0.000 C 
BRANCH   6   7
ATOM      7  C   UNL     1      29.020  -3.589 -36.583  1.00  0.00     0.006 C 
BRANCH   7   8
ATOM      8  C   UNL     1      27.951  -3.303 -35.521  1.00  0.00     0.053 C 
BRANCH   8   9
ATOM      9  C   UNL     1      26.767  -4.198 -35.712  1.00  0.00     0.041 C 
ATOM     10  O   UNL     1      26.074  -4.118 -36.759  1.00  0.00    -0.550 OA
ATOM     11  O   UNL     1      26.453  -5.149 -34.749  1.00  0.00    -0.550 OA
ENDBRANCH   8   9
ENDBRANCH   7   8
ENDBRANCH   6   7
ENDBRANCH   5   6
ENDBRANCH   4   5
ENDBRANCH   3   4
ENDBRANCH   2   3
ENDBRANCH   1   2
BRANCH   1  12
ATOM     12  C   UNL     1      32.688  -1.811 -38.971  1.00  0.00     0.000 C 
BRANCH  12  13
ATOM     13  C   UNL     1      32.741  -3.048 -38.054  1.00  0.00    -0.000 C 
BRANCH  13  14
ATOM     14  C   UNL     1      33.504  -2.825 -36.733  1.00  0.00    -0.000 C 
BRANCH  14  15
ATOM     15  C   UNL     1      32.617  -2.939 -35.472  1.00  0.00    -0.000 C 
BRANCH  15  16
ATOM     16  C   UNL     1      32.407  -1.598 -34.747  1.00  0.00    -0.000 C 
BRANCH  16  17
ATOM     17  C   UNL     1      30.971  -1.361 -34.242  1.00  0.00    -0.000 C 
BRANCH  17  18
ATOM     18  C   UNL     1      30.666   0.083 -33.789  1.00  0.00    -0.000 C 
BRANCH  18  19
ATOM     19  C   UNL     1      31.408   1.182 -34.569  1.00  0.00    -0.003 C 
ATOM     20  C   UNL     1      30.496   2.332 -34.994  1.00  0.00     0.004 C 
ENDBRANCH  18  19
ENDBRANCH  17  18
ENDBRANCH  16  17
ENDBRANCH  15  16
ENDBRANCH  14  15
ENDBRANCH  13  14
ENDBRANCH  12  13
ENDBRANCH   1  12
TORSDOF 16
ENDMDL
