MODEL 1
REMARK VINA RESULT:    -3.720      0.000      0.000
REMARK INTER + INTRA:          -5.268
REMARK INTER:                  -5.025
REMARK INTRA:                  -0.244
REMARK UNBOUND:                -0.244
REMARK SMILES CCCCCCCC=O
REMARK SMILES IDX 5 1 4 2 3 3 2 4 1 5 6 6 7 7 8 8 9 9
REMARK H PARENT
REMARK Flexibility Score: inf
ROOT
ATOM      1  C   UNL     1      25.306  58.526  -8.261  1.00  0.00     0.000 C 
ENDROOT
BRANCH   1   2
ATOM      2  C   UNL     1      26.331  59.590  -8.681  1.00  0.00     0.000 C 
BRANCH   2   3
ATOM      3  C   UNL     1      27.212  59.077  -9.830  1.00  0.00    -0.000 C 
BRANCH   3   4
ATOM      4  C   UNL     1      28.327  60.065 -10.207  1.00  0.00    -0.003 C 
ATOM      5  C   UNL     1      28.397  61.267  -9.265  1.00  0.00     0.004 C 
ENDBRANCH   3   4
ENDBRANCH   2   3
ENDBRANCH   1   2
BRANCH   1   6
ATOM      6  C   UNL     1      25.761  57.098  -8.603  1.00  0.00     0.008 C 
BRANCH   6   7
ATOM      7  C   UNL     1      25.464  56.098  -7.477  1.00  0.00     0.072 C 
BRANCH   7   8
ATOM      8  C   UNL     1      24.153  56.409  -6.819  1.00  0.00     0.224 C 
ATOM      9  O   UNL     1      23.400  55.510  -6.482  1.00  0.00    -0.303 OA
ENDBRANCH   7   8
ENDBRANCH   6   7
ENDBRANCH   1   6
TORSDOF 6
ENDMDL
MODEL 2
REMARK VINA RESULT:    -3.699      3.234      5.692
REMARK INTER + INTRA:          -5.240
REMARK INTER:                  -5.109
REMARK INTRA:                  -0.131
REMARK UNBOUND:                -0.244
REMARK SMILES CCCCCCCC=O
REMARK SMILES IDX 5 1 4 2 3 3 2 4 1 5 6 6 7 7 8 8 9 9
REMARK H PARENT
REMARK Flexibility Score: inf
ROOT
ATOM      1  C   UNL     1      26.979  59.173  -9.447  1.00  0.00     0.000 C 
ENDROOT
BRANCH   1   2
ATOM      2  C   UNL     1      25.936  58.648  -8.448  1.00  0.00     0.000 C 
BRANCH   2   3
ATOM      3  C   UNL     1      25.618  57.170  -8.716  1.00  0.00    -0.000 C 
BRANCH   3   4
ATOM      4  C   UNL     1      25.547  56.337  -7.426  1.00  0.00    -0.003 C 
ATOM      5  C   UNL     1      24.115  55.985  -7.026  1.00  0.00     0.004 C 
ENDBRANCH   3   4
ENDBRANCH   2   3
ENDBRANCH   1   2
BRANCH   1   6
ATOM      6  C   UNL     1      27.423  60.612  -9.138  1.00  0.00     0.008 C 
BRANCH   6   7
ATOM      7  C   UNL     1      28.726  60.994  -9.854  1.00  0.00     0.072 C 
BRANCH   7   8
ATOM      8  C   UNL     1      29.314  59.808 -10.559  1.00  0.00     0.224 C 
ATOM      9  O   UNL     1      30.194  59.957 -11.392  1.00  0.00    -0.303 OA
ENDBRANCH   7   8
ENDBRANCH   6   7
ENDBRANCH   1   6
TORSDOF 6
ENDMDL
MODEL 3
REMARK VINA RESULT:    -3.608     17.752     18.955
REMARK INTER + INTRA:          -5.117
REMARK INTER:                  -4.831
REMARK INTRA:                  -0.286
REMARK UNBOUND:                -0.244
REMARK SMILES CCCCCCCC=O
REMARK SMILES IDX 5 1 4 2 3 3 2 4 1 5 6 6 7 7 8 8 9 9
REMARK H PARENT
REMARK Flexibility Score: inf
ROOT
ATOM      1  C   UNL     1      18.832  45.219   0.686  1.00  0.00     0.000 C 
ENDROOT
BRANCH   1   2
ATOM      2  C   UNL     1      17.328  45.511   0.569  1.00  0.00     0.000 C 
BRANCH   2   3
ATOM      3  C   UNL     1      16.547  44.815   1.694  1.00  0.00    -0.000 C 
BRANCH   3   4
ATOM      4  C   UNL     1      15.222  45.522   2.018  1.00  0.00    -0.003 C 
ATOM      5  C   UNL     1      14.653  46.291   0.826  1.00  0.00     0.004 C 
ENDBRANCH   3   4
ENDBRANCH   2   3
ENDBRANCH   1   2
BRANCH   1   6
ATOM      6  C   UNL     1      19.243  44.790   2.104  1.00  0.00     0.008 C 
BRANCH   6   7
ATOM      7  C   UNL     1      19.830  43.372   2.145  1.00  0.00     0.072 C 
BRANCH   7   8
ATOM      8  C   UNL     1      20.234  42.923   0.772  1.00  0.00     0.224 C 
ATOM      9  O   UNL     1      21.369  42.528   0.558  1.00  0.00    -0.303 OA
ENDBRANCH   7   8
ENDBRANCH   6   7
ENDBRANCH   1   6
TORSDOF 6
ENDMDL
MODEL 4
REMARK VINA RESULT:    -3.527     15.033     16.706
REMARK INTER + INTRA:          -5.008
REMARK INTER:                  -4.821
REMARK INTRA:                  -0.186
REMARK UNBOUND:                -0.244
REMARK SMILES CCCCCCCC=O
REMARK SMILES IDX 5 1 4 2 3 3 2 4 1 5 6 6 7 7 8 8 9 9
REMARK H PARENT
REMARK Flexibility Score: inf
ROOT
ATOM      1  C   UNL     1      32.018  45.149   0.917  1.00  0.00     0.000 C 
ENDROOT
BRANCH   1   2
ATOM      2  C   UNL     1      32.884  45.367   2.167  1.00  0.00     0.000 C 
BRANCH   2   3
ATOM      3  C   UNL     1      33.090  46.865   2.434  1.00  0.00    -0.000 C 
BRANCH   3   4
ATOM      4  C   UNL     1      33.110  47.202   3.933  1.00  0.00    -0.003 C 
ATOM      5  C   UNL     1      32.353  48.488   4.261  1.00  0.00     0.004 C 
ENDBRANCH   3   4
ENDBRANCH   2   3
ENDBRANCH   1   2
BRANCH   1   6
ATOM      6  C   UNL     1      30.568  45.623   1.111  1.00  0.00     0.008 C 
BRANCH   6   7
ATOM      7  C   UNL     1      29.651  45.206  -0.046  1.00  0.00     0.072 C 
BRANCH   7   8
ATOM      8  C   UNL     1      28.477  46.134  -0.158  1.00  0.00     0.224 C 
ATOM      9  O   UNL     1      27.394  45.719  -0.538  1.00  0.00    -0.303 OA
ENDBRANCH   7   8
ENDBRANCH   6   7
ENDBRANCH   1   6
TORSDOF 6
ENDMDL
MODEL 5
REMARK VINA RESULT:    -3.469     17.017     18.351
REMARK INTER + INTRA:          -4.929
REMARK INTER:                  -4.506
REMARK INTRA:                  -0.424
REMARK UNBOUND:                -0.244
REMARK SMILES CCCCCCCC=O
REMARK SMILES IDX 5 1 4 2 3 3 2 4 1 5 6 6 7 7 8 8 9 9
REMARK H PARENT
REMARK Flexibility Score: inf
ROOT
ATOM      1  C   UNL     1      17.657  46.318  -0.094  1.00  0.00     0.000 C 
ENDROOT
BRANCH   1   2
ATOM      2  C   UNL     1      19.074  45.885   0.314  1.00  0.00     0.000 C 
BRANCH   2   3
ATOM      3  C   UNL     1      19.124  44.377   0.598  1.00  0.00    -0.000 C 
BRANCH   3   4
ATOM      4  C   UNL     1      19.878  44.044   1.895  1.00  0.00    -0.003 C 
ATOM      5  C   UNL     1      19.304  44.763   3.115  1.00  0.00     0.004 C 
ENDBRANCH   3   4
ENDBRANCH   2   3
ENDBRANCH   1   2
BRANCH   1   6
ATOM      6  C   UNL     1      16.592  45.270   0.265  1.00  0.00     0.008 C 
BRANCH   6   7
ATOM      7  C   UNL     1      15.871  45.586   1.582  1.00  0.00     0.072 C 
BRANCH   7   8
ATOM      8  C   UNL     1      14.560  46.267   1.323  1.00  0.00     0.224 C 
ATOM      9  O   UNL     1      14.133  46.375   0.185  1.00  0.00    -0.303 OA
ENDBRANCH   7   8
ENDBRANCH   6   7
ENDBRANCH   1   6
TORSDOF 6
ENDMDL
MODEL 6
REMARK VINA RESULT:    -3.451      4.524      6.392
REMARK INTER + INTRA:          -4.905
REMARK INTER:                  -4.628
REMARK INTRA:                  -0.276
REMARK UNBOUND:                -0.244
REMARK SMILES CCCCCCCC=O
REMARK SMILES IDX 5 1 4 2 3 3 2 4 1 5 6 6 7 7 8 8 9 9
REMARK H PARENT
REMARK Flexibility Score: inf
ROOT
ATOM      1  C   UNL     1      30.590  59.351 -12.275  1.00  0.00     0.000 C 
ENDROOT
BRANCH   1   2
ATOM      2  C   UNL     1      30.221  57.969 -12.835  1.00  0.00     0.000 C 
BRANCH   2   3
ATOM      3  C   UNL     1      31.484  57.152 -13.148  1.00  0.00    -0.000 C 
BRANCH   3   4
ATOM      4  C   UNL     1      32.699  58.039 -13.464  1.00  0.00    -0.003 C 
ATOM      5  C   UNL     1      34.026  57.375 -13.100  1.00  0.00     0.004 C 
ENDBRANCH   3   4
ENDBRANCH   2   3
ENDBRANCH   1   2
BRANCH   1   6
ATOM      6  C   UNL     1      30.282  59.482 -10.774  1.00  0.00     0.008 C 
BRANCH   6   7
ATOM      7  C   UNL     1      29.385  60.687 -10.458  1.00  0.00     0.072 C 
BRANCH   7   8
ATOM      8  C   UNL     1      28.085  60.241  -9.857  1.00  0.00     0.224 C 
ATOM      9  O   UNL     1      27.645  59.127 -10.090  1.00  0.00    -0.303 OA
ENDBRANCH   7   8
ENDBRANCH   6   7
ENDBRANCH   1   6
TORSDOF 6
ENDMDL
MODEL 7
REMARK VINA RESULT:    -3.443     13.572     15.672
REMARK INTER + INTRA:          -4.895
REMARK INTER:                  -4.773
REMARK INTRA:                  -0.122
REMARK UNBOUND:                -0.244
REMARK SMILES CCCCCCCC=O
REMARK SMILES IDX 5 1 4 2 3 3 2 4 1 5 6 6 7 7 8 8 9 9
REMARK H PARENT
REMARK Flexibility Score: inf
ROOT
ATOM      1  C   UNL     1      29.837  45.344   0.240  1.00  0.00     0.000 C 
ENDROOT
BRANCH   1   2
ATOM      2  C   UNL     1      30.837  45.587   1.381  1.00  0.00     0.000 C 
BRANCH   2   3
ATOM      3  C   UNL     1      32.228  45.052   1.011  1.00  0.00    -0.000 C 
BRANCH   3   4
ATOM      4  C   UNL     1      33.340  46.087   1.240  1.00  0.00    -0.003 C 
ATOM      5  C   UNL     1      33.250  46.759   2.610  1.00  0.00     0.004 C 
ENDBRANCH   3   4
ENDBRANCH   2   3
ENDBRANCH   1   2
BRANCH   1   6
ATOM      6  C   UNL     1      28.639  46.307   0.287  1.00  0.00     0.008 C 
BRANCH   6   7
ATOM      7  C   UNL     1      27.685  46.121  -0.900  1.00  0.00     0.072 C 
BRANCH   7   8
ATOM      8  C   UNL     1      27.389  47.436  -1.558  1.00  0.00     0.224 C 
ATOM      9  O   UNL     1      26.549  47.512  -2.440  1.00  0.00    -0.303 OA
ENDBRANCH   7   8
ENDBRANCH   6   7
ENDBRANCH   1   6
TORSDOF 6
ENDMDL
MODEL 8
REMARK VINA RESULT:    -3.439     16.776     18.236
REMARK INTER + INTRA:          -4.889
REMARK INTER:                  -4.537
REMARK INTRA:                  -0.352
REMARK UNBOUND:                -0.244
REMARK SMILES CCCCCCCC=O
REMARK SMILES IDX 5 1 4 2 3 3 2 4 1 5 6 6 7 7 8 8 9 9
REMARK H PARENT
REMARK Flexibility Score: inf
ROOT
ATOM      1  C   UNL     1      15.879  45.364   1.802  1.00  0.00     0.000 C 
ENDROOT
BRANCH   1   2
ATOM      2  C   UNL     1      17.045  44.575   1.189  1.00  0.00     0.000 C 
BRANCH   2   3
ATOM      3  C   UNL     1      18.209  44.458   2.183  1.00  0.00    -0.000 C 
BRANCH   3   4
ATOM      4  C   UNL     1      19.546  44.930   1.588  1.00  0.00    -0.003 C 
ATOM      5  C   UNL     1      19.364  45.823   0.361  1.00  0.00     0.004 C 
ENDBRANCH   3   4
ENDBRANCH   2   3
ENDBRANCH   1   2
BRANCH   1   6
ATOM      6  C   UNL     1      15.029  46.084   0.742  1.00  0.00     0.008 C 
BRANCH   6   7
ATOM      7  C   UNL     1      15.844  46.486  -0.494  1.00  0.00     0.072 C 
BRANCH   7   8
ATOM      8  C   UNL     1      15.065  46.238  -1.751  1.00  0.00     0.224 C 
ATOM      9  O   UNL     1      15.269  46.908  -2.750  1.00  0.00    -0.303 OA
ENDBRANCH   7   8
ENDBRANCH   6   7
ENDBRANCH   1   6
TORSDOF 6
ENDMDL
MODEL 9
REMARK VINA RESULT:    -3.424     15.335     17.142
REMARK INTER + INTRA:          -4.868
REMARK INTER:                  -4.642
REMARK INTRA:                  -0.226
REMARK UNBOUND:                -0.244
REMARK SMILES CCCCCCCC=O
REMARK SMILES IDX 5 1 4 2 3 3 2 4 1 5 6 6 7 7 8 8 9 9
REMARK H PARENT
REMARK Flexibility Score: inf
ROOT
ATOM      1  C   UNL     1      32.820  45.564   2.190  1.00  0.00     0.000 C 
ENDROOT
BRANCH   1   2
ATOM      2  C   UNL     1      31.858  44.971   1.150  1.00  0.00     0.000 C 
BRANCH   2   3
ATOM      3  C   UNL     1      30.508  45.704   1.174  1.00  0.00    -0.000 C 
BRANCH   3   4
ATOM      4  C   UNL     1      29.606  45.321  -0.010  1.00  0.00    -0.003 C 
ATOM      5  C   UNL     1      28.372  46.214  -0.127  1.00  0.00     0.004 C 
ENDBRANCH   3   4
ENDBRANCH   2   3
ENDBRANCH   1   2
BRANCH   1   6
ATOM      6  C   UNL     1      33.612  46.765   1.646  1.00  0.00     0.008 C 
BRANCH   6   7
ATOM      7  C   UNL     1      33.730  47.905   2.667  1.00  0.00     0.072 C 
BRANCH   7   8
ATOM      8  C   UNL     1      32.933  47.601   3.901  1.00  0.00     0.224 C 
ATOM      9  O   UNL     1      32.172  48.433   4.367  1.00  0.00    -0.303 OA
ENDBRANCH   7   8
ENDBRANCH   6   7
ENDBRANCH   1   6
TORSDOF 6
ENDMDL
