MODEL 1
REMARK VINA RESULT:    -6.489      0.000      0.000
REMARK INTER + INTRA:         -11.089
REMARK INTER:                  -9.524
REMARK INTRA:                  -1.565
REMARK UNBOUND:                -1.565
REMARK SMILES O=c1c(O[C@H]2O[C@@H](CO)[C@H](O)[C@H](O)[C@@H]2O)c(-c2ccc(O)c(O)c2)oc2cc(O)cc(O)c12
REMARK SMILES IDX 4 1 3 2 16 3 25 4 2 5 26 6 1 7 33 8 27 9 31 10 28 11 30 12
REMARK SMILES IDX 17 13 18 14 19 15 20 16 24 17 22 18 21 19 23 21 32 23 29 25
REMARK SMILES IDX 5 27 14 28 6 29 12 30 7 31 10 32 15 33 13 35 8 37 9 38 11 40
REMARK H PARENT 21 20 23 22 32 24 29 26 15 34 13 36 9 39 11 41
REMARK Flexibility Score: inf
ROOT
ATOM      1  O   UNL     1     -37.600   5.455  81.796  1.00  0.00    -0.454 OA
ENDROOT
BRANCH   1   2
ATOM      2  C   UNL     1     -38.397   4.887  80.781  1.00  0.00     0.214 A 
ATOM      3  C   UNL     1     -37.850   4.776  79.488  1.00  0.00     0.180 A 
ATOM      4  O   UNL     1     -38.587   4.306  78.492  1.00  0.00    -0.452 OA
ATOM      5  C   UNL     1     -39.722   4.445  80.988  1.00  0.00     0.239 A 
ATOM      6  C   UNL     1     -39.832   3.875  78.642  1.00  0.00     0.146 A 
ATOM      7  O   UNL     1     -40.250   4.581  82.120  1.00  0.00    -0.285 OA
ATOM      8  C   UNL     1     -40.455   3.881  79.916  1.00  0.00     0.111 A 
ATOM      9  C   UNL     1     -40.522   3.423  77.514  1.00  0.00     0.094 A 
ATOM     10  C   UNL     1     -41.779   3.358  80.025  1.00  0.00     0.134 A 
ATOM     11  C   UNL     1     -41.836   2.976  77.622  1.00  0.00     0.123 A 
ATOM     12  C   UNL     1     -42.459   2.948  78.872  1.00  0.00     0.093 A 
BRANCH   3  13
ATOM     13  C   UNL     1     -36.476   5.231  79.177  1.00  0.00     0.025 A 
ATOM     14  C   UNL     1     -35.351   4.493  79.580  1.00  0.00     0.016 A 
ATOM     15  C   UNL     1     -34.064   4.941  79.271  1.00  0.00     0.051 A 
ATOM     16  C   UNL     1     -33.881   6.120  78.543  1.00  0.00     0.157 A 
ATOM     17  C   UNL     1     -36.290   6.403  78.427  1.00  0.00     0.062 A 
ATOM     18  C   UNL     1     -34.999   6.854  78.114  1.00  0.00     0.158 A 
BRANCH  16  19
ATOM     19  O   UNL     1     -32.584   6.542  78.252  1.00  0.00    -0.504 OA
ATOM     20  H   UNL     1     -31.774   5.966  78.449  1.00  0.00     0.293 HD
ENDBRANCH  16  19
BRANCH  18  21
ATOM     21  O   UNL     1     -34.824   8.027  77.382  1.00  0.00    -0.504 OA
ATOM     22  H   UNL     1     -34.270   8.797  77.737  1.00  0.00     0.293 HD
ENDBRANCH  18  21
ENDBRANCH   3  13
BRANCH  10  23
ATOM     23  O   UNL     1     -42.455   3.195  81.238  1.00  0.00    -0.507 OA
ATOM     24  H   UNL     1     -42.030   2.872  82.094  1.00  0.00     0.293 HD
ENDBRANCH  10  23
BRANCH  11  25
ATOM     25  O   UNL     1     -42.513   2.549  76.481  1.00  0.00    -0.508 OA
ATOM     26  H   UNL     1     -42.887   3.208  75.809  1.00  0.00     0.293 HD
ENDBRANCH  11  25
ENDBRANCH   1   2
BRANCH   1  27
ATOM     27  C   UNL     1     -37.826   6.699  82.464  1.00  0.00     0.339 C 
ATOM     28  C   UNL     1     -37.121   7.833  81.708  1.00  0.00     0.214 C 
ATOM     29  O   UNL     1     -37.452   6.647  83.838  1.00  0.00    -0.332 OA
ATOM     30  C   UNL     1     -35.596   7.695  81.857  1.00  0.00     0.180 C 
ATOM     31  C   UNL     1     -36.052   6.524  84.068  1.00  0.00     0.179 C 
ATOM     32  C   UNL     1     -35.212   7.602  83.342  1.00  0.00     0.177 C 
BRANCH  28  33
ATOM     33  O   UNL     1     -37.563   9.069  82.209  1.00  0.00    -0.384 OA
ATOM     34  H   UNL     1     -36.757   9.631  82.346  1.00  0.00     0.211 HD
ENDBRANCH  28  33
BRANCH  30  35
ATOM     35  O   UNL     1     -34.939   8.783  81.259  1.00  0.00    -0.387 OA
ATOM     36  H   UNL     1     -35.605   9.235  80.677  1.00  0.00     0.211 HD
ENDBRANCH  30  35
BRANCH  31  37
ATOM     37  C   UNL     1     -35.544   5.085  83.840  1.00  0.00     0.191 C 
BRANCH  37  38
ATOM     38  O   UNL     1     -36.555   4.154  84.125  1.00  0.00    -0.394 OA
ATOM     39  H   UNL     1     -36.424   3.390  83.504  1.00  0.00     0.210 HD
ENDBRANCH  37  38
ENDBRANCH  31  37
BRANCH  32  40
ATOM     40  O   UNL     1     -35.416   8.840  83.979  1.00  0.00    -0.387 OA
ATOM     41  H   UNL     1     -35.721   8.647  84.903  1.00  0.00     0.211 HD
ENDBRANCH  32  40
ENDBRANCH   1  27
TORSDOF 12
ENDMDL
MODEL 2
REMARK VINA RESULT:    -6.171      2.039      7.507
REMARK INTER + INTRA:         -10.622
REMARK INTER:                  -9.835
REMARK INTRA:                  -0.787
REMARK UNBOUND:                -1.565
REMARK SMILES O=c1c(O[C@H]2O[C@@H](CO)[C@H](O)[C@H](O)[C@@H]2O)c(-c2ccc(O)c(O)c2)oc2cc(O)cc(O)c12
REMARK SMILES IDX 4 1 3 2 16 3 25 4 2 5 26 6 1 7 33 8 27 9 31 10 28 11 30 12
REMARK SMILES IDX 17 13 18 14 19 15 20 16 24 17 22 18 21 19 23 21 32 23 29 25
REMARK SMILES IDX 5 27 14 28 6 29 12 30 7 31 10 32 15 33 13 35 8 37 9 38 11 40
REMARK H PARENT 21 20 23 22 32 24 29 26 15 34 13 36 9 39 11 41
REMARK Flexibility Score: inf
ROOT
ATOM      1  O   UNL     1     -37.945   4.769  78.901  1.00  0.00    -0.454 OA
ENDROOT
BRANCH   1   2
ATOM      2  C   UNL     1     -36.841   5.409  79.500  1.00  0.00     0.214 A 
ATOM      3  C   UNL     1     -36.724   5.363  80.902  1.00  0.00     0.180 A 
ATOM      4  O   UNL     1     -35.735   6.005  81.509  1.00  0.00    -0.452 OA
ATOM      5  C   UNL     1     -35.859   6.113  78.767  1.00  0.00     0.239 A 
ATOM      6  C   UNL     1     -34.790   6.672  80.862  1.00  0.00     0.146 A 
ATOM      7  O   UNL     1     -35.969   6.211  77.520  1.00  0.00    -0.285 OA
ATOM      8  C   UNL     1     -34.776   6.724  79.445  1.00  0.00     0.111 A 
ATOM      9  C   UNL     1     -33.809   7.331  81.608  1.00  0.00     0.094 A 
ATOM     10  C   UNL     1     -33.705   7.416  78.802  1.00  0.00     0.134 A 
ATOM     11  C   UNL     1     -32.805   8.056  80.972  1.00  0.00     0.123 A 
ATOM     12  C   UNL     1     -32.759   8.099  79.577  1.00  0.00     0.093 A 
BRANCH   3  13
ATOM     13  C   UNL     1     -37.718   4.665  81.749  1.00  0.00     0.025 A 
ATOM     14  C   UNL     1     -38.639   5.376  82.535  1.00  0.00     0.016 A 
ATOM     15  C   UNL     1     -39.570   4.695  83.324  1.00  0.00     0.051 A 
ATOM     16  C   UNL     1     -39.607   3.297  83.325  1.00  0.00     0.157 A 
ATOM     17  C   UNL     1     -37.771   3.262  81.735  1.00  0.00     0.062 A 
ATOM     18  C   UNL     1     -38.707   2.576  82.525  1.00  0.00     0.158 A 
BRANCH  16  19
ATOM     19  O   UNL     1     -40.546   2.646  84.124  1.00  0.00    -0.504 OA
ATOM     20  H   UNL     1     -41.148   1.916  83.760  1.00  0.00     0.293 HD
ENDBRANCH  16  19
BRANCH  18  21
ATOM     21  O   UNL     1     -38.743   1.183  82.516  1.00  0.00    -0.504 OA
ATOM     22  H   UNL     1     -38.592   0.653  81.665  1.00  0.00     0.293 HD
ENDBRANCH  18  21
ENDBRANCH   3  13
BRANCH  10  23
ATOM     23  O   UNL     1     -33.510   7.437  77.418  1.00  0.00    -0.507 OA
ATOM     24  H   UNL     1     -32.614   7.343  76.963  1.00  0.00     0.293 HD
ENDBRANCH  10  23
BRANCH  11  25
ATOM     25  O   UNL     1     -31.850   8.724  81.735  1.00  0.00    -0.508 OA
ATOM     26  H   UNL     1     -30.949   8.981  81.350  1.00  0.00     0.293 HD
ENDBRANCH  11  25
ENDBRANCH   1   2
BRANCH   1  27
ATOM     27  C   UNL     1     -39.104   5.401  78.351  1.00  0.00     0.339 C 
ATOM     28  C   UNL     1     -40.154   5.613  79.451  1.00  0.00     0.214 C 
ATOM     29  O   UNL     1     -39.626   4.689  77.233  1.00  0.00    -0.332 OA
ATOM     30  C   UNL     1     -40.739   4.259  79.887  1.00  0.00     0.180 C 
ATOM     31  C   UNL     1     -40.194   3.421  77.548  1.00  0.00     0.179 C 
ATOM     32  C   UNL     1     -41.263   3.488  78.665  1.00  0.00     0.177 C 
BRANCH  28  33
ATOM     33  O   UNL     1     -41.163   6.465  78.969  1.00  0.00    -0.384 OA
ATOM     34  H   UNL     1     -40.710   7.240  78.545  1.00  0.00     0.211 HD
ENDBRANCH  28  33
BRANCH  30  35
ATOM     35  O   UNL     1     -41.776   4.444  80.817  1.00  0.00    -0.387 OA
ATOM     36  H   UNL     1     -42.629   4.375  80.312  1.00  0.00     0.211 HD
ENDBRANCH  30  35
BRANCH  31  37
ATOM     37  C   UNL     1     -39.120   2.339  77.781  1.00  0.00     0.191 C 
BRANCH  37  38
ATOM     38  O   UNL     1     -38.984   2.066  79.151  1.00  0.00    -0.394 OA
ATOM     39  H   UNL     1     -38.103   1.624  79.269  1.00  0.00     0.210 HD
ENDBRANCH  37  38
ENDBRANCH  31  37
BRANCH  32  40
ATOM     40  O   UNL     1     -42.417   4.107  78.152  1.00  0.00    -0.387 OA
ATOM     41  H   UNL     1     -42.122   4.727  77.435  1.00  0.00     0.211 HD
ENDBRANCH  32  40
ENDBRANCH   1  27
TORSDOF 12
ENDMDL
MODEL 3
REMARK VINA RESULT:    -6.130      2.575      6.875
REMARK INTER + INTRA:         -10.562
REMARK INTER:                  -9.342
REMARK INTRA:                  -1.221
REMARK UNBOUND:                -1.565
REMARK SMILES O=c1c(O[C@H]2O[C@@H](CO)[C@H](O)[C@H](O)[C@@H]2O)c(-c2ccc(O)c(O)c2)oc2cc(O)cc(O)c12
REMARK SMILES IDX 4 1 3 2 16 3 25 4 2 5 26 6 1 7 33 8 27 9 31 10 28 11 30 12
REMARK SMILES IDX 17 13 18 14 19 15 20 16 24 17 22 18 21 19 23 21 32 23 29 25
REMARK SMILES IDX 5 27 14 28 6 29 12 30 7 31 10 32 15 33 13 35 8 37 9 38 11 40
REMARK H PARENT 21 20 23 22 32 24 29 26 15 34 13 36 9 39 11 41
REMARK Flexibility Score: inf
ROOT
ATOM      1  O   UNL     1     -39.144   6.952  79.425  1.00  0.00    -0.454 OA
ENDROOT
BRANCH   1   2
ATOM      2  C   UNL     1     -38.127   6.205  80.052  1.00  0.00     0.214 A 
ATOM      3  C   UNL     1     -38.250   4.802  80.079  1.00  0.00     0.180 A 
ATOM      4  O   UNL     1     -37.347   4.066  80.713  1.00  0.00    -0.452 OA
ATOM      5  C   UNL     1     -37.001   6.791  80.674  1.00  0.00     0.239 A 
ATOM      6  C   UNL     1     -36.274   4.573  81.304  1.00  0.00     0.146 A 
ATOM      7  O   UNL     1     -36.895   8.042  80.707  1.00  0.00    -0.285 OA
ATOM      8  C   UNL     1     -36.020   5.968  81.278  1.00  0.00     0.111 A 
ATOM      9  C   UNL     1     -35.402   3.703  81.964  1.00  0.00     0.094 A 
ATOM     10  C   UNL     1     -34.822   6.451  81.888  1.00  0.00     0.134 A 
ATOM     11  C   UNL     1     -34.271   4.192  82.611  1.00  0.00     0.123 A 
ATOM     12  C   UNL     1     -33.988   5.559  82.574  1.00  0.00     0.093 A 
BRANCH   3  13
ATOM     13  C   UNL     1     -39.405   4.105  79.469  1.00  0.00     0.025 A 
ATOM     14  C   UNL     1     -39.296   3.452  78.231  1.00  0.00     0.016 A 
ATOM     15  C   UNL     1     -40.399   2.798  77.677  1.00  0.00     0.051 A 
ATOM     16  C   UNL     1     -41.620   2.771  78.357  1.00  0.00     0.157 A 
ATOM     17  C   UNL     1     -40.626   4.058  80.161  1.00  0.00     0.062 A 
ATOM     18  C   UNL     1     -41.735   3.400  79.607  1.00  0.00     0.158 A 
BRANCH  16  19
ATOM     19  O   UNL     1     -42.704   2.111  77.778  1.00  0.00    -0.504 OA
ATOM     20  H   UNL     1     -42.678   1.771  76.824  1.00  0.00     0.293 HD
ENDBRANCH  16  19
BRANCH  18  21
ATOM     21  O   UNL     1     -42.947   3.371  80.295  1.00  0.00    -0.504 OA
ATOM     22  H   UNL     1     -43.822   3.602  79.838  1.00  0.00     0.293 HD
ENDBRANCH  18  21
ENDBRANCH   3  13
BRANCH  10  23
ATOM     23  O   UNL     1     -34.396   7.781  81.825  1.00  0.00    -0.507 OA
ATOM     24  H   UNL     1     -33.974   8.210  81.016  1.00  0.00     0.293 HD
ENDBRANCH  10  23
BRANCH  11  25
ATOM     25  O   UNL     1     -33.426   3.309  83.281  1.00  0.00    -0.508 OA
ATOM     26  H   UNL     1     -33.415   3.250  84.292  1.00  0.00     0.293 HD
ENDBRANCH  11  25
ENDBRANCH   1   2
BRANCH   1  27
ATOM     27  C   UNL     1     -39.425   7.005  78.023  1.00  0.00     0.339 C 
ATOM     28  C   UNL     1     -38.150   7.369  77.250  1.00  0.00     0.214 C 
ATOM     29  O   UNL     1     -40.509   7.879  77.725  1.00  0.00    -0.332 OA
ATOM     30  C   UNL     1     -37.768   8.833  77.526  1.00  0.00     0.180 C 
ATOM     31  C   UNL     1     -40.240   9.259  77.949  1.00  0.00     0.179 C 
ATOM     32  C   UNL     1     -38.960   9.759  77.235  1.00  0.00     0.177 C 
BRANCH  28  33
ATOM     33  O   UNL     1     -38.366   7.157  75.877  1.00  0.00    -0.384 OA
ATOM     34  H   UNL     1     -37.566   7.504  75.401  1.00  0.00     0.211 HD
ENDBRANCH  28  33
BRANCH  30  35
ATOM     35  O   UNL     1     -36.665   9.213  76.743  1.00  0.00    -0.387 OA
ATOM     36  H   UNL     1     -36.971   9.213  75.798  1.00  0.00     0.211 HD
ENDBRANCH  30  35
BRANCH  31  37
ATOM     37  C   UNL     1     -40.302   9.635  79.444  1.00  0.00     0.191 C 
BRANCH  37  38
ATOM     38  O   UNL     1     -39.025   9.961  79.924  1.00  0.00    -0.394 OA
ATOM     39  H   UNL     1     -38.637  10.614  79.285  1.00  0.00     0.210 HD
ENDBRANCH  37  38
ENDBRANCH  31  37
BRANCH  32  40
ATOM     40  O   UNL     1     -39.207   9.820  75.852  1.00  0.00    -0.387 OA
ATOM     41  H   UNL     1     -40.120   9.461  75.701  1.00  0.00     0.211 HD
ENDBRANCH  32  40
ENDBRANCH   1  27
TORSDOF 12
ENDMDL
MODEL 4
REMARK VINA RESULT:    -6.126      2.587      4.736
REMARK INTER + INTRA:         -10.556
REMARK INTER:                  -8.828
REMARK INTRA:                  -1.728
REMARK UNBOUND:                -1.565
REMARK SMILES O=c1c(O[C@H]2O[C@@H](CO)[C@H](O)[C@H](O)[C@@H]2O)c(-c2ccc(O)c(O)c2)oc2cc(O)cc(O)c12
REMARK SMILES IDX 4 1 3 2 16 3 25 4 2 5 26 6 1 7 33 8 27 9 31 10 28 11 30 12
REMARK SMILES IDX 17 13 18 14 19 15 20 16 24 17 22 18 21 19 23 21 32 23 29 25
REMARK SMILES IDX 5 27 14 28 6 29 12 30 7 31 10 32 15 33 13 35 8 37 9 38 11 40
REMARK H PARENT 21 20 23 22 32 24 29 26 15 34 13 36 9 39 11 41
REMARK Flexibility Score: inf
ROOT
ATOM      1  O   UNL     1     -38.558   6.320  79.328  1.00  0.00    -0.454 OA
ENDROOT
BRANCH   1   2
ATOM      2  C   UNL     1     -38.605   5.250  80.243  1.00  0.00     0.214 A 
ATOM      3  C   UNL     1     -37.387   4.711  80.702  1.00  0.00     0.180 A 
ATOM      4  O   UNL     1     -37.387   3.664  81.516  1.00  0.00    -0.452 OA
ATOM      5  C   UNL     1     -39.809   4.675  80.708  1.00  0.00     0.239 A 
ATOM      6  C   UNL     1     -38.492   3.097  81.980  1.00  0.00     0.146 A 
ATOM      7  O   UNL     1     -40.907   5.105  80.274  1.00  0.00    -0.285 OA
ATOM      8  C   UNL     1     -39.770   3.604  81.634  1.00  0.00     0.111 A 
ATOM      9  C   UNL     1     -38.370   1.982  82.813  1.00  0.00     0.094 A 
ATOM     10  C   UNL     1     -40.923   2.985  82.204  1.00  0.00     0.134 A 
ATOM     11  C   UNL     1     -39.504   1.346  83.312  1.00  0.00     0.123 A 
ATOM     12  C   UNL     1     -40.771   1.845  83.005  1.00  0.00     0.093 A 
BRANCH   3  13
ATOM     13  C   UNL     1     -36.079   5.239  80.253  1.00  0.00     0.025 A 
ATOM     14  C   UNL     1     -35.293   4.547  79.316  1.00  0.00     0.016 A 
ATOM     15  C   UNL     1     -34.063   5.067  78.905  1.00  0.00     0.051 A 
ATOM     16  C   UNL     1     -33.608   6.289  79.408  1.00  0.00     0.157 A 
ATOM     17  C   UNL     1     -35.630   6.476  80.740  1.00  0.00     0.062 A 
ATOM     18  C   UNL     1     -34.396   7.001  80.327  1.00  0.00     0.158 A 
BRANCH  16  19
ATOM     19  O   UNL     1     -32.376   6.781  78.980  1.00  0.00    -0.504 OA
ATOM     20  H   UNL     1     -31.555   6.766  79.574  1.00  0.00     0.293 HD
ENDBRANCH  16  19
BRANCH  18  21
ATOM     21  O   UNL     1     -33.952   8.224  80.827  1.00  0.00    -0.504 OA
ATOM     22  H   UNL     1     -34.292   8.592  81.708  1.00  0.00     0.293 HD
ENDBRANCH  18  21
ENDBRANCH   3  13
BRANCH  10  23
ATOM     23  O   UNL     1     -42.227   3.462  82.041  1.00  0.00    -0.507 OA
ATOM     24  H   UNL     1     -42.764   3.922  82.761  1.00  0.00     0.293 HD
ENDBRANCH  10  23
BRANCH  11  25
ATOM     25  O   UNL     1     -39.360   0.223  84.124  1.00  0.00    -0.508 OA
ATOM     26  H   UNL     1     -38.671  -0.492  83.923  1.00  0.00     0.293 HD
ENDBRANCH  11  25
ENDBRANCH   1   2
BRANCH   1  27
ATOM     27  C   UNL     1     -38.498   6.223  77.902  1.00  0.00     0.339 C 
ATOM     28  C   UNL     1     -37.244   6.940  77.383  1.00  0.00     0.214 C 
ATOM     29  O   UNL     1     -39.690   6.693  77.280  1.00  0.00    -0.332 OA
ATOM     30  C   UNL     1     -37.395   8.460  77.564  1.00  0.00     0.180 C 
ATOM     31  C   UNL     1     -39.907   8.095  77.396  1.00  0.00     0.179 C 
ATOM     32  C   UNL     1     -38.704   8.945  76.921  1.00  0.00     0.177 C 
BRANCH  28  33
ATOM     33  O   UNL     1     -37.051   6.613  76.029  1.00  0.00    -0.384 OA
ATOM     34  H   UNL     1     -37.713   5.907  75.805  1.00  0.00     0.211 HD
ENDBRANCH  28  33
BRANCH  30  35
ATOM     35  O   UNL     1     -36.303   9.138  76.998  1.00  0.00    -0.387 OA
ATOM     36  H   UNL     1     -36.677   9.891  76.468  1.00  0.00     0.211 HD
ENDBRANCH  30  35
BRANCH  31  37
ATOM     37  C   UNL     1     -40.436   8.494  78.789  1.00  0.00     0.191 C 
BRANCH  37  38
ATOM     38  O   UNL     1     -41.380   7.560  79.244  1.00  0.00    -0.394 OA
ATOM     39  H   UNL     1     -41.966   8.037  79.889  1.00  0.00     0.210 HD
ENDBRANCH  37  38
ENDBRANCH  31  37
BRANCH  32  40
ATOM     40  O   UNL     1     -38.619   8.867  75.519  1.00  0.00    -0.387 OA
ATOM     41  H   UNL     1     -39.496   8.539  75.190  1.00  0.00     0.211 HD
ENDBRANCH  32  40
ENDBRANCH   1  27
TORSDOF 12
ENDMDL
MODEL 5
REMARK VINA RESULT:    -5.956      2.670      4.575
REMARK INTER + INTRA:         -10.306
REMARK INTER:                  -8.524
REMARK INTRA:                  -1.782
REMARK UNBOUND:                -1.565
REMARK SMILES O=c1c(O[C@H]2O[C@@H](CO)[C@H](O)[C@H](O)[C@@H]2O)c(-c2ccc(O)c(O)c2)oc2cc(O)cc(O)c12
REMARK SMILES IDX 4 1 3 2 16 3 25 4 2 5 26 6 1 7 33 8 27 9 31 10 28 11 30 12
REMARK SMILES IDX 17 13 18 14 19 15 20 16 24 17 22 18 21 19 23 21 32 23 29 25
REMARK SMILES IDX 5 27 14 28 6 29 12 30 7 31 10 32 15 33 13 35 8 37 9 38 11 40
REMARK H PARENT 21 20 23 22 32 24 29 26 15 34 13 36 9 39 11 41
REMARK Flexibility Score: inf
ROOT
ATOM      1  O   UNL     1     -36.543   6.093  79.690  1.00  0.00    -0.454 OA
ENDROOT
BRANCH   1   2
ATOM      2  C   UNL     1     -37.611   5.366  80.252  1.00  0.00     0.214 A 
ATOM      3  C   UNL     1     -38.905   5.579  79.738  1.00  0.00     0.180 A 
ATOM      4  O   UNL     1     -39.946   4.961  80.279  1.00  0.00    -0.452 OA
ATOM      5  C   UNL     1     -37.455   4.453  81.318  1.00  0.00     0.239 A 
ATOM      6  C   UNL     1     -39.845   4.093  81.276  1.00  0.00     0.146 A 
ATOM      7  O   UNL     1     -36.319   4.284  81.827  1.00  0.00    -0.285 OA
ATOM      8  C   UNL     1     -38.581   3.757  81.823  1.00  0.00     0.111 A 
ATOM      9  C   UNL     1     -41.015   3.521  81.784  1.00  0.00     0.094 A 
ATOM     10  C   UNL     1     -38.529   2.778  82.861  1.00  0.00     0.134 A 
ATOM     11  C   UNL     1     -40.958   2.616  82.840  1.00  0.00     0.123 A 
ATOM     12  C   UNL     1     -39.721   2.251  83.375  1.00  0.00     0.093 A 
BRANCH   3  13
ATOM     13  C   UNL     1     -39.163   6.531  78.635  1.00  0.00     0.025 A 
ATOM     14  C   UNL     1     -38.749   6.259  77.320  1.00  0.00     0.016 A 
ATOM     15  C   UNL     1     -39.007   7.172  76.294  1.00  0.00     0.051 A 
ATOM     16  C   UNL     1     -39.696   8.359  76.561  1.00  0.00     0.157 A 
ATOM     17  C   UNL     1     -39.873   7.714  78.896  1.00  0.00     0.062 A 
ATOM     18  C   UNL     1     -40.136   8.631  77.867  1.00  0.00     0.158 A 
BRANCH  16  19
ATOM     19  O   UNL     1     -39.937   9.251  75.517  1.00  0.00    -0.504 OA
ATOM     20  H   UNL     1     -39.276   9.386  74.761  1.00  0.00     0.293 HD
ENDBRANCH  16  19
BRANCH  18  21
ATOM     21  O   UNL     1     -40.829   9.809  78.138  1.00  0.00    -0.504 OA
ATOM     22  H   UNL     1     -40.355  10.639  78.476  1.00  0.00     0.293 HD
ENDBRANCH  18  21
ENDBRANCH   3  13
BRANCH  10  23
ATOM     23  O   UNL     1     -37.341   2.271  83.397  1.00  0.00    -0.507 OA
ATOM     24  H   UNL     1     -37.035   2.412  84.347  1.00  0.00     0.293 HD
ENDBRANCH  10  23
BRANCH  11  25
ATOM     25  O   UNL     1     -42.138   2.074  83.345  1.00  0.00    -0.508 OA
ATOM     26  H   UNL     1     -42.818   2.646  83.832  1.00  0.00     0.293 HD
ENDBRANCH  11  25
ENDBRANCH   1   2
BRANCH   1  27
ATOM     27  C   UNL     1     -35.981   7.310  80.190  1.00  0.00     0.339 C 
ATOM     28  C   UNL     1     -36.053   8.400  79.111  1.00  0.00     0.214 C 
ATOM     29  O   UNL     1     -34.659   7.127  80.689  1.00  0.00    -0.332 OA
ATOM     30  C   UNL     1     -35.075   8.075  77.970  1.00  0.00     0.180 C 
ATOM     31  C   UNL     1     -33.685   6.826  79.696  1.00  0.00     0.179 C 
ATOM     32  C   UNL     1     -33.662   7.843  78.529  1.00  0.00     0.177 C 
BRANCH  28  33
ATOM     33  O   UNL     1     -35.752   9.645  79.691  1.00  0.00    -0.384 OA
ATOM     34  H   UNL     1     -36.478  10.269  79.428  1.00  0.00     0.211 HD
ENDBRANCH  28  33
BRANCH  30  35
ATOM     35  O   UNL     1     -35.051   9.115  77.026  1.00  0.00    -0.387 OA
ATOM     36  H   UNL     1     -35.380   8.732  76.170  1.00  0.00     0.211 HD
ENDBRANCH  30  35
BRANCH  31  37
ATOM     37  C   UNL     1     -33.752   5.355  79.235  1.00  0.00     0.191 C 
BRANCH  37  38
ATOM     38  O   UNL     1     -33.924   4.501  80.335  1.00  0.00    -0.394 OA
ATOM     39  H   UNL     1     -33.149   4.651  80.938  1.00  0.00     0.210 HD
ENDBRANCH  37  38
ENDBRANCH  31  37
BRANCH  32  40
ATOM     40  O   UNL     1     -33.114   9.052  78.993  1.00  0.00    -0.387 OA
ATOM     41  H   UNL     1     -33.512   9.781  78.450  1.00  0.00     0.211 HD
ENDBRANCH  32  40
ENDBRANCH   1  27
TORSDOF 12
ENDMDL
MODEL 6
REMARK VINA RESULT:    -5.921      2.888      4.708
REMARK INTER + INTRA:         -10.255
REMARK INTER:                  -8.955
REMARK INTRA:                  -1.300
REMARK UNBOUND:                -1.565
REMARK SMILES O=c1c(O[C@H]2O[C@@H](CO)[C@H](O)[C@H](O)[C@@H]2O)c(-c2ccc(O)c(O)c2)oc2cc(O)cc(O)c12
REMARK SMILES IDX 4 1 3 2 16 3 25 4 2 5 26 6 1 7 33 8 27 9 31 10 28 11 30 12
REMARK SMILES IDX 17 13 18 14 19 15 20 16 24 17 22 18 21 19 23 21 32 23 29 25
REMARK SMILES IDX 5 27 14 28 6 29 12 30 7 31 10 32 15 33 13 35 8 37 9 38 11 40
REMARK H PARENT 21 20 23 22 32 24 29 26 15 34 13 36 9 39 11 41
REMARK Flexibility Score: inf
ROOT
ATOM      1  O   UNL     1     -38.676   6.172  79.211  1.00  0.00    -0.454 OA
ENDROOT
BRANCH   1   2
ATOM      2  C   UNL     1     -38.694   5.117  80.145  1.00  0.00     0.214 A 
ATOM      3  C   UNL     1     -37.462   4.595  80.584  1.00  0.00     0.180 A 
ATOM      4  O   UNL     1     -37.436   3.561  81.415  1.00  0.00    -0.452 OA
ATOM      5  C   UNL     1     -39.883   4.543  80.646  1.00  0.00     0.239 A 
ATOM      6  C   UNL     1     -38.526   2.995  81.914  1.00  0.00     0.146 A 
ATOM      7  O   UNL     1     -40.993   4.957  80.231  1.00  0.00    -0.285 OA
ATOM      8  C   UNL     1     -39.815   3.487  81.589  1.00  0.00     0.111 A 
ATOM      9  C   UNL     1     -38.377   1.895  82.763  1.00  0.00     0.094 A 
ATOM     10  C   UNL     1     -40.950   2.870  82.196  1.00  0.00     0.134 A 
ATOM     11  C   UNL     1     -39.494   1.259  83.298  1.00  0.00     0.123 A 
ATOM     12  C   UNL     1     -40.772   1.745  83.012  1.00  0.00     0.093 A 
BRANCH   3  13
ATOM     13  C   UNL     1     -36.168   5.123  80.097  1.00  0.00     0.025 A 
ATOM     14  C   UNL     1     -35.552   4.604  78.947  1.00  0.00     0.016 A 
ATOM     15  C   UNL     1     -34.332   5.122  78.504  1.00  0.00     0.051 A 
ATOM     16  C   UNL     1     -33.720   6.175  79.190  1.00  0.00     0.157 A 
ATOM     17  C   UNL     1     -35.563   6.195  80.771  1.00  0.00     0.062 A 
ATOM     18  C   UNL     1     -34.339   6.718  80.327  1.00  0.00     0.158 A 
BRANCH  16  19
ATOM     19  O   UNL     1     -32.502   6.669  78.724  1.00  0.00    -0.504 OA
ATOM     20  H   UNL     1     -31.807   6.070  78.294  1.00  0.00     0.293 HD
ENDBRANCH  16  19
BRANCH  18  21
ATOM     21  O   UNL     1     -33.738   7.773  81.012  1.00  0.00    -0.504 OA
ATOM     22  H   UNL     1     -33.197   7.619  81.856  1.00  0.00     0.293 HD
ENDBRANCH  18  21
ENDBRANCH   3  13
BRANCH  10  23
ATOM     23  O   UNL     1     -42.261   3.336  82.055  1.00  0.00    -0.507 OA
ATOM     24  H   UNL     1     -42.729   3.473  81.173  1.00  0.00     0.293 HD
ENDBRANCH  10  23
BRANCH  11  25
ATOM     25  O   UNL     1     -39.324   0.151  84.125  1.00  0.00    -0.508 OA
ATOM     26  H   UNL     1     -38.402  -0.186  84.377  1.00  0.00     0.293 HD
ENDBRANCH  11  25
ENDBRANCH   1   2
BRANCH   1  27
ATOM     27  C   UNL     1     -38.742   7.571  79.500  1.00  0.00     0.339 C 
ATOM     28  C   UNL     1     -40.201   7.988  79.731  1.00  0.00     0.214 C 
ATOM     29  O   UNL     1     -38.103   8.358  78.499  1.00  0.00    -0.332 OA
ATOM     30  C   UNL     1     -40.980   7.928  78.406  1.00  0.00     0.180 C 
ATOM     31  C   UNL     1     -38.762   8.363  77.237  1.00  0.00     0.179 C 
ATOM     32  C   UNL     1     -40.258   8.751  77.326  1.00  0.00     0.177 C 
BRANCH  28  33
ATOM     33  O   UNL     1     -40.231   9.285  80.272  1.00  0.00    -0.384 OA
ATOM     34  H   UNL     1     -39.963   9.207  81.225  1.00  0.00     0.211 HD
ENDBRANCH  28  33
BRANCH  30  35
ATOM     35  O   UNL     1     -42.289   8.408  78.578  1.00  0.00    -0.387 OA
ATOM     36  H   UNL     1     -42.281   8.972  79.396  1.00  0.00     0.211 HD
ENDBRANCH  30  35
BRANCH  31  37
ATOM     37  C   UNL     1     -38.504   7.071  76.435  1.00  0.00     0.191 C 
BRANCH  37  38
ATOM     38  O   UNL     1     -37.251   6.530  76.761  1.00  0.00    -0.394 OA
ATOM     39  H   UNL     1     -36.718   6.518  75.924  1.00  0.00     0.210 HD
ENDBRANCH  37  38
ENDBRANCH  31  37
BRANCH  32  40
ATOM     40  O   UNL     1     -40.354  10.125  77.612  1.00  0.00    -0.387 OA
ATOM     41  H   UNL     1     -40.830  10.550  76.852  1.00  0.00     0.211 HD
ENDBRANCH  32  40
ENDBRANCH   1  27
TORSDOF 12
ENDMDL
MODEL 7
REMARK VINA RESULT:    -5.706      2.651      4.860
REMARK INTER + INTRA:          -9.939
REMARK INTER:                  -8.819
REMARK INTRA:                  -1.120
REMARK UNBOUND:                -1.565
REMARK SMILES O=c1c(O[C@H]2O[C@@H](CO)[C@H](O)[C@H](O)[C@@H]2O)c(-c2ccc(O)c(O)c2)oc2cc(O)cc(O)c12
REMARK SMILES IDX 4 1 3 2 16 3 25 4 2 5 26 6 1 7 33 8 27 9 31 10 28 11 30 12
REMARK SMILES IDX 17 13 18 14 19 15 20 16 24 17 22 18 21 19 23 21 32 23 29 25
REMARK SMILES IDX 5 27 14 28 6 29 12 30 7 31 10 32 15 33 13 35 8 37 9 38 11 40
REMARK H PARENT 21 20 23 22 32 24 29 26 15 34 13 36 9 39 11 41
REMARK Flexibility Score: inf
ROOT
ATOM      1  O   UNL     1     -36.752   7.066  80.364  1.00  0.00    -0.454 OA
ENDROOT
BRANCH   1   2
ATOM      2  C   UNL     1     -37.647   6.042  80.732  1.00  0.00     0.214 A 
ATOM      3  C   UNL     1     -38.915   6.013  80.120  1.00  0.00     0.180 A 
ATOM      4  O   UNL     1     -39.809   5.103  80.483  1.00  0.00    -0.452 OA
ATOM      5  C   UNL     1     -37.347   5.057  81.699  1.00  0.00     0.239 A 
ATOM      6  C   UNL     1     -39.569   4.158  81.381  1.00  0.00     0.146 A 
ATOM      7  O   UNL     1     -36.243   5.092  82.296  1.00  0.00    -0.285 OA
ATOM      8  C   UNL     1     -38.302   4.057  82.009  1.00  0.00     0.111 A 
ATOM      9  C   UNL     1     -40.596   3.268  81.704  1.00  0.00     0.094 A 
ATOM     10  C   UNL     1     -38.085   2.989  82.931  1.00  0.00     0.134 A 
ATOM     11  C   UNL     1     -40.394   2.269  82.652  1.00  0.00     0.123 A 
ATOM     12  C   UNL     1     -39.145   2.135  83.262  1.00  0.00     0.093 A 
BRANCH   3  13
ATOM     13  C   UNL     1     -39.321   7.016  79.110  1.00  0.00     0.025 A 
ATOM     14  C   UNL     1     -39.864   8.256  79.486  1.00  0.00     0.016 A 
ATOM     15  C   UNL     1     -40.236   9.189  78.515  1.00  0.00     0.051 A 
ATOM     16  C   UNL     1     -40.055   8.907  77.158  1.00  0.00     0.157 A 
ATOM     17  C   UNL     1     -39.120   6.744  77.747  1.00  0.00     0.062 A 
ATOM     18  C   UNL     1     -39.491   7.681  76.770  1.00  0.00     0.158 A 
BRANCH  16  19
ATOM     19  O   UNL     1     -40.438   9.857  76.212  1.00  0.00    -0.504 OA
ATOM     20  H   UNL     1     -41.364   9.864  75.801  1.00  0.00     0.293 HD
ENDBRANCH  16  19
BRANCH  18  21
ATOM     21  O   UNL     1     -39.302   7.395  75.419  1.00  0.00    -0.504 OA
ATOM     22  H   UNL     1     -38.557   7.828  74.884  1.00  0.00     0.293 HD
ENDBRANCH  18  21
ENDBRANCH   3  13
BRANCH  10  23
ATOM     23  O   UNL     1     -36.850   2.706  83.522  1.00  0.00    -0.507 OA
ATOM     24  H   UNL     1     -35.984   3.171  83.293  1.00  0.00     0.293 HD
ENDBRANCH  10  23
BRANCH  11  25
ATOM     25  O   UNL     1     -41.438   1.404  82.974  1.00  0.00    -0.508 OA
ATOM     26  H   UNL     1     -41.566   1.055  83.916  1.00  0.00     0.293 HD
ENDBRANCH  11  25
ENDBRANCH   1   2
BRANCH   1  27
ATOM     27  C   UNL     1     -36.117   7.230  79.092  1.00  0.00     0.339 C 
ATOM     28  C   UNL     1     -35.538   5.888  78.622  1.00  0.00     0.214 C 
ATOM     29  O   UNL     1     -35.142   8.267  79.108  1.00  0.00    -0.332 OA
ATOM     30  C   UNL     1     -34.336   5.499  79.500  1.00  0.00     0.180 C 
ATOM     31  C   UNL     1     -33.989   7.988  79.896  1.00  0.00     0.179 C 
ATOM     32  C   UNL     1     -33.310   6.644  79.537  1.00  0.00     0.177 C 
BRANCH  28  33
ATOM     33  O   UNL     1     -35.160   5.996  77.272  1.00  0.00    -0.384 OA
ATOM     34  H   UNL     1     -35.988   5.904  76.732  1.00  0.00     0.211 HD
ENDBRANCH  28  33
BRANCH  30  35
ATOM     35  O   UNL     1     -33.729   4.327  79.017  1.00  0.00    -0.387 OA
ATOM     36  H   UNL     1     -33.091   4.607  78.308  1.00  0.00     0.211 HD
ENDBRANCH  30  35
BRANCH  31  37
ATOM     37  C   UNL     1     -34.253   8.165  81.405  1.00  0.00     0.191 C 
BRANCH  37  38
ATOM     38  O   UNL     1     -34.086   6.946  82.081  1.00  0.00    -0.394 OA
ATOM     39  H   UNL     1     -33.961   6.248  81.386  1.00  0.00     0.210 HD
ENDBRANCH  37  38
ENDBRANCH  31  37
BRANCH  32  40
ATOM     40  O   UNL     1     -32.678   6.775  78.287  1.00  0.00    -0.387 OA
ATOM     41  H   UNL     1     -32.397   5.866  78.004  1.00  0.00     0.211 HD
ENDBRANCH  32  40
ENDBRANCH   1  27
TORSDOF 12
ENDMDL
MODEL 8
REMARK VINA RESULT:    -5.659      1.406      2.488
REMARK INTER + INTRA:          -9.871
REMARK INTER:                  -8.932
REMARK INTRA:                  -0.940
REMARK UNBOUND:                -1.565
REMARK SMILES O=c1c(O[C@H]2O[C@@H](CO)[C@H](O)[C@H](O)[C@@H]2O)c(-c2ccc(O)c(O)c2)oc2cc(O)cc(O)c12
REMARK SMILES IDX 4 1 3 2 16 3 25 4 2 5 26 6 1 7 33 8 27 9 31 10 28 11 30 12
REMARK SMILES IDX 17 13 18 14 19 15 20 16 24 17 22 18 21 19 23 21 32 23 29 25
REMARK SMILES IDX 5 27 14 28 6 29 12 30 7 31 10 32 15 33 13 35 8 37 9 38 11 40
REMARK H PARENT 21 20 23 22 32 24 29 26 15 34 13 36 9 39 11 41
REMARK Flexibility Score: inf
ROOT
ATOM      1  O   UNL     1     -37.494   6.167  81.230  1.00  0.00    -0.454 OA
ENDROOT
BRANCH   1   2
ATOM      2  C   UNL     1     -38.328   5.483  80.323  1.00  0.00     0.214 A 
ATOM      3  C   UNL     1     -38.080   5.634  78.946  1.00  0.00     0.180 A 
ATOM      4  O   UNL     1     -38.880   5.058  78.058  1.00  0.00    -0.452 OA
ATOM      5  C   UNL     1     -39.414   4.673  80.724  1.00  0.00     0.239 A 
ATOM      6  C   UNL     1     -39.906   4.287  78.389  1.00  0.00     0.146 A 
ATOM      7  O   UNL     1     -39.687   4.564  81.945  1.00  0.00    -0.285 OA
ATOM      8  C   UNL     1     -40.203   4.016  79.749  1.00  0.00     0.111 A 
ATOM      9  C   UNL     1     -40.696   3.752  77.368  1.00  0.00     0.094 A 
ATOM     10  C   UNL     1     -41.289   3.137  80.044  1.00  0.00     0.134 A 
ATOM     11  C   UNL     1     -41.792   2.948  77.669  1.00  0.00     0.123 A 
ATOM     12  C   UNL     1     -42.086   2.647  79.001  1.00  0.00     0.093 A 
BRANCH   3  13
ATOM     13  C   UNL     1     -36.976   6.478  78.436  1.00  0.00     0.025 A 
ATOM     14  C   UNL     1     -35.738   5.924  78.074  1.00  0.00     0.016 A 
ATOM     15  C   UNL     1     -34.711   6.741  77.592  1.00  0.00     0.051 A 
ATOM     16  C   UNL     1     -34.911   8.116  77.448  1.00  0.00     0.157 A 
ATOM     17  C   UNL     1     -37.182   7.857  78.270  1.00  0.00     0.062 A 
ATOM     18  C   UNL     1     -36.153   8.679  77.784  1.00  0.00     0.158 A 
BRANCH  16  19
ATOM     19  O   UNL     1     -33.868   8.906  76.966  1.00  0.00    -0.504 OA
ATOM     20  H   UNL     1     -33.671   9.826  77.343  1.00  0.00     0.293 HD
ENDBRANCH  16  19
BRANCH  18  21
ATOM     21  O   UNL     1     -36.362  10.049  77.637  1.00  0.00    -0.504 OA
ATOM     22  H   UNL     1     -36.102  10.707  78.362  1.00  0.00     0.293 HD
ENDBRANCH  18  21
ENDBRANCH   3  13
BRANCH  10  23
ATOM     23  O   UNL     1     -41.607   2.693  81.331  1.00  0.00    -0.507 OA
ATOM     24  H   UNL     1     -41.652   1.725  81.610  1.00  0.00     0.293 HD
ENDBRANCH  10  23
BRANCH  11  25
ATOM     25  O   UNL     1     -42.578   2.443  76.636  1.00  0.00    -0.508 OA
ATOM     26  H   UNL     1     -42.423   2.711  75.672  1.00  0.00     0.293 HD
ENDBRANCH  11  25
ENDBRANCH   1   2
BRANCH   1  27
ATOM     27  C   UNL     1     -36.068   6.084  81.309  1.00  0.00     0.339 C 
ATOM     28  C   UNL     1     -35.646   4.640  81.613  1.00  0.00     0.214 C 
ATOM     29  O   UNL     1     -35.525   7.016  82.238  1.00  0.00    -0.332 OA
ATOM     30  C   UNL     1     -36.038   4.271  83.054  1.00  0.00     0.180 C 
ATOM     31  C   UNL     1     -35.837   6.747  83.601  1.00  0.00     0.179 C 
ATOM     32  C   UNL     1     -35.477   5.307  84.041  1.00  0.00     0.177 C 
BRANCH  28  33
ATOM     33  O   UNL     1     -34.258   4.514  81.423  1.00  0.00    -0.384 OA
ATOM     34  H   UNL     1     -34.105   4.453  80.444  1.00  0.00     0.211 HD
ENDBRANCH  28  33
BRANCH  30  35
ATOM     35  O   UNL     1     -35.564   2.990  83.384  1.00  0.00    -0.387 OA
ATOM     36  H   UNL     1     -34.643   2.923  83.019  1.00  0.00     0.211 HD
ENDBRANCH  30  35
BRANCH  31  37
ATOM     37  C   UNL     1     -37.275   7.165  83.968  1.00  0.00     0.191 C 
BRANCH  37  38
ATOM     38  O   UNL     1     -37.630   8.349  83.303  1.00  0.00    -0.394 OA
ATOM     39  H   UNL     1     -38.606   8.472  83.437  1.00  0.00     0.210 HD
ENDBRANCH  37  38
ENDBRANCH  31  37
BRANCH  32  40
ATOM     40  O   UNL     1     -34.077   5.195  84.125  1.00  0.00    -0.387 OA
ATOM     41  H   UNL     1     -33.866   4.232  84.235  1.00  0.00     0.211 HD
ENDBRANCH  32  40
ENDBRANCH   1  27
TORSDOF 12
ENDMDL
MODEL 9
REMARK VINA RESULT:    -5.470      2.535      6.835
REMARK INTER + INTRA:          -9.593
REMARK INTER:                  -7.825
REMARK INTRA:                  -1.768
REMARK UNBOUND:                -1.565
REMARK SMILES O=c1c(O[C@H]2O[C@@H](CO)[C@H](O)[C@H](O)[C@@H]2O)c(-c2ccc(O)c(O)c2)oc2cc(O)cc(O)c12
REMARK SMILES IDX 4 1 3 2 16 3 25 4 2 5 26 6 1 7 33 8 27 9 31 10 28 11 30 12
REMARK SMILES IDX 17 13 18 14 19 15 20 16 24 17 22 18 21 19 23 21 32 23 29 25
REMARK SMILES IDX 5 27 14 28 6 29 12 30 7 31 10 32 15 33 13 35 8 37 9 38 11 40
REMARK H PARENT 21 20 23 22 32 24 29 26 15 34 13 36 9 39 11 41
REMARK Flexibility Score: inf
ROOT
ATOM      1  O   UNL     1     -37.578   6.047  81.005  1.00  0.00    -0.454 OA
ENDROOT
BRANCH   1   2
ATOM      2  C   UNL     1     -36.355   6.745  80.948  1.00  0.00     0.214 A 
ATOM      3  C   UNL     1     -36.077   7.511  79.800  1.00  0.00     0.180 A 
ATOM      4  O   UNL     1     -34.912   8.132  79.680  1.00  0.00    -0.452 OA
ATOM      5  C   UNL     1     -35.385   6.698  81.974  1.00  0.00     0.239 A 
ATOM      6  C   UNL     1     -33.976   8.120  80.619  1.00  0.00     0.146 A 
ATOM      7  O   UNL     1     -35.587   5.981  82.985  1.00  0.00    -0.285 OA
ATOM      8  C   UNL     1     -34.182   7.434  81.842  1.00  0.00     0.111 A 
ATOM      9  C   UNL     1     -32.775   8.791  80.373  1.00  0.00     0.094 A 
ATOM     10  C   UNL     1     -33.159   7.497  82.837  1.00  0.00     0.134 A 
ATOM     11  C   UNL     1     -31.758   8.793  81.324  1.00  0.00     0.123 A 
ATOM     12  C   UNL     1     -31.951   8.145  82.546  1.00  0.00     0.093 A 
BRANCH   3  13
ATOM     13  C   UNL     1     -37.028   7.601  78.669  1.00  0.00     0.025 A 
ATOM     14  C   UNL     1     -37.035   6.645  77.640  1.00  0.00     0.016 A 
ATOM     15  C   UNL     1     -37.945   6.749  76.585  1.00  0.00     0.051 A 
ATOM     16  C   UNL     1     -38.871   7.796  76.550  1.00  0.00     0.157 A 
ATOM     17  C   UNL     1     -37.973   8.639  78.643  1.00  0.00     0.062 A 
ATOM     18  C   UNL     1     -38.889   8.744  77.585  1.00  0.00     0.158 A 
BRANCH  16  19
ATOM     19  O   UNL     1     -39.765   7.874  75.483  1.00  0.00    -0.504 OA
ATOM     20  H   UNL     1     -39.518   8.318  74.606  1.00  0.00     0.293 HD
ENDBRANCH  16  19
BRANCH  18  21
ATOM     21  O   UNL     1     -39.813   9.787  77.561  1.00  0.00    -0.504 OA
ATOM     22  H   UNL     1     -39.927  10.415  78.349  1.00  0.00     0.293 HD
ENDBRANCH  18  21
ENDBRANCH   3  13
BRANCH  10  23
ATOM     23  O   UNL     1     -33.288   6.970  84.125  1.00  0.00    -0.507 OA
ATOM     24  H   UNL     1     -32.518   6.778  84.747  1.00  0.00     0.293 HD
ENDBRANCH  10  23
BRANCH  11  25
ATOM     25  O   UNL     1     -30.561   9.450  81.049  1.00  0.00    -0.508 OA
ATOM     26  H   UNL     1     -29.936   9.745  81.790  1.00  0.00     0.293 HD
ENDBRANCH  11  25
ENDBRANCH   1   2
BRANCH   1  27
ATOM     27  C   UNL     1     -37.775   4.647  80.783  1.00  0.00     0.339 C 
ATOM     28  C   UNL     1     -38.891   4.434  79.752  1.00  0.00     0.214 C 
ATOM     29  O   UNL     1     -38.012   3.939  81.995  1.00  0.00    -0.332 OA
ATOM     30  C   UNL     1     -40.249   4.826  80.359  1.00  0.00     0.180 C 
ATOM     31  C   UNL     1     -39.254   4.238  82.625  1.00  0.00     0.179 C 
ATOM     32  C   UNL     1     -40.473   4.082  81.686  1.00  0.00     0.177 C 
BRANCH  28  33
ATOM     33  O   UNL     1     -38.894   3.089  79.343  1.00  0.00    -0.384 OA
ATOM     34  H   UNL     1     -39.800   2.731  79.535  1.00  0.00     0.211 HD
ENDBRANCH  28  33
BRANCH  30  35
ATOM     35  O   UNL     1     -41.294   4.537  79.466  1.00  0.00    -0.387 OA
ATOM     36  H   UNL     1     -41.164   5.125  78.675  1.00  0.00     0.211 HD
ENDBRANCH  30  35
BRANCH  31  37
ATOM     37  C   UNL     1     -39.220   5.585  83.378  1.00  0.00     0.191 C 
BRANCH  37  38
ATOM     38  O   UNL     1     -38.036   5.704  84.122  1.00  0.00    -0.394 OA
ATOM     39  H   UNL     1     -37.288   5.718  83.469  1.00  0.00     0.210 HD
ENDBRANCH  37  38
ENDBRANCH  31  37
BRANCH  32  40
ATOM     40  O   UNL     1     -40.690   2.712  81.448  1.00  0.00    -0.387 OA
ATOM     41  H   UNL     1     -41.602   2.621  81.068  1.00  0.00     0.211 HD
ENDBRANCH  32  40
ENDBRANCH   1  27
TORSDOF 12
ENDMDL
