MODEL 1
REMARK VINA RESULT:    -6.923      0.000      0.000
REMARK INTER + INTRA:         -11.261
REMARK INTER:                 -10.161
REMARK INTRA:                  -1.101
REMARK UNBOUND:                -1.101
REMARK SMILES O=c1c(O[C@@H]2O[C@H](CO)[C@@H](O)[C@@H](O)[C@H]2O)c(-c2ccc(O)c(O)c2)oc2cc(O)cc(O)c12
REMARK SMILES IDX 4 1 3 2 16 3 25 4 2 5 26 6 1 7 33 8 27 9 31 10 28 11 30 12
REMARK SMILES IDX 17 13 18 14 19 15 20 16 24 17 22 18 21 19 23 21 32 23 29 25
REMARK SMILES IDX 5 27 14 28 6 29 12 30 7 31 10 32 15 33 13 35 8 37 9 38 11 40
REMARK H PARENT 21 20 23 22 32 24 29 26 15 34 13 36 9 39 11 41
REMARK Flexibility Score: inf
ROOT
ATOM      1  O   UNL     1      55.234   4.955  79.036  1.00  0.00    -0.454 OA
ENDROOT
BRANCH   1   2
ATOM      2  C   UNL     1      54.761   6.003  78.234  1.00  0.00     0.214 A 
ATOM      3  C   UNL     1      53.418   6.020  77.834  1.00  0.00     0.180 A 
ATOM      4  O   UNL     1      52.948   7.031  77.117  1.00  0.00    -0.452 OA
ATOM      5  C   UNL     1      55.589   7.079  77.873  1.00  0.00     0.239 A 
ATOM      6  C   UNL     1      53.691   8.067  76.744  1.00  0.00     0.146 A 
ATOM      7  O   UNL     1      56.798   7.053  78.219  1.00  0.00    -0.285 OA
ATOM      8  C   UNL     1      55.055   8.163  77.132  1.00  0.00     0.111 A 
ATOM      9  C   UNL     1      53.104   9.057  75.953  1.00  0.00     0.094 A 
ATOM     10  C   UNL     1      55.791   9.325  76.741  1.00  0.00     0.134 A 
ATOM     11  C   UNL     1      53.847  10.157  75.531  1.00  0.00     0.123 A 
ATOM     12  C   UNL     1      55.182  10.283  75.923  1.00  0.00     0.093 A 
BRANCH   3  13
ATOM     13  C   UNL     1      52.500   4.919  78.180  1.00  0.00     0.025 A 
ATOM     14  C   UNL     1      52.647   3.656  77.584  1.00  0.00     0.016 A 
ATOM     15  C   UNL     1      51.769   2.620  77.907  1.00  0.00     0.051 A 
ATOM     16  C   UNL     1      50.725   2.838  78.817  1.00  0.00     0.157 A 
ATOM     17  C   UNL     1      51.443   5.142  79.073  1.00  0.00     0.062 A 
ATOM     18  C   UNL     1      50.559   4.102  79.398  1.00  0.00     0.158 A 
BRANCH  16  19
ATOM     19  O   UNL     1      49.844   1.807  79.135  1.00  0.00    -0.504 OA
ATOM     20  H   UNL     1      49.292   1.829  79.985  1.00  0.00     0.293 HD
ENDBRANCH  16  19
BRANCH  18  21
ATOM     21  O   UNL     1      49.515   4.318  80.296  1.00  0.00    -0.504 OA
ATOM     22  H   UNL     1      49.352   5.230  80.707  1.00  0.00     0.293 HD
ENDBRANCH  18  21
ENDBRANCH   3  13
BRANCH  10  23
ATOM     23  O   UNL     1      57.099   9.598  77.150  1.00  0.00    -0.507 OA
ATOM     24  H   UNL     1      57.931   9.233  76.715  1.00  0.00     0.293 HD
ENDBRANCH  10  23
BRANCH  11  25
ATOM     25  O   UNL     1      53.247  11.124  74.729  1.00  0.00    -0.508 OA
ATOM     26  H   UNL     1      52.555  10.878  74.030  1.00  0.00     0.293 HD
ENDBRANCH  11  25
ENDBRANCH   1   2
BRANCH   1  27
ATOM     27  C   UNL     1      55.452   5.060  80.444  1.00  0.00     0.339 C 
ATOM     28  C   UNL     1      54.274   4.385  81.202  1.00  0.00     0.214 C 
ATOM     29  O   UNL     1      56.669   4.398  80.732  1.00  0.00    -0.332 OA
ATOM     30  C   UNL     1      54.758   3.470  82.357  1.00  0.00     0.180 C 
ATOM     31  C   UNL     1      57.050   4.623  82.076  1.00  0.00     0.179 C 
ATOM     32  C   UNL     1      56.033   3.981  83.071  1.00  0.00     0.177 C 
BRANCH  28  33
ATOM     33  O   UNL     1      53.332   5.332  81.645  1.00  0.00    -0.384 OA
ATOM     34  H   UNL     1      53.818   6.052  82.121  1.00  0.00     0.211 HD
ENDBRANCH  28  33
BRANCH  30  35
ATOM     35  O   UNL     1      53.733   3.251  83.292  1.00  0.00    -0.387 OA
ATOM     36  H   UNL     1      53.121   2.577  82.895  1.00  0.00     0.211 HD
ENDBRANCH  30  35
BRANCH  31  37
ATOM     37  C   UNL     1      58.465   4.063  82.272  1.00  0.00     0.191 C 
BRANCH  37  38
ATOM     38  O   UNL     1      58.838   4.150  83.620  1.00  0.00    -0.394 OA
ATOM     39  H   UNL     1      59.495   3.421  83.776  1.00  0.00     0.210 HD
ENDBRANCH  37  38
ENDBRANCH  31  37
BRANCH  32  40
ATOM     40  O   UNL     1      55.726   4.864  84.125  1.00  0.00    -0.387 OA
ATOM     41  H   UNL     1      56.359   5.626  84.084  1.00  0.00     0.211 HD
ENDBRANCH  32  40
ENDBRANCH   1  27
TORSDOF 12
ENDMDL
MODEL 2
REMARK VINA RESULT:    -6.820      2.173      2.928
REMARK INTER + INTRA:         -11.110
REMARK INTER:                  -9.750
REMARK INTRA:                  -1.360
REMARK UNBOUND:                -1.101
REMARK SMILES O=c1c(O[C@@H]2O[C@H](CO)[C@@H](O)[C@@H](O)[C@H]2O)c(-c2ccc(O)c(O)c2)oc2cc(O)cc(O)c12
REMARK SMILES IDX 4 1 3 2 16 3 25 4 2 5 26 6 1 7 33 8 27 9 31 10 28 11 30 12
REMARK SMILES IDX 17 13 18 14 19 15 20 16 24 17 22 18 21 19 23 21 32 23 29 25
REMARK SMILES IDX 5 27 14 28 6 29 12 30 7 31 10 32 15 33 13 35 8 37 9 38 11 40
REMARK H PARENT 21 20 23 22 32 24 29 26 15 34 13 36 9 39 11 41
REMARK Flexibility Score: inf
ROOT
ATOM      1  O   UNL     1      54.283   6.906  81.260  1.00  0.00    -0.454 OA
ENDROOT
BRANCH   1   2
ATOM      2  C   UNL     1      55.073   7.437  80.230  1.00  0.00     0.214 A 
ATOM      3  C   UNL     1      54.970   6.910  78.935  1.00  0.00     0.180 A 
ATOM      4  O   UNL     1      55.676   7.436  77.943  1.00  0.00    -0.452 OA
ATOM      5  C   UNL     1      55.921   8.534  80.450  1.00  0.00     0.239 A 
ATOM      6  C   UNL     1      56.497   8.468  78.101  1.00  0.00     0.146 A 
ATOM      7  O   UNL     1      56.023   8.994  81.616  1.00  0.00    -0.285 OA
ATOM      8  C   UNL     1      56.642   9.098  79.366  1.00  0.00     0.111 A 
ATOM      9  C   UNL     1      57.223   8.915  76.996  1.00  0.00     0.094 A 
ATOM     10  C   UNL     1      57.503  10.235  79.464  1.00  0.00     0.134 A 
ATOM     11  C   UNL     1      58.103   9.988  77.116  1.00  0.00     0.123 A 
ATOM     12  C   UNL     1      58.241  10.638  78.344  1.00  0.00     0.093 A 
BRANCH   3  13
ATOM     13  C   UNL     1      54.099   5.757  78.643  1.00  0.00     0.025 A 
ATOM     14  C   UNL     1      52.717   5.936  78.470  1.00  0.00     0.016 A 
ATOM     15  C   UNL     1      51.895   4.840  78.204  1.00  0.00     0.051 A 
ATOM     16  C   UNL     1      52.440   3.551  78.124  1.00  0.00     0.157 A 
ATOM     17  C   UNL     1      54.641   4.466  78.586  1.00  0.00     0.062 A 
ATOM     18  C   UNL     1      53.815   3.363  78.320  1.00  0.00     0.158 A 
BRANCH  16  19
ATOM     19  O   UNL     1      51.620   2.455  77.867  1.00  0.00    -0.504 OA
ATOM     20  H   UNL     1      50.709   2.568  77.438  1.00  0.00     0.293 HD
ENDBRANCH  16  19
BRANCH  18  21
ATOM     21  O   UNL     1      54.354   2.079  78.249  1.00  0.00    -0.504 OA
ATOM     22  H   UNL     1      55.197   1.831  78.755  1.00  0.00     0.293 HD
ENDBRANCH  18  21
ENDBRANCH   3  13
BRANCH  10  23
ATOM     23  O   UNL     1      57.647  11.013  80.615  1.00  0.00    -0.507 OA
ATOM     24  H   UNL     1      57.540  10.679  81.560  1.00  0.00     0.293 HD
ENDBRANCH  10  23
BRANCH  11  25
ATOM     25  O   UNL     1      58.831  10.407  76.005  1.00  0.00    -0.508 OA
ATOM     26  H   UNL     1      59.772  10.072  75.830  1.00  0.00     0.293 HD
ENDBRANCH  11  25
ENDBRANCH   1   2
BRANCH   1  27
ATOM     27  C   UNL     1      54.711   5.869  82.145  1.00  0.00     0.339 C 
ATOM     28  C   UNL     1      53.703   4.687  82.081  1.00  0.00     0.214 C 
ATOM     29  O   UNL     1      55.993   5.451  81.714  1.00  0.00    -0.332 OA
ATOM     30  C   UNL     1      54.410   3.310  81.975  1.00  0.00     0.180 C 
ATOM     31  C   UNL     1      56.564   4.560  82.653  1.00  0.00     0.179 C 
ATOM     32  C   UNL     1      55.750   3.231  82.746  1.00  0.00     0.177 C 
BRANCH  28  33
ATOM     33  O   UNL     1      52.791   4.725  83.151  1.00  0.00    -0.384 OA
ATOM     34  H   UNL     1      53.051   4.026  83.804  1.00  0.00     0.211 HD
ENDBRANCH  28  33
BRANCH  30  35
ATOM     35  O   UNL     1      53.555   2.271  82.378  1.00  0.00    -0.387 OA
ATOM     36  H   UNL     1      53.049   2.604  83.165  1.00  0.00     0.211 HD
ENDBRANCH  30  35
BRANCH  31  37
ATOM     37  C   UNL     1      58.020   4.305  82.244  1.00  0.00     0.191 C 
BRANCH  37  38
ATOM     38  O   UNL     1      58.668   3.531  83.217  1.00  0.00    -0.394 OA
ATOM     39  H   UNL     1      59.561   3.305  82.845  1.00  0.00     0.210 HD
ENDBRANCH  37  38
ENDBRANCH  31  37
BRANCH  32  40
ATOM     40  O   UNL     1      55.562   2.842  84.086  1.00  0.00    -0.387 OA
ATOM     41  H   UNL     1      54.615   3.008  84.327  1.00  0.00     0.211 HD
ENDBRANCH  32  40
ENDBRANCH   1  27
TORSDOF 12
ENDMDL
MODEL 3
REMARK VINA RESULT:    -6.800      1.720      5.929
REMARK INTER + INTRA:         -11.081
REMARK INTER:                 -10.401
REMARK INTRA:                  -0.681
REMARK UNBOUND:                -1.101
REMARK SMILES O=c1c(O[C@@H]2O[C@H](CO)[C@@H](O)[C@@H](O)[C@H]2O)c(-c2ccc(O)c(O)c2)oc2cc(O)cc(O)c12
REMARK SMILES IDX 4 1 3 2 16 3 25 4 2 5 26 6 1 7 33 8 27 9 31 10 28 11 30 12
REMARK SMILES IDX 17 13 18 14 19 15 20 16 24 17 22 18 21 19 23 21 32 23 29 25
REMARK SMILES IDX 5 27 14 28 6 29 12 30 7 31 10 32 15 33 13 35 8 37 9 38 11 40
REMARK H PARENT 21 20 23 22 32 24 29 26 15 34 13 36 9 39 11 41
REMARK Flexibility Score: inf
ROOT
ATOM      1  O   UNL     1      53.839   6.001  77.358  1.00  0.00    -0.454 OA
ENDROOT
BRANCH   1   2
ATOM      2  C   UNL     1      54.616   5.580  78.446  1.00  0.00     0.214 A 
ATOM      3  C   UNL     1      54.059   4.724  79.406  1.00  0.00     0.180 A 
ATOM      4  O   UNL     1      54.799   4.279  80.413  1.00  0.00    -0.452 OA
ATOM      5  C   UNL     1      55.968   5.943  78.565  1.00  0.00     0.239 A 
ATOM      6  C   UNL     1      56.077   4.599  80.574  1.00  0.00     0.146 A 
ATOM      7  O   UNL     1      56.460   6.724  77.711  1.00  0.00    -0.285 OA
ATOM      8  C   UNL     1      56.746   5.430  79.634  1.00  0.00     0.111 A 
ATOM      9  C   UNL     1      56.751   4.108  81.694  1.00  0.00     0.094 A 
ATOM     10  C   UNL     1      58.135   5.700  79.833  1.00  0.00     0.134 A 
ATOM     11  C   UNL     1      58.090   4.425  81.909  1.00  0.00     0.123 A 
ATOM     12  C   UNL     1      58.772   5.219  80.983  1.00  0.00     0.093 A 
BRANCH   3  13
ATOM     13  C   UNL     1      52.646   4.309  79.337  1.00  0.00     0.025 A 
ATOM     14  C   UNL     1      52.121   3.763  78.155  1.00  0.00     0.016 A 
ATOM     15  C   UNL     1      50.780   3.383  78.091  1.00  0.00     0.051 A 
ATOM     16  C   UNL     1      49.943   3.558  79.202  1.00  0.00     0.157 A 
ATOM     17  C   UNL     1      51.803   4.505  80.441  1.00  0.00     0.062 A 
ATOM     18  C   UNL     1      50.454   4.124  80.378  1.00  0.00     0.158 A 
BRANCH  16  19
ATOM     19  O   UNL     1      48.603   3.185  79.138  1.00  0.00    -0.504 OA
ATOM     20  H   UNL     1      47.868   3.875  79.029  1.00  0.00     0.293 HD
ENDBRANCH  16  19
BRANCH  18  21
ATOM     21  O   UNL     1      49.618   4.304  81.478  1.00  0.00    -0.504 OA
ATOM     22  H   UNL     1      48.845   3.675  81.663  1.00  0.00     0.293 HD
ENDBRANCH  18  21
ENDBRANCH   3  13
BRANCH  10  23
ATOM     23  O   UNL     1      58.935   6.403  78.929  1.00  0.00    -0.507 OA
ATOM     24  H   UNL     1      59.789   6.058  78.519  1.00  0.00     0.293 HD
ENDBRANCH  10  23
BRANCH  11  25
ATOM     25  O   UNL     1      58.738   3.939  83.042  1.00  0.00    -0.508 OA
ATOM     26  H   UNL     1      59.264   4.552  83.656  1.00  0.00     0.293 HD
ENDBRANCH  11  25
ENDBRANCH   1   2
BRANCH   1  27
ATOM     27  C   UNL     1      53.214   7.282  77.268  1.00  0.00     0.339 C 
ATOM     28  C   UNL     1      52.906   7.808  78.699  1.00  0.00     0.214 C 
ATOM     29  O   UNL     1      54.118   8.147  76.607  1.00  0.00    -0.332 OA
ATOM     30  C   UNL     1      53.308   9.295  78.885  1.00  0.00     0.180 C 
ATOM     31  C   UNL     1      53.494   9.383  76.311  1.00  0.00     0.179 C 
ATOM     32  C   UNL     1      53.121  10.158  77.613  1.00  0.00     0.177 C 
BRANCH  28  33
ATOM     33  O   UNL     1      51.564   7.581  79.058  1.00  0.00    -0.384 OA
ATOM     34  H   UNL     1      51.011   8.298  78.654  1.00  0.00     0.211 HD
ENDBRANCH  28  33
BRANCH  30  35
ATOM     35  O   UNL     1      52.627   9.871  79.969  1.00  0.00    -0.387 OA
ATOM     36  H   UNL     1      51.894  10.421  79.588  1.00  0.00     0.211 HD
ENDBRANCH  30  35
BRANCH  31  37
ATOM     37  C   UNL     1      54.443  10.195  75.420  1.00  0.00     0.191 C 
BRANCH  37  38
ATOM     38  O   UNL     1      55.686  10.348  76.049  1.00  0.00    -0.394 OA
ATOM     39  H   UNL     1      56.348   9.875  75.479  1.00  0.00     0.210 HD
ENDBRANCH  37  38
ENDBRANCH  31  37
BRANCH  32  40
ATOM     40  O   UNL     1      51.822  10.696  77.531  1.00  0.00    -0.387 OA
ATOM     41  H   UNL     1      51.895  11.684  77.563  1.00  0.00     0.211 HD
ENDBRANCH  32  40
ENDBRANCH   1  27
TORSDOF 12
ENDMDL
MODEL 4
REMARK VINA RESULT:    -6.788      1.323      2.005
REMARK INTER + INTRA:         -11.063
REMARK INTER:                  -9.775
REMARK INTRA:                  -1.288
REMARK UNBOUND:                -1.101
REMARK SMILES O=c1c(O[C@@H]2O[C@H](CO)[C@@H](O)[C@@H](O)[C@H]2O)c(-c2ccc(O)c(O)c2)oc2cc(O)cc(O)c12
REMARK SMILES IDX 4 1 3 2 16 3 25 4 2 5 26 6 1 7 33 8 27 9 31 10 28 11 30 12
REMARK SMILES IDX 17 13 18 14 19 15 20 16 24 17 22 18 21 19 23 21 32 23 29 25
REMARK SMILES IDX 5 27 14 28 6 29 12 30 7 31 10 32 15 33 13 35 8 37 9 38 11 40
REMARK H PARENT 21 20 23 22 32 24 29 26 15 34 13 36 9 39 11 41
REMARK Flexibility Score: inf
ROOT
ATOM      1  O   UNL     1      55.099   4.898  79.032  1.00  0.00    -0.454 OA
ENDROOT
BRANCH   1   2
ATOM      2  C   UNL     1      54.650   5.960  78.236  1.00  0.00     0.214 A 
ATOM      3  C   UNL     1      53.301   6.021  77.857  1.00  0.00     0.180 A 
ATOM      4  O   UNL     1      52.854   7.047  77.145  1.00  0.00    -0.452 OA
ATOM      5  C   UNL     1      55.506   7.008  77.860  1.00  0.00     0.239 A 
ATOM      6  C   UNL     1      53.625   8.056  76.759  1.00  0.00     0.146 A 
ATOM      7  O   UNL     1      56.719   6.942  78.188  1.00  0.00    -0.285 OA
ATOM      8  C   UNL     1      54.997   8.108  77.126  1.00  0.00     0.111 A 
ATOM      9  C   UNL     1      53.059   9.065  75.976  1.00  0.00     0.094 A 
ATOM     10  C   UNL     1      55.765   9.244  76.722  1.00  0.00     0.134 A 
ATOM     11  C   UNL     1      53.831  10.139  75.541  1.00  0.00     0.123 A 
ATOM     12  C   UNL     1      55.176  10.222  75.912  1.00  0.00     0.093 A 
BRANCH   3  13
ATOM     13  C   UNL     1      52.354   4.951  78.219  1.00  0.00     0.025 A 
ATOM     14  C   UNL     1      52.299   3.765  77.470  1.00  0.00     0.016 A 
ATOM     15  C   UNL     1      51.392   2.760  77.810  1.00  0.00     0.051 A 
ATOM     16  C   UNL     1      50.519   2.934  78.893  1.00  0.00     0.157 A 
ATOM     17  C   UNL     1      51.465   5.134  79.287  1.00  0.00     0.062 A 
ATOM     18  C   UNL     1      50.552   4.125  79.630  1.00  0.00     0.158 A 
BRANCH  16  19
ATOM     19  O   UNL     1      49.609   1.935  79.229  1.00  0.00    -0.504 OA
ATOM     20  H   UNL     1      49.375   1.194  78.578  1.00  0.00     0.293 HD
ENDBRANCH  16  19
BRANCH  18  21
ATOM     21  O   UNL     1      49.677   4.299  80.701  1.00  0.00    -0.504 OA
ATOM     22  H   UNL     1      48.675   4.357  80.559  1.00  0.00     0.293 HD
ENDBRANCH  18  21
ENDBRANCH   3  13
BRANCH  10  23
ATOM     23  O   UNL     1      57.087   9.475  77.110  1.00  0.00    -0.507 OA
ATOM     24  H   UNL     1      57.742   8.763  77.394  1.00  0.00     0.293 HD
ENDBRANCH  10  23
BRANCH  11  25
ATOM     25  O   UNL     1      53.251  11.125  74.747  1.00  0.00    -0.508 OA
ATOM     26  H   UNL     1      53.114  10.991  73.751  1.00  0.00     0.293 HD
ENDBRANCH  11  25
ENDBRANCH   1   2
BRANCH   1  27
ATOM     27  C   UNL     1      55.142   4.929  80.460  1.00  0.00     0.339 C 
ATOM     28  C   UNL     1      54.663   6.321  80.961  1.00  0.00     0.214 C 
ATOM     29  O   UNL     1      54.280   3.910  80.930  1.00  0.00    -0.332 OA
ATOM     30  C   UNL     1      53.659   6.214  82.139  1.00  0.00     0.180 C 
ATOM     31  C   UNL     1      54.415   3.753  82.330  1.00  0.00     0.179 C 
ATOM     32  C   UNL     1      53.937   5.027  83.094  1.00  0.00     0.177 C 
BRANCH  28  33
ATOM     33  O   UNL     1      55.747   7.162  81.272  1.00  0.00    -0.384 OA
ATOM     34  H   UNL     1      56.282   7.294  80.448  1.00  0.00     0.211 HD
ENDBRANCH  28  33
BRANCH  30  35
ATOM     35  O   UNL     1      53.600   7.417  82.863  1.00  0.00    -0.387 OA
ATOM     36  H   UNL     1      52.849   7.943  82.484  1.00  0.00     0.211 HD
ENDBRANCH  30  35
BRANCH  31  37
ATOM     37  C   UNL     1      53.622   2.509  82.750  1.00  0.00     0.191 C 
BRANCH  37  38
ATOM     38  O   UNL     1      52.260   2.819  82.863  1.00  0.00    -0.394 OA
ATOM     39  H   UNL     1      51.803   1.978  83.130  1.00  0.00     0.210 HD
ENDBRANCH  37  38
ENDBRANCH  31  37
BRANCH  32  40
ATOM     40  O   UNL     1      54.841   5.376  84.116  1.00  0.00    -0.387 OA
ATOM     41  H   UNL     1      54.430   6.097  84.659  1.00  0.00     0.211 HD
ENDBRANCH  32  40
ENDBRANCH   1  27
TORSDOF 12
ENDMDL
MODEL 5
REMARK VINA RESULT:    -6.733      1.627      2.822
REMARK INTER + INTRA:         -10.982
REMARK INTER:                 -10.340
REMARK INTRA:                  -0.642
REMARK UNBOUND:                -1.101
REMARK SMILES O=c1c(O[C@@H]2O[C@H](CO)[C@@H](O)[C@@H](O)[C@H]2O)c(-c2ccc(O)c(O)c2)oc2cc(O)cc(O)c12
REMARK SMILES IDX 4 1 3 2 16 3 25 4 2 5 26 6 1 7 33 8 27 9 31 10 28 11 30 12
REMARK SMILES IDX 17 13 18 14 19 15 20 16 24 17 22 18 21 19 23 21 32 23 29 25
REMARK SMILES IDX 5 27 14 28 6 29 12 30 7 31 10 32 15 33 13 35 8 37 9 38 11 40
REMARK H PARENT 21 20 23 22 32 24 29 26 15 34 13 36 9 39 11 41
REMARK Flexibility Score: inf
ROOT
ATOM      1  O   UNL     1      55.314   3.929  79.100  1.00  0.00    -0.454 OA
ENDROOT
BRANCH   1   2
ATOM      2  C   UNL     1      55.359   5.227  78.571  1.00  0.00     0.214 A 
ATOM      3  C   UNL     1      54.165   5.928  78.353  1.00  0.00     0.180 A 
ATOM      4  O   UNL     1      54.196   7.174  77.899  1.00  0.00    -0.452 OA
ATOM      5  C   UNL     1      56.579   5.871  78.314  1.00  0.00     0.239 A 
ATOM      6  C   UNL     1      55.323   7.824  77.634  1.00  0.00     0.146 A 
ATOM      7  O   UNL     1      57.648   5.234  78.496  1.00  0.00    -0.285 OA
ATOM      8  C   UNL     1      56.587   7.214  77.859  1.00  0.00     0.111 A 
ATOM      9  C   UNL     1      55.240   9.120  77.120  1.00  0.00     0.094 A 
ATOM     10  C   UNL     1      57.766   7.981  77.601  1.00  0.00     0.134 A 
ATOM     11  C   UNL     1      56.395   9.836  76.819  1.00  0.00     0.123 A 
ATOM     12  C   UNL     1      57.647   9.265  77.056  1.00  0.00     0.093 A 
BRANCH   3  13
ATOM     13  C   UNL     1      52.852   5.304  78.601  1.00  0.00     0.025 A 
ATOM     14  C   UNL     1      52.109   5.641  79.744  1.00  0.00     0.016 A 
ATOM     15  C   UNL     1      50.872   5.039  79.980  1.00  0.00     0.051 A 
ATOM     16  C   UNL     1      50.370   4.083  79.086  1.00  0.00     0.157 A 
ATOM     17  C   UNL     1      52.360   4.331  77.719  1.00  0.00     0.062 A 
ATOM     18  C   UNL     1      51.117   3.725  77.956  1.00  0.00     0.158 A 
BRANCH  16  19
ATOM     19  O   UNL     1      49.139   3.476  79.324  1.00  0.00    -0.504 OA
ATOM     20  H   UNL     1      48.270   3.987  79.219  1.00  0.00     0.293 HD
ENDBRANCH  16  19
BRANCH  18  21
ATOM     21  O   UNL     1      50.620   2.767  77.074  1.00  0.00    -0.504 OA
ATOM     22  H   UNL     1      50.027   3.026  76.293  1.00  0.00     0.293 HD
ENDBRANCH  18  21
ENDBRANCH   3  13
BRANCH  10  23
ATOM     23  O   UNL     1      59.062   7.545  77.886  1.00  0.00    -0.507 OA
ATOM     24  H   UNL     1      59.858   7.649  77.276  1.00  0.00     0.293 HD
ENDBRANCH  10  23
BRANCH  11  25
ATOM     25  O   UNL     1      56.289  11.121  76.291  1.00  0.00    -0.508 OA
ATOM     26  H   UNL     1      55.422  11.645  76.342  1.00  0.00     0.293 HD
ENDBRANCH  11  25
ENDBRANCH   1   2
BRANCH   1  27
ATOM     27  C   UNL     1      55.526   3.618  80.479  1.00  0.00     0.339 C 
ATOM     28  C   UNL     1      56.308   4.779  81.155  1.00  0.00     0.214 C 
ATOM     29  O   UNL     1      54.253   3.465  81.076  1.00  0.00    -0.332 OA
ATOM     30  C   UNL     1      55.704   5.182  82.527  1.00  0.00     0.180 C 
ATOM     31  C   UNL     1      54.382   2.969  82.395  1.00  0.00     0.179 C 
ATOM     32  C   UNL     1      55.106   3.995  83.322  1.00  0.00     0.177 C 
BRANCH  28  33
ATOM     33  O   UNL     1      57.682   4.492  81.254  1.00  0.00    -0.384 OA
ATOM     34  H   UNL     1      58.174   5.350  81.312  1.00  0.00     0.211 HD
ENDBRANCH  28  33
BRANCH  30  35
ATOM     35  O   UNL     1      56.645   5.868  83.312  1.00  0.00    -0.387 OA
ATOM     36  H   UNL     1      57.357   6.183  82.697  1.00  0.00     0.211 HD
ENDBRANCH  30  35
BRANCH  31  37
ATOM     37  C   UNL     1      52.980   2.627  82.916  1.00  0.00     0.191 C 
BRANCH  37  38
ATOM     38  O   UNL     1      52.031   2.795  81.899  1.00  0.00    -0.394 OA
ATOM     39  H   UNL     1      52.339   2.240  81.135  1.00  0.00     0.210 HD
ENDBRANCH  37  38
ENDBRANCH  31  37
BRANCH  32  40
ATOM     40  O   UNL     1      56.074   3.361  84.125  1.00  0.00    -0.387 OA
ATOM     41  H   UNL     1      55.812   2.411  84.232  1.00  0.00     0.211 HD
ENDBRANCH  32  40
ENDBRANCH   1  27
TORSDOF 12
ENDMDL
MODEL 6
REMARK VINA RESULT:    -6.712      2.374      5.367
REMARK INTER + INTRA:         -10.951
REMARK INTER:                  -9.921
REMARK INTRA:                  -1.031
REMARK UNBOUND:                -1.101
REMARK SMILES O=c1c(O[C@@H]2O[C@H](CO)[C@@H](O)[C@@H](O)[C@H]2O)c(-c2ccc(O)c(O)c2)oc2cc(O)cc(O)c12
REMARK SMILES IDX 4 1 3 2 16 3 25 4 2 5 26 6 1 7 33 8 27 9 31 10 28 11 30 12
REMARK SMILES IDX 17 13 18 14 19 15 20 16 24 17 22 18 21 19 23 21 32 23 29 25
REMARK SMILES IDX 5 27 14 28 6 29 12 30 7 31 10 32 15 33 13 35 8 37 9 38 11 40
REMARK H PARENT 21 20 23 22 32 24 29 26 15 34 13 36 9 39 11 41
REMARK Flexibility Score: inf
ROOT
ATOM      1  O   UNL     1      54.404   6.162  77.312  1.00  0.00    -0.454 OA
ENDROOT
BRANCH   1   2
ATOM      2  C   UNL     1      55.364   7.117  77.675  1.00  0.00     0.214 A 
ATOM      3  C   UNL     1      55.028   8.478  77.664  1.00  0.00     0.180 A 
ATOM      4  O   UNL     1      55.913   9.387  78.053  1.00  0.00    -0.452 OA
ATOM      5  C   UNL     1      56.643   6.739  78.117  1.00  0.00     0.239 A 
ATOM      6  C   UNL     1      57.135   9.081  78.471  1.00  0.00     0.146 A 
ATOM      7  O   UNL     1      56.946   5.518  78.110  1.00  0.00    -0.285 OA
ATOM      8  C   UNL     1      57.559   7.727  78.557  1.00  0.00     0.111 A 
ATOM      9  C   UNL     1      58.000  10.121  78.818  1.00  0.00     0.094 A 
ATOM     10  C   UNL     1      58.870   7.457  79.060  1.00  0.00     0.134 A 
ATOM     11  C   UNL     1      59.294   9.848  79.253  1.00  0.00     0.123 A 
ATOM     12  C   UNL     1      59.722   8.523  79.369  1.00  0.00     0.093 A 
BRANCH   3  13
ATOM     13  C   UNL     1      53.703   8.937  77.208  1.00  0.00     0.025 A 
ATOM     14  C   UNL     1      53.544   9.495  75.930  1.00  0.00     0.016 A 
ATOM     15  C   UNL     1      52.290   9.939  75.508  1.00  0.00     0.051 A 
ATOM     16  C   UNL     1      51.183   9.845  76.364  1.00  0.00     0.157 A 
ATOM     17  C   UNL     1      52.602   8.865  78.073  1.00  0.00     0.062 A 
ATOM     18  C   UNL     1      51.340   9.310  77.650  1.00  0.00     0.158 A 
BRANCH  16  19
ATOM     19  O   UNL     1      49.932  10.293  75.948  1.00  0.00    -0.504 OA
ATOM     20  H   UNL     1      49.207   9.645  75.665  1.00  0.00     0.293 HD
ENDBRANCH  16  19
BRANCH  18  21
ATOM     21  O   UNL     1      50.240   9.227  78.502  1.00  0.00    -0.504 OA
ATOM     22  H   UNL     1      50.216   9.727  79.383  1.00  0.00     0.293 HD
ENDBRANCH  18  21
ENDBRANCH   3  13
BRANCH  10  23
ATOM     23  O   UNL     1      59.367   6.174  79.303  1.00  0.00    -0.507 OA
ATOM     24  H   UNL     1      60.059   5.941  79.998  1.00  0.00     0.293 HD
ENDBRANCH  10  23
BRANCH  11  25
ATOM     25  O   UNL     1      60.146  10.901  79.577  1.00  0.00    -0.508 OA
ATOM     26  H   UNL     1      60.013  11.450  80.420  1.00  0.00     0.293 HD
ENDBRANCH  11  25
ENDBRANCH   1   2
BRANCH   1  27
ATOM     27  C   UNL     1      53.889   5.167  78.198  1.00  0.00     0.339 C 
ATOM     28  C   UNL     1      53.759   5.765  79.627  1.00  0.00     0.214 C 
ATOM     29  O   UNL     1      52.620   4.781  77.706  1.00  0.00    -0.332 OA
ATOM     30  C   UNL     1      52.403   5.417  80.295  1.00  0.00     0.180 C 
ATOM     31  C   UNL     1      52.130   3.663  78.422  1.00  0.00     0.179 C 
ATOM     32  C   UNL     1      51.857   4.019  79.917  1.00  0.00     0.177 C 
BRANCH  28  33
ATOM     33  O   UNL     1      54.850   5.406  80.441  1.00  0.00    -0.384 OA
ATOM     34  H   UNL     1      54.533   5.360  81.379  1.00  0.00     0.211 HD
ENDBRANCH  28  33
BRANCH  30  35
ATOM     35  O   UNL     1      52.480   5.548  81.692  1.00  0.00    -0.387 OA
ATOM     36  H   UNL     1      52.019   6.395  81.927  1.00  0.00     0.211 HD
ENDBRANCH  30  35
BRANCH  31  37
ATOM     37  C   UNL     1      50.862   3.164  77.718  1.00  0.00     0.191 C 
BRANCH  37  38
ATOM     38  O   UNL     1      50.259   2.146  78.470  1.00  0.00    -0.394 OA
ATOM     39  H   UNL     1      49.278   2.264  78.365  1.00  0.00     0.210 HD
ENDBRANCH  37  38
ENDBRANCH  31  37
BRANCH  32  40
ATOM     40  O   UNL     1      52.345   3.015  80.776  1.00  0.00    -0.387 OA
ATOM     41  H   UNL     1      53.333   3.091  80.811  1.00  0.00     0.211 HD
ENDBRANCH  32  40
ENDBRANCH   1  27
TORSDOF 12
ENDMDL
MODEL 7
REMARK VINA RESULT:    -6.705      2.073      6.587
REMARK INTER + INTRA:         -10.942
REMARK INTER:                 -10.011
REMARK INTRA:                  -0.930
REMARK UNBOUND:                -1.101
REMARK SMILES O=c1c(O[C@@H]2O[C@H](CO)[C@@H](O)[C@@H](O)[C@H]2O)c(-c2ccc(O)c(O)c2)oc2cc(O)cc(O)c12
REMARK SMILES IDX 4 1 3 2 16 3 25 4 2 5 26 6 1 7 33 8 27 9 31 10 28 11 30 12
REMARK SMILES IDX 17 13 18 14 19 15 20 16 24 17 22 18 21 19 23 21 32 23 29 25
REMARK SMILES IDX 5 27 14 28 6 29 12 30 7 31 10 32 15 33 13 35 8 37 9 38 11 40
REMARK H PARENT 21 20 23 22 32 24 29 26 15 34 13 36 9 39 11 41
REMARK Flexibility Score: inf
ROOT
ATOM      1  O   UNL     1      52.765   7.464  80.068  1.00  0.00    -0.454 OA
ENDROOT
BRANCH   1   2
ATOM      2  C   UNL     1      53.806   6.669  80.569  1.00  0.00     0.214 A 
ATOM      3  C   UNL     1      53.818   5.292  80.302  1.00  0.00     0.180 A 
ATOM      4  O   UNL     1      54.822   4.539  80.728  1.00  0.00    -0.452 OA
ATOM      5  C   UNL     1      54.879   7.230  81.280  1.00  0.00     0.239 A 
ATOM      6  C   UNL     1      55.854   5.020  81.410  1.00  0.00     0.146 A 
ATOM      7  O   UNL     1      54.857   8.462  81.532  1.00  0.00    -0.285 OA
ATOM      8  C   UNL     1      55.956   6.408  81.698  1.00  0.00     0.111 A 
ATOM      9  C   UNL     1      56.837   4.129  81.847  1.00  0.00     0.094 A 
ATOM     10  C   UNL     1      57.114   6.874  82.394  1.00  0.00     0.134 A 
ATOM     11  C   UNL     1      57.933   4.587  82.574  1.00  0.00     0.123 A 
ATOM     12  C   UNL     1      58.065   5.951  82.845  1.00  0.00     0.093 A 
BRANCH   3  13
ATOM     13  C   UNL     1      52.719   4.645  79.562  1.00  0.00     0.025 A 
ATOM     14  C   UNL     1      52.928   4.151  78.265  1.00  0.00     0.016 A 
ATOM     15  C   UNL     1      51.881   3.548  77.565  1.00  0.00     0.051 A 
ATOM     16  C   UNL     1      50.609   3.447  78.146  1.00  0.00     0.157 A 
ATOM     17  C   UNL     1      51.441   4.564  80.134  1.00  0.00     0.062 A 
ATOM     18  C   UNL     1      50.388   3.960  79.432  1.00  0.00     0.158 A 
BRANCH  16  19
ATOM     19  O   UNL     1      49.562   2.853  77.446  1.00  0.00    -0.504 OA
ATOM     20  H   UNL     1      49.057   3.357  76.726  1.00  0.00     0.293 HD
ENDBRANCH  16  19
BRANCH  18  21
ATOM     21  O   UNL     1      49.120   3.866  80.004  1.00  0.00    -0.504 OA
ATOM     22  H   UNL     1      48.893   3.134  80.668  1.00  0.00     0.293 HD
ENDBRANCH  18  21
ENDBRANCH   3  13
BRANCH  10  23
ATOM     23  O   UNL     1      57.393   8.221  82.638  1.00  0.00    -0.507 OA
ATOM     24  H   UNL     1      57.788   8.587  83.490  1.00  0.00     0.293 HD
ENDBRANCH  10  23
BRANCH  11  25
ATOM     25  O   UNL     1      58.893   3.679  83.015  1.00  0.00    -0.508 OA
ATOM     26  H   UNL     1      58.668   2.954  83.687  1.00  0.00     0.293 HD
ENDBRANCH  11  25
ENDBRANCH   1   2
BRANCH   1  27
ATOM     27  C   UNL     1      52.909   8.379  78.980  1.00  0.00     0.339 C 
ATOM     28  C   UNL     1      53.582   7.655  77.781  1.00  0.00     0.214 C 
ATOM     29  O   UNL     1      51.612   8.821  78.627  1.00  0.00    -0.332 OA
ATOM     30  C   UNL     1      52.873   7.954  76.433  1.00  0.00     0.180 C 
ATOM     31  C   UNL     1      51.686   9.874  77.685  1.00  0.00     0.179 C 
ATOM     32  C   UNL     1      52.295   9.386  76.333  1.00  0.00     0.177 C 
BRANCH  28  33
ATOM     33  O   UNL     1      54.961   7.927  77.717  1.00  0.00    -0.384 OA
ATOM     34  H   UNL     1      55.119   8.548  76.961  1.00  0.00     0.211 HD
ENDBRANCH  28  33
BRANCH  30  35
ATOM     35  O   UNL     1      53.725   7.696  75.347  1.00  0.00    -0.387 OA
ATOM     36  H   UNL     1      53.144   7.541  74.557  1.00  0.00     0.211 HD
ENDBRANCH  30  35
BRANCH  31  37
ATOM     37  C   UNL     1      50.276  10.448  77.497  1.00  0.00     0.191 C 
BRANCH  37  38
ATOM     38  O   UNL     1      49.322   9.576  78.039  1.00  0.00    -0.394 OA
ATOM     39  H   UNL     1      49.763   9.119  78.803  1.00  0.00     0.210 HD
ENDBRANCH  37  38
ENDBRANCH  31  37
BRANCH  32  40
ATOM     40  O   UNL     1      53.245  10.303  75.842  1.00  0.00    -0.387 OA
ATOM     41  H   UNL     1      53.600  10.820  76.610  1.00  0.00     0.211 HD
ENDBRANCH  32  40
ENDBRANCH   1  27
TORSDOF 12
ENDMDL
MODEL 8
REMARK VINA RESULT:    -6.587      2.445      6.764
REMARK INTER + INTRA:         -10.768
REMARK INTER:                  -9.743
REMARK INTRA:                  -1.026
REMARK UNBOUND:                -1.101
REMARK SMILES O=c1c(O[C@@H]2O[C@H](CO)[C@@H](O)[C@@H](O)[C@H]2O)c(-c2ccc(O)c(O)c2)oc2cc(O)cc(O)c12
REMARK SMILES IDX 4 1 3 2 16 3 25 4 2 5 26 6 1 7 33 8 27 9 31 10 28 11 30 12
REMARK SMILES IDX 17 13 18 14 19 15 20 16 24 17 22 18 21 19 23 21 32 23 29 25
REMARK SMILES IDX 5 27 14 28 6 29 12 30 7 31 10 32 15 33 13 35 8 37 9 38 11 40
REMARK H PARENT 21 20 23 22 32 24 29 26 15 34 13 36 9 39 11 41
REMARK Flexibility Score: inf
ROOT
ATOM      1  O   UNL     1      55.365   5.933  79.069  1.00  0.00    -0.454 OA
ENDROOT
BRANCH   1   2
ATOM      2  C   UNL     1      54.343   5.433  79.887  1.00  0.00     0.214 A 
ATOM      3  C   UNL     1      53.031   5.899  79.722  1.00  0.00     0.180 A 
ATOM      4  O   UNL     1      52.047   5.397  80.457  1.00  0.00    -0.452 OA
ATOM      5  C   UNL     1      54.589   4.422  80.831  1.00  0.00     0.239 A 
ATOM      6  C   UNL     1      52.230   4.446  81.366  1.00  0.00     0.146 A 
ATOM      7  O   UNL     1      55.770   4.018  80.988  1.00  0.00    -0.285 OA
ATOM      8  C   UNL     1      53.515   3.880  81.582  1.00  0.00     0.111 A 
ATOM      9  C   UNL     1      51.130   4.020  82.113  1.00  0.00     0.094 A 
ATOM     10  C   UNL     1      53.641   2.826  82.539  1.00  0.00     0.134 A 
ATOM     11  C   UNL     1      51.275   3.032  83.084  1.00  0.00     0.123 A 
ATOM     12  C   UNL     1      52.525   2.445  83.294  1.00  0.00     0.093 A 
BRANCH   3  13
ATOM     13  C   UNL     1      52.711   6.960  78.750  1.00  0.00     0.025 A 
ATOM     14  C   UNL     1      51.880   8.031  79.114  1.00  0.00     0.016 A 
ATOM     15  C   UNL     1      51.571   9.028  78.187  1.00  0.00     0.051 A 
ATOM     16  C   UNL     1      52.075   8.957  76.880  1.00  0.00     0.157 A 
ATOM     17  C   UNL     1      53.195   6.877  77.437  1.00  0.00     0.062 A 
ATOM     18  C   UNL     1      52.885   7.877  76.503  1.00  0.00     0.158 A 
BRANCH  16  19
ATOM     19  O   UNL     1      51.761   9.946  75.951  1.00  0.00    -0.504 OA
ATOM     20  H   UNL     1      51.639  10.912  76.231  1.00  0.00     0.293 HD
ENDBRANCH  16  19
BRANCH  18  21
ATOM     21  O   UNL     1      53.377   7.804  75.201  1.00  0.00    -0.504 OA
ATOM     22  H   UNL     1      52.795   7.486  74.434  1.00  0.00     0.293 HD
ENDBRANCH  18  21
ENDBRANCH   3  13
BRANCH  10  23
ATOM     23  O   UNL     1      54.817   2.108  82.766  1.00  0.00    -0.507 OA
ATOM     24  H   UNL     1      54.885   1.104  82.813  1.00  0.00     0.293 HD
ENDBRANCH  10  23
BRANCH  11  25
ATOM     25  O   UNL     1      50.168   2.634  83.830  1.00  0.00    -0.508 OA
ATOM     26  H   UNL     1      49.805   3.205  84.585  1.00  0.00     0.293 HD
ENDBRANCH  11  25
ENDBRANCH   1   2
BRANCH   1  27
ATOM     27  C   UNL     1      56.342   6.884  79.498  1.00  0.00     0.339 C 
ATOM     28  C   UNL     1      57.761   6.369  79.128  1.00  0.00     0.214 C 
ATOM     29  O   UNL     1      56.067   8.101  78.830  1.00  0.00    -0.332 OA
ATOM     30  C   UNL     1      58.645   7.473  78.489  1.00  0.00     0.180 C 
ATOM     31  C   UNL     1      56.874   9.143  79.347  1.00  0.00     0.179 C 
ATOM     32  C   UNL     1      58.386   8.890  79.054  1.00  0.00     0.177 C 
BRANCH  28  33
ATOM     33  O   UNL     1      58.397   5.763  80.228  1.00  0.00    -0.384 OA
ATOM     34  H   UNL     1      57.822   5.891  81.025  1.00  0.00     0.211 HD
ENDBRANCH  28  33
BRANCH  30  35
ATOM     35  O   UNL     1      60.008   7.150  78.590  1.00  0.00    -0.387 OA
ATOM     36  H   UNL     1      60.496   8.004  78.725  1.00  0.00     0.211 HD
ENDBRANCH  30  35
BRANCH  31  37
ATOM     37  C   UNL     1      56.392  10.466  78.739  1.00  0.00     0.191 C 
BRANCH  37  38
ATOM     38  O   UNL     1      55.140  10.294  78.134  1.00  0.00    -0.394 OA
ATOM     39  H   UNL     1      54.767   9.448  78.499  1.00  0.00     0.210 HD
ENDBRANCH  37  38
ENDBRANCH  31  37
BRANCH  32  40
ATOM     40  O   UNL     1      59.175   9.154  80.191  1.00  0.00    -0.387 OA
ATOM     41  H   UNL     1      59.675   9.995  80.031  1.00  0.00     0.211 HD
ENDBRANCH  32  40
ENDBRANCH   1  27
TORSDOF 12
ENDMDL
MODEL 9
REMARK VINA RESULT:    -6.536      3.020      6.754
REMARK INTER + INTRA:         -10.694
REMARK INTER:                  -9.331
REMARK INTRA:                  -1.362
REMARK UNBOUND:                -1.101
REMARK SMILES O=c1c(O[C@@H]2O[C@H](CO)[C@@H](O)[C@@H](O)[C@H]2O)c(-c2ccc(O)c(O)c2)oc2cc(O)cc(O)c12
REMARK SMILES IDX 4 1 3 2 16 3 25 4 2 5 26 6 1 7 33 8 27 9 31 10 28 11 30 12
REMARK SMILES IDX 17 13 18 14 19 15 20 16 24 17 22 18 21 19 23 21 32 23 29 25
REMARK SMILES IDX 5 27 14 28 6 29 12 30 7 31 10 32 15 33 13 35 8 37 9 38 11 40
REMARK H PARENT 21 20 23 22 32 24 29 26 15 34 13 36 9 39 11 41
REMARK Flexibility Score: inf
ROOT
ATOM      1  O   UNL     1      55.047   5.892  82.012  1.00  0.00    -0.454 OA
ENDROOT
BRANCH   1   2
ATOM      2  C   UNL     1      54.259   5.383  80.970  1.00  0.00     0.214 A 
ATOM      3  C   UNL     1      54.797   5.283  79.679  1.00  0.00     0.180 A 
ATOM      4  O   UNL     1      54.078   4.758  78.696  1.00  0.00    -0.452 OA
ATOM      5  C   UNL     1      52.958   4.908  81.201  1.00  0.00     0.239 A 
ATOM      6  C   UNL     1      52.842   4.301  78.862  1.00  0.00     0.146 A 
ATOM      7  O   UNL     1      52.473   5.014  82.357  1.00  0.00    -0.285 OA
ATOM      8  C   UNL     1      52.221   4.322  80.140  1.00  0.00     0.111 A 
ATOM      9  C   UNL     1      52.160   3.807  77.748  1.00  0.00     0.094 A 
ATOM     10  C   UNL     1      50.908   3.773  80.267  1.00  0.00     0.134 A 
ATOM     11  C   UNL     1      50.859   3.326  77.872  1.00  0.00     0.123 A 
ATOM     12  C   UNL     1      50.240   3.314  79.125  1.00  0.00     0.093 A 
BRANCH   3  13
ATOM     13  C   UNL     1      56.155   5.767  79.374  1.00  0.00     0.025 A 
ATOM     14  C   UNL     1      57.276   4.974  79.665  1.00  0.00     0.016 A 
ATOM     15  C   UNL     1      58.561   5.441  79.385  1.00  0.00     0.051 A 
ATOM     16  C   UNL     1      58.742   6.714  78.824  1.00  0.00     0.157 A 
ATOM     17  C   UNL     1      56.338   7.049  78.835  1.00  0.00     0.062 A 
ATOM     18  C   UNL     1      57.629   7.521  78.553  1.00  0.00     0.158 A 
BRANCH  16  19
ATOM     19  O   UNL     1      60.023   7.185  78.551  1.00  0.00    -0.504 OA
ATOM     20  H   UNL     1      60.192   7.853  77.808  1.00  0.00     0.293 HD
ENDBRANCH  16  19
BRANCH  18  21
ATOM     21  O   UNL     1      57.812   8.789  78.004  1.00  0.00    -0.504 OA
ATOM     22  H   UNL     1      57.310   9.083  77.174  1.00  0.00     0.293 HD
ENDBRANCH  18  21
ENDBRANCH   3  13
BRANCH  10  23
ATOM     23  O   UNL     1      50.232   3.627  81.481  1.00  0.00    -0.507 OA
ATOM     24  H   UNL     1      50.671   3.483  82.376  1.00  0.00     0.293 HD
ENDBRANCH  10  23
BRANCH  11  25
ATOM     25  O   UNL     1      50.191   2.853  76.745  1.00  0.00    -0.508 OA
ATOM     26  H   UNL     1      49.208   3.052  76.589  1.00  0.00     0.293 HD
ENDBRANCH  11  25
ENDBRANCH   1   2
BRANCH   1  27
ATOM     27  C   UNL     1      54.989   7.243  82.475  1.00  0.00     0.339 C 
ATOM     28  C   UNL     1      56.421   7.848  82.484  1.00  0.00     0.214 C 
ATOM     29  O   UNL     1      54.155   7.958  81.584  1.00  0.00    -0.332 OA
ATOM     30  C   UNL     1      56.467   9.272  81.871  1.00  0.00     0.180 C 
ATOM     31  C   UNL     1      53.894   9.256  82.083  1.00  0.00     0.179 C 
ATOM     32  C   UNL     1      55.197  10.114  82.144  1.00  0.00     0.177 C 
BRANCH  28  33
ATOM     33  O   UNL     1      56.991   7.814  83.770  1.00  0.00    -0.384 OA
ATOM     34  H   UNL     1      57.939   8.092  83.695  1.00  0.00     0.211 HD
ENDBRANCH  28  33
BRANCH  30  35
ATOM     35  O   UNL     1      57.611   9.968  82.294  1.00  0.00    -0.387 OA
ATOM     36  H   UNL     1      58.078   9.383  82.946  1.00  0.00     0.211 HD
ENDBRANCH  30  35
BRANCH  31  37
ATOM     37  C   UNL     1      52.829   9.906  81.191  1.00  0.00     0.191 C 
BRANCH  37  38
ATOM     38  O   UNL     1      52.315  11.054  81.808  1.00  0.00    -0.394 OA
ATOM     39  H   UNL     1      52.736  11.829  81.351  1.00  0.00     0.210 HD
ENDBRANCH  37  38
ENDBRANCH  31  37
BRANCH  32  40
ATOM     40  O   UNL     1      55.285  10.819  83.360  1.00  0.00    -0.387 OA
ATOM     41  H   UNL     1      55.095  11.774  83.178  1.00  0.00     0.211 HD
ENDBRANCH  32  40
ENDBRANCH   1  27
TORSDOF 12
ENDMDL
