MODEL 1
REMARK VINA RESULT:    -1.995      0.000      0.000
REMARK INTER + INTRA:          -1.512
REMARK INTER:                  -2.695
REMARK INTRA:                   1.183
REMARK UNBOUND:                 1.183
REMARK SMILES C=C1CCC=C(C)CC[C@@H]2[C@@H]1CC2(C)C
REMARK SMILES IDX 11 1 12 2 13 3 10 4 14 5 15 6 9 7 8 8 6 9 7 10 5 11 2 13
REMARK SMILES IDX 1 14 3 15 4 16
REMARK H PARENT
REMARK Flexibility Score: 70.00
ROOT
ATOM      1  C   UNL     1     145.330 144.852 133.588  1.00  0.00     0.018 C 
ATOM      2  C   UNL     1     146.309 143.801 134.125  1.00  0.00     0.015 C 
ATOM      3  C   UNL     1     147.390 144.314 133.154  1.00  0.00    -0.031 C 
ATOM      4  C   UNL     1     146.345 145.268 132.516  1.00  0.00     0.002 C 
ATOM      5  C   UNL     1     147.903 143.238 132.182  1.00  0.00     0.011 C 
ATOM      6  C   UNL     1     148.562 144.987 133.899  1.00  0.00     0.011 C 
ENDROOT
BRANCH   4   7
ATOM      7  C   UNL     1     146.663 146.778 132.494  1.00  0.00     0.009 C 
BRANCH   7   8
ATOM      8  C   UNL     1     146.108 147.467 131.232  1.00  0.00     0.030 C 
BRANCH   8   9
ATOM      9  C   UNL     1     145.194 146.551 130.437  1.00  0.00    -0.077 C 
ATOM     10  C   UNL     1     145.687 146.054 129.101  1.00  0.00     0.039 C 
ATOM     11  C   UNL     1     143.957 146.165 130.832  1.00  0.00    -0.028 CG0
ATOM     12  G   UNL     1     143.241 146.563 132.101  1.00  0.00     0.000 G0
ENDBRANCH   8   9
ENDBRANCH   7   8
ENDBRANCH   4   7
BRANCH   1  13
ATOM     13  C   UNL     1     144.007 144.345 133.035  1.00  0.00    -0.074 C 
ATOM     14  C   UNL     1     143.865 143.104 132.533  1.00  0.00     0.008 C 
BRANCH  13  15
ATOM     15  C   UNL     1     142.849 145.313 132.949  1.00  0.00     0.035 C 
BRANCH  15  16
ATOM     16  C   UNL     1     143.208 146.545 132.103  1.00  0.00     0.032 CG0
ATOM     17  G   UNL     1     143.957 146.162 130.848  1.00  0.00     0.000 G0
ENDBRANCH  15  16
ENDBRANCH  13  15
ENDBRANCH   1  13
TORSDOF 0
ENDMDL
MODEL 2
REMARK VINA RESULT:    -1.879      1.585      2.992
REMARK INTER + INTRA:          -1.356
REMARK INTER:                  -2.551
REMARK INTRA:                   1.196
REMARK UNBOUND:                 1.183
REMARK SMILES C=C1CCC=C(C)CC[C@@H]2[C@@H]1CC2(C)C
REMARK SMILES IDX 11 1 12 2 13 3 10 4 14 5 15 6 9 7 8 8 6 9 7 10 5 11 2 13
REMARK SMILES IDX 1 14 3 15 4 16
REMARK H PARENT
REMARK Flexibility Score: 70.00
ROOT
ATOM      1  C   UNL     1     145.866 145.246 133.597  1.00  0.00     0.018 C 
ATOM      2  C   UNL     1     146.916 146.232 134.123  1.00  0.00     0.015 C 
ATOM      3  C   UNL     1     146.429 147.288 133.112  1.00  0.00    -0.031 C 
ATOM      4  C   UNL     1     145.478 146.232 132.488  1.00  0.00     0.002 C 
ATOM      5  C   UNL     1     147.526 147.763 132.144  1.00  0.00     0.011 C 
ATOM      6  C   UNL     1     145.753 148.487 133.810  1.00  0.00     0.011 C 
ENDROOT
BRANCH   4   7
ATOM      7  C   UNL     1     143.971 146.561 132.429  1.00  0.00     0.009 C 
BRANCH   7   8
ATOM      8  C   UNL     1     143.291 145.940 131.194  1.00  0.00     0.030 C 
BRANCH   8   9
ATOM      9  C   UNL     1     144.232 145.031 130.421  1.00  0.00    -0.077 C 
ATOM     10  C   UNL     1     144.748 145.521 129.091  1.00  0.00     0.039 C 
ATOM     11  C   UNL     1     144.625 143.801 130.831  1.00  0.00    -0.028 CG0
ATOM     12  G   UNL     1     144.212 143.089 132.098  1.00  0.00     0.000 G0
ENDBRANCH   8   9
ENDBRANCH   7   8
ENDBRANCH   4   7
BRANCH   1  13
ATOM     13  C   UNL     1     146.371 143.903 133.093  1.00  0.00    -0.074 C 
ATOM     14  C   UNL     1     147.620 143.735 132.620  1.00  0.00     0.008 C 
BRANCH  13  15
ATOM     15  C   UNL     1     145.394 142.752 133.020  1.00  0.00     0.035 C 
BRANCH  15  16
ATOM     16  C   UNL     1     144.207 143.080 132.099  1.00  0.00     0.032 CG0
ATOM     17  G   UNL     1     144.649 143.827 130.863  1.00  0.00     0.000 G0
ENDBRANCH  15  16
ENDBRANCH  13  15
ENDBRANCH   1  13
TORSDOF 0
ENDMDL
MODEL 3
REMARK VINA RESULT:    -1.772      1.646      3.028
REMARK INTER + INTRA:          -1.211
REMARK INTER:                  -2.465
REMARK INTRA:                   1.254
REMARK UNBOUND:                 1.183
REMARK SMILES C=C1CCC=C(C)CC[C@@H]2[C@@H]1CC2(C)C
REMARK SMILES IDX 11 1 12 2 13 3 10 4 14 5 15 6 9 7 8 8 6 9 7 10 5 11 2 13
REMARK SMILES IDX 1 14 3 15 4 16
REMARK H PARENT
REMARK Flexibility Score: 70.00
ROOT
ATOM      1  C   UNL     1     145.004 145.432 133.547  1.00  0.00     0.018 C 
ATOM      2  C   UNL     1     143.944 144.481 134.116  1.00  0.00     0.015 C 
ATOM      3  C   UNL     1     144.309 143.436 133.044  1.00  0.00    -0.031 C 
ATOM      4  C   UNL     1     145.267 144.465 132.387  1.00  0.00     0.002 C 
ATOM      5  C   UNL     1     143.127 143.044 132.141  1.00  0.00     0.011 C 
ATOM      6  C   UNL     1     144.970 142.185 133.661  1.00  0.00     0.011 C 
ENDROOT
BRANCH   4   7
ATOM      7  C   UNL     1     146.748 144.066 132.216  1.00  0.00     0.009 C 
BRANCH   7   8
ATOM      8  C   UNL     1     147.355 144.636 130.919  1.00  0.00     0.030 C 
BRANCH   8   9
ATOM      9  C   UNL     1     146.439 145.654 130.260  1.00  0.00    -0.077 C 
ATOM     10  C   UNL     1     145.810 145.282 128.941  1.00  0.00     0.039 C 
ATOM     11  C   UNL     1     146.163 146.881 130.763  1.00  0.00    -0.028 CG0
ATOM     12  G   UNL     1     146.703 147.484 132.039  1.00  0.00     0.000 G0
ENDBRANCH   8   9
ENDBRANCH   7   8
ENDBRANCH   4   7
BRANCH   1  13
ATOM     13  C   UNL     1     144.533 146.813 133.117  1.00  0.00    -0.074 C 
ATOM     14  C   UNL     1     143.259 147.060 132.760  1.00  0.00     0.008 C 
BRANCH  13  15
ATOM     15  C   UNL     1     145.564 147.911 132.981  1.00  0.00     0.035 C 
BRANCH  15  16
ATOM     16  C   UNL     1     146.712 147.491 132.049  1.00  0.00     0.032 CG0
ATOM     17  G   UNL     1     146.196 146.881 130.767  1.00  0.00     0.000 G0
ENDBRANCH  15  16
ENDBRANCH  13  15
ENDBRANCH   1  13
TORSDOF 0
ENDMDL
MODEL 4
REMARK VINA RESULT:    -1.741      1.924      4.268
REMARK INTER + INTRA:          -1.169
REMARK INTER:                  -2.426
REMARK INTRA:                   1.257
REMARK UNBOUND:                 1.183
REMARK SMILES C=C1CCC=C(C)CC[C@@H]2[C@@H]1CC2(C)C
REMARK SMILES IDX 11 1 12 2 13 3 10 4 14 5 15 6 9 7 8 8 6 9 7 10 5 11 2 13
REMARK SMILES IDX 1 14 3 15 4 16
REMARK H PARENT
REMARK Flexibility Score: 70.00
ROOT
ATOM      1  C   UNL     1     145.560 146.060 133.635  1.00  0.00     0.018 C 
ATOM      2  C   UNL     1     144.586 147.165 134.060  1.00  0.00     0.015 C 
ATOM      3  C   UNL     1     143.478 146.512 133.213  1.00  0.00    -0.031 C 
ATOM      4  C   UNL     1     144.512 145.490 132.671  1.00  0.00     0.002 C 
ATOM      5  C   UNL     1     142.911 147.438 132.123  1.00  0.00     0.011 C 
ATOM      6  C   UNL     1     142.345 145.937 134.090  1.00  0.00     0.011 C 
ENDROOT
BRANCH   4   7
ATOM      7  C   UNL     1     144.216 143.988 132.870  1.00  0.00     0.009 C 
BRANCH   7   8
ATOM      8  C   UNL     1     144.732 143.137 131.693  1.00  0.00     0.030 C 
BRANCH   8   9
ATOM      9  C   UNL     1     145.589 143.947 130.735  1.00  0.00    -0.077 C 
ATOM     10  C   UNL     1     145.024 144.247 129.369  1.00  0.00     0.039 C 
ATOM     11  C   UNL     1     146.834 144.402 131.012  1.00  0.00    -0.028 CG0
ATOM     12  G   UNL     1     147.616 144.195 132.288  1.00  0.00     0.000 G0
ENDBRANCH   8   9
ENDBRANCH   7   8
ENDBRANCH   4   7
BRANCH   1  13
ATOM     13  C   UNL     1     146.854 146.499 132.966  1.00  0.00    -0.074 C 
ATOM     14  C   UNL     1     146.966 147.673 132.319  1.00  0.00     0.008 C 
BRANCH  13  15
ATOM     15  C   UNL     1     148.010 145.526 132.936  1.00  0.00     0.035 C 
BRANCH  15  16
ATOM     16  C   UNL     1     147.605 144.191 132.290  1.00  0.00     0.032 CG0
ATOM     17  G   UNL     1     146.837 144.402 131.006  1.00  0.00     0.000 G0
ENDBRANCH  15  16
ENDBRANCH  13  15
ENDBRANCH   1  13
TORSDOF 0
ENDMDL
MODEL 5
REMARK VINA RESULT:    -1.582      1.404      2.550
REMARK INTER + INTRA:          -0.954
REMARK INTER:                  -1.960
REMARK INTRA:                   1.006
REMARK UNBOUND:                 1.183
REMARK SMILES C=C1CCC=C(C)CC[C@@H]2[C@@H]1CC2(C)C
REMARK SMILES IDX 11 1 12 2 13 3 10 4 14 5 15 6 9 7 8 8 6 9 7 10 5 11 2 13
REMARK SMILES IDX 1 14 3 15 4 16
REMARK H PARENT
REMARK Flexibility Score: 70.00
ROOT
ATOM      1  C   UNL     1     146.578 146.342 133.032  1.00  0.00     0.018 C 
ATOM      2  C   UNL     1     147.279 145.513 134.116  1.00  0.00     0.015 C 
ATOM      3  C   UNL     1     146.982 144.227 133.322  1.00  0.00    -0.031 C 
ATOM      4  C   UNL     1     146.146 145.058 132.313  1.00  0.00     0.002 C 
ATOM      5  C   UNL     1     146.145 143.201 134.105  1.00  0.00     0.011 C 
ATOM      6  C   UNL     1     148.271 143.580 132.771  1.00  0.00     0.011 C 
ENDROOT
BRANCH   4   7
ATOM      7  C   UNL     1     146.544 145.000 130.823  1.00  0.00     0.009 C 
BRANCH   7   8
ATOM      8  C   UNL     1     145.342 144.673 129.915  1.00  0.00     0.030 C 
BRANCH   8   9
ATOM      9  C   UNL     1     144.137 144.201 130.712  1.00  0.00    -0.077 C 
ATOM     10  C   UNL     1     143.696 142.769 130.538  1.00  0.00     0.039 C 
ATOM     11  C   UNL     1     143.417 144.981 131.554  1.00  0.00    -0.028 CG0
ATOM     12  G   UNL     1     143.643 146.443 131.857  1.00  0.00     0.000 G0
ENDBRANCH   8   9
ENDBRANCH   7   8
ENDBRANCH   4   7
BRANCH   1  13
ATOM     13  C   UNL     1     145.425 147.229 133.478  1.00  0.00    -0.074 C 
ATOM     14  C   UNL     1     145.622 148.416 134.080  1.00  0.00     0.008 C 
BRANCH  13  15
ATOM     15  C   UNL     1     144.017 146.697 133.337  1.00  0.00     0.035 C 
BRANCH  15  16
ATOM     16  C   UNL     1     143.647 146.468 131.862  1.00  0.00     0.032 CG0
ATOM     17  G   UNL     1     143.408 145.006 131.568  1.00  0.00     0.000 G0
ENDBRANCH  15  16
ENDBRANCH  13  15
ENDBRANCH   1  13
TORSDOF 0
ENDMDL
MODEL 6
REMARK VINA RESULT:    -1.569      1.500      3.230
REMARK INTER + INTRA:          -0.937
REMARK INTER:                  -3.332
REMARK INTRA:                   2.395
REMARK UNBOUND:                 1.183
REMARK SMILES C=C1CCC=C(C)CC[C@@H]2[C@@H]1CC2(C)C
REMARK SMILES IDX 11 1 12 2 13 3 10 4 14 5 15 6 9 7 8 8 6 9 7 10 5 11 2 13
REMARK SMILES IDX 1 14 3 15 4 16
REMARK H PARENT
REMARK Flexibility Score: 70.00
ROOT
ATOM      1  C   UNL     1     146.279 144.159 132.365  1.00  0.00     0.018 C 
ATOM      2  C   UNL     1     145.345 142.997 132.726  1.00  0.00     0.015 C 
ATOM      3  C   UNL     1     144.239 143.618 131.850  1.00  0.00    -0.031 C 
ATOM      4  C   UNL     1     145.138 144.861 131.617  1.00  0.00     0.002 C 
ATOM      5  C   UNL     1     142.949 143.938 132.626  1.00  0.00     0.011 C 
ATOM      6  C   UNL     1     143.934 142.753 130.609  1.00  0.00     0.011 C 
ENDROOT
BRANCH   4   7
ATOM      7  C   UNL     1     145.475 145.246 130.161  1.00  0.00     0.009 C 
BRANCH   7   8
ATOM      8  C   UNL     1     145.303 146.756 129.908  1.00  0.00     0.030 C 
BRANCH   8   9
ATOM      9  C   UNL     1     146.216 147.590 130.791  1.00  0.00    -0.077 C 
ATOM     10  C   UNL     1     147.270 148.432 130.116  1.00  0.00     0.039 C 
ATOM     11  C   UNL     1     146.166 147.616 132.145  1.00  0.00    -0.028 CG0
ATOM     12  G   UNL     1     145.230 146.833 133.036  1.00  0.00     0.000 G0
ENDBRANCH   8   9
ENDBRANCH   7   8
ENDBRANCH   4   7
BRANCH   1  13
ATOM     13  C   UNL     1     146.859 144.963 133.519  1.00  0.00    -0.074 C 
ATOM     14  C   UNL     1     148.047 144.666 134.077  1.00  0.00     0.008 C 
BRANCH  13  15
ATOM     15  C   UNL     1     146.012 146.059 134.125  1.00  0.00     0.035 C 
BRANCH  15  16
ATOM     16  C   UNL     1     145.240 146.835 133.046  1.00  0.00     0.032 CG0
ATOM     17  G   UNL     1     146.169 147.622 132.152  1.00  0.00     0.000 G0
ENDBRANCH  15  16
ENDBRANCH  13  15
ENDBRANCH   1  13
TORSDOF 0
ENDMDL
MODEL 7
REMARK VINA RESULT:    -1.535      1.778      3.614
REMARK INTER + INTRA:          -0.891
REMARK INTER:                  -1.846
REMARK INTRA:                   0.955
REMARK UNBOUND:                 1.183
REMARK SMILES C=C1CCC=C(C)CC[C@@H]2[C@@H]1CC2(C)C
REMARK SMILES IDX 11 1 12 2 13 3 10 4 14 5 15 6 9 7 8 8 6 9 7 10 5 11 2 13
REMARK SMILES IDX 1 14 3 15 4 16
REMARK H PARENT
REMARK Flexibility Score: 70.00
ROOT
ATOM      1  C   UNL     1     144.160 144.432 133.049  1.00  0.00     0.018 C 
ATOM      2  C   UNL     1     143.468 145.277 134.125  1.00  0.00     0.015 C 
ATOM      3  C   UNL     1     143.751 146.550 133.304  1.00  0.00    -0.031 C 
ATOM      4  C   UNL     1     144.579 145.703 132.301  1.00  0.00     0.002 C 
ATOM      5  C   UNL     1     144.593 147.593 134.058  1.00  0.00     0.011 C 
ATOM      6  C   UNL     1     142.454 147.182 132.755  1.00  0.00     0.011 C 
ENDROOT
BRANCH   4   7
ATOM      7  C   UNL     1     144.164 145.733 130.815  1.00  0.00     0.009 C 
BRANCH   7   8
ATOM      8  C   UNL     1     145.361 146.014 129.886  1.00  0.00     0.030 C 
BRANCH   8   9
ATOM      9  C   UNL     1     146.579 146.497 130.655  1.00  0.00    -0.077 C 
ATOM     10  C   UNL     1     147.029 147.919 130.437  1.00  0.00     0.039 C 
ATOM     11  C   UNL     1     147.304 145.733 131.507  1.00  0.00    -0.028 CG0
ATOM     12  G   UNL     1     147.070 144.281 131.852  1.00  0.00     0.000 G0
ENDBRANCH   8   9
ENDBRANCH   7   8
ENDBRANCH   4   7
BRANCH   1  13
ATOM     13  C   UNL     1     145.320 143.557 133.498  1.00  0.00    -0.074 C 
ATOM     14  C   UNL     1     145.135 142.379 134.120  1.00  0.00     0.008 C 
BRANCH  13  15
ATOM     15  C   UNL     1     146.725 144.092 133.335  1.00  0.00     0.035 C 
BRANCH  15  16
ATOM     16  C   UNL     1     147.092 144.266 131.852  1.00  0.00     0.032 CG0
ATOM     17  G   UNL     1     147.301 145.719 131.496  1.00  0.00     0.000 G0
ENDBRANCH  15  16
ENDBRANCH  13  15
ENDBRANCH   1  13
TORSDOF 0
ENDMDL
MODEL 8
REMARK VINA RESULT:    -1.241      1.760      3.527
REMARK INTER + INTRA:          -0.494
REMARK INTER:                  -0.311
REMARK INTRA:                  -0.183
REMARK UNBOUND:                 1.183
REMARK SMILES C=C1CCC=C(C)CC[C@@H]2[C@@H]1CC2(C)C
REMARK SMILES IDX 11 1 12 2 13 3 10 4 14 5 15 6 9 7 8 8 6 9 7 10 5 11 2 13
REMARK SMILES IDX 1 14 3 15 4 16
REMARK H PARENT
REMARK Flexibility Score: 70.00
ROOT
ATOM      1  C   UNL     1     145.829 144.883 132.266  1.00  0.00     0.018 C 
ATOM      2  C   UNL     1     146.180 143.422 131.959  1.00  0.00     0.015 C 
ATOM      3  C   UNL     1     144.950 142.959 132.764  1.00  0.00    -0.031 C 
ATOM      4  C   UNL     1     144.695 144.428 133.193  1.00  0.00     0.002 C 
ATOM      5  C   UNL     1     145.300 142.034 133.942  1.00  0.00     0.011 C 
ATOM      6  C   UNL     1     143.878 142.316 131.859  1.00  0.00     0.011 C 
ENDROOT
BRANCH   4   7
ATOM      7  C   UNL     1     143.320 145.048 132.865  1.00  0.00     0.009 C 
BRANCH   7   8
ATOM      8  C   UNL     1     143.125 146.416 133.547  1.00  0.00     0.030 C 
BRANCH   8   9
ATOM      9  C   UNL     1     143.447 147.570 132.612  1.00  0.00    -0.077 C 
ATOM     10  C   UNL     1     142.386 147.996 131.629  1.00  0.00     0.039 C 
ATOM     11  C   UNL     1     144.630 148.231 132.584  1.00  0.00    -0.028 CG0
ATOM     12  G   UNL     1     145.845 147.959 133.439  1.00  0.00     0.000 G0
ENDBRANCH   8   9
ENDBRANCH   7   8
ENDBRANCH   4   7
BRANCH   1  13
ATOM     13  C   UNL     1     146.899 145.721 132.949  1.00  0.00    -0.074 C 
ATOM     14  C   UNL     1     147.734 145.210 133.872  1.00  0.00     0.008 C 
BRANCH  13  15
ATOM     15  C   UNL     1     146.941 147.203 132.656  1.00  0.00     0.035 C 
BRANCH  15  16
ATOM     16  C   UNL     1     145.855 147.963 133.436  1.00  0.00     0.032 CG0
ATOM     17  G   UNL     1     144.638 148.229 132.582  1.00  0.00     0.000 G0
ENDBRANCH  15  16
ENDBRANCH  13  15
ENDBRANCH   1  13
TORSDOF 0
ENDMDL
MODEL 9
REMARK VINA RESULT:    -1.235      2.005      3.883
REMARK INTER + INTRA:          -0.486
REMARK INTER:                  -0.214
REMARK INTRA:                  -0.271
REMARK UNBOUND:                 1.183
REMARK SMILES C=C1CCC=C(C)CC[C@@H]2[C@@H]1CC2(C)C
REMARK SMILES IDX 11 1 12 2 13 3 10 4 14 5 15 6 9 7 8 8 6 9 7 10 5 11 2 13
REMARK SMILES IDX 1 14 3 15 4 16
REMARK H PARENT
REMARK Flexibility Score: 70.00
ROOT
ATOM      1  C   UNL     1     144.860 145.881 132.143  1.00  0.00     0.018 C 
ATOM      2  C   UNL     1     144.511 147.359 131.923  1.00  0.00     0.015 C 
ATOM      3  C   UNL     1     145.775 147.770 132.702  1.00  0.00    -0.031 C 
ATOM      4  C   UNL     1     146.032 146.279 133.048  1.00  0.00     0.002 C 
ATOM      5  C   UNL     1     145.478 148.638 133.938  1.00  0.00     0.011 C 
ATOM      6  C   UNL     1     146.819 148.450 131.791  1.00  0.00     0.011 C 
ENDROOT
BRANCH   4   7
ATOM      7  C   UNL     1     147.388 145.666 132.638  1.00  0.00     0.009 C 
BRANCH   7   8
ATOM      8  C   UNL     1     147.691 144.366 133.408  1.00  0.00     0.030 C 
BRANCH   8   9
ATOM      9  C   UNL     1     147.344 143.129 132.596  1.00  0.00    -0.077 C 
ATOM     10  C   UNL     1     148.393 142.588 131.657  1.00  0.00     0.039 C 
ATOM     11  C   UNL     1     146.151 142.488 132.640  1.00  0.00    -0.028 CG0
ATOM     12  G   UNL     1     144.945 142.865 133.468  1.00  0.00     0.000 G0
ENDBRANCH   8   9
ENDBRANCH   7   8
ENDBRANCH   4   7
BRANCH   1  13
ATOM     13  C   UNL     1     143.808 145.018 132.824  1.00  0.00    -0.074 C 
ATOM     14  C   UNL     1     142.907 145.526 133.685  1.00  0.00     0.008 C 
BRANCH  13  15
ATOM     15  C   UNL     1     143.858 143.523 132.605  1.00  0.00     0.035 C 
BRANCH  15  16
ATOM     16  C   UNL     1     144.953 142.866 133.462  1.00  0.00     0.032 CG0
ATOM     17  G   UNL     1     146.156 142.483 132.632  1.00  0.00     0.000 G0
ENDBRANCH  15  16
ENDBRANCH  13  15
ENDBRANCH   1  13
TORSDOF 0
ENDMDL
