MODEL 1
REMARK VINA RESULT:    15.552      0.000      0.000
REMARK INTER + INTRA:          34.455
REMARK INTER:                  24.643
REMARK INTRA:                   9.812
REMARK UNBOUND:                 9.812
REMARK SMILES C[C@H]1O[C@H](O[C@H]2CC[C@]3(C)[C@H](CC[C@@]4(C)[C@H]3C=C[C@@]35OC[C@]6(CCC(C)(C)C[C@@H]63)[C@H](O)C[C@@]45C)[C@]2(C)CO)[C@H](O)[C@H](O[C@@H]2O[C@@H](CO)[C@H](O)[C@@H](O)[C@H]2O)[C@@H]1O
REMARK SMILES IDX 1 1 2 2 54 3 41 4 39 5 4 6 3 7 55 8 42 10 43 11 52 12 44 13
REMARK SMILES IDX 50 14 45 15 48 16 53 17 51 19 46 21 47 22 49 24 5 26 6 27
REMARK SMILES IDX 7 28 35 29 8 30 11 31 36 32 9 33 12 34 10 35 16 36 13 37
REMARK SMILES IDX 14 38 17 39 15 40 33 41 18 42 19 43 32 44 34 45 29 46 20 47
REMARK SMILES IDX 30 48 22 49 28 50 21 51 23 52 25 53 24 54 26 55 27 56 37 57
REMARK SMILES IDX 38 58 31 60 40 62
REMARK H PARENT 55 9 53 18 51 20 47 23 49 25 38 59 31 61 40 63
REMARK Flexibility Score: inf
ROOT
ATOM      1  C   UNL     1     -31.171  23.524  59.784  1.00  0.00     0.041 C 
ATOM      2  C   UNL     1     -30.638  22.326  59.003  1.00  0.00     0.150 C 
ATOM      3  C   UNL     1     -29.078  22.411  58.891  1.00  0.00     0.175 C 
ATOM      4  C   UNL     1     -28.452  22.047  57.508  1.00  0.00     0.186 C 
ATOM      5  C   UNL     1     -29.486  21.828  56.367  1.00  0.00     0.202 C 
ATOM      6  C   UNL     1     -30.866  21.347  56.847  1.00  0.00     0.282 C 
ATOM      7  O   UNL     1     -31.355  22.290  57.782  1.00  0.00    -0.344 OA
ENDROOT
BRANCH   3   8
ATOM      8  O   UNL     1     -28.503  21.623  59.901  1.00  0.00    -0.388 OA
ATOM      9  H   UNL     1     -29.245  21.229  60.428  1.00  0.00     0.211 HD
ENDBRANCH   3   8
BRANCH   4  10
ATOM     10  O   UNL     1     -27.341  21.139  57.557  1.00  0.00    -0.341 OA
BRANCH  10  11
ATOM     11  C   UNL     1     -27.607  19.787  57.235  1.00  0.00     0.282 C 
ATOM     12  C   UNL     1     -26.458  19.228  56.316  1.00  0.00     0.202 C 
ATOM     13  O   UNL     1     -27.809  19.054  58.439  1.00  0.00    -0.341 OA
ATOM     14  C   UNL     1     -26.100  17.733  56.566  1.00  0.00     0.179 C 
ATOM     15  C   UNL     1     -26.616  18.492  58.943  1.00  0.00     0.178 C 
ATOM     16  C   UNL     1     -26.237  17.304  58.045  1.00  0.00     0.177 C 
BRANCH  12  17
ATOM     17  O   UNL     1     -26.791  19.412  54.971  1.00  0.00    -0.385 OA
ATOM     18  H   UNL     1     -27.383  20.213  54.919  1.00  0.00     0.211 HD
ENDBRANCH  12  17
BRANCH  14  19
ATOM     19  O   UNL     1     -26.882  16.889  55.770  1.00  0.00    -0.387 OA
ATOM     20  H   UNL     1     -26.316  16.120  55.498  1.00  0.00     0.211 HD
ENDBRANCH  14  19
BRANCH  15  21
ATOM     21  C   UNL     1     -26.860  18.040  60.390  1.00  0.00     0.191 C 
BRANCH  21  22
ATOM     22  O   UNL     1     -27.790  18.898  61.016  1.00  0.00    -0.394 OA
ATOM     23  H   UNL     1     -27.570  18.873  61.990  1.00  0.00     0.210 HD
ENDBRANCH  21  22
ENDBRANCH  15  21
BRANCH  16  24
ATOM     24  O   UNL     1     -25.018  16.729  58.480  1.00  0.00    -0.387 OA
ATOM     25  H   UNL     1     -24.321  16.981  57.821  1.00  0.00     0.211 HD
ENDBRANCH  16  24
ENDBRANCH  10  11
ENDBRANCH   4  10
BRANCH   6  26
ATOM     26  O   UNL     1     -30.917  19.985  57.273  1.00  0.00    -0.346 OA
BRANCH  26  27
ATOM     27  C   UNL     1     -29.904  19.150  56.709  1.00  0.00     0.130 C 
ATOM     28  C   UNL     1     -29.338  18.126  57.725  1.00  0.00     0.033 C 
ATOM     29  C   UNL     1     -30.413  18.472  55.370  1.00  0.00     0.020 C 
ATOM     30  C   UNL     1     -30.244  16.909  57.981  1.00  0.00     0.010 C 
ATOM     31  C   UNL     1     -31.284  17.191  55.717  1.00  0.00     0.006 C 
ATOM     32  C   UNL     1     -31.310  19.467  54.568  1.00  0.00     0.017 C 
ATOM     33  C   UNL     1     -30.630  16.126  56.682  1.00  0.00    -0.022 C 
ATOM     34  C   UNL     1     -31.947  16.505  54.493  1.00  0.00     0.005 C 
ATOM     35  C   UNL     1     -29.356  15.457  56.075  1.00  0.00     0.012 C 
ATOM     36  C   UNL     1     -31.731  15.043  57.074  1.00  0.00     0.024 C 
ATOM     37  C   UNL     1     -33.063  15.555  54.951  1.00  0.00     0.008 C 
ATOM     38  C   UNL     1     -32.574  14.414  55.898  1.00  0.00    -0.017 C 
ATOM     39  C   UNL     1     -31.185  13.918  57.940  1.00  0.00    -0.024 C 
ATOM     40  C   UNL     1     -31.665  13.466  55.025  1.00  0.00     0.013 C 
ATOM     41  C   UNL     1     -33.815  13.558  56.530  1.00  0.00     0.009 C 
ATOM     42  C   UNL     1     -31.919  12.833  58.189  1.00  0.00     0.005 C 
ATOM     43  C   UNL     1     -33.398  12.805  57.912  1.00  0.00     0.096 C 
ATOM     44  C   UNL     1     -35.085  14.423  56.804  1.00  0.00     0.043 C 
ATOM     45  C   UNL     1     -34.292  12.518  55.446  1.00  0.00     0.015 C 
ATOM     46  C   UNL     1     -34.101  13.271  59.213  1.00  0.00     0.037 C 
ATOM     47  O   UNL     1     -33.837  11.465  57.810  1.00  0.00    -0.369 OA
ATOM     48  C   UNL     1     -36.119  13.785  57.784  1.00  0.00     0.124 C 
ATOM     49  C   UNL     1     -35.498  12.853  58.891  1.00  0.00     0.026 C 
ATOM     50  C   UNL     1     -33.989  14.664  59.875  1.00  0.00     0.014 C 
ATOM     51  C   UNL     1     -35.164  11.436  58.343  1.00  0.00     0.171 C 
ATOM     52  C   UNL     1     -36.340  12.818  60.196  1.00  0.00     0.013 C 
ATOM     53  C   UNL     1     -34.849  14.722  61.182  1.00  0.00    -0.035 C 
ATOM     54  C   UNL     1     -36.289  14.161  60.950  1.00  0.00     0.007 C 
ATOM     55  C   UNL     1     -34.162  13.956  62.343  1.00  0.00     0.011 C 
ATOM     56  C   UNL     1     -34.969  16.204  61.618  1.00  0.00     0.011 C 
BRANCH  29  57
ATOM     57  C   UNL     1     -29.184  18.156  54.457  1.00  0.00     0.165 C 
BRANCH  57  58
ATOM     58  O   UNL     1     -28.800  19.294  53.734  1.00  0.00    -0.396 OA
ATOM     59  H   UNL     1     -29.225  20.078  54.174  1.00  0.00     0.210 HD
ENDBRANCH  57  58
ENDBRANCH  29  57
BRANCH  48  60
ATOM     60  O   UNL     1     -37.125  13.105  57.077  1.00  0.00    -0.392 OA
ATOM     61  H   UNL     1     -37.707  12.649  57.747  1.00  0.00     0.210 HD
ENDBRANCH  48  60
ENDBRANCH  26  27
ENDBRANCH   6  26
BRANCH   5  62
ATOM     62  O   UNL     1     -28.984  21.034  55.323  1.00  0.00    -0.385 OA
ATOM     63  H   UNL     1     -29.241  20.092  55.505  1.00  0.00     0.211 HD
ENDBRANCH   5  62
TORSDOF 14
ENDMDL
