MODEL 1
REMARK VINA RESULT:     4.577      0.000      0.000
REMARK INTER + INTRA:           7.492
REMARK INTER:                   8.323
REMARK INTRA:                  -0.831
REMARK UNBOUND:                -0.831
REMARK SMILES CCCCCC=CCC=CCCCCCCCC(=O)[O-]
REMARK SMILES IDX 11 1 12 2 13 3 14 4 15 5 16 6 17 7 18 8 19 9 20 10 10 11
REMARK SMILES IDX 9 12 8 13 7 14 6 15 5 16 4 17 3 18 2 19 1 20
REMARK H PARENT
REMARK Flexibility Score: inf
ROOT
ATOM      1  C   UNL     1      30.954  17.467   5.577  1.00  0.00     0.027 C 
ENDROOT
BRANCH   1   2
ATOM      2  C   UNL     1      30.030  17.257   6.787  1.00  0.00     0.004 C 
BRANCH   2   3
ATOM      3  C   UNL     1      29.727  15.769   7.033  1.00  0.00     0.000 C 
BRANCH   3   4
ATOM      4  C   UNL     1      29.467  15.459   8.516  1.00  0.00     0.000 C 
BRANCH   4   5
ATOM      5  C   UNL     1      29.550  16.713   9.404  1.00  0.00     0.000 C 
BRANCH   5   6
ATOM      6  C   UNL     1      28.167  17.312   9.702  1.00  0.00     0.006 C 
BRANCH   6   7
ATOM      7  C   UNL     1      28.217  18.392  10.792  1.00  0.00     0.053 C 
BRANCH   7   8
ATOM      8  C   UNL     1      27.440  19.599  10.369  1.00  0.00     0.041 C 
ATOM      9  O   UNL     1      27.464  20.647  11.067  1.00  0.00    -0.550 OA
ATOM     10  O   UNL     1      26.652  19.552   9.228  1.00  0.00    -0.550 OA
ENDBRANCH   7   8
ENDBRANCH   6   7
ENDBRANCH   5   6
ENDBRANCH   4   5
ENDBRANCH   3   4
ENDBRANCH   2   3
ENDBRANCH   1   2
BRANCH   1  11
ATOM     11  C   UNL     1      30.332  18.344   4.523  1.00  0.00    -0.031 C 
ATOM     12  C   UNL     1      29.182  18.010   3.918  1.00  0.00    -0.027 C 
BRANCH  12  13
ATOM     13  C   UNL     1      28.575  18.881   2.853  1.00  0.00     0.054 C 
BRANCH  13  14
ATOM     14  C   UNL     1      29.446  18.933   1.624  1.00  0.00    -0.027 C 
ATOM     15  C   UNL     1      29.053  18.564   0.390  1.00  0.00    -0.031 C 
BRANCH  15  16
ATOM     16  C   UNL     1      27.700  17.989   0.048  1.00  0.00     0.027 C 
BRANCH  16  17
ATOM     17  C   UNL     1      27.754  17.164  -1.244  1.00  0.00     0.004 C 
BRANCH  17  18
ATOM     18  C   UNL     1      28.539  15.852  -1.061  1.00  0.00     0.000 C 
BRANCH  18  19
ATOM     19  C   UNL     1      29.175  15.360  -2.370  1.00  0.00    -0.003 C 
ATOM     20  C   UNL     1      30.701  15.407  -2.342  1.00  0.00     0.004 C 
ENDBRANCH  18  19
ENDBRANCH  17  18
ENDBRANCH  16  17
ENDBRANCH  15  16
ENDBRANCH  13  14
ENDBRANCH  12  13
ENDBRANCH   1  11
TORSDOF 14
ENDMDL
MODEL 2
REMARK VINA RESULT:     4.685      4.324      9.996
REMARK INTER + INTRA:           7.688
REMARK INTER:                   8.493
REMARK INTRA:                  -0.805
REMARK UNBOUND:                -0.831
REMARK SMILES CCCCCC=CCC=CCCCCCCCC(=O)[O-]
REMARK SMILES IDX 11 1 12 2 13 3 14 4 15 5 16 6 17 7 18 8 19 9 20 10 10 11
REMARK SMILES IDX 9 12 8 13 7 14 6 15 5 16 4 17 3 18 2 19 1 20
REMARK H PARENT
REMARK Flexibility Score: inf
ROOT
ATOM      1  C   UNL     1      29.609  18.952   3.304  1.00  0.00     0.027 C 
ENDROOT
BRANCH   1   2
ATOM      2  C   UNL     1      28.602  18.346   2.314  1.00  0.00     0.004 C 
BRANCH   2   3
ATOM      3  C   UNL     1      28.596  19.087   0.966  1.00  0.00     0.000 C 
BRANCH   3   4
ATOM      4  C   UNL     1      27.814  18.330  -0.118  1.00  0.00     0.000 C 
BRANCH   4   5
ATOM      5  C   UNL     1      28.356  16.910  -0.354  1.00  0.00     0.000 C 
BRANCH   5   6
ATOM      6  C   UNL     1      27.781  16.268  -1.627  1.00  0.00     0.006 C 
BRANCH   6   7
ATOM      7  C   UNL     1      28.580  15.036  -2.075  1.00  0.00     0.053 C 
BRANCH   7   8
ATOM      8  C   UNL     1      29.976  15.425  -2.450  1.00  0.00     0.041 C 
ATOM      9  O   UNL     1      30.196  16.053  -3.519  1.00  0.00    -0.550 OA
ATOM     10  O   UNL     1      31.041  15.054  -1.640  1.00  0.00    -0.550 OA
ENDBRANCH   7   8
ENDBRANCH   6   7
ENDBRANCH   5   6
ENDBRANCH   4   5
ENDBRANCH   3   4
ENDBRANCH   2   3
ENDBRANCH   1   2
BRANCH   1  11
ATOM     11  C   UNL     1      29.591  18.257   4.640  1.00  0.00    -0.031 C 
ATOM     12  C   UNL     1      30.724  17.960   5.294  1.00  0.00    -0.027 C 
BRANCH  12  13
ATOM     13  C   UNL     1      30.701  17.249   6.620  1.00  0.00     0.054 C 
BRANCH  13  14
ATOM     14  C   UNL     1      29.766  16.068   6.593  1.00  0.00    -0.027 C 
ATOM     15  C   UNL     1      29.167  15.539   7.676  1.00  0.00    -0.031 C 
BRANCH  15  16
ATOM     16  C   UNL     1      29.375  16.008   9.096  1.00  0.00     0.027 C 
BRANCH  16  17
ATOM     17  C   UNL     1      28.118  16.691   9.649  1.00  0.00     0.004 C 
BRANCH  17  18
ATOM     18  C   UNL     1      28.427  18.072  10.253  1.00  0.00     0.000 C 
BRANCH  18  19
ATOM     19  C   UNL     1      27.379  19.129   9.872  1.00  0.00    -0.003 C 
ATOM     20  C   UNL     1      27.212  20.209  10.938  1.00  0.00     0.004 C 
ENDBRANCH  18  19
ENDBRANCH  17  18
ENDBRANCH  16  17
ENDBRANCH  15  16
ENDBRANCH  13  14
ENDBRANCH  12  13
ENDBRANCH   1  11
TORSDOF 14
ENDMDL
MODEL 3
REMARK VINA RESULT:     5.300      2.359      2.896
REMARK INTER + INTRA:           8.808
REMARK INTER:                   9.641
REMARK INTRA:                  -0.833
REMARK UNBOUND:                -0.831
REMARK SMILES CCCCCC=CCC=CCCCCCCCC(=O)[O-]
REMARK SMILES IDX 11 1 12 2 13 3 14 4 15 5 16 6 17 7 18 8 19 9 20 10 10 11
REMARK SMILES IDX 9 12 8 13 7 14 6 15 5 16 4 17 3 18 2 19 1 20
REMARK H PARENT
REMARK Flexibility Score: inf
ROOT
ATOM      1  C   UNL     1      30.943  18.667   5.055  1.00  0.00     0.027 C 
ENDROOT
BRANCH   1   2
ATOM      2  C   UNL     1      31.013  17.272   5.695  1.00  0.00     0.004 C 
BRANCH   2   3
ATOM      3  C   UNL     1      30.377  17.244   7.096  1.00  0.00     0.000 C 
BRANCH   3   4
ATOM      4  C   UNL     1      29.634  15.928   7.378  1.00  0.00     0.000 C 
BRANCH   4   5
ATOM      5  C   UNL     1      29.335  15.729   8.874  1.00  0.00     0.000 C 
BRANCH   5   6
ATOM      6  C   UNL     1      27.828  15.635   9.162  1.00  0.00     0.006 C 
BRANCH   6   7
ATOM      7  C   UNL     1      27.379  14.201   9.476  1.00  0.00     0.053 C 
BRANCH   7   8
ATOM      8  C   UNL     1      26.037  13.928   8.871  1.00  0.00     0.041 C 
ATOM      9  O   UNL     1      25.031  14.594   9.229  1.00  0.00    -0.550 OA
ATOM     10  O   UNL     1      25.890  12.905   7.944  1.00  0.00    -0.550 OA
ENDBRANCH   7   8
ENDBRANCH   6   7
ENDBRANCH   5   6
ENDBRANCH   4   5
ENDBRANCH   3   4
ENDBRANCH   2   3
ENDBRANCH   1   2
BRANCH   1  11
ATOM     11  C   UNL     1      30.078  18.691   3.823  1.00  0.00    -0.031 C 
ATOM     12  C   UNL     1      28.959  17.956   3.733  1.00  0.00    -0.027 C 
BRANCH  12  13
ATOM     13  C   UNL     1      28.110  17.971   2.492  1.00  0.00     0.054 C 
BRANCH  13  14
ATOM     14  C   UNL     1      28.649  18.937   1.469  1.00  0.00    -0.027 C 
ATOM     15  C   UNL     1      28.469  18.826   0.139  1.00  0.00    -0.031 C 
BRANCH  15  16
ATOM     16  C   UNL     1      27.747  17.690  -0.545  1.00  0.00     0.027 C 
BRANCH  16  17
ATOM     17  C   UNL     1      28.653  16.461  -0.692  1.00  0.00     0.004 C 
BRANCH  17  18
ATOM     18  C   UNL     1      28.305  15.631  -1.942  1.00  0.00     0.000 C 
BRANCH  18  19
ATOM     19  C   UNL     1      29.541  15.303  -2.793  1.00  0.00    -0.003 C 
ATOM     20  C   UNL     1      30.835  15.302  -1.983  1.00  0.00     0.004 C 
ENDBRANCH  18  19
ENDBRANCH  17  18
ENDBRANCH  16  17
ENDBRANCH  15  16
ENDBRANCH  13  14
ENDBRANCH  12  13
ENDBRANCH   1  11
TORSDOF 14
ENDMDL
MODEL 4
REMARK VINA RESULT:     5.312      4.423      9.713
REMARK INTER + INTRA:           8.829
REMARK INTER:                   9.293
REMARK INTRA:                  -0.464
REMARK UNBOUND:                -0.831
REMARK SMILES CCCCCC=CCC=CCCCCCCCC(=O)[O-]
REMARK SMILES IDX 11 1 12 2 13 3 14 4 15 5 16 6 17 7 18 8 19 9 20 10 10 11
REMARK SMILES IDX 9 12 8 13 7 14 6 15 5 16 4 17 3 18 2 19 1 20
REMARK H PARENT
REMARK Flexibility Score: inf
ROOT
ATOM      1  C   UNL     1      29.380  19.106   3.015  1.00  0.00     0.027 C 
ENDROOT
BRANCH   1   2
ATOM      2  C   UNL     1      28.804  18.217   1.902  1.00  0.00     0.004 C 
BRANCH   2   3
ATOM      3  C   UNL     1      27.855  18.994   0.973  1.00  0.00     0.000 C 
BRANCH   3   4
ATOM      4  C   UNL     1      27.774  18.377  -0.433  1.00  0.00     0.000 C 
BRANCH   4   5
ATOM      5  C   UNL     1      28.102  16.874  -0.438  1.00  0.00     0.000 C 
BRANCH   5   6
ATOM      6  C   UNL     1      27.779  16.209  -1.786  1.00  0.00     0.006 C 
BRANCH   6   7
ATOM      7  C   UNL     1      28.642  14.968  -2.050  1.00  0.00     0.053 C 
BRANCH   7   8
ATOM      8  C   UNL     1      30.033  15.368  -2.429  1.00  0.00     0.041 C 
ATOM      9  O   UNL     1      31.007  15.061  -1.692  1.00  0.00    -0.550 OA
ATOM     10  O   UNL     1      30.250  16.121  -3.574  1.00  0.00    -0.550 OA
ENDBRANCH   7   8
ENDBRANCH   6   7
ENDBRANCH   5   6
ENDBRANCH   4   5
ENDBRANCH   3   4
ENDBRANCH   2   3
ENDBRANCH   1   2
BRANCH   1  11
ATOM     11  C   UNL     1      29.508  18.376   4.325  1.00  0.00    -0.031 C 
ATOM     12  C   UNL     1      30.684  18.275   4.964  1.00  0.00    -0.027 C 
BRANCH  12  13
ATOM     13  C   UNL     1      30.809  17.528   6.263  1.00  0.00     0.054 C 
BRANCH  13  14
ATOM     14  C   UNL     1      29.985  16.267   6.253  1.00  0.00    -0.027 C 
ATOM     15  C   UNL     1      29.592  15.599   7.354  1.00  0.00    -0.031 C 
BRANCH  15  16
ATOM     16  C   UNL     1      29.956  15.974   8.770  1.00  0.00     0.027 C 
BRANCH  16  17
ATOM     17  C   UNL     1      28.915  16.918   9.384  1.00  0.00     0.004 C 
BRANCH  17  18
ATOM     18  C   UNL     1      27.585  16.202   9.679  1.00  0.00     0.000 C 
BRANCH  18  19
ATOM     19  C   UNL     1      27.678  14.682   9.475  1.00  0.00    -0.003 C 
ATOM     20  C   UNL     1      26.409  14.085   8.871  1.00  0.00     0.004 C 
ENDBRANCH  18  19
ENDBRANCH  17  18
ENDBRANCH  16  17
ENDBRANCH  15  16
ENDBRANCH  13  14
ENDBRANCH  12  13
ENDBRANCH   1  11
TORSDOF 14
ENDMDL
MODEL 5
REMARK VINA RESULT:     5.403      4.463      9.424
REMARK INTER + INTRA:           8.994
REMARK INTER:                   9.694
REMARK INTRA:                  -0.700
REMARK UNBOUND:                -0.831
REMARK SMILES CCCCCC=CCC=CCCCCCCCC(=O)[O-]
REMARK SMILES IDX 11 1 12 2 13 3 14 4 15 5 16 6 17 7 18 8 19 9 20 10 10 11
REMARK SMILES IDX 9 12 8 13 7 14 6 15 5 16 4 17 3 18 2 19 1 20
REMARK H PARENT
REMARK Flexibility Score: inf
ROOT
ATOM      1  C   UNL     1      30.670  18.541   4.600  1.00  0.00     0.027 C 
ENDROOT
BRANCH   1   2
ATOM      2  C   UNL     1      29.258  18.431   4.005  1.00  0.00     0.004 C 
BRANCH   2   3
ATOM      3  C   UNL     1      29.203  18.918   2.547  1.00  0.00     0.000 C 
BRANCH   3   4
ATOM      4  C   UNL     1      28.371  17.990   1.647  1.00  0.00     0.000 C 
BRANCH   4   5
ATOM      5  C   UNL     1      28.045  18.626   0.285  1.00  0.00     0.000 C 
BRANCH   5   6
ATOM      6  C   UNL     1      27.835  17.575  -0.817  1.00  0.00     0.006 C 
BRANCH   6   7
ATOM      7  C   UNL     1      28.805  16.392  -0.691  1.00  0.00     0.053 C 
BRANCH   7   8
ATOM      8  C   UNL     1      28.871  15.630  -1.978  1.00  0.00     0.041 C 
ATOM      9  O   UNL     1      27.828  15.130  -2.475  1.00  0.00    -0.550 OA
ATOM     10  O   UNL     1      30.093  15.433  -2.606  1.00  0.00    -0.550 OA
ENDBRANCH   7   8
ENDBRANCH   6   7
ENDBRANCH   5   6
ENDBRANCH   4   5
ENDBRANCH   3   4
ENDBRANCH   2   3
ENDBRANCH   1   2
BRANCH   1  11
ATOM     11  C   UNL     1      30.852  17.671   5.815  1.00  0.00    -0.031 C 
ATOM     12  C   UNL     1      29.878  16.859   6.253  1.00  0.00    -0.027 C 
BRANCH  12  13
ATOM     13  C   UNL     1      30.059  16.006   7.477  1.00  0.00     0.054 C 
BRANCH  13  14
ATOM     14  C   UNL     1      30.182  16.849   8.721  1.00  0.00    -0.027 C 
ATOM     15  C   UNL     1      29.210  17.008   9.638  1.00  0.00    -0.031 C 
BRANCH  15  16
ATOM     16  C   UNL     1      27.825  16.415   9.545  1.00  0.00     0.027 C 
BRANCH  16  17
ATOM     17  C   UNL     1      27.864  14.886   9.665  1.00  0.00     0.004 C 
BRANCH  17  18
ATOM     18  C   UNL     1      27.055  14.196   8.551  1.00  0.00     0.000 C 
BRANCH  18  19
ATOM     19  C   UNL     1      25.562  14.083   8.892  1.00  0.00    -0.003 C 
ATOM     20  C   UNL     1      24.863  12.959   8.130  1.00  0.00     0.004 C 
ENDBRANCH  18  19
ENDBRANCH  17  18
ENDBRANCH  16  17
ENDBRANCH  15  16
ENDBRANCH  13  14
ENDBRANCH  12  13
ENDBRANCH   1  11
TORSDOF 14
ENDMDL
MODEL 6
REMARK VINA RESULT:     6.768      5.741      9.509
REMARK INTER + INTRA:          11.477
REMARK INTER:                  12.008
REMARK INTRA:                  -0.531
REMARK UNBOUND:                -0.831
REMARK SMILES CCCCCC=CCC=CCCCCCCCC(=O)[O-]
REMARK SMILES IDX 11 1 12 2 13 3 14 4 15 5 16 6 17 7 18 8 19 9 20 10 10 11
REMARK SMILES IDX 9 12 8 13 7 14 6 15 5 16 4 17 3 18 2 19 1 20
REMARK H PARENT
REMARK Flexibility Score: inf
ROOT
ATOM      1  C   UNL     1      29.594  15.673   8.872  1.00  0.00     0.027 C 
ENDROOT
BRANCH   1   2
ATOM      2  C   UNL     1      30.056  16.842   7.989  1.00  0.00     0.004 C 
BRANCH   2   3
ATOM      3  C   UNL     1      30.103  16.461   6.499  1.00  0.00     0.000 C 
BRANCH   3   4
ATOM      4  C   UNL     1      30.641  17.599   5.618  1.00  0.00     0.000 C 
BRANCH   4   5
ATOM      5  C   UNL     1      29.519  18.465   5.021  1.00  0.00     0.000 C 
BRANCH   5   6
ATOM      6  C   UNL     1      29.718  18.730   3.520  1.00  0.00     0.006 C 
BRANCH   6   7
ATOM      7  C   UNL     1      28.571  18.170   2.668  1.00  0.00     0.053 C 
BRANCH   7   8
ATOM      8  C   UNL     1      28.728  18.588   1.239  1.00  0.00     0.041 C 
ATOM      9  O   UNL     1      29.566  19.473   0.924  1.00  0.00    -0.550 OA
ATOM     10  O   UNL     1      27.914  18.034   0.261  1.00  0.00    -0.550 OA
ENDBRANCH   7   8
ENDBRANCH   6   7
ENDBRANCH   5   6
ENDBRANCH   4   5
ENDBRANCH   3   4
ENDBRANCH   2   3
ENDBRANCH   1   2
BRANCH   1  11
ATOM     11  C   UNL     1      28.094  15.539   8.909  1.00  0.00    -0.031 C 
ATOM     12  C   UNL     1      27.498  14.394   9.275  1.00  0.00    -0.027 C 
BRANCH  12  13
ATOM     13  C   UNL     1      26.000  14.260   9.292  1.00  0.00     0.054 C 
BRANCH  13  14
ATOM     14  C   UNL     1      25.502  13.509   8.084  1.00  0.00    -0.027 C 
ATOM     15  C   UNL     1      24.367  12.786   8.046  1.00  0.00    -0.031 C 
BRANCH  15  16
ATOM     16  C   UNL     1      23.440  12.566   9.217  1.00  0.00     0.027 C 
BRANCH  16  17
ATOM     17  C   UNL     1      22.354  11.536   8.884  1.00  0.00     0.004 C 
BRANCH  17  18
ATOM     18  C   UNL     1      22.049  10.610  10.076  1.00  0.00     0.000 C 
BRANCH  18  19
ATOM     19  C   UNL     1      21.059   9.491   9.713  1.00  0.00    -0.003 C 
ATOM     20  C   UNL     1      21.667   8.097   9.843  1.00  0.00     0.004 C 
ENDBRANCH  18  19
ENDBRANCH  17  18
ENDBRANCH  16  17
ENDBRANCH  15  16
ENDBRANCH  13  14
ENDBRANCH  12  13
ENDBRANCH   1  11
TORSDOF 14
ENDMDL
MODEL 7
REMARK VINA RESULT:     7.040      5.221      6.597
REMARK INTER + INTRA:          11.971
REMARK INTER:                  12.550
REMARK INTRA:                  -0.578
REMARK UNBOUND:                -0.831
REMARK SMILES CCCCCC=CCC=CCCCCCCCC(=O)[O-]
REMARK SMILES IDX 11 1 12 2 13 3 14 4 15 5 16 6 17 7 18 8 19 9 20 10 10 11
REMARK SMILES IDX 9 12 8 13 7 14 6 15 5 16 4 17 3 18 2 19 1 20
REMARK H PARENT
REMARK Flexibility Score: inf
ROOT
ATOM      1  C   UNL     1      28.758  14.683   8.961  1.00  0.00     0.027 C 
ENDROOT
BRANCH   1   2
ATOM      2  C   UNL     1      27.281  14.688   9.384  1.00  0.00     0.004 C 
BRANCH   2   3
ATOM      3  C   UNL     1      26.406  13.841   8.445  1.00  0.00     0.000 C 
BRANCH   3   4
ATOM      4  C   UNL     1      24.925  13.848   8.855  1.00  0.00     0.000 C 
BRANCH   4   5
ATOM      5  C   UNL     1      24.206  12.538   8.491  1.00  0.00     0.000 C 
BRANCH   5   6
ATOM      6  C   UNL     1      22.880  12.368   9.250  1.00  0.00     0.006 C 
BRANCH   6   7
ATOM      7  C   UNL     1      22.803  11.034  10.005  1.00  0.00     0.053 C 
BRANCH   7   8
ATOM      8  C   UNL     1      21.635  10.228   9.527  1.00  0.00     0.041 C 
ATOM      9  O   UNL     1      20.554  10.796   9.220  1.00  0.00    -0.550 OA
ATOM     10  O   UNL     1      21.725   8.845   9.465  1.00  0.00    -0.550 OA
ENDBRANCH   7   8
ENDBRANCH   6   7
ENDBRANCH   5   6
ENDBRANCH   4   5
ENDBRANCH   3   4
ENDBRANCH   2   3
ENDBRANCH   1   2
BRANCH   1  11
ATOM     11  C   UNL     1      29.232  16.040   8.510  1.00  0.00    -0.031 C 
ATOM     12  C   UNL     1      29.793  16.226   7.305  1.00  0.00    -0.027 C 
BRANCH  12  13
ATOM     13  C   UNL     1      30.280  17.580   6.869  1.00  0.00     0.054 C 
BRANCH  13  14
ATOM     14  C   UNL     1      31.138  17.483   5.633  1.00  0.00    -0.027 C 
ATOM     15  C   UNL     1      30.839  18.043   4.446  1.00  0.00    -0.031 C 
BRANCH  15  16
ATOM     16  C   UNL     1      29.575  18.811   4.145  1.00  0.00     0.027 C 
BRANCH  16  17
ATOM     17  C   UNL     1      28.690  18.060   3.142  1.00  0.00     0.004 C 
BRANCH  17  18
ATOM     18  C   UNL     1      28.727  18.702   1.743  1.00  0.00     0.000 C 
BRANCH  18  19
ATOM     19  C   UNL     1      28.480  17.682   0.621  1.00  0.00    -0.003 C 
ATOM     20  C   UNL     1      27.641  18.249  -0.522  1.00  0.00     0.004 C 
ENDBRANCH  18  19
ENDBRANCH  17  18
ENDBRANCH  16  17
ENDBRANCH  15  16
ENDBRANCH  13  14
ENDBRANCH  12  13
ENDBRANCH   1  11
TORSDOF 14
ENDMDL
MODEL 8
REMARK VINA RESULT:     7.483      6.116      7.938
REMARK INTER + INTRA:          12.776
REMARK INTER:                  13.472
REMARK INTRA:                  -0.696
REMARK UNBOUND:                -0.831
REMARK SMILES CCCCCC=CCC=CCCCCCCCC(=O)[O-]
REMARK SMILES IDX 11 1 12 2 13 3 14 4 15 5 16 6 17 7 18 8 19 9 20 10 10 11
REMARK SMILES IDX 9 12 8 13 7 14 6 15 5 16 4 17 3 18 2 19 1 20
REMARK H PARENT
REMARK Flexibility Score: inf
ROOT
ATOM      1  C   UNL     1      27.142  14.468   9.536  1.00  0.00     0.027 C 
ENDROOT
BRANCH   1   2
ATOM      2  C   UNL     1      26.289  13.484   8.720  1.00  0.00     0.004 C 
BRANCH   2   3
ATOM      3  C   UNL     1      24.785  13.775   8.851  1.00  0.00     0.000 C 
BRANCH   3   4
ATOM      4  C   UNL     1      23.917  12.556   8.498  1.00  0.00     0.000 C 
BRANCH   4   5
ATOM      5  C   UNL     1      22.865  12.248   9.577  1.00  0.00     0.000 C 
BRANCH   5   6
ATOM      6  C   UNL     1      22.072  10.967   9.273  1.00  0.00     0.006 C 
BRANCH   6   7
ATOM      7  C   UNL     1      22.301   9.872  10.324  1.00  0.00     0.053 C 
BRANCH   7   8
ATOM      8  C   UNL     1      21.392   8.709  10.075  1.00  0.00     0.041 C 
ATOM      9  O   UNL     1      20.251   8.669  10.605  1.00  0.00    -0.550 OA
ATOM     10  O   UNL     1      21.823   7.646   9.294  1.00  0.00    -0.550 OA
ENDBRANCH   7   8
ENDBRANCH   6   7
ENDBRANCH   5   6
ENDBRANCH   4   5
ENDBRANCH   3   4
ENDBRANCH   2   3
ENDBRANCH   1   2
BRANCH   1  11
ATOM     11  C   UNL     1      28.236  15.099   8.715  1.00  0.00    -0.031 C 
ATOM     12  C   UNL     1      28.794  16.268   9.065  1.00  0.00    -0.027 C 
BRANCH  12  13
ATOM     13  C   UNL     1      29.873  16.901   8.231  1.00  0.00     0.054 C 
BRANCH  13  14
ATOM     14  C   UNL     1      30.023  16.204   6.904  1.00  0.00    -0.027 C 
ATOM     15  C   UNL     1      30.545  16.765   5.797  1.00  0.00    -0.031 C 
BRANCH  15  16
ATOM     16  C   UNL     1      31.015  18.195   5.691  1.00  0.00     0.027 C 
BRANCH  16  17
ATOM     17  C   UNL     1      30.690  18.790   4.315  1.00  0.00     0.004 C 
BRANCH  17  18
ATOM     18  C   UNL     1      29.175  18.848   4.052  1.00  0.00     0.000 C 
BRANCH  18  19
ATOM     19  C   UNL     1      28.749  17.964   2.870  1.00  0.00    -0.003 C 
ATOM     20  C   UNL     1      28.725  18.718   1.543  1.00  0.00     0.004 C 
ENDBRANCH  18  19
ENDBRANCH  17  18
ENDBRANCH  16  17
ENDBRANCH  15  16
ENDBRANCH  13  14
ENDBRANCH  12  13
ENDBRANCH   1  11
TORSDOF 14
ENDMDL
