MODEL 1
REMARK VINA RESULT:    -9.012      0.000      0.000
REMARK INTER + INTRA:         -13.476
REMARK INTER:                 -12.437
REMARK INTRA:                  -1.039
REMARK UNBOUND:                -1.039
REMARK SMILES C[C@@H]1C(=O)O[C@H](C)[C@H]1C[C@@H](O)[C@@](C)(O)[C@H]1CC[C@]2(O)C3=CC(=O)[C@@H]4C[C@@H](O)[C@H](O)C[C@]4(C)[C@@H]3CC[C@@]12C
REMARK SMILES IDX 12 1 13 2 10 3 9 4 8 5 1 6 2 7 3 8 6 9 5 10 4 11 7 12 11 13
REMARK SMILES IDX 15 15 16 16 36 17 17 18 18 19 35 20 37 21 20 22 34 23 33 24
REMARK SMILES IDX 21 25 31 26 22 27 24 28 30 29 32 30 23 31 25 32 28 33 26 34
REMARK SMILES IDX 19 35 29 37 27 39 14 41
REMARK H PARENT 11 14 19 36 29 38 27 40 14 42
REMARK Flexibility Score: inf
ROOT
ATOM      1  C   UNL     1      11.162  -8.026  59.596  1.00  0.00     0.091 C 
ATOM      2  C   UNL     1      10.181  -8.028  58.396  1.00  0.00     0.045 C 
ENDROOT
BRANCH   1   3
ATOM      3  C   UNL     1      10.499  -7.297  60.834  1.00  0.00     0.146 C 
BRANCH   3   4
ATOM      4  C   UNL     1      10.642  -5.749  60.801  1.00  0.00     0.043 C 
BRANCH   4   5
ATOM      5  C   UNL     1      10.202  -5.061  62.115  1.00  0.00     0.046 C 
ATOM      6  C   UNL     1      11.011  -6.034  64.351  1.00  0.00     0.020 C 
ATOM      7  C   UNL     1      11.307  -5.054  63.208  1.00  0.00     0.103 C 
ATOM      8  C   UNL     1      11.270  -3.652  63.687  1.00  0.00     0.309 C 
ATOM      9  C   UNL     1       9.857  -3.563  61.871  1.00  0.00     0.177 C 
ATOM     10  O   UNL     1      10.425  -2.852  62.955  1.00  0.00    -0.462 OA
ATOM     11  O   UNL     1      11.957  -3.212  64.649  1.00  0.00    -0.252 OA
ATOM     12  C   UNL     1       8.354  -3.300  61.803  1.00  0.00     0.053 C 
ENDBRANCH   4   5
ENDBRANCH   3   4
BRANCH   3  13
ATOM     13  O   UNL     1       9.153  -7.681  61.008  1.00  0.00    -0.390 OA
ATOM     14  H   UNL     1       8.878  -7.421  61.925  1.00  0.00     0.211 HD
ENDBRANCH   3  13
ENDBRANCH   1   3
BRANCH   1  15
ATOM     15  C   UNL     1      11.633  -9.484  60.013  1.00  0.00     0.032 C 
ATOM     16  C   UNL     1      12.111 -10.383  58.834  1.00  0.00     0.010 C 
ATOM     17  C   UNL     1      12.714  -9.708  61.152  1.00  0.00     0.006 C 
ATOM     18  C   UNL     1      13.382 -11.101  59.296  1.00  0.00     0.041 C 
ATOM     19  C   UNL     1      13.961 -10.164  60.361  1.00  0.00     0.092 C 
ATOM     20  C   UNL     1      13.101  -8.538  62.128  1.00  0.00     0.011 C 
ATOM     21  C   UNL     1      12.153 -10.862  62.054  1.00  0.00     0.015 C 
ATOM     22  C   UNL     1      14.998 -10.683  61.342  1.00  0.00    -0.031 C 
ATOM     23  C   UNL     1      14.612  -8.418  62.519  1.00  0.00     0.009 C 
ATOM     24  C   UNL     1      15.577  -9.645  62.292  1.00  0.00     0.025 C 
ATOM     25  C   UNL     1      15.501 -11.923  61.284  1.00  0.00     0.050 C 
ATOM     26  C   UNL     1      16.244 -10.244  63.592  1.00  0.00    -0.013 C 
ATOM     27  C   UNL     1      16.576 -12.363  62.184  1.00  0.00     0.159 C 
ATOM     28  C   UNL     1      17.216 -11.411  63.179  1.00  0.00     0.070 C 
ATOM     29  C   UNL     1      15.167 -10.790  64.574  1.00  0.00     0.042 C 
ATOM     30  C   UNL     1      17.075  -9.116  64.280  1.00  0.00     0.013 C 
ATOM     31  O   UNL     1      17.032 -13.530  62.046  1.00  0.00    -0.295 OA
ATOM     32  C   UNL     1      17.778 -12.179  64.407  1.00  0.00     0.047 C 
ATOM     33  C   UNL     1      15.769 -11.511  65.794  1.00  0.00     0.143 C 
ATOM     34  C   UNL     1      16.666 -12.679  65.345  1.00  0.00     0.143 C 
BRANCH  19  35
ATOM     35  O   UNL     1      14.522  -9.058  59.685  1.00  0.00    -0.385 OA
ATOM     36  H   UNL     1      13.916  -8.814  58.937  1.00  0.00     0.211 HD
ENDBRANCH  19  35
BRANCH  33  37
ATOM     37  O   UNL     1      14.745 -11.970  66.642  1.00  0.00    -0.390 OA
ATOM     38  H   UNL     1      14.962 -11.677  67.568  1.00  0.00     0.211 HD
ENDBRANCH  33  37
BRANCH  34  39
ATOM     39  O   UNL     1      17.242 -13.279  66.476  1.00  0.00    -0.390 OA
ATOM     40  H   UNL     1      17.992 -12.695  66.760  1.00  0.00     0.211 HD
ENDBRANCH  34  39
ENDBRANCH   1  15
BRANCH   1  41
ATOM     41  O   UNL     1      12.293  -7.276  59.209  1.00  0.00    -0.387 OA
ATOM     42  H   UNL     1      12.116  -6.866  58.324  1.00  0.00     0.211 HD
ENDBRANCH   1  41
TORSDOF 9
ENDMDL
MODEL 2
REMARK VINA RESULT:    -8.973      3.173      4.784
REMARK INTER + INTRA:         -13.422
REMARK INTER:                 -12.040
REMARK INTRA:                  -1.382
REMARK UNBOUND:                -1.039
REMARK SMILES C[C@@H]1C(=O)O[C@H](C)[C@H]1C[C@@H](O)[C@@](C)(O)[C@H]1CC[C@]2(O)C3=CC(=O)[C@@H]4C[C@@H](O)[C@H](O)C[C@]4(C)[C@@H]3CC[C@@]12C
REMARK SMILES IDX 12 1 13 2 10 3 9 4 8 5 1 6 2 7 3 8 6 9 5 10 4 11 7 12 11 13
REMARK SMILES IDX 15 15 16 16 36 17 17 18 18 19 35 20 37 21 20 22 34 23 33 24
REMARK SMILES IDX 21 25 31 26 22 27 24 28 30 29 32 30 23 31 25 32 28 33 26 34
REMARK SMILES IDX 19 35 29 37 27 39 14 41
REMARK H PARENT 11 14 19 36 29 38 27 40 14 42
REMARK Flexibility Score: inf
ROOT
ATOM      1  C   UNL     1      13.496 -11.528  60.924  1.00  0.00     0.091 C 
ATOM      2  C   UNL     1      12.577 -12.414  60.044  1.00  0.00     0.045 C 
ENDROOT
BRANCH   1   3
ATOM      3  C   UNL     1      12.808 -10.127  61.184  1.00  0.00     0.146 C 
BRANCH   3   4
ATOM      4  C   UNL     1      12.287  -9.435  59.893  1.00  0.00     0.043 C 
BRANCH   4   5
ATOM      5  C   UNL     1      13.071  -8.155  59.520  1.00  0.00     0.046 C 
ATOM      6  C   UNL     1      13.979  -6.668  61.407  1.00  0.00     0.020 C 
ATOM      7  C   UNL     1      14.257  -7.856  60.478  1.00  0.00     0.103 C 
ATOM      8  C   UNL     1      15.357  -7.547  59.534  1.00  0.00     0.309 C 
ATOM      9  C   UNL     1      13.707  -8.284  58.105  1.00  0.00     0.177 C 
ATOM     10  O   UNL     1      15.014  -7.752  58.218  1.00  0.00    -0.462 OA
ATOM     11  O   UNL     1      16.505  -7.161  59.883  1.00  0.00    -0.252 OA
ATOM     12  C   UNL     1      12.927  -7.532  57.029  1.00  0.00     0.053 C 
ENDBRANCH   4   5
ENDBRANCH   3   4
BRANCH   3  13
ATOM     13  O   UNL     1      11.794 -10.215  62.159  1.00  0.00    -0.390 OA
ATOM     14  H   UNL     1      11.036  -9.646  61.864  1.00  0.00     0.211 HD
ENDBRANCH   3  13
ENDBRANCH   1   3
BRANCH   1  15
ATOM     15  C   UNL     1      13.876 -12.211  62.306  1.00  0.00     0.032 C 
ATOM     16  C   UNL     1      14.100 -13.752  62.239  1.00  0.00     0.010 C 
ATOM     17  C   UNL     1      15.074 -11.670  63.194  1.00  0.00     0.006 C 
ATOM     18  C   UNL     1      15.345 -14.066  63.072  1.00  0.00     0.041 C 
ATOM     19  C   UNL     1      16.151 -12.764  63.024  1.00  0.00     0.092 C 
ATOM     20  C   UNL     1      15.702 -10.257  62.912  1.00  0.00     0.011 C 
ATOM     21  C   UNL     1      14.531 -11.623  64.664  1.00  0.00     0.015 C 
ATOM     22  C   UNL     1      17.257 -12.522  64.037  1.00  0.00    -0.031 C 
ATOM     23  C   UNL     1      17.256 -10.136  63.052  1.00  0.00     0.009 C 
ATOM     24  C   UNL     1      18.057 -11.243  63.839  1.00  0.00     0.025 C 
ATOM     25  C   UNL     1      17.624 -13.433  64.948  1.00  0.00     0.050 C 
ATOM     26  C   UNL     1      18.833 -10.748  65.122  1.00  0.00    -0.013 C 
ATOM     27  C   UNL     1      18.763 -13.208  65.849  1.00  0.00     0.159 C 
ATOM     28  C   UNL     1      19.622 -11.960  65.744  1.00  0.00     0.070 C 
ATOM     29  C   UNL     1      17.850 -10.170  66.183  1.00  0.00     0.042 C 
ATOM     30  C   UNL     1      19.855  -9.654  64.684  1.00  0.00     0.013 C 
ATOM     31  O   UNL     1      19.080 -14.125  66.653  1.00  0.00    -0.295 OA
ATOM     32  C   UNL     1      20.267 -11.608  67.113  1.00  0.00     0.047 C 
ATOM     33  C   UNL     1      18.540  -9.802  67.509  1.00  0.00     0.143 C 
ATOM     34  C   UNL     1      19.249 -11.028  68.110  1.00  0.00     0.143 C 
BRANCH  19  35
ATOM     35  O   UNL     1      16.721 -12.671  61.735  1.00  0.00    -0.385 OA
ATOM     36  H   UNL     1      16.520 -11.768  61.374  1.00  0.00     0.211 HD
ENDBRANCH  19  35
BRANCH  33  37
ATOM     37  O   UNL     1      17.600  -9.279  68.416  1.00  0.00    -0.390 OA
ATOM     38  H   UNL     1      16.780  -9.840  68.363  1.00  0.00     0.211 HD
ENDBRANCH  33  37
BRANCH  34  39
ATOM     39  O   UNL     1      19.912 -10.646  69.287  1.00  0.00    -0.390 OA
ATOM     40  H   UNL     1      20.732 -11.202  69.348  1.00  0.00     0.211 HD
ENDBRANCH  34  39
ENDBRANCH   1  15
BRANCH   1  41
ATOM     41  O   UNL     1      14.680 -11.298  60.191  1.00  0.00    -0.387 OA
ATOM     42  H   UNL     1      14.906 -10.335  60.243  1.00  0.00     0.211 HD
ENDBRANCH   1  41
TORSDOF 9
ENDMDL
MODEL 3
REMARK VINA RESULT:    -8.843      2.274      4.206
REMARK INTER + INTRA:         -13.242
REMARK INTER:                 -12.302
REMARK INTRA:                  -0.940
REMARK UNBOUND:                -1.039
REMARK SMILES C[C@@H]1C(=O)O[C@H](C)[C@H]1C[C@@H](O)[C@@](C)(O)[C@H]1CC[C@]2(O)C3=CC(=O)[C@@H]4C[C@@H](O)[C@H](O)C[C@]4(C)[C@@H]3CC[C@@]12C
REMARK SMILES IDX 12 1 13 2 10 3 9 4 8 5 1 6 2 7 3 8 6 9 5 10 4 11 7 12 11 13
REMARK SMILES IDX 15 15 16 16 36 17 17 18 18 19 35 20 37 21 20 22 34 23 33 24
REMARK SMILES IDX 21 25 31 26 22 27 24 28 30 29 32 30 23 31 25 32 28 33 26 34
REMARK SMILES IDX 19 35 29 37 27 39 14 41
REMARK H PARENT 11 14 19 36 29 38 27 40 14 42
REMARK Flexibility Score: inf
ROOT
ATOM      1  C   UNL     1      13.507 -11.624  60.951  1.00  0.00     0.091 C 
ATOM      2  C   UNL     1      13.250 -12.668  59.833  1.00  0.00     0.045 C 
ENDROOT
BRANCH   1   3
ATOM      3  C   UNL     1      12.239 -10.693  61.121  1.00  0.00     0.146 C 
BRANCH   3   4
ATOM      4  C   UNL     1      12.365  -9.667  62.283  1.00  0.00     0.043 C 
BRANCH   4   5
ATOM      5  C   UNL     1      12.306  -8.194  61.814  1.00  0.00     0.046 C 
ATOM      6  C   UNL     1      10.033  -7.198  61.150  1.00  0.00     0.020 C 
ATOM      7  C   UNL     1      11.030  -7.446  62.290  1.00  0.00     0.103 C 
ATOM      8  C   UNL     1      11.584  -6.169  62.799  1.00  0.00     0.309 C 
ATOM      9  C   UNL     1      13.501  -7.378  62.390  1.00  0.00     0.177 C 
ATOM     10  O   UNL     1      12.959  -6.139  62.806  1.00  0.00    -0.462 OA
ATOM     11  O   UNL     1      10.883  -5.206  63.214  1.00  0.00    -0.252 OA
ATOM     12  C   UNL     1      14.614  -7.148  61.371  1.00  0.00     0.053 C 
ENDBRANCH   4   5
ENDBRANCH   3   4
BRANCH   3  13
ATOM     13  O   UNL     1      11.894 -10.053  59.912  1.00  0.00    -0.390 OA
ATOM     14  H   UNL     1      11.110 -10.527  59.530  1.00  0.00     0.211 HD
ENDBRANCH   3  13
ENDBRANCH   1   3
BRANCH   1  15
ATOM     15  C   UNL     1      13.883 -12.289  62.343  1.00  0.00     0.032 C 
ATOM     16  C   UNL     1      14.118 -13.828  62.295  1.00  0.00     0.010 C 
ATOM     17  C   UNL     1      15.074 -11.729  63.230  1.00  0.00     0.006 C 
ATOM     18  C   UNL     1      15.361 -14.125  63.138  1.00  0.00     0.041 C 
ATOM     19  C   UNL     1      16.159 -12.818  63.078  1.00  0.00     0.092 C 
ATOM     20  C   UNL     1      15.694 -10.316  62.934  1.00  0.00     0.011 C 
ATOM     21  C   UNL     1      14.523 -11.668  64.696  1.00  0.00     0.015 C 
ATOM     22  C   UNL     1      17.258 -12.557  64.094  1.00  0.00    -0.031 C 
ATOM     23  C   UNL     1      17.246 -10.183  63.080  1.00  0.00     0.009 C 
ATOM     24  C   UNL     1      18.051 -11.275  63.885  1.00  0.00     0.025 C 
ATOM     25  C   UNL     1      17.627 -13.454  65.018  1.00  0.00     0.050 C 
ATOM     26  C   UNL     1      18.817 -10.760  65.166  1.00  0.00    -0.013 C 
ATOM     27  C   UNL     1      18.759 -13.211  65.922  1.00  0.00     0.159 C 
ATOM     28  C   UNL     1      19.610 -11.959  65.806  1.00  0.00     0.070 C 
ATOM     29  C   UNL     1      17.825 -10.175  66.215  1.00  0.00     0.042 C 
ATOM     30  C   UNL     1      19.834  -9.664  64.720  1.00  0.00     0.013 C 
ATOM     31  O   UNL     1      19.078 -14.117  66.739  1.00  0.00    -0.295 OA
ATOM     32  C   UNL     1      20.247 -11.587  67.174  1.00  0.00     0.047 C 
ATOM     33  C   UNL     1      18.505  -9.787  67.540  1.00  0.00     0.143 C 
ATOM     34  C   UNL     1      19.220 -11.002  68.159  1.00  0.00     0.143 C 
BRANCH  19  35
ATOM     35  O   UNL     1      16.735 -12.737  61.791  1.00  0.00    -0.385 OA
ATOM     36  H   UNL     1      17.359 -13.502  61.685  1.00  0.00     0.211 HD
ENDBRANCH  19  35
BRANCH  33  37
ATOM     37  O   UNL     1      17.558  -9.259  68.436  1.00  0.00    -0.390 OA
ATOM     38  H   UNL     1      16.874  -8.771  67.904  1.00  0.00     0.211 HD
ENDBRANCH  33  37
BRANCH  34  39
ATOM     39  O   UNL     1      19.874 -10.601  69.335  1.00  0.00    -0.390 OA
ATOM     40  H   UNL     1      20.791 -10.327  69.074  1.00  0.00     0.211 HD
ENDBRANCH  34  39
ENDBRANCH   1  15
BRANCH   1  41
ATOM     41  O   UNL     1      14.583 -10.816  60.527  1.00  0.00    -0.387 OA
ATOM     42  H   UNL     1      14.241  -9.906  60.332  1.00  0.00     0.211 HD
ENDBRANCH   1  41
TORSDOF 9
ENDMDL
MODEL 4
REMARK VINA RESULT:    -8.706      2.760      8.900
REMARK INTER + INTRA:         -13.053
REMARK INTER:                 -12.307
REMARK INTRA:                  -0.746
REMARK UNBOUND:                -1.039
REMARK SMILES C[C@@H]1C(=O)O[C@H](C)[C@H]1C[C@@H](O)[C@@](C)(O)[C@H]1CC[C@]2(O)C3=CC(=O)[C@@H]4C[C@@H](O)[C@H](O)C[C@]4(C)[C@@H]3CC[C@@]12C
REMARK SMILES IDX 12 1 13 2 10 3 9 4 8 5 1 6 2 7 3 8 6 9 5 10 4 11 7 12 11 13
REMARK SMILES IDX 15 15 16 16 36 17 17 18 18 19 35 20 37 21 20 22 34 23 33 24
REMARK SMILES IDX 21 25 31 26 22 27 24 28 30 29 32 30 23 31 25 32 28 33 26 34
REMARK SMILES IDX 19 35 29 37 27 39 14 41
REMARK H PARENT 11 14 19 36 29 38 27 40 14 42
REMARK Flexibility Score: inf
ROOT
ATOM      1  C   UNL     1      16.335 -12.064  65.139  1.00  0.00     0.091 C 
ATOM      2  C   UNL     1      15.561 -12.937  64.117  1.00  0.00     0.045 C 
ENDROOT
BRANCH   1   3
ATOM      3  C   UNL     1      17.651 -12.813  65.600  1.00  0.00     0.146 C 
BRANCH   3   4
ATOM      4  C   UNL     1      17.873 -12.800  67.139  1.00  0.00     0.043 C 
BRANCH   4   5
ATOM      5  C   UNL     1      19.058 -11.910  67.583  1.00  0.00     0.046 C 
ATOM      6  C   UNL     1      18.964  -9.390  67.091  1.00  0.00     0.020 C 
ATOM      7  C   UNL     1      18.621 -10.506  68.086  1.00  0.00     0.103 C 
ATOM      8  C   UNL     1      19.402 -10.361  69.338  1.00  0.00     0.309 C 
ATOM      9  C   UNL     1      19.823 -12.555  68.776  1.00  0.00     0.177 C 
ATOM     10  O   UNL     1      20.096 -11.499  69.678  1.00  0.00    -0.462 OA
ATOM     11  O   UNL     1      19.421  -9.318  70.046  1.00  0.00    -0.252 OA
ATOM     12  C   UNL     1      21.124 -13.233  68.354  1.00  0.00     0.053 C 
ENDBRANCH   4   5
ENDBRANCH   3   4
BRANCH   3  13
ATOM     13  O   UNL     1      17.713 -14.125  65.088  1.00  0.00    -0.390 OA
ATOM     14  H   UNL     1      18.621 -14.263  64.711  1.00  0.00     0.211 HD
ENDBRANCH   3  13
ENDBRANCH   1   3
BRANCH   1  15
ATOM     15  C   UNL     1      16.698 -10.625  64.575  1.00  0.00     0.032 C 
ATOM     16  C   UNL     1      18.001 -10.562  63.722  1.00  0.00     0.010 C 
ATOM     17  C   UNL     1      15.643  -9.768  63.759  1.00  0.00     0.006 C 
ATOM     18  C   UNL     1      17.702  -9.688  62.501  1.00  0.00     0.041 C 
ATOM     19  C   UNL     1      16.188  -9.831  62.315  1.00  0.00     0.092 C 
ATOM     20  C   UNL     1      14.119 -10.155  63.769  1.00  0.00     0.011 C 
ATOM     21  C   UNL     1      15.728  -8.315  64.341  1.00  0.00     0.015 C 
ATOM     22  C   UNL     1      15.433  -8.825  61.463  1.00  0.00    -0.031 C 
ATOM     23  C   UNL     1      13.344 -10.003  62.418  1.00  0.00     0.009 C 
ATOM     24  C   UNL     1      13.953  -9.116  61.265  1.00  0.00     0.025 C 
ATOM     25  C   UNL     1      16.039  -7.837  60.791  1.00  0.00     0.050 C 
ATOM     26  C   UNL     1      13.090  -7.867  60.831  1.00  0.00    -0.013 C 
ATOM     27  C   UNL     1      15.293  -6.941  59.896  1.00  0.00     0.159 C 
ATOM     28  C   UNL     1      13.810  -7.136  59.637  1.00  0.00     0.070 C 
ATOM     29  C   UNL     1      12.910  -6.872  62.015  1.00  0.00     0.042 C 
ATOM     30  C   UNL     1      11.699  -8.378  60.342  1.00  0.00     0.013 C 
ATOM     31  O   UNL     1      15.933  -6.059  59.263  1.00  0.00    -0.295 OA
ATOM     32  C   UNL     1      13.126  -5.791  59.265  1.00  0.00     0.047 C 
ATOM     33  C   UNL     1      12.195  -5.570  61.608  1.00  0.00     0.143 C 
ATOM     34  C   UNL     1      12.963  -4.860  60.479  1.00  0.00     0.143 C 
BRANCH  19  35
ATOM     35  O   UNL     1      15.952 -11.115  61.775  1.00  0.00    -0.385 OA
ATOM     36  H   UNL     1      15.381 -11.010  60.970  1.00  0.00     0.211 HD
ENDBRANCH  19  35
BRANCH  33  37
ATOM     37  O   UNL     1      12.057  -4.723  62.723  1.00  0.00    -0.390 OA
ATOM     38  H   UNL     1      12.963  -4.577  63.109  1.00  0.00     0.211 HD
ENDBRANCH  33  37
BRANCH  34  39
ATOM     39  O   UNL     1      12.258  -3.709  60.095  1.00  0.00    -0.390 OA
ATOM     40  H   UNL     1      11.682  -3.456  60.863  1.00  0.00     0.211 HD
ENDBRANCH  34  39
ENDBRANCH   1  15
BRANCH   1  41
ATOM     41  O   UNL     1      15.505 -11.913  66.270  1.00  0.00    -0.387 OA
ATOM     42  H   UNL     1      14.585 -12.193  66.030  1.00  0.00     0.211 HD
ENDBRANCH   1  41
TORSDOF 9
ENDMDL
MODEL 5
REMARK VINA RESULT:    -8.665      2.787      8.658
REMARK INTER + INTRA:         -12.996
REMARK INTER:                 -12.152
REMARK INTRA:                  -0.845
REMARK UNBOUND:                -1.039
REMARK SMILES C[C@@H]1C(=O)O[C@H](C)[C@H]1C[C@@H](O)[C@@](C)(O)[C@H]1CC[C@]2(O)C3=CC(=O)[C@@H]4C[C@@H](O)[C@H](O)C[C@]4(C)[C@@H]3CC[C@@]12C
REMARK SMILES IDX 12 1 13 2 10 3 9 4 8 5 1 6 2 7 3 8 6 9 5 10 4 11 7 12 11 13
REMARK SMILES IDX 15 15 16 16 36 17 17 18 18 19 35 20 37 21 20 22 34 23 33 24
REMARK SMILES IDX 21 25 31 26 22 27 24 28 30 29 32 30 23 31 25 32 28 33 26 34
REMARK SMILES IDX 19 35 29 37 27 39 14 41
REMARK H PARENT 11 14 19 36 29 38 27 40 14 42
REMARK Flexibility Score: inf
ROOT
ATOM      1  C   UNL     1      14.939 -11.172  63.926  1.00  0.00     0.091 C 
ATOM      2  C   UNL     1      14.923 -12.720  64.022  1.00  0.00     0.045 C 
ENDROOT
BRANCH   1   3
ATOM      3  C   UNL     1      16.041 -10.582  64.896  1.00  0.00     0.146 C 
BRANCH   3   4
ATOM      4  C   UNL     1      16.203 -11.381  66.221  1.00  0.00     0.043 C 
BRANCH   4   5
ATOM      5  C   UNL     1      17.678 -11.588  66.639  1.00  0.00     0.046 C 
ATOM      6  C   UNL     1      19.156  -9.523  67.025  1.00  0.00     0.020 C 
ATOM      7  C   UNL     1      18.186 -10.530  67.657  1.00  0.00     0.103 C 
ATOM      8  C   UNL     1      18.873 -11.367  68.668  1.00  0.00     0.309 C 
ATOM      9  C   UNL     1      17.868 -12.962  67.345  1.00  0.00     0.177 C 
ATOM     10  O   UNL     1      18.717 -12.716  68.451  1.00  0.00    -0.462 OA
ATOM     11  O   UNL     1      19.516 -10.909  69.651  1.00  0.00    -0.252 OA
ATOM     12  C   UNL     1      18.487 -14.021  66.435  1.00  0.00     0.053 C 
ENDBRANCH   4   5
ENDBRANCH   3   4
BRANCH   3  13
ATOM     13  O   UNL     1      17.280 -10.422  64.243  1.00  0.00    -0.390 OA
ATOM     14  H   UNL     1      17.388 -11.174  63.604  1.00  0.00     0.211 HD
ENDBRANCH   3  13
ENDBRANCH   1   3
BRANCH   1  15
ATOM     15  C   UNL     1      15.179 -10.646  62.447  1.00  0.00     0.032 C 
ATOM     16  C   UNL     1      14.599 -11.556  61.323  1.00  0.00     0.010 C 
ATOM     17  C   UNL     1      14.776  -9.173  62.019  1.00  0.00     0.006 C 
ATOM     18  C   UNL     1      13.928 -10.638  60.297  1.00  0.00     0.041 C 
ATOM     19  C   UNL     1      13.544  -9.400  61.115  1.00  0.00     0.092 C 
ATOM     20  C   UNL     1      14.444  -8.088  63.107  1.00  0.00     0.011 C 
ATOM     21  C   UNL     1      15.993  -8.616  61.202  1.00  0.00     0.015 C 
ATOM     22  C   UNL     1      13.212  -8.099  60.406  1.00  0.00    -0.031 C 
ATOM     23  C   UNL     1      13.264  -7.110  62.790  1.00  0.00     0.009 C 
ATOM     24  C   UNL     1      12.750  -6.963  61.306  1.00  0.00     0.025 C 
ATOM     25  C   UNL     1      13.166  -7.985  59.071  1.00  0.00     0.050 C 
ATOM     26  C   UNL     1      12.889  -5.523  60.671  1.00  0.00    -0.013 C 
ATOM     27  C   UNL     1      12.745  -6.740  58.416  1.00  0.00     0.159 C 
ATOM     28  C   UNL     1      12.276  -5.541  59.221  1.00  0.00     0.070 C 
ATOM     29  C   UNL     1      14.381  -5.084  60.597  1.00  0.00     0.042 C 
ATOM     30  C   UNL     1      12.077  -4.521  61.549  1.00  0.00     0.013 C 
ATOM     31  O   UNL     1      12.683  -6.717  57.157  1.00  0.00    -0.295 OA
ATOM     32  C   UNL     1      12.532  -4.215  58.452  1.00  0.00     0.047 C 
ATOM     33  C   UNL     1      14.583  -3.749  59.859  1.00  0.00     0.143 C 
ATOM     34  C   UNL     1      14.021  -3.829  58.428  1.00  0.00     0.143 C 
BRANCH  19  35
ATOM     35  O   UNL     1      12.431  -9.752  61.911  1.00  0.00    -0.385 OA
ATOM     36  H   UNL     1      12.744  -9.857  62.848  1.00  0.00     0.211 HD
ENDBRANCH  19  35
BRANCH  33  37
ATOM     37  O   UNL     1      15.948  -3.407  59.837  1.00  0.00    -0.390 OA
ATOM     38  H   UNL     1      16.474  -4.252  59.861  1.00  0.00     0.211 HD
ENDBRANCH  33  37
BRANCH  34  39
ATOM     39  O   UNL     1      14.171  -2.582  57.803  1.00  0.00    -0.390 OA
ATOM     40  H   UNL     1      13.385  -2.461  57.210  1.00  0.00     0.211 HD
ENDBRANCH  34  39
ENDBRANCH   1  15
BRANCH   1  41
ATOM     41  O   UNL     1      13.681 -10.715  64.372  1.00  0.00    -0.387 OA
ATOM     42  H   UNL     1      13.027 -11.456  64.297  1.00  0.00     0.211 HD
ENDBRANCH   1  41
TORSDOF 9
ENDMDL
MODEL 6
REMARK VINA RESULT:    -8.649      3.075      8.835
REMARK INTER + INTRA:         -12.974
REMARK INTER:                 -12.490
REMARK INTRA:                  -0.484
REMARK UNBOUND:                -1.039
REMARK SMILES C[C@@H]1C(=O)O[C@H](C)[C@H]1C[C@@H](O)[C@@](C)(O)[C@H]1CC[C@]2(O)C3=CC(=O)[C@@H]4C[C@@H](O)[C@H](O)C[C@]4(C)[C@@H]3CC[C@@]12C
REMARK SMILES IDX 12 1 13 2 10 3 9 4 8 5 1 6 2 7 3 8 6 9 5 10 4 11 7 12 11 13
REMARK SMILES IDX 15 15 16 16 36 17 17 18 18 19 35 20 37 21 20 22 34 23 33 24
REMARK SMILES IDX 21 25 31 26 22 27 24 28 30 29 32 30 23 31 25 32 28 33 26 34
REMARK SMILES IDX 19 35 29 37 27 39 14 41
REMARK H PARENT 11 14 19 36 29 38 27 40 14 42
REMARK Flexibility Score: inf
ROOT
ATOM      1  C   UNL     1      16.213 -11.286  65.251  1.00  0.00     0.091 C 
ATOM      2  C   UNL     1      15.408 -11.622  66.534  1.00  0.00     0.045 C 
ENDROOT
BRANCH   1   3
ATOM      3  C   UNL     1      17.620 -12.009  65.293  1.00  0.00     0.146 C 
BRANCH   3   4
ATOM      4  C   UNL     1      18.011 -12.539  66.702  1.00  0.00     0.043 C 
BRANCH   4   5
ATOM      5  C   UNL     1      19.175 -11.756  67.354  1.00  0.00     0.046 C 
ATOM      6  C   UNL     1      19.242  -9.200  67.097  1.00  0.00     0.020 C 
ATOM      7  C   UNL     1      18.743 -10.382  67.938  1.00  0.00     0.103 C 
ATOM      8  C   UNL     1      19.384 -10.391  69.275  1.00  0.00     0.309 C 
ATOM      9  C   UNL     1      19.773 -12.544  68.555  1.00  0.00     0.177 C 
ATOM     10  O   UNL     1      19.986 -11.590  69.578  1.00  0.00    -0.462 OA
ATOM     11  O   UNL     1      19.367  -9.419  70.077  1.00  0.00    -0.252 OA
ATOM     12  C   UNL     1      21.084 -13.249  68.213  1.00  0.00     0.053 C 
ENDBRANCH   4   5
ENDBRANCH   3   4
BRANCH   3  13
ATOM     13  O   UNL     1      17.714 -13.026  64.321  1.00  0.00    -0.390 OA
ATOM     14  H   UNL     1      16.807 -13.176  63.947  1.00  0.00     0.211 HD
ENDBRANCH   3  13
ENDBRANCH   1   3
BRANCH   1  15
ATOM     15  C   UNL     1      15.442 -11.675  63.918  1.00  0.00     0.032 C 
ATOM     16  C   UNL     1      14.049 -12.339  64.133  1.00  0.00     0.010 C 
ATOM     17  C   UNL     1      15.207 -10.614  62.762  1.00  0.00     0.006 C 
ATOM     18  C   UNL     1      13.084 -11.706  63.127  1.00  0.00     0.041 C 
ATOM     19  C   UNL     1      13.693 -10.325  62.861  1.00  0.00     0.092 C 
ATOM     20  C   UNL     1      16.007  -9.262  62.744  1.00  0.00     0.011 C 
ATOM     21  C   UNL     1      15.563 -11.352  61.425  1.00  0.00     0.015 C 
ATOM     22  C   UNL     1      13.266  -9.533  61.637  1.00  0.00    -0.031 C 
ATOM     23  C   UNL     1      15.220  -7.983  62.301  1.00  0.00     0.009 C 
ATOM     24  C   UNL     1      13.858  -8.137  61.522  1.00  0.00     0.025 C 
ATOM     25  C   UNL     1      12.313  -9.951  60.793  1.00  0.00     0.050 C 
ATOM     26  C   UNL     1      13.828  -7.529  60.065  1.00  0.00    -0.013 C 
ATOM     27  C   UNL     1      11.852  -9.118  59.674  1.00  0.00     0.159 C 
ATOM     28  C   UNL     1      12.386  -7.713  59.461  1.00  0.00     0.070 C 
ATOM     29  C   UNL     1      14.869  -8.230  59.143  1.00  0.00     0.042 C 
ATOM     30  C   UNL     1      14.140  -6.003  60.164  1.00  0.00     0.013 C 
ATOM     31  O   UNL     1      10.922  -9.556  58.945  1.00  0.00    -0.295 OA
ATOM     32  C   UNL     1      12.313  -7.308  57.963  1.00  0.00     0.047 C 
ATOM     33  C   UNL     1      14.784  -7.771  57.676  1.00  0.00     0.143 C 
ATOM     34  C   UNL     1      13.375  -8.022  57.110  1.00  0.00     0.143 C 
BRANCH  19  35
ATOM     35  O   UNL     1      13.437  -9.528  64.000  1.00  0.00    -0.385 OA
ATOM     36  H   UNL     1      14.256  -9.002  64.197  1.00  0.00     0.211 HD
ENDBRANCH  19  35
BRANCH  33  37
ATOM     37  O   UNL     1      15.755  -8.434  56.903  1.00  0.00    -0.390 OA
ATOM     38  H   UNL     1      15.582  -8.220  55.947  1.00  0.00     0.211 HD
ENDBRANCH  33  37
BRANCH  34  39
ATOM     39  O   UNL     1      13.317  -7.544  55.791  1.00  0.00    -0.390 OA
ATOM     40  H   UNL     1      12.895  -8.258  55.246  1.00  0.00     0.211 HD
ENDBRANCH  34  39
ENDBRANCH   1  15
BRANCH   1  41
ATOM     41  O   UNL     1      16.441  -9.894  65.255  1.00  0.00    -0.387 OA
ATOM     42  H   UNL     1      16.433  -9.567  64.319  1.00  0.00     0.211 HD
ENDBRANCH   1  41
TORSDOF 9
ENDMDL
MODEL 7
REMARK VINA RESULT:    -8.548      2.498      7.894
REMARK INTER + INTRA:         -12.835
REMARK INTER:                 -11.880
REMARK INTRA:                  -0.954
REMARK UNBOUND:                -1.039
REMARK SMILES C[C@@H]1C(=O)O[C@H](C)[C@H]1C[C@@H](O)[C@@](C)(O)[C@H]1CC[C@]2(O)C3=CC(=O)[C@@H]4C[C@@H](O)[C@H](O)C[C@]4(C)[C@@H]3CC[C@@]12C
REMARK SMILES IDX 12 1 13 2 10 3 9 4 8 5 1 6 2 7 3 8 6 9 5 10 4 11 7 12 11 13
REMARK SMILES IDX 15 15 16 16 36 17 17 18 18 19 35 20 37 21 20 22 34 23 33 24
REMARK SMILES IDX 21 25 31 26 22 27 24 28 30 29 32 30 23 31 25 32 28 33 26 34
REMARK SMILES IDX 19 35 29 37 27 39 14 41
REMARK H PARENT 11 14 19 36 29 38 27 40 14 42
REMARK Flexibility Score: inf
ROOT
ATOM      1  C   UNL     1      12.984 -12.374  62.946  1.00  0.00     0.091 C 
ATOM      2  C   UNL     1      12.372 -13.710  62.449  1.00  0.00     0.045 C 
ENDROOT
BRANCH   1   3
ATOM      3  C   UNL     1      13.830 -12.624  64.260  1.00  0.00     0.146 C 
BRANCH   3   4
ATOM      4  C   UNL     1      14.397 -11.324  64.897  1.00  0.00     0.043 C 
BRANCH   4   5
ATOM      5  C   UNL     1      15.938 -11.325  65.030  1.00  0.00     0.046 C 
ATOM      6  C   UNL     1      17.010 -10.062  66.994  1.00  0.00     0.020 C 
ATOM      7  C   UNL     1      16.431 -11.395  66.502  1.00  0.00     0.103 C 
ATOM      8  C   UNL     1      17.481 -12.439  66.435  1.00  0.00     0.309 C 
ATOM      9  C   UNL     1      16.557 -12.569  64.329  1.00  0.00     0.177 C 
ATOM     10  O   UNL     1      17.561 -13.049  65.205  1.00  0.00    -0.462 OA
ATOM     11  O   UNL     1      18.218 -12.768  67.404  1.00  0.00    -0.252 OA
ATOM     12  C   UNL     1      17.163 -12.247  62.965  1.00  0.00     0.053 C 
ENDBRANCH   4   5
ENDBRANCH   3   4
BRANCH   3  13
ATOM     13  O   UNL     1      13.113 -13.384  65.207  1.00  0.00    -0.390 OA
ATOM     14  H   UNL     1      13.658 -14.182  65.433  1.00  0.00     0.211 HD
ENDBRANCH   3  13
ENDBRANCH   1   3
BRANCH   1  15
ATOM     15  C   UNL     1      13.883 -11.660  61.849  1.00  0.00     0.032 C 
ATOM     16  C   UNL     1      13.997 -12.421  60.494  1.00  0.00     0.010 C 
ATOM     17  C   UNL     1      13.640 -10.147  61.440  1.00  0.00     0.006 C 
ATOM     18  C   UNL     1      13.855 -11.383  59.377  1.00  0.00     0.041 C 
ATOM     19  C   UNL     1      13.032 -10.264  60.025  1.00  0.00     0.092 C 
ATOM     20  C   UNL     1      12.741  -9.214  62.329  1.00  0.00     0.011 C 
ATOM     21  C   UNL     1      15.059  -9.480  61.402  1.00  0.00     0.015 C 
ATOM     22  C   UNL     1      13.002  -8.885  59.391  1.00  0.00    -0.031 C 
ATOM     23  C   UNL     1      11.804  -8.212  61.576  1.00  0.00     0.009 C 
ATOM     24  C   UNL     1      12.078  -7.878  60.059  1.00  0.00     0.025 C 
ATOM     25  C   UNL     1      13.610  -8.600  58.231  1.00  0.00     0.050 C 
ATOM     26  C   UNL     1      12.410  -6.367  59.737  1.00  0.00    -0.013 C 
ATOM     27  C   UNL     1      13.479  -7.283  57.593  1.00  0.00     0.159 C 
ATOM     28  C   UNL     1      12.591  -6.202  58.183  1.00  0.00     0.070 C 
ATOM     29  C   UNL     1      13.709  -5.912  60.463  1.00  0.00     0.042 C 
ATOM     30  C   UNL     1      11.202  -5.492  60.199  1.00  0.00     0.013 C 
ATOM     31  O   UNL     1      14.044  -7.098  56.481  1.00  0.00    -0.295 OA
ATOM     32  C   UNL     1      13.099  -4.786  57.792  1.00  0.00     0.047 C 
ATOM     33  C   UNL     1      14.154  -4.491  60.073  1.00  0.00     0.143 C 
ATOM     34  C   UNL     1      14.375  -4.390  58.553  1.00  0.00     0.143 C 
BRANCH  19  35
ATOM     35  O   UNL     1      11.700 -10.725  60.119  1.00  0.00    -0.385 OA
ATOM     36  H   UNL     1      11.121 -10.094  59.615  1.00  0.00     0.211 HD
ENDBRANCH  19  35
BRANCH  33  37
ATOM     37  O   UNL     1      15.325  -4.139  60.769  1.00  0.00    -0.390 OA
ATOM     38  H   UNL     1      15.173  -4.325  61.735  1.00  0.00     0.211 HD
ENDBRANCH  33  37
BRANCH  34  39
ATOM     39  O   UNL     1      14.726  -3.071  58.225  1.00  0.00    -0.390 OA
ATOM     40  H   UNL     1      15.079  -2.653  59.053  1.00  0.00     0.211 HD
ENDBRANCH  34  39
ENDBRANCH   1  15
BRANCH   1  41
ATOM     41  O   UNL     1      11.910 -11.522  63.278  1.00  0.00    -0.387 OA
ATOM     42  H   UNL     1      12.265 -10.740  63.773  1.00  0.00     0.211 HD
ENDBRANCH   1  41
TORSDOF 9
ENDMDL
MODEL 8
REMARK VINA RESULT:    -8.502      2.837      8.833
REMARK INTER + INTRA:         -12.771
REMARK INTER:                 -12.208
REMARK INTRA:                  -0.563
REMARK UNBOUND:                -1.039
REMARK SMILES C[C@@H]1C(=O)O[C@H](C)[C@H]1C[C@@H](O)[C@@](C)(O)[C@H]1CC[C@]2(O)C3=CC(=O)[C@@H]4C[C@@H](O)[C@H](O)C[C@]4(C)[C@@H]3CC[C@@]12C
REMARK SMILES IDX 12 1 13 2 10 3 9 4 8 5 1 6 2 7 3 8 6 9 5 10 4 11 7 12 11 13
REMARK SMILES IDX 15 15 16 16 36 17 17 18 18 19 35 20 37 21 20 22 34 23 33 24
REMARK SMILES IDX 21 25 31 26 22 27 24 28 30 29 32 30 23 31 25 32 28 33 26 34
REMARK SMILES IDX 19 35 29 37 27 39 14 41
REMARK H PARENT 11 14 19 36 29 38 27 40 14 42
REMARK Flexibility Score: inf
ROOT
ATOM      1  C   UNL     1      13.772  -6.897  61.664  1.00  0.00     0.091 C 
ATOM      2  C   UNL     1      12.696  -6.032  62.370  1.00  0.00     0.045 C 
ENDROOT
BRANCH   1   3
ATOM      3  C   UNL     1      13.915  -8.289  62.403  1.00  0.00     0.146 C 
BRANCH   3   4
ATOM      4  C   UNL     1      15.247  -8.447  63.190  1.00  0.00     0.043 C 
BRANCH   4   5
ATOM      5  C   UNL     1      15.598  -9.917  63.519  1.00  0.00     0.046 C 
ATOM      6  C   UNL     1      14.151 -11.788  62.515  1.00  0.00     0.020 C 
ATOM      7  C   UNL     1      15.378 -10.887  62.325  1.00  0.00     0.103 C 
ATOM      8  C   UNL     1      16.628 -11.683  62.329  1.00  0.00     0.309 C 
ATOM      9  C   UNL     1      17.102 -10.061  63.894  1.00  0.00     0.177 C 
ATOM     10  O   UNL     1      17.555 -11.231  63.239  1.00  0.00    -0.462 OA
ATOM     11  O   UNL     1      16.850 -12.662  61.566  1.00  0.00    -0.252 OA
ATOM     12  C   UNL     1      17.333 -10.179  65.399  1.00  0.00     0.053 C 
ENDBRANCH   4   5
ENDBRANCH   3   4
BRANCH   3  13
ATOM     13  O   UNL     1      12.802  -8.562  63.225  1.00  0.00    -0.390 OA
ATOM     14  H   UNL     1      12.923  -8.065  64.076  1.00  0.00     0.211 HD
ENDBRANCH   3  13
ENDBRANCH   1   3
BRANCH   1  15
ATOM     15  C   UNL     1      13.465  -7.129  60.123  1.00  0.00     0.032 C 
ATOM     16  C   UNL     1      14.214  -8.334  59.478  1.00  0.00     0.010 C 
ATOM     17  C   UNL     1      11.977  -7.247  59.586  1.00  0.00     0.006 C 
ATOM     18  C   UNL     1      13.205  -9.076  58.596  1.00  0.00     0.041 C 
ATOM     19  C   UNL     1      11.853  -8.747  59.238  1.00  0.00     0.092 C 
ATOM     20  C   UNL     1      10.766  -6.808  60.486  1.00  0.00     0.011 C 
ATOM     21  C   UNL     1      11.914  -6.353  58.300  1.00  0.00     0.015 C 
ATOM     22  C   UNL     1      10.571  -8.962  58.452  1.00  0.00    -0.031 C 
ATOM     23  C   UNL     1       9.481  -7.698  60.421  1.00  0.00     0.009 C 
ATOM     24  C   UNL     1       9.283  -8.697  59.217  1.00  0.00     0.025 C 
ATOM     25  C   UNL     1      10.548  -9.501  57.226  1.00  0.00     0.050 C 
ATOM     26  C   UNL     1       8.021  -8.432  58.305  1.00  0.00    -0.013 C 
ATOM     27  C   UNL     1       9.286  -9.787  56.531  1.00  0.00     0.159 C 
ATOM     28  C   UNL     1       7.943  -9.549  57.199  1.00  0.00     0.070 C 
ATOM     29  C   UNL     1       8.104  -7.034  57.625  1.00  0.00     0.042 C 
ATOM     30  C   UNL     1       6.744  -8.519  59.199  1.00  0.00     0.013 C 
ATOM     31  O   UNL     1       9.337 -10.334  55.397  1.00  0.00    -0.295 OA
ATOM     32  C   UNL     1       6.837  -9.266  56.146  1.00  0.00     0.047 C 
ATOM     33  C   UNL     1       6.968  -6.783  56.617  1.00  0.00     0.143 C 
ATOM     34  C   UNL     1       6.965  -7.865  55.523  1.00  0.00     0.143 C 
BRANCH  19  35
ATOM     35  O   UNL     1      11.759  -9.503  60.429  1.00  0.00    -0.385 OA
ATOM     36  H   UNL     1      11.989 -10.445  60.213  1.00  0.00     0.211 HD
ENDBRANCH  19  35
BRANCH  33  37
ATOM     37  O   UNL     1       7.097  -5.503  56.048  1.00  0.00    -0.390 OA
ATOM     38  H   UNL     1       8.067  -5.329  55.904  1.00  0.00     0.211 HD
ENDBRANCH  33  37
BRANCH  34  39
ATOM     39  O   UNL     1       5.886  -7.639  54.653  1.00  0.00    -0.390 OA
ATOM     40  H   UNL     1       5.619  -6.690  54.768  1.00  0.00     0.211 HD
ENDBRANCH  34  39
ENDBRANCH   1  15
BRANCH   1  41
ATOM     41  O   UNL     1      15.001  -6.214  61.785  1.00  0.00    -0.387 OA
ATOM     42  H   UNL     1      14.818  -5.245  61.884  1.00  0.00     0.211 HD
ENDBRANCH   1  41
TORSDOF 9
ENDMDL
MODEL 9
REMARK VINA RESULT:    -8.360      2.425      7.976
REMARK INTER + INTRA:         -12.576
REMARK INTER:                 -11.443
REMARK INTRA:                  -1.133
REMARK UNBOUND:                -1.039
REMARK SMILES C[C@@H]1C(=O)O[C@H](C)[C@H]1C[C@@H](O)[C@@](C)(O)[C@H]1CC[C@]2(O)C3=CC(=O)[C@@H]4C[C@@H](O)[C@H](O)C[C@]4(C)[C@@H]3CC[C@@]12C
REMARK SMILES IDX 12 1 13 2 10 3 9 4 8 5 1 6 2 7 3 8 6 9 5 10 4 11 7 12 11 13
REMARK SMILES IDX 15 15 16 16 36 17 17 18 18 19 35 20 37 21 20 22 34 23 33 24
REMARK SMILES IDX 21 25 31 26 22 27 24 28 30 29 32 30 23 31 25 32 28 33 26 34
REMARK SMILES IDX 19 35 29 37 27 39 14 41
REMARK H PARENT 11 14 19 36 29 38 27 40 14 42
REMARK Flexibility Score: inf
ROOT
ATOM      1  C   UNL     1      13.799 -12.181  63.198  1.00  0.00     0.091 C 
ATOM      2  C   UNL     1      13.234 -13.624  63.119  1.00  0.00     0.045 C 
ENDROOT
BRANCH   1   3
ATOM      3  C   UNL     1      15.211 -12.192  63.911  1.00  0.00     0.146 C 
BRANCH   3   4
ATOM      4  C   UNL     1      15.323 -11.192  65.096  1.00  0.00     0.043 C 
BRANCH   4   5
ATOM      5  C   UNL     1      16.698 -10.488  65.180  1.00  0.00     0.046 C 
ATOM      6  C   UNL     1      17.682  -9.969  67.496  1.00  0.00     0.020 C 
ATOM      7  C   UNL     1      17.579 -10.992  66.357  1.00  0.00     0.103 C 
ATOM      8  C   UNL     1      18.894 -11.196  65.704  1.00  0.00     0.309 C 
ATOM      9  C   UNL     1      17.538 -10.751  63.896  1.00  0.00     0.177 C 
ATOM     10  O   UNL     1      18.856 -11.015  64.342  1.00  0.00    -0.462 OA
ATOM     11  O   UNL     1      19.946 -11.527  66.315  1.00  0.00    -0.252 OA
ATOM     12  C   UNL     1      17.539  -9.569  62.930  1.00  0.00     0.053 C 
ENDBRANCH   4   5
ENDBRANCH   3   4
BRANCH   3  13
ATOM     13  O   UNL     1      15.588 -13.493  64.305  1.00  0.00    -0.390 OA
ATOM     14  H   UNL     1      15.005 -14.138  63.826  1.00  0.00     0.211 HD
ENDBRANCH   3  13
ENDBRANCH   1   3
BRANCH   1  15
ATOM     15  C   UNL     1      13.914 -11.484  61.776  1.00  0.00     0.032 C 
ATOM     16  C   UNL     1      13.006 -12.096  60.667  1.00  0.00     0.010 C 
ATOM     17  C   UNL     1      13.747  -9.915  61.609  1.00  0.00     0.006 C 
ATOM     18  C   UNL     1      12.382 -10.931  59.895  1.00  0.00     0.041 C 
ATOM     19  C   UNL     1      12.373  -9.786  60.914  1.00  0.00     0.092 C 
ATOM     20  C   UNL     1      13.799  -8.969  62.863  1.00  0.00     0.011 C 
ATOM     21  C   UNL     1      14.913  -9.458  60.667  1.00  0.00     0.015 C 
ATOM     22  C   UNL     1      12.200  -8.353  60.439  1.00  0.00    -0.031 C 
ATOM     23  C   UNL     1      12.799  -7.766  62.880  1.00  0.00     0.009 C 
ATOM     24  C   UNL     1      12.108  -7.306  61.539  1.00  0.00     0.025 C 
ATOM     25  C   UNL     1      11.978  -8.030  59.158  1.00  0.00     0.050 C 
ATOM     26  C   UNL     1      12.429  -5.832  61.071  1.00  0.00    -0.013 C 
ATOM     27  C   UNL     1      11.716  -6.645  58.744  1.00  0.00     0.159 C 
ATOM     28  C   UNL     1      11.615  -5.521  59.761  1.00  0.00     0.070 C 
ATOM     29  C   UNL     1      13.950  -5.651  60.792  1.00  0.00     0.042 C 
ATOM     30  C   UNL     1      11.968  -4.851  62.194  1.00  0.00     0.013 C 
ATOM     31  O   UNL     1      11.473  -6.419  57.529  1.00  0.00    -0.295 OA
ATOM     32  C   UNL     1      12.007  -4.157  59.127  1.00  0.00     0.047 C 
ATOM     33  C   UNL     1      14.296  -4.273  60.200  1.00  0.00     0.143 C 
ATOM     34  C   UNL     1      13.522  -4.035  58.891  1.00  0.00     0.143 C 
BRANCH  19  35
ATOM     35  O   UNL     1      11.345 -10.059  61.843  1.00  0.00    -0.385 OA
ATOM     36  H   UNL     1      11.550 -10.925  62.283  1.00  0.00     0.211 HD
ENDBRANCH  19  35
BRANCH  33  37
ATOM     37  O   UNL     1      15.683  -4.172  59.982  1.00  0.00    -0.390 OA
ATOM     38  H   UNL     1      16.004  -3.346  60.434  1.00  0.00     0.211 HD
ENDBRANCH  33  37
BRANCH  34  39
ATOM     39  O   UNL     1      13.818  -2.751  58.408  1.00  0.00    -0.390 OA
ATOM     40  H   UNL     1      13.095  -2.509  57.773  1.00  0.00     0.211 HD
ENDBRANCH  34  39
ENDBRANCH   1  15
BRANCH   1  41
ATOM     41  O   UNL     1      12.914 -11.431  64.001  1.00  0.00    -0.387 OA
ATOM     42  H   UNL     1      13.154 -11.569  64.953  1.00  0.00     0.211 HD
ENDBRANCH   1  41
TORSDOF 9
ENDMDL
