MODEL 1
REMARK VINA RESULT:    -3.312      0.000      0.000
REMARK INTER + INTRA:          -7.598
REMARK INTER:                  -5.830
REMARK INTRA:                  -1.768
REMARK UNBOUND:                -1.768
REMARK SMILES CCCCCCCCCCCCCCC(=O)[O-]
REMARK SMILES IDX 9 1 10 2 11 3 12 4 13 5 14 6 15 7 16 8 17 9 8 10 7 11 6 12
REMARK SMILES IDX 5 13 4 14 3 15 2 16 1 17
REMARK H PARENT
REMARK Flexibility Score: inf
ROOT
ATOM      1  C   UNL     1     168.260 170.901 154.093  1.00  0.00     0.000 C 
ENDROOT
BRANCH   1   2
ATOM      2  C   UNL     1     168.307 170.877 152.557  1.00  0.00     0.000 C 
BRANCH   2   3
ATOM      3  C   UNL     1     168.340 169.450 151.986  1.00  0.00     0.000 C 
BRANCH   3   4
ATOM      4  C   UNL     1     169.512 169.277 151.008  1.00  0.00     0.000 C 
BRANCH   4   5
ATOM      5  C   UNL     1     170.094 170.619 150.529  1.00  0.00     0.006 C 
BRANCH   5   6
ATOM      6  C   UNL     1     170.928 170.525 149.241  1.00  0.00     0.053 C 
BRANCH   6   7
ATOM      7  C   UNL     1     170.093 170.138 148.059  1.00  0.00     0.041 C 
ATOM      8  O   UNL     1     170.406 169.138 147.362  1.00  0.00    -0.550 OA
ATOM      9  O   UNL     1     168.950 170.865 147.749  1.00  0.00    -0.550 OA
ENDBRANCH   6   7
ENDBRANCH   5   6
ENDBRANCH   4   5
ENDBRANCH   3   4
ENDBRANCH   2   3
ENDBRANCH   1   2
BRANCH   1  10
ATOM     10  C   UNL     1     167.584 169.651 154.684  1.00  0.00     0.000 C 
BRANCH  10  11
ATOM     11  C   UNL     1     166.363 169.996 155.553  1.00  0.00    -0.000 C 
BRANCH  11  12
ATOM     12  C   UNL     1     165.179 170.525 154.724  1.00  0.00    -0.000 C 
BRANCH  12  13
ATOM     13  C   UNL     1     164.901 169.666 153.479  1.00  0.00    -0.000 C 
BRANCH  13  14
ATOM     14  C   UNL     1     164.535 170.507 152.247  1.00  0.00    -0.000 C 
BRANCH  14  15
ATOM     15  C   UNL     1     164.605 169.665 150.968  1.00  0.00    -0.000 C 
BRANCH  15  16
ATOM     16  C   UNL     1     165.446 170.364 149.894  1.00  0.00    -0.003 C 
ATOM     17  C   UNL     1     165.967 169.365 148.865  1.00  0.00     0.004 C 
ENDBRANCH  15  16
ENDBRANCH  14  15
ENDBRANCH  13  14
ENDBRANCH  12  13
ENDBRANCH  11  12
ENDBRANCH  10  11
ENDBRANCH   1  10
TORSDOF 13
ENDMDL
MODEL 2
REMARK VINA RESULT:    -3.223      3.697      5.904
REMARK INTER + INTRA:          -7.441
REMARK INTER:                  -5.590
REMARK INTRA:                  -1.850
REMARK UNBOUND:                -1.768
REMARK SMILES CCCCCCCCCCCCCCC(=O)[O-]
REMARK SMILES IDX 9 1 10 2 11 3 12 4 13 5 14 6 15 7 16 8 17 9 8 10 7 11 6 12
REMARK SMILES IDX 5 13 4 14 3 15 2 16 1 17
REMARK H PARENT
REMARK Flexibility Score: inf
ROOT
ATOM      1  C   UNL     1     168.992 170.802 150.705  1.00  0.00     0.000 C 
ENDROOT
BRANCH   1   2
ATOM      2  C   UNL     1     169.111 169.345 151.179  1.00  0.00     0.000 C 
BRANCH   2   3
ATOM      3  C   UNL     1     168.034 168.964 152.208  1.00  0.00     0.000 C 
BRANCH   3   4
ATOM      4  C   UNL     1     167.830 170.091 153.231  1.00  0.00     0.000 C 
BRANCH   4   5
ATOM      5  C   UNL     1     167.244 169.590 154.564  1.00  0.00     0.006 C 
BRANCH   5   6
ATOM      6  C   UNL     1     166.508 170.667 155.377  1.00  0.00     0.053 C 
BRANCH   6   7
ATOM      7  C   UNL     1     165.414 170.085 156.218  1.00  0.00     0.041 C 
ATOM      8  O   UNL     1     165.675 169.198 157.073  1.00  0.00    -0.550 OA
ATOM      9  O   UNL     1     164.111 170.546 156.079  1.00  0.00    -0.550 OA
ENDBRANCH   6   7
ENDBRANCH   5   6
ENDBRANCH   4   5
ENDBRANCH   3   4
ENDBRANCH   2   3
ENDBRANCH   1   2
BRANCH   1  10
ATOM     10  C   UNL     1     167.896 170.990 149.641  1.00  0.00     0.000 C 
BRANCH  10  11
ATOM     11  C   UNL     1     167.902 169.873 148.584  1.00  0.00    -0.000 C 
BRANCH  11  12
ATOM     12  C   UNL     1     166.566 169.112 148.522  1.00  0.00    -0.000 C 
BRANCH  12  13
ATOM     13  C   UNL     1     165.408 169.900 149.158  1.00  0.00    -0.000 C 
BRANCH  13  14
ATOM     14  C   UNL     1     164.773 169.165 150.348  1.00  0.00    -0.000 C 
BRANCH  14  15
ATOM     15  C   UNL     1     164.499 170.132 151.506  1.00  0.00    -0.000 C 
BRANCH  15  16
ATOM     16  C   UNL     1     163.950 169.386 152.727  1.00  0.00    -0.003 C 
ATOM     17  C   UNL     1     162.494 169.759 152.993  1.00  0.00     0.004 C 
ENDBRANCH  15  16
ENDBRANCH  14  15
ENDBRANCH  13  14
ENDBRANCH  12  13
ENDBRANCH  11  12
ENDBRANCH  10  11
ENDBRANCH   1  10
TORSDOF 13
ENDMDL
MODEL 3
REMARK VINA RESULT:    -3.116      2.913      5.196
REMARK INTER + INTRA:          -7.252
REMARK INTER:                  -5.222
REMARK INTRA:                  -2.029
REMARK UNBOUND:                -1.768
REMARK SMILES CCCCCCCCCCCCCCC(=O)[O-]
REMARK SMILES IDX 9 1 10 2 11 3 12 4 13 5 14 6 15 7 16 8 17 9 8 10 7 11 6 12
REMARK SMILES IDX 5 13 4 14 3 15 2 16 1 17
REMARK H PARENT
REMARK Flexibility Score: inf
ROOT
ATOM      1  C   UNL     1     165.349 170.853 152.878  1.00  0.00     0.000 C 
ENDROOT
BRANCH   1   2
ATOM      2  C   UNL     1     164.655 170.837 151.506  1.00  0.00     0.000 C 
BRANCH   2   3
ATOM      3  C   UNL     1     165.638 171.033 150.340  1.00  0.00     0.000 C 
BRANCH   3   4
ATOM      4  C   UNL     1     165.360 170.027 149.214  1.00  0.00     0.000 C 
BRANCH   4   5
ATOM      5  C   UNL     1     165.607 168.569 149.640  1.00  0.00     0.006 C 
BRANCH   5   6
ATOM      6  C   UNL     1     164.361 167.671 149.578  1.00  0.00     0.053 C 
BRANCH   6   7
ATOM      7  C   UNL     1     163.967 167.162 150.931  1.00  0.00     0.041 C 
ATOM      8  O   UNL     1     164.786 166.501 151.622  1.00  0.00    -0.550 OA
ATOM      9  O   UNL     1     162.707 167.448 151.441  1.00  0.00    -0.550 OA
ENDBRANCH   6   7
ENDBRANCH   5   6
ENDBRANCH   4   5
ENDBRANCH   3   4
ENDBRANCH   2   3
ENDBRANCH   1   2
BRANCH   1  10
ATOM     10  C   UNL     1     165.753 169.445 153.352  1.00  0.00     0.000 C 
BRANCH  10  11
ATOM     11  C   UNL     1     167.270 169.208 153.270  1.00  0.00    -0.000 C 
BRANCH  11  12
ATOM     12  C   UNL     1     168.064 170.516 153.112  1.00  0.00    -0.000 C 
BRANCH  12  13
ATOM     13  C   UNL     1     168.977 170.506 151.874  1.00  0.00    -0.000 C 
BRANCH  13  14
ATOM     14  C   UNL     1     169.043 169.129 151.195  1.00  0.00    -0.000 C 
BRANCH  14  15
ATOM     15  C   UNL     1     169.156 169.273 149.673  1.00  0.00    -0.000 C 
BRANCH  15  16
ATOM     16  C   UNL     1     170.567 169.713 149.265  1.00  0.00    -0.003 C 
ATOM     17  C   UNL     1     171.626 168.779 149.844  1.00  0.00     0.004 C 
ENDBRANCH  15  16
ENDBRANCH  14  15
ENDBRANCH  13  14
ENDBRANCH  12  13
ENDBRANCH  11  12
ENDBRANCH  10  11
ENDBRANCH   1  10
TORSDOF 13
ENDMDL
MODEL 4
REMARK VINA RESULT:    -3.110      3.474      6.027
REMARK INTER + INTRA:          -7.241
REMARK INTER:                  -5.394
REMARK INTRA:                  -1.847
REMARK UNBOUND:                -1.768
REMARK SMILES CCCCCCCCCCCCCCC(=O)[O-]
REMARK SMILES IDX 9 1 10 2 11 3 12 4 13 5 14 6 15 7 16 8 17 9 8 10 7 11 6 12
REMARK SMILES IDX 5 13 4 14 3 15 2 16 1 17
REMARK H PARENT
REMARK Flexibility Score: inf
ROOT
ATOM      1  C   UNL     1     168.231 169.247 152.172  1.00  0.00     0.000 C 
ENDROOT
BRANCH   1   2
ATOM      2  C   UNL     1     168.006 170.620 152.826  1.00  0.00     0.000 C 
BRANCH   2   3
ATOM      3  C   UNL     1     167.989 170.551 154.362  1.00  0.00     0.000 C 
BRANCH   3   4
ATOM      4  C   UNL     1     166.675 171.116 154.921  1.00  0.00     0.000 C 
BRANCH   4   5
ATOM      5  C   UNL     1     165.941 170.123 155.841  1.00  0.00     0.006 C 
BRANCH   5   6
ATOM      6  C   UNL     1     164.419 170.326 155.906  1.00  0.00     0.053 C 
BRANCH   6   7
ATOM      7  C   UNL     1     163.680 169.289 155.117  1.00  0.00     0.041 C 
ATOM      8  O   UNL     1     162.588 169.576 154.560  1.00  0.00    -0.550 OA
ATOM      9  O   UNL     1     164.215 168.016 154.971  1.00  0.00    -0.550 OA
ENDBRANCH   6   7
ENDBRANCH   5   6
ENDBRANCH   4   5
ENDBRANCH   3   4
ENDBRANCH   2   3
ENDBRANCH   1   2
BRANCH   1  10
ATOM     10  C   UNL     1     169.003 169.343 150.844  1.00  0.00     0.000 C 
BRANCH  10  11
ATOM     11  C   UNL     1     168.384 170.363 149.874  1.00  0.00    -0.000 C 
BRANCH  11  12
ATOM     12  C   UNL     1     168.059 169.749 148.501  1.00  0.00    -0.000 C 
BRANCH  12  13
ATOM     13  C   UNL     1     166.760 168.927 148.515  1.00  0.00    -0.000 C 
BRANCH  13  14
ATOM     14  C   UNL     1     165.625 169.622 149.283  1.00  0.00    -0.000 C 
BRANCH  14  15
ATOM     15  C   UNL     1     164.945 168.650 150.254  1.00  0.00    -0.000 C 
BRANCH  15  16
ATOM     16  C   UNL     1     164.564 169.355 151.561  1.00  0.00    -0.003 C 
ATOM     17  C   UNL     1     164.588 170.872 151.397  1.00  0.00     0.004 C 
ENDBRANCH  15  16
ENDBRANCH  14  15
ENDBRANCH  13  14
ENDBRANCH  12  13
ENDBRANCH  11  12
ENDBRANCH  10  11
ENDBRANCH   1  10
TORSDOF 13
ENDMDL
MODEL 5
REMARK VINA RESULT:    -3.090      1.582      2.480
REMARK INTER + INTRA:          -7.206
REMARK INTER:                  -5.173
REMARK INTRA:                  -2.032
REMARK UNBOUND:                -1.768
REMARK SMILES CCCCCCCCCCCCCCC(=O)[O-]
REMARK SMILES IDX 9 1 10 2 11 3 12 4 13 5 14 6 15 7 16 8 17 9 8 10 7 11 6 12
REMARK SMILES IDX 5 13 4 14 3 15 2 16 1 17
REMARK H PARENT
REMARK Flexibility Score: inf
ROOT
ATOM      1  C   UNL     1     168.135 169.437 152.281  1.00  0.00     0.000 C 
ENDROOT
BRANCH   1   2
ATOM      2  C   UNL     1     168.832 170.807 152.294  1.00  0.00     0.000 C 
BRANCH   2   3
ATOM      3  C   UNL     1     169.542 171.125 150.968  1.00  0.00     0.000 C 
BRANCH   3   4
ATOM      4  C   UNL     1     169.353 169.984 149.957  1.00  0.00     0.000 C 
BRANCH   4   5
ATOM      5  C   UNL     1     168.908 170.482 148.570  1.00  0.00     0.006 C 
BRANCH   5   6
ATOM      6  C   UNL     1     169.576 169.756 147.392  1.00  0.00     0.053 C 
BRANCH   6   7
ATOM      7  C   UNL     1     171.070 169.843 147.453  1.00  0.00     0.041 C 
ATOM      8  O   UNL     1     171.644 170.959 147.349  1.00  0.00    -0.550 OA
ATOM      9  O   UNL     1     171.825 168.696 147.657  1.00  0.00    -0.550 OA
ENDBRANCH   6   7
ENDBRANCH   5   6
ENDBRANCH   4   5
ENDBRANCH   3   4
ENDBRANCH   2   3
ENDBRANCH   1   2
BRANCH   1  10
ATOM     10  C   UNL     1     166.758 169.467 152.969  1.00  0.00     0.000 C 
BRANCH  10  11
ATOM     11  C   UNL     1     166.091 170.851 152.894  1.00  0.00    -0.000 C 
BRANCH  11  12
ATOM     12  C   UNL     1     164.968 170.908 151.843  1.00  0.00    -0.000 C 
BRANCH  12  13
ATOM     13  C   UNL     1     165.504 171.125 150.418  1.00  0.00    -0.000 C 
BRANCH  13  14
ATOM     14  C   UNL     1     164.941 170.111 149.411  1.00  0.00    -0.000 C 
BRANCH  14  15
ATOM     15  C   UNL     1     165.824 168.860 149.341  1.00  0.00    -0.000 C 
BRANCH  15  16
ATOM     16  C   UNL     1     165.183 167.690 150.097  1.00  0.00    -0.003 C 
ATOM     17  C   UNL     1     163.754 167.444 149.623  1.00  0.00     0.004 C 
ENDBRANCH  15  16
ENDBRANCH  14  15
ENDBRANCH  13  14
ENDBRANCH  12  13
ENDBRANCH  11  12
ENDBRANCH  10  11
ENDBRANCH   1  10
TORSDOF 13
ENDMDL
MODEL 6
REMARK VINA RESULT:    -3.013     15.629     17.089
REMARK INTER + INTRA:          -7.071
REMARK INTER:                  -4.733
REMARK INTRA:                  -2.339
REMARK UNBOUND:                -1.768
REMARK SMILES CCCCCCCCCCCCCCC(=O)[O-]
REMARK SMILES IDX 9 1 10 2 11 3 12 4 13 5 14 6 15 7 16 8 17 9 8 10 7 11 6 12
REMARK SMILES IDX 5 13 4 14 3 15 2 16 1 17
REMARK H PARENT
REMARK Flexibility Score: inf
ROOT
ATOM      1  C   UNL     1     169.358 154.617 150.659  1.00  0.00     0.000 C 
ENDROOT
BRANCH   1   2
ATOM      2  C   UNL     1     170.041 155.310 151.849  1.00  0.00     0.000 C 
BRANCH   2   3
ATOM      3  C   UNL     1     170.274 156.810 151.610  1.00  0.00     0.000 C 
BRANCH   3   4
ATOM      4  C   UNL     1     171.482 157.312 152.414  1.00  0.00     0.000 C 
BRANCH   4   5
ATOM      5  C   UNL     1     172.285 156.170 153.064  1.00  0.00     0.006 C 
BRANCH   5   6
ATOM      6  C   UNL     1     172.587 156.377 154.556  1.00  0.00     0.053 C 
BRANCH   6   7
ATOM      7  C   UNL     1     171.621 155.641 155.432  1.00  0.00     0.041 C 
ATOM      8  O   UNL     1     172.022 154.705 156.172  1.00  0.00    -0.550 OA
ATOM      9  O   UNL     1     170.282 156.012 155.455  1.00  0.00    -0.550 OA
ENDBRANCH   6   7
ENDBRANCH   5   6
ENDBRANCH   4   5
ENDBRANCH   3   4
ENDBRANCH   2   3
ENDBRANCH   1   2
BRANCH   1  10
ATOM     10  C   UNL     1     170.171 153.427 150.120  1.00  0.00     0.000 C 
BRANCH  10  11
ATOM     11  C   UNL     1     171.684 153.601 150.336  1.00  0.00    -0.000 C 
BRANCH  11  12
ATOM     12  C   UNL     1     172.339 152.355 150.958  1.00  0.00    -0.000 C 
BRANCH  12  13
ATOM     13  C   UNL     1     172.868 152.614 152.378  1.00  0.00    -0.000 C 
BRANCH  13  14
ATOM     14  C   UNL     1     171.827 152.310 153.465  1.00  0.00    -0.000 C 
BRANCH  14  15
ATOM     15  C   UNL     1     170.855 151.218 153.003  1.00  0.00    -0.000 C 
BRANCH  15  16
ATOM     16  C   UNL     1     169.447 151.464 153.558  1.00  0.00    -0.003 C 
ATOM     17  C   UNL     1     169.388 152.762 154.360  1.00  0.00     0.004 C 
ENDBRANCH  15  16
ENDBRANCH  14  15
ENDBRANCH  13  14
ENDBRANCH  12  13
ENDBRANCH  11  12
ENDBRANCH  10  11
ENDBRANCH   1  10
TORSDOF 13
ENDMDL
MODEL 7
REMARK VINA RESULT:    -3.009     15.907     17.009
REMARK INTER + INTRA:          -7.063
REMARK INTER:                  -4.758
REMARK INTRA:                  -2.305
REMARK UNBOUND:                -1.768
REMARK SMILES CCCCCCCCCCCCCCC(=O)[O-]
REMARK SMILES IDX 9 1 10 2 11 3 12 4 13 5 14 6 15 7 16 8 17 9 8 10 7 11 6 12
REMARK SMILES IDX 5 13 4 14 3 15 2 16 1 17
REMARK H PARENT
REMARK Flexibility Score: inf
ROOT
ATOM      1  C   UNL     1     170.054 153.132 156.158  1.00  0.00     0.000 C 
ENDROOT
BRANCH   1   2
ATOM      2  C   UNL     1     170.825 151.953 155.541  1.00  0.00     0.000 C 
BRANCH   2   3
ATOM      3  C   UNL     1     172.332 152.011 155.836  1.00  0.00     0.000 C 
BRANCH   3   4
ATOM      4  C   UNL     1     173.124 152.385 154.574  1.00  0.00     0.000 C 
BRANCH   4   5
ATOM      5  C   UNL     1     172.253 152.403 153.305  1.00  0.00     0.006 C 
BRANCH   5   6
ATOM      6  C   UNL     1     172.946 152.997 152.069  1.00  0.00     0.053 C 
BRANCH   6   7
ATOM      7  C   UNL     1     172.280 152.575 150.795  1.00  0.00     0.041 C 
ATOM      8  O   UNL     1     172.261 151.360 150.462  1.00  0.00    -0.550 OA
ATOM      9  O   UNL     1     171.652 153.519 149.994  1.00  0.00    -0.550 OA
ENDBRANCH   6   7
ENDBRANCH   5   6
ENDBRANCH   4   5
ENDBRANCH   3   4
ENDBRANCH   2   3
ENDBRANCH   1   2
BRANCH   1  10
ATOM     10  C   UNL     1     170.965 154.085 156.952  1.00  0.00     0.000 C 
BRANCH  10  11
ATOM     11  C   UNL     1     171.099 155.465 156.287  1.00  0.00    -0.000 C 
BRANCH  11  12
ATOM     12  C   UNL     1     172.554 155.804 155.920  1.00  0.00    -0.000 C 
BRANCH  12  13
ATOM     13  C   UNL     1     172.744 156.038 154.412  1.00  0.00    -0.000 C 
BRANCH  13  14
ATOM     14  C   UNL     1     171.535 156.728 153.762  1.00  0.00    -0.000 C 
BRANCH  14  15
ATOM     15  C   UNL     1     171.504 156.470 152.251  1.00  0.00    -0.000 C 
BRANCH  15  16
ATOM     16  C   UNL     1     170.147 155.905 151.816  1.00  0.00    -0.003 C 
ATOM     17  C   UNL     1     169.571 154.974 152.880  1.00  0.00     0.004 C 
ENDBRANCH  15  16
ENDBRANCH  14  15
ENDBRANCH  13  14
ENDBRANCH  12  13
ENDBRANCH  11  12
ENDBRANCH  10  11
ENDBRANCH   1  10
TORSDOF 13
ENDMDL
MODEL 8
REMARK VINA RESULT:    -3.006      4.009      6.230
REMARK INTER + INTRA:          -7.058
REMARK INTER:                  -5.241
REMARK INTRA:                  -1.817
REMARK UNBOUND:                -1.768
REMARK SMILES CCCCCCCCCCCCCCC(=O)[O-]
REMARK SMILES IDX 9 1 10 2 11 3 12 4 13 5 14 6 15 7 16 8 17 9 8 10 7 11 6 12
REMARK SMILES IDX 5 13 4 14 3 15 2 16 1 17
REMARK H PARENT
REMARK Flexibility Score: inf
ROOT
ATOM      1  C   UNL     1     167.518 170.038 154.850  1.00  0.00     0.000 C 
ENDROOT
BRANCH   1   2
ATOM      2  C   UNL     1     166.149 170.559 155.318  1.00  0.00     0.000 C 
BRANCH   2   3
ATOM      3  C   UNL     1     165.146 170.710 154.163  1.00  0.00     0.000 C 
BRANCH   3   4
ATOM      4  C   UNL     1     164.697 169.336 153.643  1.00  0.00     0.000 C 
BRANCH   4   5
ATOM      5  C   UNL     1     163.222 169.315 153.204  1.00  0.00     0.006 C 
BRANCH   5   6
ATOM      6  C   UNL     1     162.219 169.176 154.360  1.00  0.00     0.053 C 
BRANCH   6   7
ATOM      7  C   UNL     1     161.022 170.058 154.174  1.00  0.00     0.041 C 
ATOM      8  O   UNL     1     160.267 170.314 155.148  1.00  0.00    -0.550 OA
ATOM      9  O   UNL     1     160.762 170.623 152.933  1.00  0.00    -0.550 OA
ENDBRANCH   6   7
ENDBRANCH   5   6
ENDBRANCH   4   5
ENDBRANCH   3   4
ENDBRANCH   2   3
ENDBRANCH   1   2
BRANCH   1  10
ATOM     10  C   UNL     1     168.354 171.121 154.145  1.00  0.00     0.000 C 
BRANCH  10  11
ATOM     11  C   UNL     1     168.494 170.867 152.634  1.00  0.00    -0.000 C 
BRANCH  11  12
ATOM     12  C   UNL     1     168.266 169.392 152.261  1.00  0.00    -0.000 C 
BRANCH  12  13
ATOM     13  C   UNL     1     167.389 169.229 151.009  1.00  0.00    -0.000 C 
BRANCH  13  14
ATOM     14  C   UNL     1     166.583 170.494 150.679  1.00  0.00    -0.000 C 
BRANCH  14  15
ATOM     15  C   UNL     1     165.274 170.140 149.963  1.00  0.00    -0.000 C 
BRANCH  15  16
ATOM     16  C   UNL     1     165.025 168.628 149.988  1.00  0.00    -0.003 C 
ATOM     17  C   UNL     1     165.027 168.045 148.578  1.00  0.00     0.004 C 
ENDBRANCH  15  16
ENDBRANCH  14  15
ENDBRANCH  13  14
ENDBRANCH  12  13
ENDBRANCH  11  12
ENDBRANCH  10  11
ENDBRANCH   1  10
TORSDOF 13
ENDMDL
MODEL 9
REMARK VINA RESULT:    -2.975      1.548      2.251
REMARK INTER + INTRA:          -7.004
REMARK INTER:                  -5.008
REMARK INTRA:                  -1.997
REMARK UNBOUND:                -1.768
REMARK SMILES CCCCCCCCCCCCCCC(=O)[O-]
REMARK SMILES IDX 9 1 10 2 11 3 12 4 13 5 14 6 15 7 16 8 17 9 8 10 7 11 6 12
REMARK SMILES IDX 5 13 4 14 3 15 2 16 1 17
REMARK H PARENT
REMARK Flexibility Score: inf
ROOT
ATOM      1  C   UNL     1     166.671 169.884 155.606  1.00  0.00     0.000 C 
ENDROOT
BRANCH   1   2
ATOM      2  C   UNL     1     167.450 170.688 154.552  1.00  0.00     0.000 C 
BRANCH   2   3
ATOM      3  C   UNL     1     167.766 169.865 153.292  1.00  0.00     0.000 C 
BRANCH   3   4
ATOM      4  C   UNL     1     167.396 170.644 152.022  1.00  0.00     0.000 C 
BRANCH   4   5
ATOM      5  C   UNL     1     168.221 170.215 150.795  1.00  0.00     0.006 C 
BRANCH   5   6
ATOM      6  C   UNL     1     169.282 169.142 151.089  1.00  0.00     0.053 C 
BRANCH   6   7
ATOM      7  C   UNL     1     170.459 169.250 150.169  1.00  0.00     0.041 C 
ATOM      8  O   UNL     1     171.427 168.452 150.282  1.00  0.00    -0.550 OA
ATOM      9  O   UNL     1     170.471 170.212 149.167  1.00  0.00    -0.550 OA
ENDBRANCH   6   7
ENDBRANCH   5   6
ENDBRANCH   4   5
ENDBRANCH   3   4
ENDBRANCH   2   3
ENDBRANCH   1   2
BRANCH   1  10
ATOM     10  C   UNL     1     165.171 170.229 155.625  1.00  0.00     0.000 C 
BRANCH  10  11
ATOM     11  C   UNL     1     164.342 169.304 154.718  1.00  0.00    -0.000 C 
BRANCH  11  12
ATOM     12  C   UNL     1     163.902 169.995 153.415  1.00  0.00    -0.000 C 
BRANCH  12  13
ATOM     13  C   UNL     1     163.685 169.000 152.263  1.00  0.00    -0.000 C 
BRANCH  13  14
ATOM     14  C   UNL     1     164.726 167.871 152.249  1.00  0.00    -0.000 C 
BRANCH  14  15
ATOM     15  C   UNL     1     165.387 167.752 150.871  1.00  0.00    -0.000 C 
BRANCH  15  16
ATOM     16  C   UNL     1     164.825 168.796 149.899  1.00  0.00    -0.003 C 
ATOM     17  C   UNL     1     165.571 168.770 148.568  1.00  0.00     0.004 C 
ENDBRANCH  15  16
ENDBRANCH  14  15
ENDBRANCH  13  14
ENDBRANCH  12  13
ENDBRANCH  11  12
ENDBRANCH  10  11
ENDBRANCH   1  10
TORSDOF 13
ENDMDL
