MODEL 1
REMARK VINA RESULT:    -2.912      0.000      0.000
REMARK INTER + INTRA:          -4.461
REMARK INTER:                  -3.933
REMARK INTRA:                  -0.528
REMARK UNBOUND:                -0.528
REMARK SMILES [NH3+]CCCC[C@@H]([NH3+])C(=O)[O-]
REMARK SMILES IDX 4 1 3 2 2 3 1 4 5 8 6 9 7 10 8 14 9 15 10 16
REMARK H PARENT 1 5 1 6 1 7 7 11 7 12 7 13
REMARK Flexibility Score: inf
ROOT
ATOM      1  C   UNL     1      29.688   5.525   1.430  1.00  0.00     0.012 C 
ENDROOT
BRANCH   1   2
ATOM      2  C   UNL     1      28.618   6.344   0.688  1.00  0.00     0.061 C 
BRANCH   2   3
ATOM      3  C   UNL     1      28.172   7.584   1.480  1.00  0.00     0.258 C 
BRANCH   3   4
ATOM      4  N   UNL     1      29.111   7.916   2.554  1.00  0.00    -0.358 N 
ATOM      5  H   UNL     1      29.544   8.846   2.351  1.00  0.00     0.344 HD
ATOM      6  H   UNL     1      29.873   7.203   2.605  1.00  0.00     0.344 HD
ATOM      7  H   UNL     1      28.611   7.972   3.471  1.00  0.00     0.344 HD
ENDBRANCH   3   4
ENDBRANCH   2   3
ENDBRANCH   1   2
BRANCH   1   8
ATOM      8  C   UNL     1      31.004   5.407   0.636  1.00  0.00     0.072 C 
BRANCH   8   9
ATOM      9  C   UNL     1      32.181   6.212   1.233  1.00  0.00     0.227 C 
BRANCH   9  10
ATOM     10  N   UNL     1      33.443   5.489   1.036  1.00  0.00    -0.350 N 
ATOM     11  H   UNL     1      34.087   6.029   0.414  1.00  0.00     0.345 HD
ATOM     12  H   UNL     1      33.909   5.331   1.960  1.00  0.00     0.345 HD
ATOM     13  H   UNL     1      33.252   4.556   0.603  1.00  0.00     0.345 HD
ENDBRANCH   9  10
BRANCH   9  14
ATOM     14  C   UNL     1      32.273   7.583   0.612  1.00  0.00     0.099 C 
ATOM     15  O   UNL     1      31.632   8.545   1.109  1.00  0.00    -0.544 OA
ATOM     16  O   UNL     1      33.057   7.791  -0.516  1.00  0.00    -0.544 OA
ENDBRANCH   9  14
ENDBRANCH   8   9
ENDBRANCH   1   8
TORSDOF 7
ENDMDL
MODEL 2
REMARK VINA RESULT:    -2.786      0.775      1.284
REMARK INTER + INTRA:          -4.291
REMARK INTER:                  -4.085
REMARK INTRA:                  -0.205
REMARK UNBOUND:                -0.528
REMARK SMILES [NH3+]CCCC[C@@H]([NH3+])C(=O)[O-]
REMARK SMILES IDX 4 1 3 2 2 3 1 4 5 8 6 9 7 10 8 14 9 15 10 16
REMARK H PARENT 1 5 1 6 1 7 7 11 7 12 7 13
REMARK Flexibility Score: inf
ROOT
ATOM      1  C   UNL     1      29.871   5.253   1.229  1.00  0.00     0.012 C 
ENDROOT
BRANCH   1   2
ATOM      2  C   UNL     1      28.723   6.069   0.610  1.00  0.00     0.061 C 
BRANCH   2   3
ATOM      3  C   UNL     1      28.407   7.342   1.414  1.00  0.00     0.258 C 
BRANCH   3   4
ATOM      4  N   UNL     1      26.980   7.459   1.721  1.00  0.00    -0.358 N 
ATOM      5  H   UNL     1      26.444   6.813   1.097  1.00  0.00     0.344 HD
ATOM      6  H   UNL     1      26.649   8.435   1.545  1.00  0.00     0.344 HD
ATOM      7  H   UNL     1      26.798   7.193   2.716  1.00  0.00     0.344 HD
ENDBRANCH   3   4
ENDBRANCH   2   3
ENDBRANCH   1   2
BRANCH   1   8
ATOM      8  C   UNL     1      31.169   5.328   0.401  1.00  0.00     0.072 C 
BRANCH   8   9
ATOM      9  C   UNL     1      32.300   6.147   1.066  1.00  0.00     0.227 C 
BRANCH   9  10
ATOM     10  N   UNL     1      33.594   5.486   0.860  1.00  0.00    -0.350 N 
ATOM     11  H   UNL     1      33.835   4.879   1.677  1.00  0.00     0.345 HD
ATOM     12  H   UNL     1      33.559   4.898  -0.006  1.00  0.00     0.345 HD
ATOM     13  H   UNL     1      34.344   6.205   0.735  1.00  0.00     0.345 HD
ENDBRANCH   9  10
BRANCH   9  14
ATOM     14  C   UNL     1      32.349   7.551   0.519  1.00  0.00     0.099 C 
ATOM     15  O   UNL     1      33.046   7.808  -0.498  1.00  0.00    -0.544 OA
ATOM     16  O   UNL     1      31.635   8.570   1.136  1.00  0.00    -0.544 OA
ENDBRANCH   9  14
ENDBRANCH   8   9
ENDBRANCH   1   8
TORSDOF 7
ENDMDL
MODEL 3
REMARK VINA RESULT:    -2.703     14.150     14.889
REMARK INTER + INTRA:          -4.179
REMARK INTER:                  -4.044
REMARK INTRA:                  -0.135
REMARK UNBOUND:                -0.528
REMARK SMILES [NH3+]CCCC[C@@H]([NH3+])C(=O)[O-]
REMARK SMILES IDX 4 1 3 2 2 3 1 4 5 8 6 9 7 10 8 14 9 15 10 16
REMARK H PARENT 1 5 1 6 1 7 7 11 7 12 7 13
REMARK Flexibility Score: inf
ROOT
ATOM      1  C   UNL     1      43.561  10.288   8.215  1.00  0.00     0.012 C 
ENDROOT
BRANCH   1   2
ATOM      2  C   UNL     1      42.530  11.426   8.129  1.00  0.00     0.061 C 
BRANCH   2   3
ATOM      3  C   UNL     1      42.154  11.769   6.677  1.00  0.00     0.258 C 
BRANCH   3   4
ATOM      4  N   UNL     1      43.278  12.352   5.940  1.00  0.00    -0.358 N 
ATOM      5  H   UNL     1      43.101  12.248   4.914  1.00  0.00     0.344 HD
ATOM      6  H   UNL     1      44.165  11.849   6.173  1.00  0.00     0.344 HD
ATOM      7  H   UNL     1      43.373  13.368   6.164  1.00  0.00     0.344 HD
ENDBRANCH   3   4
ENDBRANCH   2   3
ENDBRANCH   1   2
BRANCH   1   8
ATOM      8  C   UNL     1      43.131   9.167   9.180  1.00  0.00     0.072 C 
BRANCH   8   9
ATOM      9  C   UNL     1      42.913   7.793   8.503  1.00  0.00     0.227 C 
BRANCH   9  10
ATOM     10  N   UNL     1      42.955   7.934   7.043  1.00  0.00    -0.350 N 
ATOM     11  H   UNL     1      42.139   7.452   6.599  1.00  0.00     0.345 HD
ATOM     12  H   UNL     1      42.938   8.948   6.783  1.00  0.00     0.345 HD
ATOM     13  H   UNL     1      43.840   7.518   6.672  1.00  0.00     0.345 HD
ENDBRANCH   9  10
BRANCH   9  14
ATOM     14  C   UNL     1      43.950   6.795   8.951  1.00  0.00     0.099 C 
ATOM     15  O   UNL     1      44.628   6.163   8.099  1.00  0.00    -0.544 OA
ATOM     16  O   UNL     1      44.157   6.559  10.304  1.00  0.00    -0.544 OA
ENDBRANCH   9  14
ENDBRANCH   8   9
ENDBRANCH   1   8
TORSDOF 7
ENDMDL
MODEL 4
REMARK VINA RESULT:    -2.677      2.961      4.949
REMARK INTER + INTRA:          -4.143
REMARK INTER:                  -3.628
REMARK INTRA:                  -0.516
REMARK UNBOUND:                -0.528
REMARK SMILES [NH3+]CCCC[C@@H]([NH3+])C(=O)[O-]
REMARK SMILES IDX 4 1 3 2 2 3 1 4 5 8 6 9 7 10 8 14 9 15 10 16
REMARK H PARENT 1 5 1 6 1 7 7 11 7 12 7 13
REMARK Flexibility Score: inf
ROOT
ATOM      1  C   UNL     1      34.468   4.367  -0.858  1.00  0.00     0.012 C 
ENDROOT
BRANCH   1   2
ATOM      2  C   UNL     1      35.514   4.773  -1.910  1.00  0.00     0.061 C 
BRANCH   2   3
ATOM      3  C   UNL     1      36.658   5.606  -1.310  1.00  0.00     0.258 C 
BRANCH   3   4
ATOM      4  N   UNL     1      36.240   6.976  -1.004  1.00  0.00    -0.358 N 
ATOM      5  H   UNL     1      36.782   7.638  -1.606  1.00  0.00     0.344 HD
ATOM      6  H   UNL     1      36.441   7.203  -0.004  1.00  0.00     0.344 HD
ATOM      7  H   UNL     1      35.221   7.099  -1.202  1.00  0.00     0.344 HD
ENDBRANCH   3   4
ENDBRANCH   2   3
ENDBRANCH   1   2
BRANCH   1   8
ATOM      8  C   UNL     1      33.119   5.088  -1.049  1.00  0.00     0.072 C 
BRANCH   8   9
ATOM      9  C   UNL     1      32.629   5.861   0.197  1.00  0.00     0.227 C 
BRANCH   9  10
ATOM     10  N   UNL     1      33.414   5.476   1.375  1.00  0.00    -0.350 N 
ATOM     11  H   UNL     1      34.258   4.925   1.096  1.00  0.00     0.345 HD
ATOM     12  H   UNL     1      33.718   6.332   1.895  1.00  0.00     0.345 HD
ATOM     13  H   UNL     1      32.826   4.896   2.019  1.00  0.00     0.345 HD
ENDBRANCH   9  10
BRANCH   9  14
ATOM     14  C   UNL     1      32.721   7.351  -0.016  1.00  0.00     0.099 C 
ATOM     15  O   UNL     1      32.185   8.140   0.806  1.00  0.00    -0.544 OA
ATOM     16  O   UNL     1      33.388   7.862  -1.122  1.00  0.00    -0.544 OA
ENDBRANCH   9  14
ENDBRANCH   8   9
ENDBRANCH   1   8
TORSDOF 7
ENDMDL
MODEL 5
REMARK VINA RESULT:    -2.665      4.838      7.133
REMARK INTER + INTRA:          -4.127
REMARK INTER:                  -4.028
REMARK INTRA:                  -0.099
REMARK UNBOUND:                -0.528
REMARK SMILES [NH3+]CCCC[C@@H]([NH3+])C(=O)[O-]
REMARK SMILES IDX 4 1 3 2 2 3 1 4 5 8 6 9 7 10 8 14 9 15 10 16
REMARK H PARENT 1 5 1 6 1 7 7 11 7 12 7 13
REMARK Flexibility Score: inf
ROOT
ATOM      1  C   UNL     1      37.196   5.859  -1.100  1.00  0.00     0.012 C 
ENDROOT
BRANCH   1   2
ATOM      2  C   UNL     1      38.251   6.948  -0.836  1.00  0.00     0.061 C 
BRANCH   2   3
ATOM      3  C   UNL     1      39.683   6.388  -0.828  1.00  0.00     0.258 C 
BRANCH   3   4
ATOM      4  N   UNL     1      40.145   6.077   0.527  1.00  0.00    -0.358 N 
ATOM      5  H   UNL     1      39.670   6.719   1.203  1.00  0.00     0.344 HD
ATOM      6  H   UNL     1      41.177   6.226   0.602  1.00  0.00     0.344 HD
ATOM      7  H   UNL     1      39.906   5.091   0.776  1.00  0.00     0.344 HD
ENDBRANCH   3   4
ENDBRANCH   2   3
ENDBRANCH   1   2
BRANCH   1   8
ATOM      8  C   UNL     1      36.206   6.247  -2.214  1.00  0.00     0.072 C 
BRANCH   8   9
ATOM      9  C   UNL     1      34.717   6.159  -1.802  1.00  0.00     0.227 C 
BRANCH   9  10
ATOM     10  N   UNL     1      34.603   5.774  -0.391  1.00  0.00    -0.350 N 
ATOM     11  H   UNL     1      33.789   6.253   0.060  1.00  0.00     0.345 HD
ATOM     12  H   UNL     1      34.478   4.738  -0.314  1.00  0.00     0.345 HD
ATOM     13  H   UNL     1      35.478   6.036   0.120  1.00  0.00     0.345 HD
ENDBRANCH   9  10
BRANCH   9  14
ATOM     14  C   UNL     1      34.010   7.469  -2.036  1.00  0.00     0.099 C 
ATOM     15  O   UNL     1      33.339   7.998  -1.111  1.00  0.00    -0.544 OA
ATOM     16  O   UNL     1      34.085   8.097  -3.273  1.00  0.00    -0.544 OA
ENDBRANCH   9  14
ENDBRANCH   8   9
ENDBRANCH   1   8
TORSDOF 7
ENDMDL
MODEL 6
REMARK VINA RESULT:    -2.551      1.435      1.667
REMARK INTER + INTRA:          -3.973
REMARK INTER:                  -3.394
REMARK INTRA:                  -0.579
REMARK UNBOUND:                -0.528
REMARK SMILES [NH3+]CCCC[C@@H]([NH3+])C(=O)[O-]
REMARK SMILES IDX 4 1 3 2 2 3 1 4 5 8 6 9 7 10 8 14 9 15 10 16
REMARK H PARENT 1 5 1 6 1 7 7 11 7 12 7 13
REMARK Flexibility Score: inf
ROOT
ATOM      1  C   UNL     1      30.600   5.637   3.242  1.00  0.00     0.012 C 
ENDROOT
BRANCH   1   2
ATOM      2  C   UNL     1      29.430   6.583   3.560  1.00  0.00     0.061 C 
BRANCH   2   3
ATOM      3  C   UNL     1      28.351   6.572   2.465  1.00  0.00     0.258 C 
BRANCH   3   4
ATOM      4  N   UNL     1      28.604   7.581   1.433  1.00  0.00    -0.358 N 
ATOM      5  H   UNL     1      29.630   7.779   1.396  1.00  0.00     0.344 HD
ATOM      6  H   UNL     1      28.107   8.471   1.665  1.00  0.00     0.344 HD
ATOM      7  H   UNL     1      28.295   7.231   0.498  1.00  0.00     0.344 HD
ENDBRANCH   3   4
ENDBRANCH   2   3
ENDBRANCH   1   2
BRANCH   1   8
ATOM      8  C   UNL     1      31.894   6.391   2.879  1.00  0.00     0.072 C 
BRANCH   8   9
ATOM      9  C   UNL     1      32.313   6.258   1.397  1.00  0.00     0.227 C 
BRANCH   9  10
ATOM     10  N   UNL     1      31.431   5.314   0.701  1.00  0.00    -0.350 N 
ATOM     11  H   UNL     1      30.564   5.135   1.260  1.00  0.00     0.345 HD
ATOM     12  H   UNL     1      31.163   5.701  -0.234  1.00  0.00     0.345 HD
ATOM     13  H   UNL     1      31.931   4.408   0.548  1.00  0.00     0.345 HD
ENDBRANCH   9  10
BRANCH   9  14
ATOM     14  C   UNL     1      32.284   7.595   0.701  1.00  0.00     0.099 C 
ATOM     15  O   UNL     1      31.574   8.529   1.158  1.00  0.00    -0.544 OA
ATOM     16  O   UNL     1      33.031   7.803  -0.452  1.00  0.00    -0.544 OA
ENDBRANCH   9  14
ENDBRANCH   8   9
ENDBRANCH   1   8
TORSDOF 7
ENDMDL
MODEL 7
REMARK VINA RESULT:    -2.538      2.269      3.613
REMARK INTER + INTRA:          -3.956
REMARK INTER:                  -3.712
REMARK INTRA:                  -0.244
REMARK UNBOUND:                -0.528
REMARK SMILES [NH3+]CCCC[C@@H]([NH3+])C(=O)[O-]
REMARK SMILES IDX 4 1 3 2 2 3 1 4 5 8 6 9 7 10 8 14 9 15 10 16
REMARK H PARENT 1 5 1 6 1 7 7 11 7 12 7 13
REMARK Flexibility Score: inf
ROOT
ATOM      1  C   UNL     1      31.690   5.749   3.630  1.00  0.00     0.012 C 
ENDROOT
BRANCH   1   2
ATOM      2  C   UNL     1      32.314   6.990   4.292  1.00  0.00     0.061 C 
BRANCH   2   3
ATOM      3  C   UNL     1      33.758   6.742   4.761  1.00  0.00     0.258 C 
BRANCH   3   4
ATOM      4  N   UNL     1      34.359   5.581   4.101  1.00  0.00    -0.358 N 
ATOM      5  H   UNL     1      34.431   4.797   4.790  1.00  0.00     0.344 HD
ATOM      6  H   UNL     1      35.323   5.812   3.766  1.00  0.00     0.344 HD
ATOM      7  H   UNL     1      33.766   5.270   3.298  1.00  0.00     0.344 HD
ENDBRANCH   3   4
ENDBRANCH   2   3
ENDBRANCH   1   2
BRANCH   1   8
ATOM      8  C   UNL     1      31.158   6.034   2.212  1.00  0.00     0.072 C 
BRANCH   8   9
ATOM      9  C   UNL     1      32.258   6.146   1.131  1.00  0.00     0.227 C 
BRANCH   9  10
ATOM     10  N   UNL     1      32.026   5.164   0.066  1.00  0.00    -0.350 N 
ATOM     11  H   UNL     1      31.003   5.058  -0.126  1.00  0.00     0.345 HD
ATOM     12  H   UNL     1      32.510   5.469  -0.811  1.00  0.00     0.345 HD
ATOM     13  H   UNL     1      32.418   4.236   0.348  1.00  0.00     0.345 HD
ENDBRANCH   9  10
BRANCH   9  14
ATOM     14  C   UNL     1      32.307   7.535   0.547  1.00  0.00     0.099 C 
ATOM     15  O   UNL     1      32.987   7.761  -0.488  1.00  0.00    -0.544 OA
ATOM     16  O   UNL     1      31.610   8.575   1.149  1.00  0.00    -0.544 OA
ENDBRANCH   9  14
ENDBRANCH   8   9
ENDBRANCH   1   8
TORSDOF 7
ENDMDL
MODEL 8
REMARK VINA RESULT:    -2.537      2.514      3.857
REMARK INTER + INTRA:          -3.954
REMARK INTER:                  -3.529
REMARK INTRA:                  -0.425
REMARK UNBOUND:                -0.528
REMARK SMILES [NH3+]CCCC[C@@H]([NH3+])C(=O)[O-]
REMARK SMILES IDX 4 1 3 2 2 3 1 4 5 8 6 9 7 10 8 14 9 15 10 16
REMARK H PARENT 1 5 1 6 1 7 7 11 7 12 7 13
REMARK Flexibility Score: inf
ROOT
ATOM      1  C   UNL     1      32.027   4.365  -0.123  1.00  0.00     0.012 C 
ENDROOT
BRANCH   1   2
ATOM      2  C   UNL     1      32.580   4.046  -1.522  1.00  0.00     0.061 C 
BRANCH   2   3
ATOM      3  C   UNL     1      33.910   4.764  -1.805  1.00  0.00     0.258 C 
BRANCH   3   4
ATOM      4  N   UNL     1      33.741   5.894  -2.722  1.00  0.00    -0.358 N 
ATOM      5  H   UNL     1      32.872   5.747  -3.286  1.00  0.00     0.344 HD
ATOM      6  H   UNL     1      34.552   5.953  -3.380  1.00  0.00     0.344 HD
ATOM      7  H   UNL     1      33.647   6.787  -2.187  1.00  0.00     0.344 HD
ENDBRANCH   3   4
ENDBRANCH   2   3
ENDBRANCH   1   2
BRANCH   1   8
ATOM      8  C   UNL     1      32.988   5.231   0.715  1.00  0.00     0.072 C 
BRANCH   8   9
ATOM      9  C   UNL     1      32.293   6.346   1.531  1.00  0.00     0.227 C 
BRANCH   9  10
ATOM     10  N   UNL     1      32.983   6.544   2.810  1.00  0.00    -0.350 N 
ATOM     11  H   UNL     1      32.345   6.338   3.613  1.00  0.00     0.345 HD
ATOM     12  H   UNL     1      33.819   5.916   2.865  1.00  0.00     0.345 HD
ATOM     13  H   UNL     1      33.315   7.534   2.884  1.00  0.00     0.345 HD
ENDBRANCH   9  10
BRANCH   9  14
ATOM     14  C   UNL     1      32.257   7.641   0.761  1.00  0.00     0.099 C 
ATOM     15  O   UNL     1      31.567   8.607   1.183  1.00  0.00    -0.544 OA
ATOM     16  O   UNL     1      32.975   7.776  -0.420  1.00  0.00    -0.544 OA
ENDBRANCH   9  14
ENDBRANCH   8   9
ENDBRANCH   1   8
TORSDOF 7
ENDMDL
MODEL 9
REMARK VINA RESULT:    -2.533      1.855      2.139
REMARK INTER + INTRA:          -3.949
REMARK INTER:                  -3.442
REMARK INTRA:                  -0.506
REMARK UNBOUND:                -0.528
REMARK SMILES [NH3+]CCCC[C@@H]([NH3+])C(=O)[O-]
REMARK SMILES IDX 4 1 3 2 2 3 1 4 5 8 6 9 7 10 8 14 9 15 10 16
REMARK H PARENT 1 5 1 6 1 7 7 11 7 12 7 13
REMARK Flexibility Score: inf
ROOT
ATOM      1  C   UNL     1      29.754   8.112   2.830  1.00  0.00     0.012 C 
ENDROOT
BRANCH   1   2
ATOM      2  C   UNL     1      28.495   7.780   2.010  1.00  0.00     0.061 C 
BRANCH   2   3
ATOM      3  C   UNL     1      28.352   6.273   1.738  1.00  0.00     0.258 C 
BRANCH   3   4
ATOM      4  N   UNL     1      28.447   5.959   0.311  1.00  0.00    -0.358 N 
ATOM      5  H   UNL     1      29.228   5.279   0.164  1.00  0.00     0.344 HD
ATOM      6  H   UNL     1      28.658   6.824  -0.238  1.00  0.00     0.344 HD
ATOM      7  H   UNL     1      27.557   5.528  -0.028  1.00  0.00     0.344 HD
ENDBRANCH   3   4
ENDBRANCH   2   3
ENDBRANCH   1   2
BRANCH   1   8
ATOM      8  C   UNL     1      30.729   6.924   2.933  1.00  0.00     0.072 C 
BRANCH   8   9
ATOM      9  C   UNL     1      32.125   7.191   2.323  1.00  0.00     0.227 C 
BRANCH   9  10
ATOM     10  N   UNL     1      33.124   6.310   2.936  1.00  0.00    -0.350 N 
ATOM     11  H   UNL     1      33.796   6.859   3.520  1.00  0.00     0.345 HD
ATOM     12  H   UNL     1      32.649   5.597   3.537  1.00  0.00     0.345 HD
ATOM     13  H   UNL     1      33.656   5.803   2.190  1.00  0.00     0.345 HD
ENDBRANCH   9  10
BRANCH   9  14
ATOM     14  C   UNL     1      32.113   6.992   0.829  1.00  0.00     0.099 C 
ATOM     15  O   UNL     1      31.544   5.985   0.331  1.00  0.00    -0.544 OA
ATOM     16  O   UNL     1      32.736   7.911  -0.007  1.00  0.00    -0.544 OA
ENDBRANCH   9  14
ENDBRANCH   8   9
ENDBRANCH   1   8
TORSDOF 7
ENDMDL
