MODEL 1
REMARK VINA RESULT:    -4.183      0.000      0.000
REMARK INTER + INTRA:          -5.159
REMARK INTER:                  -4.916
REMARK INTRA:                  -0.242
REMARK UNBOUND:                -0.242
REMARK SMILES O=c1c(O)c(-c2ccc(O)cc2)oc2cc(O)cc(O)c12
REMARK SMILES IDX 5 1 3 2 2 3 1 4 21 5 19 6 18 7 16 8 15 9 14 10 13 11 6 12
REMARK SMILES IDX 7 13 8 14 9 15 12 16 11 17 10 18 4 20 20 22 17 24
REMARK H PARENT 10 19 4 21 20 23 17 25
REMARK Flexibility Score: inf
ROOT
ATOM      1  C   UNL     1     -31.336 -20.669 -33.815  1.00  0.00     0.180 A 
ATOM      2  C   UNL     1     -32.456 -19.948 -34.265  1.00  0.00     0.208 A 
ATOM      3  C   UNL     1     -33.090 -20.348 -35.452  1.00  0.00     0.238 A 
ATOM      4  O   UNL     1     -34.125 -19.733 -35.821  1.00  0.00    -0.285 OA
ATOM      5  C   UNL     1     -32.589 -21.451 -36.182  1.00  0.00     0.111 A 
ATOM      6  C   UNL     1     -33.129 -21.919 -37.418  1.00  0.00     0.134 A 
ATOM      7  C   UNL     1     -32.634 -23.099 -37.987  1.00  0.00     0.093 A 
ATOM      8  C   UNL     1     -31.574 -23.793 -37.396  1.00  0.00     0.123 A 
ATOM      9  C   UNL     1     -31.001 -23.313 -36.221  1.00  0.00     0.094 A 
ATOM     10  C   UNL     1     -31.498 -22.157 -35.612  1.00  0.00     0.146 A 
ATOM     11  O   UNL     1     -30.929 -21.739 -34.487  1.00  0.00    -0.452 OA
ENDROOT
BRANCH   1  12
ATOM     12  C   UNL     1     -30.598 -20.293 -32.587  1.00  0.00     0.021 A 
ATOM     13  C   UNL     1     -31.103 -20.592 -31.309  1.00  0.00     0.016 A 
ATOM     14  C   UNL     1     -30.399 -20.207 -30.163  1.00  0.00     0.047 A 
ATOM     15  C   UNL     1     -29.194 -19.508 -30.279  1.00  0.00     0.115 A 
ATOM     16  C   UNL     1     -29.397 -19.573 -32.695  1.00  0.00     0.016 A 
ATOM     17  C   UNL     1     -28.695 -19.190 -31.548  1.00  0.00     0.047 A 
BRANCH  15  18
ATOM     18  O   UNL     1     -28.504 -19.132 -29.128  1.00  0.00    -0.508 OA
ATOM     19  H   UNL     1     -28.566 -19.672 -28.273  1.00  0.00     0.293 HD
ENDBRANCH  15  18
ENDBRANCH   1  12
BRANCH   2  20
ATOM     20  O   UNL     1     -32.948 -18.875 -33.517  1.00  0.00    -0.502 OA
ATOM     21  H   UNL     1     -32.343 -18.173 -33.109  1.00  0.00     0.293 HD
ENDBRANCH   2  20
BRANCH   6  22
ATOM     22  O   UNL     1     -34.125 -21.251 -38.137  1.00  0.00    -0.507 OA
ATOM     23  H   UNL     1     -34.296 -21.369 -39.124  1.00  0.00     0.293 HD
ENDBRANCH   6  22
BRANCH   8  24
ATOM     24  O   UNL     1     -31.078 -24.958 -37.977  1.00  0.00    -0.508 OA
ATOM     25  H   UNL     1     -31.257 -25.870 -37.574  1.00  0.00     0.293 HD
ENDBRANCH   8  24
TORSDOF 5
ENDMDL
MODEL 2
REMARK VINA RESULT:    -3.934      0.223      1.074
REMARK INTER + INTRA:          -4.867
REMARK INTER:                  -4.574
REMARK INTRA:                  -0.293
REMARK UNBOUND:                -0.242
REMARK SMILES O=c1c(O)c(-c2ccc(O)cc2)oc2cc(O)cc(O)c12
REMARK SMILES IDX 5 1 3 2 2 3 1 4 21 5 19 6 18 7 16 8 15 9 14 10 13 11 6 12
REMARK SMILES IDX 7 13 8 14 9 15 12 16 11 17 10 18 4 20 20 22 17 24
REMARK H PARENT 10 19 4 21 20 23 17 25
REMARK Flexibility Score: inf
ROOT
ATOM      1  C   UNL     1     -31.406 -20.710 -33.988  1.00  0.00     0.180 A 
ATOM      2  C   UNL     1     -32.499 -19.982 -34.489  1.00  0.00     0.208 A 
ATOM      3  C   UNL     1     -33.113 -20.410 -35.678  1.00  0.00     0.238 A 
ATOM      4  O   UNL     1     -34.125 -19.786 -36.094  1.00  0.00    -0.285 OA
ATOM      5  C   UNL     1     -32.617 -21.547 -36.358  1.00  0.00     0.111 A 
ATOM      6  C   UNL     1     -33.136 -22.045 -37.591  1.00  0.00     0.134 A 
ATOM      7  C   UNL     1     -32.652 -23.254 -38.107  1.00  0.00     0.093 A 
ATOM      8  C   UNL     1     -31.622 -23.949 -37.467  1.00  0.00     0.123 A 
ATOM      9  C   UNL     1     -31.068 -23.440 -36.295  1.00  0.00     0.094 A 
ATOM     10  C   UNL     1     -31.555 -22.255 -35.738  1.00  0.00     0.146 A 
ATOM     11  O   UNL     1     -31.005 -21.810 -34.614  1.00  0.00    -0.452 OA
ENDROOT
BRANCH   1  12
ATOM     12  C   UNL     1     -30.691 -20.308 -32.755  1.00  0.00     0.021 A 
ATOM     13  C   UNL     1     -29.555 -19.480 -32.804  1.00  0.00     0.016 A 
ATOM     14  C   UNL     1     -28.882 -19.133 -31.628  1.00  0.00     0.047 A 
ATOM     15  C   UNL     1     -29.325 -19.617 -30.394  1.00  0.00     0.115 A 
ATOM     16  C   UNL     1     -31.118 -20.807 -31.513  1.00  0.00     0.016 A 
ATOM     17  C   UNL     1     -30.444 -20.457 -30.340  1.00  0.00     0.047 A 
BRANCH  15  18
ATOM     18  O   UNL     1     -28.645 -19.262 -29.231  1.00  0.00    -0.508 OA
ATOM     19  H   UNL     1     -28.891 -18.430 -28.707  1.00  0.00     0.293 HD
ENDBRANCH  15  18
ENDBRANCH   1  12
BRANCH   2  20
ATOM     20  O   UNL     1     -32.987 -18.875 -33.790  1.00  0.00    -0.502 OA
ATOM     21  H   UNL     1     -33.199 -18.907 -32.800  1.00  0.00     0.293 HD
ENDBRANCH   2  20
BRANCH   6  22
ATOM     22  O   UNL     1     -34.100 -21.382 -38.357  1.00  0.00    -0.507 OA
ATOM     23  H   UNL     1     -33.972 -20.476 -38.781  1.00  0.00     0.293 HD
ENDBRANCH   6  22
BRANCH   8  24
ATOM     24  O   UNL     1     -31.136 -25.142 -37.996  1.00  0.00    -0.508 OA
ATOM     25  H   UNL     1     -30.779 -25.879 -37.401  1.00  0.00     0.293 HD
ENDBRANCH   8  24
TORSDOF 5
ENDMDL
MODEL 3
REMARK VINA RESULT:    -2.102      1.733      7.121
REMARK INTER + INTRA:          -2.713
REMARK INTER:                  -3.010
REMARK INTRA:                   0.297
REMARK UNBOUND:                -0.242
REMARK SMILES O=c1c(O)c(-c2ccc(O)cc2)oc2cc(O)cc(O)c12
REMARK SMILES IDX 5 1 3 2 2 3 1 4 21 5 19 6 18 7 16 8 15 9 14 10 13 11 6 12
REMARK SMILES IDX 7 13 8 14 9 15 12 16 11 17 10 18 4 20 20 22 17 24
REMARK H PARENT 10 19 4 21 20 23 17 25
REMARK Flexibility Score: inf
ROOT
ATOM      1  C   UNL     1     -31.460 -20.636 -33.911  1.00  0.00     0.180 A 
ATOM      2  C   UNL     1     -30.059 -20.569 -33.816  1.00  0.00     0.208 A 
ATOM      3  C   UNL     1     -29.480 -20.111 -32.622  1.00  0.00     0.238 A 
ATOM      4  O   UNL     1     -28.225 -20.104 -32.523  1.00  0.00    -0.285 OA
ATOM      5  C   UNL     1     -30.306 -19.711 -31.545  1.00  0.00     0.111 A 
ATOM      6  C   UNL     1     -29.826 -19.194 -30.304  1.00  0.00     0.134 A 
ATOM      7  C   UNL     1     -30.729 -18.952 -29.261  1.00  0.00     0.093 A 
ATOM      8  C   UNL     1     -32.102 -19.148 -29.437  1.00  0.00     0.123 A 
ATOM      9  C   UNL     1     -32.586 -19.596 -30.663  1.00  0.00     0.094 A 
ATOM     10  C   UNL     1     -31.705 -19.880 -31.711  1.00  0.00     0.146 A 
ATOM     11  O   UNL     1     -32.207 -20.315 -32.861  1.00  0.00    -0.452 OA
ENDROOT
BRANCH   1  12
ATOM     12  C   UNL     1     -32.146 -21.083 -35.145  1.00  0.00     0.021 A 
ATOM     13  C   UNL     1     -31.565 -22.034 -36.003  1.00  0.00     0.016 A 
ATOM     14  C   UNL     1     -32.221 -22.424 -37.174  1.00  0.00     0.047 A 
ATOM     15  C   UNL     1     -33.455 -21.861 -37.511  1.00  0.00     0.115 A 
ATOM     16  C   UNL     1     -33.377 -20.507 -35.499  1.00  0.00     0.016 A 
ATOM     17  C   UNL     1     -34.031 -20.900 -36.671  1.00  0.00     0.047 A 
BRANCH  15  18
ATOM     18  O   UNL     1     -34.098 -22.260 -38.681  1.00  0.00    -0.508 OA
ATOM     19  H   UNL     1     -35.064 -22.565 -38.676  1.00  0.00     0.293 HD
ENDBRANCH  15  18
ENDBRANCH   1  12
BRANCH   2  20
ATOM     20  O   UNL     1     -29.261 -20.990 -34.883  1.00  0.00    -0.502 OA
ATOM     21  H   UNL     1     -28.372 -20.557 -35.101  1.00  0.00     0.293 HD
ENDBRANCH   2  20
BRANCH   6  22
ATOM     22  O   UNL     1     -28.488 -18.875 -30.056  1.00  0.00    -0.507 OA
ATOM     23  H   UNL     1     -28.073 -18.815 -29.138  1.00  0.00     0.293 HD
ENDBRANCH   6  22
BRANCH   8  24
ATOM     24  O   UNL     1     -32.995 -18.891 -28.399  1.00  0.00    -0.508 OA
ATOM     25  H   UNL     1     -33.271 -17.947 -28.159  1.00  0.00     0.293 HD
ENDBRANCH   8  24
TORSDOF 5
ENDMDL
MODEL 4
REMARK VINA RESULT:    -1.872      1.699      6.964
REMARK INTER + INTRA:          -2.443
REMARK INTER:                  -2.325
REMARK INTRA:                  -0.118
REMARK UNBOUND:                -0.242
REMARK SMILES O=c1c(O)c(-c2ccc(O)cc2)oc2cc(O)cc(O)c12
REMARK SMILES IDX 5 1 3 2 2 3 1 4 21 5 19 6 18 7 16 8 15 9 14 10 13 11 6 12
REMARK SMILES IDX 7 13 8 14 9 15 12 16 11 17 10 18 4 20 20 22 17 24
REMARK H PARENT 10 19 4 21 20 23 17 25
REMARK Flexibility Score: inf
ROOT
ATOM      1  C   UNL     1     -30.830 -20.857 -33.736  1.00  0.00     0.180 A 
ATOM      2  C   UNL     1     -29.688 -20.046 -33.856  1.00  0.00     0.208 A 
ATOM      3  C   UNL     1     -28.981 -19.692 -32.696  1.00  0.00     0.238 A 
ATOM      4  O   UNL     1     -27.929 -19.011 -32.814  1.00  0.00    -0.285 OA
ATOM      5  C   UNL     1     -29.433 -20.137 -31.431  1.00  0.00     0.111 A 
ATOM      6  C   UNL     1     -28.816 -19.805 -30.187  1.00  0.00     0.134 A 
ATOM      7  C   UNL     1     -29.271 -20.409 -29.007  1.00  0.00     0.093 A 
ATOM      8  C   UNL     1     -30.362 -21.283 -29.020  1.00  0.00     0.123 A 
ATOM      9  C   UNL     1     -31.007 -21.567 -30.221  1.00  0.00     0.094 A 
ATOM     10  C   UNL     1     -30.553 -21.008 -31.418  1.00  0.00     0.146 A 
ATOM     11  O   UNL     1     -31.191 -21.313 -32.543  1.00  0.00    -0.452 OA
ENDROOT
BRANCH   1  12
ATOM     12  C   UNL     1     -31.643 -21.253 -34.910  1.00  0.00     0.021 A 
ATOM     13  C   UNL     1     -31.109 -22.055 -35.934  1.00  0.00     0.016 A 
ATOM     14  C   UNL     1     -31.888 -22.396 -37.043  1.00  0.00     0.047 A 
ATOM     15  C   UNL     1     -33.201 -21.930 -37.152  1.00  0.00     0.115 A 
ATOM     16  C   UNL     1     -32.956 -20.771 -35.035  1.00  0.00     0.016 A 
ATOM     17  C   UNL     1     -33.733 -21.114 -36.145  1.00  0.00     0.047 A 
BRANCH  15  18
ATOM     18  O   UNL     1     -33.966 -22.279 -38.263  1.00  0.00    -0.508 OA
ATOM     19  H   UNL     1     -33.976 -21.707 -39.100  1.00  0.00     0.293 HD
ENDBRANCH  15  18
ENDBRANCH   1  12
BRANCH   2  20
ATOM     20  O   UNL     1     -29.246 -19.636 -35.117  1.00  0.00    -0.502 OA
ATOM     21  H   UNL     1     -29.368 -20.203 -35.947  1.00  0.00     0.293 HD
ENDBRANCH   2  20
BRANCH   6  22
ATOM     22  O   UNL     1     -27.782 -18.875 -30.052  1.00  0.00    -0.507 OA
ATOM     23  H   UNL     1     -27.730 -18.176 -29.326  1.00  0.00     0.293 HD
ENDBRANCH   6  22
BRANCH   8  24
ATOM     24  O   UNL     1     -30.817 -21.866 -27.840  1.00  0.00    -0.508 OA
ATOM     25  H   UNL     1     -30.811 -22.870 -27.708  1.00  0.00     0.293 HD
ENDBRANCH   8  24
TORSDOF 5
ENDMDL
