MODEL 1
REMARK VINA RESULT:    -5.556      0.000      0.000
REMARK INTER + INTRA:         -10.024
REMARK INTER:                  -7.993
REMARK INTRA:                  -2.032
REMARK UNBOUND:                -2.032
REMARK SMILES O=c1c(O[C@@H]2O[C@H](CO)[C@H](O)[C@H](O)[C@@H]2O)c(-c2ccc(O)cc2)oc2cc(O)cc(O)c12
REMARK SMILES IDX 4 1 3 2 16 3 24 4 2 5 25 6 1 7 32 8 26 9 30 10 27 11 29 12
REMARK SMILES IDX 17 13 18 14 19 15 20 16 23 17 22 18 21 19 31 21 28 23 5 25
REMARK SMILES IDX 14 26 6 27 12 28 7 29 10 30 15 31 13 33 8 35 9 36 11 38
REMARK H PARENT 21 20 31 22 28 24 15 32 13 34 9 37 11 39
REMARK Flexibility Score: inf
ROOT
ATOM      1  O   UNL     1      -0.383 -19.485  -5.719  1.00  0.00    -0.454 OA
ENDROOT
BRANCH   1   2
ATOM      2  C   UNL     1      -0.900 -20.200  -6.897  1.00  0.00     0.214 A 
ATOM      3  C   UNL     1      -2.194 -19.872  -7.517  1.00  0.00     0.180 A 
ATOM      4  O   UNL     1      -2.887 -20.721  -8.218  1.00  0.00    -0.452 OA
ATOM      5  C   UNL     1      -0.310 -21.344  -7.497  1.00  0.00     0.239 A 
ATOM      6  C   UNL     1      -2.269 -21.640  -8.961  1.00  0.00     0.146 A 
ATOM      7  O   UNL     1       0.518 -22.070  -6.840  1.00  0.00    -0.285 OA
ATOM      8  C   UNL     1      -0.891 -21.868  -8.683  1.00  0.00     0.111 A 
ATOM      9  C   UNL     1      -2.946 -22.265  -9.999  1.00  0.00     0.094 A 
ATOM     10  C   UNL     1      -0.163 -22.550  -9.676  1.00  0.00     0.134 A 
ATOM     11  C   UNL     1      -2.204 -22.946 -10.994  1.00  0.00     0.123 A 
ATOM     12  C   UNL     1      -0.785 -23.142 -10.749  1.00  0.00     0.093 A 
BRANCH   3  13
ATOM     13  C   UNL     1      -2.531 -18.487  -7.736  1.00  0.00     0.021 A 
ATOM     14  C   UNL     1      -3.597 -17.847  -7.083  1.00  0.00     0.016 A 
ATOM     15  C   UNL     1      -3.612 -16.454  -7.088  1.00  0.00     0.047 A 
ATOM     16  C   UNL     1      -2.696 -15.770  -7.931  1.00  0.00     0.115 A 
ATOM     17  C   UNL     1      -1.687 -17.787  -8.603  1.00  0.00     0.016 A 
ATOM     18  C   UNL     1      -1.622 -16.412  -8.540  1.00  0.00     0.047 A 
BRANCH  16  19
ATOM     19  O   UNL     1      -2.747 -14.343  -7.966  1.00  0.00    -0.508 OA
ATOM     20  H   UNL     1      -3.177 -13.794  -7.193  1.00  0.00     0.293 HD
ENDBRANCH  16  19
ENDBRANCH   3  13
BRANCH  10  21
ATOM     21  O   UNL     1       1.260 -22.528  -9.669  1.00  0.00    -0.507 OA
ATOM     22  H   UNL     1       1.818 -23.367  -9.340  1.00  0.00     0.293 HD
ENDBRANCH  10  21
BRANCH  11  23
ATOM     23  O   UNL     1      -2.767 -23.387 -12.183  1.00  0.00    -0.508 OA
ATOM     24  H   UNL     1      -2.232 -23.863 -12.933  1.00  0.00     0.293 HD
ENDBRANCH  11  23
ENDBRANCH   1   2
BRANCH   1  25
ATOM     25  C   UNL     1       0.217 -18.196  -5.260  1.00  0.00     0.339 C 
ATOM     26  C   UNL     1       1.697 -18.001  -5.779  1.00  0.00     0.214 C 
ATOM     27  O   UNL     1      -0.502 -16.902  -5.401  1.00  0.00    -0.332 OA
ATOM     28  C   UNL     1       2.488 -16.709  -5.257  1.00  0.00     0.180 C 
ATOM     29  C   UNL     1       0.200 -15.819  -4.809  1.00  0.00     0.179 C 
ATOM     30  C   UNL     1       1.543 -15.490  -5.632  1.00  0.00     0.177 C 
BRANCH  26  31
ATOM     31  O   UNL     1       1.790 -18.123  -7.228  1.00  0.00    -0.384 OA
ATOM     32  H   UNL     1       1.957 -19.108  -7.414  1.00  0.00     0.211 HD
ENDBRANCH  26  31
BRANCH  28  33
ATOM     33  O   UNL     1       3.699 -16.580  -6.025  1.00  0.00    -0.387 OA
ATOM     34  H   UNL     1       3.373 -16.534  -6.977  1.00  0.00     0.211 HD
ENDBRANCH  28  33
BRANCH  29  35
ATOM     35  C   UNL     1      -0.586 -14.526  -4.485  1.00  0.00     0.191 C 
BRANCH  35  36
ATOM     36  O   UNL     1      -0.890 -13.741  -5.656  1.00  0.00    -0.394 OA
ATOM     37  H   UNL     1      -0.567 -14.300  -6.455  1.00  0.00     0.210 HD
ENDBRANCH  35  36
ENDBRANCH  29  35
BRANCH  30  38
ATOM     38  O   UNL     1       1.326 -15.363  -7.018  1.00  0.00    -0.387 OA
ATOM     39  H   UNL     1       0.595 -14.653  -7.150  1.00  0.00     0.211 HD
ENDBRANCH  30  38
ENDBRANCH   1  25
TORSDOF 11
ENDMDL
MODEL 2
REMARK VINA RESULT:    -5.113      2.609      6.155
REMARK INTER + INTRA:          -9.386
REMARK INTER:                  -8.381
REMARK INTRA:                  -1.006
REMARK UNBOUND:                -2.032
REMARK SMILES O=c1c(O[C@@H]2O[C@H](CO)[C@H](O)[C@H](O)[C@@H]2O)c(-c2ccc(O)cc2)oc2cc(O)cc(O)c12
REMARK SMILES IDX 4 1 3 2 16 3 24 4 2 5 25 6 1 7 32 8 26 9 30 10 27 11 29 12
REMARK SMILES IDX 17 13 18 14 19 15 20 16 23 17 22 18 21 19 31 21 28 23 5 25
REMARK SMILES IDX 14 26 6 27 12 28 7 29 10 30 15 31 13 33 8 35 9 36 11 38
REMARK H PARENT 21 20 31 22 28 24 15 32 13 34 9 37 11 39
REMARK Flexibility Score: inf
ROOT
ATOM      1  O   UNL     1       1.126 -17.252  -6.758  1.00  0.00    -0.454 OA
ENDROOT
BRANCH   1   2
ATOM      2  C   UNL     1       1.819 -18.328  -6.028  1.00  0.00     0.214 A 
ATOM      3  C   UNL     1       1.403 -19.737  -6.115  1.00  0.00     0.180 A 
ATOM      4  O   UNL     1       1.651 -20.615  -5.187  1.00  0.00    -0.452 OA
ATOM      5  C   UNL     1       2.858 -18.148  -5.077  1.00  0.00     0.239 A 
ATOM      6  C   UNL     1       2.774 -20.534  -4.471  1.00  0.00     0.146 A 
ATOM      7  O   UNL     1       3.026 -17.015  -4.502  1.00  0.00    -0.285 OA
ATOM      8  C   UNL     1       3.480 -19.299  -4.522  1.00  0.00     0.111 A 
ATOM      9  C   UNL     1       3.243 -21.647  -3.787  1.00  0.00     0.094 A 
ATOM     10  C   UNL     1       4.815 -19.329  -4.077  1.00  0.00     0.134 A 
ATOM     11  C   UNL     1       4.587 -21.669  -3.346  1.00  0.00     0.123 A 
ATOM     12  C   UNL     1       5.338 -20.428  -3.439  1.00  0.00     0.093 A 
BRANCH   3  13
ATOM     13  C   UNL     1       1.094 -20.295  -7.409  1.00  0.00     0.021 A 
ATOM     14  C   UNL     1       1.959 -21.164  -8.093  1.00  0.00     0.016 A 
ATOM     15  C   UNL     1       1.424 -21.914  -9.138  1.00  0.00     0.047 A 
ATOM     16  C   UNL     1       0.118 -21.600  -9.598  1.00  0.00     0.115 A 
ATOM     17  C   UNL     1      -0.163 -19.967  -7.926  1.00  0.00     0.016 A 
ATOM     18  C   UNL     1      -0.742 -20.767  -8.888  1.00  0.00     0.047 A 
BRANCH  16  19
ATOM     19  O   UNL     1      -0.407 -22.343 -10.699  1.00  0.00    -0.508 OA
ATOM     20  H   UNL     1      -1.376 -22.722 -10.688  1.00  0.00     0.293 HD
ENDBRANCH  16  19
ENDBRANCH   3  13
BRANCH  10  21
ATOM     21  O   UNL     1       5.707 -18.267  -4.400  1.00  0.00    -0.507 OA
ATOM     22  H   UNL     1       6.691 -18.242  -4.007  1.00  0.00     0.293 HD
ENDBRANCH  10  21
BRANCH  11  23
ATOM     23  O   UNL     1       5.207 -22.818  -2.875  1.00  0.00    -0.508 OA
ATOM     24  H   UNL     1       5.197 -23.725  -3.377  1.00  0.00     0.293 HD
ENDBRANCH  11  23
ENDBRANCH   1   2
BRANCH   1  25
ATOM     25  C   UNL     1       0.471 -15.919  -6.601  1.00  0.00     0.339 C 
ATOM     26  C   UNL     1      -0.855 -15.794  -7.452  1.00  0.00     0.214 C 
ATOM     27  O   UNL     1       0.225 -15.319  -5.263  1.00  0.00    -0.332 OA
ATOM     28  C   UNL     1      -1.586 -14.369  -7.456  1.00  0.00     0.180 C 
ATOM     29  C   UNL     1      -0.312 -14.006  -5.342  1.00  0.00     0.179 C 
ATOM     30  C   UNL     1      -1.813 -14.037  -5.921  1.00  0.00     0.177 C 
BRANCH  26  31
ATOM     31  O   UNL     1      -1.797 -16.867  -7.160  1.00  0.00    -0.384 OA
ATOM     32  H   UNL     1      -1.312 -17.731  -7.382  1.00  0.00     0.211 HD
ENDBRANCH  26  31
BRANCH  28  33
ATOM     33  O   UNL     1      -2.880 -14.527  -8.068  1.00  0.00    -0.387 OA
ATOM     34  H   UNL     1      -3.150 -13.586  -8.303  1.00  0.00     0.211 HD
ENDBRANCH  28  33
BRANCH  29  35
ATOM     35  C   UNL     1      -0.214 -13.099  -4.093  1.00  0.00     0.191 C 
BRANCH  35  36
ATOM     36  O   UNL     1      -0.440 -11.705  -4.386  1.00  0.00    -0.394 OA
ATOM     37  H   UNL     1      -0.095 -11.191  -3.566  1.00  0.00     0.210 HD
ENDBRANCH  35  36
ENDBRANCH  29  35
BRANCH  30  38
ATOM     38  O   UNL     1      -2.639 -14.972  -5.268  1.00  0.00    -0.387 OA
ATOM     39  H   UNL     1      -2.035 -15.728  -4.925  1.00  0.00     0.211 HD
ENDBRANCH  30  38
ENDBRANCH   1  25
TORSDOF 11
ENDMDL
MODEL 3
REMARK VINA RESULT:    -5.009      1.871      6.890
REMARK INTER + INTRA:          -9.238
REMARK INTER:                  -7.202
REMARK INTRA:                  -2.036
REMARK UNBOUND:                -2.032
REMARK SMILES O=c1c(O[C@@H]2O[C@H](CO)[C@H](O)[C@H](O)[C@@H]2O)c(-c2ccc(O)cc2)oc2cc(O)cc(O)c12
REMARK SMILES IDX 4 1 3 2 16 3 24 4 2 5 25 6 1 7 32 8 26 9 30 10 27 11 29 12
REMARK SMILES IDX 17 13 18 14 19 15 20 16 23 17 22 18 21 19 31 21 28 23 5 25
REMARK SMILES IDX 14 26 6 27 12 28 7 29 10 30 15 31 13 33 8 35 9 36 11 38
REMARK H PARENT 21 20 31 22 28 24 15 32 13 34 9 37 11 39
REMARK Flexibility Score: inf
ROOT
ATOM      1  O   UNL     1       1.658 -18.426  -7.723  1.00  0.00    -0.454 OA
ENDROOT
BRANCH   1   2
ATOM      2  C   UNL     1       0.775 -17.349  -7.246  1.00  0.00     0.214 A 
ATOM      3  C   UNL     1      -0.509 -17.034  -7.892  1.00  0.00     0.180 A 
ATOM      4  O   UNL     1      -1.076 -15.865  -7.824  1.00  0.00    -0.452 OA
ATOM      5  C   UNL     1       1.086 -16.417  -6.220  1.00  0.00     0.239 A 
ATOM      6  C   UNL     1      -0.946 -15.119  -6.727  1.00  0.00     0.146 A 
ATOM      7  O   UNL     1       2.303 -16.203  -5.881  1.00  0.00    -0.285 OA
ATOM      8  C   UNL     1       0.088 -15.487  -5.820  1.00  0.00     0.111 A 
ATOM      9  C   UNL     1      -1.844 -14.091  -6.475  1.00  0.00     0.094 A 
ATOM     10  C   UNL     1      -0.002 -14.946  -4.524  1.00  0.00     0.134 A 
ATOM     11  C   UNL     1      -1.929 -13.556  -5.167  1.00  0.00     0.123 A 
ATOM     12  C   UNL     1      -0.910 -13.962  -4.214  1.00  0.00     0.093 A 
BRANCH   3  13
ATOM     13  C   UNL     1      -1.393 -18.116  -8.252  1.00  0.00     0.021 A 
ATOM     14  C   UNL     1      -1.716 -18.428  -9.582  1.00  0.00     0.016 A 
ATOM     15  C   UNL     1      -2.270 -19.681  -9.834  1.00  0.00     0.047 A 
ATOM     16  C   UNL     1      -2.683 -20.472  -8.729  1.00  0.00     0.115 A 
ATOM     17  C   UNL     1      -1.868 -18.890  -7.190  1.00  0.00     0.016 A 
ATOM     18  C   UNL     1      -2.322 -20.171  -7.419  1.00  0.00     0.047 A 
BRANCH  16  19
ATOM     19  O   UNL     1      -3.292 -21.737  -8.995  1.00  0.00    -0.508 OA
ATOM     20  H   UNL     1      -3.547 -22.026  -9.962  1.00  0.00     0.293 HD
ENDBRANCH  16  19
ENDBRANCH   3  13
BRANCH  10  21
ATOM     21  O   UNL     1       0.755 -15.504  -3.455  1.00  0.00    -0.507 OA
ATOM     22  H   UNL     1       0.278 -15.902  -2.597  1.00  0.00     0.293 HD
ENDBRANCH  10  21
BRANCH  11  23
ATOM     23  O   UNL     1      -2.951 -12.707  -4.766  1.00  0.00    -0.508 OA
ATOM     24  H   UNL     1      -2.866 -11.674  -4.739  1.00  0.00     0.293 HD
ENDBRANCH  11  23
ENDBRANCH   1   2
BRANCH   1  25
ATOM     25  C   UNL     1       1.816 -19.910  -7.798  1.00  0.00     0.339 C 
ATOM     26  C   UNL     1       2.094 -20.559  -6.384  1.00  0.00     0.214 C 
ATOM     27  O   UNL     1       0.838 -20.767  -8.521  1.00  0.00    -0.332 OA
ATOM     28  C   UNL     1       2.396 -22.133  -6.352  1.00  0.00     0.180 C 
ATOM     29  C   UNL     1       1.230 -22.131  -8.558  1.00  0.00     0.179 C 
ATOM     30  C   UNL     1       1.153 -22.787  -7.090  1.00  0.00     0.177 C 
BRANCH  26  31
ATOM     31  O   UNL     1       1.076 -20.200  -5.405  1.00  0.00    -0.384 OA
ATOM     32  H   UNL     1       1.267 -19.236  -5.146  1.00  0.00     0.211 HD
ENDBRANCH  26  31
BRANCH  28  33
ATOM     33  O   UNL     1       2.371 -22.569  -4.979  1.00  0.00    -0.387 OA
ATOM     34  H   UNL     1       3.299 -22.361  -4.647  1.00  0.00     0.211 HD
ENDBRANCH  28  33
BRANCH  29  35
ATOM     35  C   UNL     1       0.576 -23.052  -9.616  1.00  0.00     0.191 C 
BRANCH  35  36
ATOM     36  O   UNL     1      -0.785 -23.404  -9.295  1.00  0.00    -0.394 OA
ATOM     37  H   UNL     1      -1.329 -23.202 -10.143  1.00  0.00     0.210 HD
ENDBRANCH  35  36
ENDBRANCH  29  35
BRANCH  30  38
ATOM     38  O   UNL     1      -0.071 -22.544  -6.439  1.00  0.00    -0.387 OA
ATOM     39  H   UNL     1      -0.735 -22.209  -7.148  1.00  0.00     0.211 HD
ENDBRANCH  30  38
ENDBRANCH   1  25
TORSDOF 11
ENDMDL
MODEL 4
REMARK VINA RESULT:    -5.009      2.019      4.855
REMARK INTER + INTRA:          -9.237
REMARK INTER:                  -7.955
REMARK INTRA:                  -1.282
REMARK UNBOUND:                -2.032
REMARK SMILES O=c1c(O[C@@H]2O[C@H](CO)[C@H](O)[C@H](O)[C@@H]2O)c(-c2ccc(O)cc2)oc2cc(O)cc(O)c12
REMARK SMILES IDX 4 1 3 2 16 3 24 4 2 5 25 6 1 7 32 8 26 9 30 10 27 11 29 12
REMARK SMILES IDX 17 13 18 14 19 15 20 16 23 17 22 18 21 19 31 21 28 23 5 25
REMARK SMILES IDX 14 26 6 27 12 28 7 29 10 30 15 31 13 33 8 35 9 36 11 38
REMARK H PARENT 21 20 31 22 28 24 15 32 13 34 9 37 11 39
REMARK Flexibility Score: inf
ROOT
ATOM      1  O   UNL     1      -0.667 -16.213  -6.694  1.00  0.00    -0.454 OA
ENDROOT
BRANCH   1   2
ATOM      2  C   UNL     1      -0.392 -17.555  -7.232  1.00  0.00     0.214 A 
ATOM      3  C   UNL     1       0.941 -18.175  -7.170  1.00  0.00     0.180 A 
ATOM      4  O   UNL     1       1.341 -19.097  -7.997  1.00  0.00    -0.452 OA
ATOM      5  C   UNL     1      -1.305 -18.354  -7.972  1.00  0.00     0.239 A 
ATOM      6  C   UNL     1       0.471 -19.983  -8.485  1.00  0.00     0.146 A 
ATOM      7  O   UNL     1      -2.317 -17.822  -8.549  1.00  0.00    -0.285 OA
ATOM      8  C   UNL     1      -0.911 -19.666  -8.349  1.00  0.00     0.111 A 
ATOM      9  C   UNL     1       0.925 -21.180  -9.020  1.00  0.00     0.094 A 
ATOM     10  C   UNL     1      -1.811 -20.733  -8.527  1.00  0.00     0.134 A 
ATOM     11  C   UNL     1       0.013 -22.248  -9.192  1.00  0.00     0.123 A 
ATOM     12  C   UNL     1      -1.399 -21.954  -9.007  1.00  0.00     0.093 A 
BRANCH   3  13
ATOM     13  C   UNL     1       1.688 -18.100  -5.939  1.00  0.00     0.021 A 
ATOM     14  C   UNL     1       1.637 -19.097  -4.952  1.00  0.00     0.016 A 
ATOM     15  C   UNL     1       2.647 -19.106  -3.992  1.00  0.00     0.047 A 
ATOM     16  C   UNL     1       3.527 -17.994  -3.925  1.00  0.00     0.115 A 
ATOM     17  C   UNL     1       2.529 -16.992  -5.806  1.00  0.00     0.016 A 
ATOM     18  C   UNL     1       3.593 -17.035  -4.931  1.00  0.00     0.047 A 
BRANCH  16  19
ATOM     19  O   UNL     1       4.532 -17.989  -2.910  1.00  0.00    -0.508 OA
ATOM     20  H   UNL     1       5.325 -17.315  -2.931  1.00  0.00     0.293 HD
ENDBRANCH  16  19
ENDBRANCH   3  13
BRANCH  10  21
ATOM     21  O   UNL     1      -3.158 -20.622  -8.082  1.00  0.00    -0.507 OA
ATOM     22  H   UNL     1      -3.910 -21.275  -8.445  1.00  0.00     0.293 HD
ENDBRANCH  10  21
BRANCH  11  23
ATOM     23  O   UNL     1       0.415 -23.543  -9.488  1.00  0.00    -0.508 OA
ATOM     24  H   UNL     1       1.276 -23.771 -10.018  1.00  0.00     0.293 HD
ENDBRANCH  11  23
ENDBRANCH   1   2
BRANCH   1  25
ATOM     25  C   UNL     1      -1.089 -15.469  -5.470  1.00  0.00     0.339 C 
ATOM     26  C   UNL     1      -0.518 -13.996  -5.431  1.00  0.00     0.214 C 
ATOM     27  O   UNL     1      -2.508 -15.432  -5.025  1.00  0.00    -0.332 OA
ATOM     28  C   UNL     1      -0.807 -13.136  -4.110  1.00  0.00     0.180 C 
ATOM     29  C   UNL     1      -2.674 -14.759  -3.785  1.00  0.00     0.179 C 
ATOM     30  C   UNL     1      -2.385 -13.185  -3.946  1.00  0.00     0.177 C 
BRANCH  26  31
ATOM     31  O   UNL     1      -0.860 -13.244  -6.632  1.00  0.00    -0.384 OA
ATOM     32  H   UNL     1      -1.802 -12.894  -6.483  1.00  0.00     0.211 HD
ENDBRANCH  26  31
BRANCH  28  33
ATOM     33  O   UNL     1      -0.434 -11.770  -4.370  1.00  0.00    -0.387 OA
ATOM     34  H   UNL     1      -0.717 -11.283  -3.535  1.00  0.00     0.211 HD
ENDBRANCH  28  33
BRANCH  29  35
ATOM     35  C   UNL     1      -3.976 -15.009  -2.987  1.00  0.00     0.191 C 
BRANCH  35  36
ATOM     36  O   UNL     1      -5.125 -14.347  -3.556  1.00  0.00    -0.394 OA
ATOM     37  H   UNL     1      -4.984 -14.377  -4.573  1.00  0.00     0.210 HD
ENDBRANCH  35  36
ENDBRANCH  29  35
BRANCH  30  38
ATOM     38  O   UNL     1      -3.074 -12.603  -5.028  1.00  0.00    -0.387 OA
ATOM     39  H   UNL     1      -4.068 -12.836  -4.919  1.00  0.00     0.211 HD
ENDBRANCH  30  38
ENDBRANCH   1  25
TORSDOF 11
ENDMDL
MODEL 5
REMARK VINA RESULT:    -4.858      2.703      5.440
REMARK INTER + INTRA:          -9.020
REMARK INTER:                  -7.384
REMARK INTRA:                  -1.637
REMARK UNBOUND:                -2.032
REMARK SMILES O=c1c(O[C@@H]2O[C@H](CO)[C@H](O)[C@H](O)[C@@H]2O)c(-c2ccc(O)cc2)oc2cc(O)cc(O)c12
REMARK SMILES IDX 4 1 3 2 16 3 24 4 2 5 25 6 1 7 32 8 26 9 30 10 27 11 29 12
REMARK SMILES IDX 17 13 18 14 19 15 20 16 23 17 22 18 21 19 31 21 28 23 5 25
REMARK SMILES IDX 14 26 6 27 12 28 7 29 10 30 15 31 13 33 8 35 9 36 11 38
REMARK H PARENT 21 20 31 22 28 24 15 32 13 34 9 37 11 39
REMARK Flexibility Score: inf
ROOT
ATOM      1  O   UNL     1       0.312 -17.426  -4.611  1.00  0.00    -0.454 OA
ENDROOT
BRANCH   1   2
ATOM      2  C   UNL     1       1.185 -18.611  -4.600  1.00  0.00     0.214 A 
ATOM      3  C   UNL     1       0.730 -19.934  -5.055  1.00  0.00     0.180 A 
ATOM      4  O   UNL     1       1.261 -21.052  -4.652  1.00  0.00    -0.452 OA
ATOM      5  C   UNL     1       2.494 -18.671  -4.049  1.00  0.00     0.239 A 
ATOM      6  C   UNL     1       2.563 -21.112  -4.370  1.00  0.00     0.146 A 
ATOM      7  O   UNL     1       2.878 -17.803  -3.188  1.00  0.00    -0.285 OA
ATOM      8  C   UNL     1       3.239 -19.872  -4.194  1.00  0.00     0.111 A 
ATOM      9  C   UNL     1       3.210 -22.340  -4.338  1.00  0.00     0.094 A 
ATOM     10  C   UNL     1       4.644 -19.918  -4.258  1.00  0.00     0.134 A 
ATOM     11  C   UNL     1       4.624 -22.375  -4.406  1.00  0.00     0.123 A 
ATOM     12  C   UNL     1       5.328 -21.110  -4.279  1.00  0.00     0.093 A 
BRANCH   3  13
ATOM     13  C   UNL     1      -0.021 -20.029  -6.283  1.00  0.00     0.021 A 
ATOM     14  C   UNL     1      -1.345 -20.492  -6.335  1.00  0.00     0.016 A 
ATOM     15  C   UNL     1      -2.083 -20.208  -7.483  1.00  0.00     0.047 A 
ATOM     16  C   UNL     1      -1.401 -19.678  -8.611  1.00  0.00     0.115 A 
ATOM     17  C   UNL     1       0.631 -19.568  -7.430  1.00  0.00     0.016 A 
ATOM     18  C   UNL     1      -0.101 -19.188  -8.534  1.00  0.00     0.047 A 
BRANCH  16  19
ATOM     19  O   UNL     1      -2.154 -19.432  -9.799  1.00  0.00    -0.508 OA
ATOM     20  H   UNL     1      -1.716 -19.012 -10.645  1.00  0.00     0.293 HD
ENDBRANCH  16  19
ENDBRANCH   3  13
BRANCH  10  21
ATOM     21  O   UNL     1       5.397 -18.724  -4.443  1.00  0.00    -0.507 OA
ATOM     22  H   UNL     1       6.189 -18.681  -5.146  1.00  0.00     0.293 HD
ENDBRANCH  10  21
BRANCH  11  23
ATOM     23  O   UNL     1       5.338 -23.545  -4.623  1.00  0.00    -0.508 OA
ATOM     24  H   UNL     1       4.900 -24.481  -4.704  1.00  0.00     0.293 HD
ENDBRANCH  11  23
ENDBRANCH   1   2
BRANCH   1  25
ATOM     25  C   UNL     1       0.104 -16.089  -5.244  1.00  0.00     0.339 C 
ATOM     26  C   UNL     1      -0.718 -16.181  -6.591  1.00  0.00     0.214 C 
ATOM     27  O   UNL     1      -0.400 -14.924  -4.468  1.00  0.00    -0.332 OA
ATOM     28  C   UNL     1      -0.907 -14.824  -7.422  1.00  0.00     0.180 C 
ATOM     29  C   UNL     1      -0.426 -13.728  -5.233  1.00  0.00     0.179 C 
ATOM     30  C   UNL     1      -1.548 -13.810  -6.383  1.00  0.00     0.177 C 
BRANCH  26  31
ATOM     31  O   UNL     1      -1.991 -16.867  -6.411  1.00  0.00    -0.384 OA
ATOM     32  H   UNL     1      -2.456 -16.395  -5.642  1.00  0.00     0.211 HD
ENDBRANCH  26  31
BRANCH  28  33
ATOM     33  O   UNL     1      -1.876 -15.062  -8.460  1.00  0.00    -0.387 OA
ATOM     34  H   UNL     1      -1.532 -14.520  -9.236  1.00  0.00     0.211 HD
ENDBRANCH  28  33
BRANCH  29  35
ATOM     35  C   UNL     1      -0.497 -12.379  -4.479  1.00  0.00     0.191 C 
BRANCH  35  36
ATOM     36  O   UNL     1      -1.733 -11.670  -4.703  1.00  0.00    -0.394 OA
ATOM     37  H   UNL     1      -2.237 -11.704  -3.808  1.00  0.00     0.210 HD
ENDBRANCH  35  36
ENDBRANCH  29  35
BRANCH  30  38
ATOM     38  O   UNL     1      -2.804 -14.229  -5.902  1.00  0.00    -0.387 OA
ATOM     39  H   UNL     1      -3.342 -14.570  -6.707  1.00  0.00     0.211 HD
ENDBRANCH  30  38
ENDBRANCH   1  25
TORSDOF 11
ENDMDL
MODEL 6
REMARK VINA RESULT:    -4.845      2.656      4.612
REMARK INTER + INTRA:          -9.001
REMARK INTER:                  -7.452
REMARK INTRA:                  -1.549
REMARK UNBOUND:                -2.032
REMARK SMILES O=c1c(O[C@@H]2O[C@H](CO)[C@H](O)[C@H](O)[C@@H]2O)c(-c2ccc(O)cc2)oc2cc(O)cc(O)c12
REMARK SMILES IDX 4 1 3 2 16 3 24 4 2 5 25 6 1 7 32 8 26 9 30 10 27 11 29 12
REMARK SMILES IDX 17 13 18 14 19 15 20 16 23 17 22 18 21 19 31 21 28 23 5 25
REMARK SMILES IDX 14 26 6 27 12 28 7 29 10 30 15 31 13 33 8 35 9 36 11 38
REMARK H PARENT 21 20 31 22 28 24 15 32 13 34 9 37 11 39
REMARK Flexibility Score: inf
ROOT
ATOM      1  O   UNL     1      -0.527 -18.561  -4.441  1.00  0.00    -0.454 OA
ENDROOT
BRANCH   1   2
ATOM      2  C   UNL     1      -1.393 -18.175  -5.567  1.00  0.00     0.214 A 
ATOM      3  C   UNL     1      -2.149 -16.912  -5.588  1.00  0.00     0.180 A 
ATOM      4  O   UNL     1      -3.234 -16.739  -6.286  1.00  0.00    -0.452 OA
ATOM      5  C   UNL     1      -1.710 -18.991  -6.686  1.00  0.00     0.239 A 
ATOM      6  C   UNL     1      -3.381 -17.354  -7.460  1.00  0.00     0.146 A 
ATOM      7  O   UNL     1      -1.567 -20.263  -6.626  1.00  0.00    -0.285 OA
ATOM      8  C   UNL     1      -2.497 -18.437  -7.732  1.00  0.00     0.111 A 
ATOM      9  C   UNL     1      -4.306 -16.882  -8.380  1.00  0.00     0.094 A 
ATOM     10  C   UNL     1      -2.407 -18.841  -9.077  1.00  0.00     0.134 A 
ATOM     11  C   UNL     1      -4.205 -17.292  -9.731  1.00  0.00     0.123 A 
ATOM     12  C   UNL     1      -3.269 -18.362 -10.034  1.00  0.00     0.093 A 
BRANCH   3  13
ATOM     13  C   UNL     1      -1.487 -15.696  -5.185  1.00  0.00     0.021 A 
ATOM     14  C   UNL     1      -0.255 -15.285  -5.718  1.00  0.00     0.016 A 
ATOM     15  C   UNL     1       0.113 -13.953  -5.539  1.00  0.00     0.047 A 
ATOM     16  C   UNL     1      -0.651 -13.155  -4.647  1.00  0.00     0.115 A 
ATOM     17  C   UNL     1      -2.179 -14.903  -4.266  1.00  0.00     0.016 A 
ATOM     18  C   UNL     1      -1.889 -13.560  -4.158  1.00  0.00     0.047 A 
BRANCH  16  19
ATOM     19  O   UNL     1      -0.242 -11.803  -4.432  1.00  0.00    -0.508 OA
ATOM     20  H   UNL     1       0.751 -11.510  -4.540  1.00  0.00     0.293 HD
ENDBRANCH  16  19
ENDBRANCH   3  13
BRANCH  10  21
ATOM     21  O   UNL     1      -1.325 -19.656  -9.514  1.00  0.00    -0.507 OA
ATOM     22  H   UNL     1      -0.357 -19.550  -9.095  1.00  0.00     0.293 HD
ENDBRANCH  10  21
BRANCH  11  23
ATOM     23  O   UNL     1      -4.924 -16.693 -10.756  1.00  0.00    -0.508 OA
ATOM     24  H   UNL     1      -5.578 -15.900 -10.615  1.00  0.00     0.293 HD
ENDBRANCH  11  23
ENDBRANCH   1   2
BRANCH   1  25
ATOM     25  C   UNL     1       0.878 -18.895  -4.062  1.00  0.00     0.339 C 
ATOM     26  C   UNL     1       1.152 -20.451  -4.074  1.00  0.00     0.214 C 
ATOM     27  O   UNL     1       2.043 -18.211  -4.686  1.00  0.00    -0.332 OA
ATOM     28  C   UNL     1       2.594 -20.941  -3.573  1.00  0.00     0.180 C 
ATOM     29  C   UNL     1       3.280 -18.603  -4.110  1.00  0.00     0.179 C 
ATOM     30  C   UNL     1       3.620 -20.133  -4.474  1.00  0.00     0.177 C 
BRANCH  26  31
ATOM     31  O   UNL     1       0.807 -21.059  -5.352  1.00  0.00    -0.384 OA
ATOM     32  H   UNL     1       1.419 -20.631  -6.040  1.00  0.00     0.211 HD
ENDBRANCH  26  31
BRANCH  28  33
ATOM     33  O   UNL     1       2.732 -22.339  -3.894  1.00  0.00    -0.387 OA
ATOM     34  H   UNL     1       1.870 -22.744  -3.567  1.00  0.00     0.211 HD
ENDBRANCH  28  33
BRANCH  29  35
ATOM     35  C   UNL     1       4.510 -17.691  -4.329  1.00  0.00     0.191 C 
BRANCH  35  36
ATOM     36  O   UNL     1       4.314 -16.716  -5.373  1.00  0.00    -0.394 OA
ATOM     37  H   UNL     1       4.729 -15.845  -5.019  1.00  0.00     0.210 HD
ENDBRANCH  35  36
ENDBRANCH  29  35
BRANCH  30  38
ATOM     38  O   UNL     1       3.494 -20.416  -5.848  1.00  0.00    -0.387 OA
ATOM     39  H   UNL     1       3.343 -19.524  -6.333  1.00  0.00     0.211 HD
ENDBRANCH  30  38
ENDBRANCH   1  25
TORSDOF 11
ENDMDL
MODEL 7
REMARK VINA RESULT:    -4.841      3.093      6.682
REMARK INTER + INTRA:          -8.995
REMARK INTER:                  -7.683
REMARK INTRA:                  -1.312
REMARK UNBOUND:                -2.032
REMARK SMILES O=c1c(O[C@@H]2O[C@H](CO)[C@H](O)[C@H](O)[C@@H]2O)c(-c2ccc(O)cc2)oc2cc(O)cc(O)c12
REMARK SMILES IDX 4 1 3 2 16 3 24 4 2 5 25 6 1 7 32 8 26 9 30 10 27 11 29 12
REMARK SMILES IDX 17 13 18 14 19 15 20 16 23 17 22 18 21 19 31 21 28 23 5 25
REMARK SMILES IDX 14 26 6 27 12 28 7 29 10 30 15 31 13 33 8 35 9 36 11 38
REMARK H PARENT 21 20 31 22 28 24 15 32 13 34 9 37 11 39
REMARK Flexibility Score: inf
ROOT
ATOM      1  O   UNL     1      -0.828 -16.979  -7.557  1.00  0.00    -0.454 OA
ENDROOT
BRANCH   1   2
ATOM      2  C   UNL     1       0.404 -17.153  -6.769  1.00  0.00     0.214 A 
ATOM      3  C   UNL     1       1.021 -16.051  -6.013  1.00  0.00     0.180 A 
ATOM      4  O   UNL     1       2.285 -16.014  -5.706  1.00  0.00    -0.452 OA
ATOM      5  C   UNL     1       1.207 -18.323  -6.735  1.00  0.00     0.239 A 
ATOM      6  C   UNL     1       2.946 -17.144  -5.448  1.00  0.00     0.146 A 
ATOM      7  O   UNL     1       1.130 -19.194  -7.672  1.00  0.00    -0.285 OA
ATOM      8  C   UNL     1       2.324 -18.358  -5.857  1.00  0.00     0.111 A 
ATOM      9  C   UNL     1       4.140 -17.104  -4.743  1.00  0.00     0.094 A 
ATOM     10  C   UNL     1       2.828 -19.537  -5.278  1.00  0.00     0.134 A 
ATOM     11  C   UNL     1       4.637 -18.295  -4.162  1.00  0.00     0.123 A 
ATOM     12  C   UNL     1       3.980 -19.539  -4.529  1.00  0.00     0.093 A 
BRANCH   3  13
ATOM     13  C   UNL     1       0.178 -15.195  -5.215  1.00  0.00     0.021 A 
ATOM     14  C   UNL     1      -0.188 -15.500  -3.894  1.00  0.00     0.016 A 
ATOM     15  C   UNL     1      -0.689 -14.464  -3.108  1.00  0.00     0.047 A 
ATOM     16  C   UNL     1      -1.012 -13.233  -3.738  1.00  0.00     0.115 A 
ATOM     17  C   UNL     1      -0.210 -13.994  -5.815  1.00  0.00     0.016 A 
ATOM     18  C   UNL     1      -0.608 -12.930  -5.035  1.00  0.00     0.047 A 
BRANCH  16  19
ATOM     19  O   UNL     1      -1.567 -12.190  -2.935  1.00  0.00    -0.508 OA
ATOM     20  H   UNL     1      -1.768 -11.248  -3.329  1.00  0.00     0.293 HD
ENDBRANCH  16  19
ENDBRANCH   3  13
BRANCH  10  21
ATOM     21  O   UNL     1       2.079 -20.746  -5.336  1.00  0.00    -0.507 OA
ATOM     22  H   UNL     1       2.503 -21.667  -5.027  1.00  0.00     0.293 HD
ENDBRANCH  10  21
BRANCH  11  23
ATOM     23  O   UNL     1       5.680 -18.309  -3.247  1.00  0.00    -0.508 OA
ATOM     24  H   UNL     1       6.567 -17.787  -3.376  1.00  0.00     0.293 HD
ENDBRANCH  11  23
ENDBRANCH   1   2
BRANCH   1  25
ATOM     25  C   UNL     1      -2.310 -17.165  -7.531  1.00  0.00     0.339 C 
ATOM     26  C   UNL     1      -2.979 -16.880  -8.934  1.00  0.00     0.214 C 
ATOM     27  O   UNL     1      -2.938 -18.384  -6.953  1.00  0.00    -0.332 OA
ATOM     28  C   UNL     1      -4.579 -16.935  -9.003  1.00  0.00     0.180 C 
ATOM     29  C   UNL     1      -4.356 -18.312  -6.935  1.00  0.00     0.179 C 
ATOM     30  C   UNL     1      -4.950 -18.367  -8.429  1.00  0.00     0.177 C 
BRANCH  26  31
ATOM     31  O   UNL     1      -2.380 -17.675  -9.998  1.00  0.00    -0.384 OA
ATOM     32  H   UNL     1      -3.053 -17.673 -10.760  1.00  0.00     0.211 HD
ENDBRANCH  26  31
BRANCH  28  33
ATOM     33  O   UNL     1      -4.972 -16.900 -10.388  1.00  0.00    -0.387 OA
ATOM     34  H   UNL     1      -5.269 -17.844 -10.575  1.00  0.00     0.211 HD
ENDBRANCH  28  33
BRANCH  29  35
ATOM     35  C   UNL     1      -5.125 -19.269  -5.993  1.00  0.00     0.191 C 
BRANCH  35  36
ATOM     36  O   UNL     1      -5.028 -20.653  -6.391  1.00  0.00    -0.394 OA
ATOM     37  H   UNL     1      -5.171 -21.197  -5.531  1.00  0.00     0.210 HD
ENDBRANCH  35  36
ENDBRANCH  29  35
BRANCH  30  38
ATOM     38  O   UNL     1      -4.424 -19.425  -9.196  1.00  0.00    -0.387 OA
ATOM     39  H   UNL     1      -3.705 -19.888  -8.627  1.00  0.00     0.211 HD
ENDBRANCH  30  38
ENDBRANCH   1  25
TORSDOF 11
ENDMDL
MODEL 8
REMARK VINA RESULT:    -4.781      2.704      6.035
REMARK INTER + INTRA:          -8.910
REMARK INTER:                  -7.694
REMARK INTRA:                  -1.216
REMARK UNBOUND:                -2.032
REMARK SMILES O=c1c(O[C@@H]2O[C@H](CO)[C@H](O)[C@H](O)[C@@H]2O)c(-c2ccc(O)cc2)oc2cc(O)cc(O)c12
REMARK SMILES IDX 4 1 3 2 16 3 24 4 2 5 25 6 1 7 32 8 26 9 30 10 27 11 29 12
REMARK SMILES IDX 17 13 18 14 19 15 20 16 23 17 22 18 21 19 31 21 28 23 5 25
REMARK SMILES IDX 14 26 6 27 12 28 7 29 10 30 15 31 13 33 8 35 9 36 11 38
REMARK H PARENT 21 20 31 22 28 24 15 32 13 34 9 37 11 39
REMARK Flexibility Score: inf
ROOT
ATOM      1  O   UNL     1       0.782 -18.013  -6.655  1.00  0.00    -0.454 OA
ENDROOT
BRANCH   1   2
ATOM      2  C   UNL     1       1.506 -19.145  -6.054  1.00  0.00     0.214 A 
ATOM      3  C   UNL     1       1.131 -20.546  -6.305  1.00  0.00     0.180 A 
ATOM      4  O   UNL     1       1.406 -21.518  -5.484  1.00  0.00    -0.452 OA
ATOM      5  C   UNL     1       2.541 -19.047  -5.086  1.00  0.00     0.239 A 
ATOM      6  C   UNL     1       2.527 -21.489  -4.762  1.00  0.00     0.146 A 
ATOM      7  O   UNL     1       2.676 -17.984  -4.383  1.00  0.00    -0.285 OA
ATOM      8  C   UNL     1       3.197 -20.236  -4.667  1.00  0.00     0.111 A 
ATOM      9  C   UNL     1       3.029 -22.660  -4.210  1.00  0.00     0.094 A 
ATOM     10  C   UNL     1       4.533 -20.278  -4.226  1.00  0.00     0.134 A 
ATOM     11  C   UNL     1       4.374 -22.693  -3.772  1.00  0.00     0.123 A 
ATOM     12  C   UNL     1       5.089 -21.429  -3.719  1.00  0.00     0.093 A 
BRANCH   3  13
ATOM     13  C   UNL     1       0.837 -20.959  -7.655  1.00  0.00     0.021 A 
ATOM     14  C   UNL     1       1.744 -21.677  -8.450  1.00  0.00     0.016 A 
ATOM     15  C   UNL     1       1.242 -22.326  -9.575  1.00  0.00     0.047 A 
ATOM     16  C   UNL     1      -0.090 -22.045  -9.980  1.00  0.00     0.115 A 
ATOM     17  C   UNL     1      -0.447 -20.655  -8.116  1.00  0.00     0.016 A 
ATOM     18  C   UNL     1      -0.989 -21.366  -9.164  1.00  0.00     0.047 A 
BRANCH  16  19
ATOM     19  O   UNL     1      -0.584 -22.679 -11.161  1.00  0.00    -0.508 OA
ATOM     20  H   UNL     1      -1.059 -22.138 -11.913  1.00  0.00     0.293 HD
ENDBRANCH  16  19
ENDBRANCH   3  13
BRANCH  10  21
ATOM     21  O   UNL     1       5.393 -19.161  -4.422  1.00  0.00    -0.507 OA
ATOM     22  H   UNL     1       6.224 -18.994  -3.786  1.00  0.00     0.293 HD
ENDBRANCH  10  21
BRANCH  11  23
ATOM     23  O   UNL     1       5.028 -23.870  -3.436  1.00  0.00    -0.508 OA
ATOM     24  H   UNL     1       4.579 -24.654  -2.928  1.00  0.00     0.293 HD
ENDBRANCH  11  23
ENDBRANCH   1   2
BRANCH   1  25
ATOM     25  C   UNL     1      -0.483 -17.221  -6.589  1.00  0.00     0.339 C 
ATOM     26  C   UNL     1      -0.219 -15.682  -6.344  1.00  0.00     0.214 C 
ATOM     27  O   UNL     1      -1.546 -17.354  -7.620  1.00  0.00    -0.332 OA
ATOM     28  C   UNL     1      -1.504 -14.746  -6.139  1.00  0.00     0.180 C 
ATOM     29  C   UNL     1      -2.704 -16.591  -7.313  1.00  0.00     0.179 C 
ATOM     30  C   UNL     1      -2.397 -15.016  -7.422  1.00  0.00     0.177 C 
BRANCH  26  31
ATOM     31  O   UNL     1       0.689 -15.117  -7.333  1.00  0.00    -0.384 OA
ATOM     32  H   UNL     1       0.362 -14.171  -7.504  1.00  0.00     0.211 HD
ENDBRANCH  26  31
BRANCH  28  33
ATOM     33  O   UNL     1      -1.073 -13.373  -6.183  1.00  0.00    -0.387 OA
ATOM     34  H   UNL     1      -0.354 -13.326  -5.479  1.00  0.00     0.211 HD
ENDBRANCH  28  33
BRANCH  29  35
ATOM     35  C   UNL     1      -4.029 -16.952  -8.027  1.00  0.00     0.191 C 
BRANCH  35  36
ATOM     36  O   UNL     1      -4.018 -16.634  -9.434  1.00  0.00    -0.394 OA
ATOM     37  H   UNL     1      -3.677 -15.666  -9.495  1.00  0.00     0.210 HD
ENDBRANCH  35  36
ENDBRANCH  29  35
BRANCH  30  38
ATOM     38  O   UNL     1      -1.760 -14.659  -8.627  1.00  0.00    -0.387 OA
ATOM     39  H   UNL     1      -1.906 -15.428  -9.291  1.00  0.00     0.211 HD
ENDBRANCH  30  38
ENDBRANCH   1  25
TORSDOF 11
ENDMDL
MODEL 9
REMARK VINA RESULT:    -4.617      1.783      3.027
REMARK INTER + INTRA:          -8.673
REMARK INTER:                  -7.766
REMARK INTRA:                  -0.907
REMARK UNBOUND:                -2.032
REMARK SMILES O=c1c(O[C@@H]2O[C@H](CO)[C@H](O)[C@H](O)[C@@H]2O)c(-c2ccc(O)cc2)oc2cc(O)cc(O)c12
REMARK SMILES IDX 4 1 3 2 16 3 24 4 2 5 25 6 1 7 32 8 26 9 30 10 27 11 29 12
REMARK SMILES IDX 17 13 18 14 19 15 20 16 23 17 22 18 21 19 31 21 28 23 5 25
REMARK SMILES IDX 14 26 6 27 12 28 7 29 10 30 15 31 13 33 8 35 9 36 11 38
REMARK H PARENT 21 20 31 22 28 24 15 32 13 34 9 37 11 39
REMARK Flexibility Score: inf
ROOT
ATOM      1  O   UNL     1       1.083 -18.879  -7.794  1.00  0.00    -0.454 OA
ENDROOT
BRANCH   1   2
ATOM      2  C   UNL     1      -0.061 -19.708  -8.209  1.00  0.00     0.214 A 
ATOM      3  C   UNL     1      -1.448 -19.388  -7.833  1.00  0.00     0.180 A 
ATOM      4  O   UNL     1      -2.394 -20.279  -7.765  1.00  0.00    -0.452 OA
ATOM      5  C   UNL     1       0.021 -20.951  -8.891  1.00  0.00     0.239 A 
ATOM      6  C   UNL     1      -2.398 -21.319  -8.601  1.00  0.00     0.146 A 
ATOM      7  O   UNL     1       1.106 -21.633  -8.874  1.00  0.00    -0.285 OA
ATOM      8  C   UNL     1      -1.184 -21.588  -9.295  1.00  0.00     0.111 A 
ATOM      9  C   UNL     1      -3.569 -22.031  -8.819  1.00  0.00     0.094 A 
ATOM     10  C   UNL     1      -1.285 -22.431 -10.417  1.00  0.00     0.134 A 
ATOM     11  C   UNL     1      -3.662 -22.874  -9.951  1.00  0.00     0.123 A 
ATOM     12  C   UNL     1      -2.441 -23.118 -10.702  1.00  0.00     0.093 A 
BRANCH   3  13
ATOM     13  C   UNL     1      -1.905 -18.026  -7.950  1.00  0.00     0.021 A 
ATOM     14  C   UNL     1      -3.100 -17.569  -7.370  1.00  0.00     0.016 A 
ATOM     15  C   UNL     1      -3.264 -16.192  -7.235  1.00  0.00     0.047 A 
ATOM     16  C   UNL     1      -2.339 -15.332  -7.884  1.00  0.00     0.115 A 
ATOM     17  C   UNL     1      -1.050 -17.154  -8.630  1.00  0.00     0.016 A 
ATOM     18  C   UNL     1      -1.141 -15.796  -8.420  1.00  0.00     0.047 A 
BRANCH  16  19
ATOM     19  O   UNL     1      -2.540 -13.922  -7.779  1.00  0.00    -0.508 OA
ATOM     20  H   UNL     1      -2.280 -13.397  -6.918  1.00  0.00     0.293 HD
ENDBRANCH  16  19
ENDBRANCH   3  13
BRANCH  10  21
ATOM     21  O   UNL     1      -0.232 -22.490 -11.373  1.00  0.00    -0.507 OA
ATOM     22  H   UNL     1       0.753 -22.191 -11.120  1.00  0.00     0.293 HD
ENDBRANCH  10  21
BRANCH  11  23
ATOM     23  O   UNL     1      -4.859 -23.430 -10.380  1.00  0.00    -0.508 OA
ATOM     24  H   UNL     1      -5.489 -22.981 -11.070  1.00  0.00     0.293 HD
ENDBRANCH  11  23
ENDBRANCH   1   2
BRANCH   1  25
ATOM     25  C   UNL     1       1.982 -18.556  -6.646  1.00  0.00     0.339 C 
ATOM     26  C   UNL     1       1.369 -17.458  -5.689  1.00  0.00     0.214 C 
ATOM     27  O   UNL     1       2.593 -19.620  -5.805  1.00  0.00    -0.332 OA
ATOM     28  C   UNL     1       2.292 -16.944  -4.484  1.00  0.00     0.180 C 
ATOM     29  C   UNL     1       3.494 -19.102  -4.837  1.00  0.00     0.179 C 
ATOM     30  C   UNL     1       2.703 -18.267  -3.711  1.00  0.00     0.177 C 
BRANCH  26  31
ATOM     31  O   UNL     1       0.041 -17.825  -5.214  1.00  0.00    -0.384 OA
ATOM     32  H   UNL     1       0.002 -17.532  -4.242  1.00  0.00     0.211 HD
ENDBRANCH  26  31
BRANCH  28  33
ATOM     33  O   UNL     1       1.478 -16.152  -3.599  1.00  0.00    -0.387 OA
ATOM     34  H   UNL     1       1.798 -15.211  -3.759  1.00  0.00     0.211 HD
ENDBRANCH  28  33
BRANCH  29  35
ATOM     35  C   UNL     1       4.518 -20.070  -4.198  1.00  0.00     0.191 C 
BRANCH  35  36
ATOM     36  O   UNL     1       5.337 -20.750  -5.171  1.00  0.00    -0.394 OA
ATOM     37  H   UNL     1       4.788 -20.755  -6.040  1.00  0.00     0.210 HD
ENDBRANCH  35  36
ENDBRANCH  29  35
BRANCH  30  38
ATOM     38  O   UNL     1       1.602 -18.964  -3.177  1.00  0.00    -0.387 OA
ATOM     39  H   UNL     1       1.702 -18.958  -2.155  1.00  0.00     0.211 HD
ENDBRANCH  30  38
ENDBRANCH   1  25
TORSDOF 11
ENDMDL
