MODEL 1
REMARK VINA RESULT:    -2.788      0.000      0.000
REMARK INTER + INTRA:          -2.788
REMARK INTER:                  -2.788
REMARK INTRA:                   0.000
REMARK UNBOUND:                 0.000
REMARK SMILES CC(=O)[O-]
REMARK SMILES IDX 1 1 2 2 3 3 4 4
REMARK H PARENT
REMARK Flexibility Score: inf
ROOT
ATOM      1  C   UNL     1      -8.358  -7.747 -19.723  1.00  0.00     0.063 C 
ATOM      2  C   UNL     1      -8.166  -6.268 -19.733  1.00  0.00     0.038 C 
ATOM      3  O   UNL     1      -9.114  -5.505 -19.410  1.00  0.00    -0.550 OA
ATOM      4  O   UNL     1      -6.958  -5.726 -20.151  1.00  0.00    -0.550 OA
ENDROOT
TORSDOF 0
ENDMDL
MODEL 2
REMARK VINA RESULT:    -2.781      0.079      1.621
REMARK INTER + INTRA:          -2.781
REMARK INTER:                  -2.781
REMARK INTRA:                   0.000
REMARK UNBOUND:                 0.000
REMARK SMILES CC(=O)[O-]
REMARK SMILES IDX 1 1 2 2 3 3 4 4
REMARK H PARENT
REMARK Flexibility Score: inf
ROOT
ATOM      1  C   UNL     1      -8.314  -7.755 -19.723  1.00  0.00     0.063 C 
ATOM      2  C   UNL     1      -8.143  -6.274 -19.759  1.00  0.00     0.038 C 
ATOM      3  O   UNL     1      -7.041  -5.774 -20.108  1.00  0.00    -0.550 OA
ATOM      4  O   UNL     1      -9.180  -5.444 -19.357  1.00  0.00    -0.550 OA
ENDROOT
TORSDOF 0
ENDMDL
MODEL 3
REMARK VINA RESULT:    -2.682      4.330      4.939
REMARK INTER + INTRA:          -2.682
REMARK INTER:                  -2.682
REMARK INTRA:                   0.000
REMARK UNBOUND:                 0.000
REMARK SMILES CC(=O)[O-]
REMARK SMILES IDX 1 1 2 2 3 3 4 4
REMARK H PARENT
REMARK Flexibility Score: inf
ROOT
ATOM      1  C   UNL     1      -7.391  -0.590 -19.426  1.00  0.00     0.063 C 
ATOM      2  C   UNL     1      -7.417  -1.958 -20.020  1.00  0.00     0.038 C 
ATOM      3  O   UNL     1      -7.431  -2.103 -21.271  1.00  0.00    -0.550 OA
ATOM      4  O   UNL     1      -7.479  -3.073 -19.196  1.00  0.00    -0.550 OA
ENDROOT
TORSDOF 0
ENDMDL
MODEL 4
REMARK VINA RESULT:    -2.652      2.580      3.053
REMARK INTER + INTRA:          -2.652
REMARK INTER:                  -2.652
REMARK INTRA:                   0.000
REMARK UNBOUND:                 0.000
REMARK SMILES CC(=O)[O-]
REMARK SMILES IDX 1 1 2 2 3 3 4 4
REMARK H PARENT
REMARK Flexibility Score: inf
ROOT
ATOM      1  C   UNL     1      -7.097  -3.188 -21.596  1.00  0.00     0.063 C 
ATOM      2  C   UNL     1      -7.366  -4.032 -20.396  1.00  0.00     0.038 C 
ATOM      3  O   UNL     1      -7.979  -3.548 -19.409  1.00  0.00    -0.550 OA
ATOM      4  O   UNL     1      -6.895  -5.337 -20.343  1.00  0.00    -0.550 OA
ENDROOT
TORSDOF 0
ENDMDL
MODEL 5
REMARK VINA RESULT:    -2.621      3.331      3.614
REMARK INTER + INTRA:          -2.621
REMARK INTER:                  -2.621
REMARK INTRA:                   0.000
REMARK UNBOUND:                 0.000
REMARK SMILES CC(=O)[O-]
REMARK SMILES IDX 1 1 2 2 3 3 4 4
REMARK H PARENT
REMARK Flexibility Score: inf
ROOT
ATOM      1  C   UNL     1      -7.630  -4.233 -20.215  1.00  0.00     0.063 C 
ATOM      2  C   UNL     1      -7.063  -3.214 -21.145  1.00  0.00     0.038 C 
ATOM      3  O   UNL     1      -7.521  -2.041 -21.152  1.00  0.00    -0.550 OA
ATOM      4  O   UNL     1      -6.066  -3.570 -22.043  1.00  0.00    -0.550 OA
ENDROOT
TORSDOF 0
ENDMDL
MODEL 6
REMARK VINA RESULT:    -2.621      3.788      4.165
REMARK INTER + INTRA:          -2.621
REMARK INTER:                  -2.621
REMARK INTRA:                   0.000
REMARK UNBOUND:                 0.000
REMARK SMILES CC(=O)[O-]
REMARK SMILES IDX 1 1 2 2 3 3 4 4
REMARK H PARENT
REMARK Flexibility Score: inf
ROOT
ATOM      1  C   UNL     1      -7.075  -3.122 -21.589  1.00  0.00     0.063 C 
ATOM      2  C   UNL     1      -7.452  -2.529 -20.273  1.00  0.00     0.038 C 
ATOM      3  O   UNL     1      -7.749  -3.277 -19.305  1.00  0.00    -0.550 OA
ATOM      4  O   UNL     1      -7.528  -1.150 -20.128  1.00  0.00    -0.550 OA
ENDROOT
TORSDOF 0
ENDMDL
MODEL 7
REMARK VINA RESULT:    -2.582      1.354      1.730
REMARK INTER + INTRA:          -2.582
REMARK INTER:                  -2.582
REMARK INTRA:                   0.000
REMARK UNBOUND:                 0.000
REMARK SMILES CC(=O)[O-]
REMARK SMILES IDX 1 1 2 2 3 3 4 4
REMARK H PARENT
REMARK Flexibility Score: inf
ROOT
ATOM      1  C   UNL     1      -8.972  -5.180 -19.017  1.00  0.00     0.063 C 
ATOM      2  C   UNL     1      -7.977  -6.109 -19.626  1.00  0.00     0.038 C 
ATOM      3  O   UNL     1      -8.136  -7.355 -19.532  1.00  0.00    -0.550 OA
ATOM      4  O   UNL     1      -6.845  -5.604 -20.251  1.00  0.00    -0.550 OA
ENDROOT
TORSDOF 0
ENDMDL
MODEL 8
REMARK VINA RESULT:    -2.450     10.162     10.464
REMARK INTER + INTRA:          -2.450
REMARK INTER:                  -2.450
REMARK INTRA:                   0.000
REMARK UNBOUND:                 0.000
REMARK SMILES CC(=O)[O-]
REMARK SMILES IDX 1 1 2 2 3 3 4 4
REMARK H PARENT
REMARK Flexibility Score: inf
ROOT
ATOM      1  C   UNL     1     -17.163  -8.080 -20.095  1.00  0.00     0.063 C 
ATOM      2  C   UNL     1     -18.022  -9.294 -19.980  1.00  0.00     0.038 C 
ATOM      3  O   UNL     1     -18.347  -9.732 -18.845  1.00  0.00    -0.550 OA
ATOM      4  O   UNL     1     -18.422  -9.974 -21.122  1.00  0.00    -0.550 OA
ENDROOT
TORSDOF 0
ENDMDL
MODEL 9
REMARK VINA RESULT:    -2.446     10.128     10.507
REMARK INTER + INTRA:          -2.446
REMARK INTER:                  -2.446
REMARK INTRA:                   0.000
REMARK UNBOUND:                 0.000
REMARK SMILES CC(=O)[O-]
REMARK SMILES IDX 1 1 2 2 3 3 4 4
REMARK H PARENT
REMARK Flexibility Score: inf
ROOT
ATOM      1  C   UNL     1     -17.034  -8.298 -20.148  1.00  0.00     0.063 C 
ATOM      2  C   UNL     1     -17.999  -9.405 -19.888  1.00  0.00     0.038 C 
ATOM      3  O   UNL     1     -18.550 -10.002 -20.850  1.00  0.00    -0.550 OA
ATOM      4  O   UNL     1     -18.332  -9.746 -18.584  1.00  0.00    -0.550 OA
ENDROOT
TORSDOF 0
ENDMDL
