MODEL 1
REMARK VINA RESULT:    -3.980      0.000      0.000
REMARK INTER + INTRA:          -5.846
REMARK INTER:                  -5.609
REMARK INTRA:                  -0.237
REMARK UNBOUND:                -0.237
REMARK SMILES CCCCCCCCC(=O)[O-]
REMARK SMILES IDX 6 1 7 2 8 3 9 4 10 5 11 6 5 7 4 8 3 9 2 10 1 11
REMARK H PARENT
REMARK Flexibility Score: inf
ROOT
ATOM      1  C   UNL     1       0.383   3.879   8.048  1.00  0.00     0.000 C 
ENDROOT
BRANCH   1   2
ATOM      2  C   UNL     1       0.574   4.409   6.621  1.00  0.00     0.006 C 
BRANCH   2   3
ATOM      3  C   UNL     1      -0.238   5.689   6.398  1.00  0.00     0.053 C 
BRANCH   3   4
ATOM      4  C   UNL     1      -0.434   5.936   4.936  1.00  0.00     0.041 C 
ATOM      5  O   UNL     1       0.081   5.162   4.087  1.00  0.00    -0.550 OA
ATOM      6  O   UNL     1      -1.143   7.052   4.509  1.00  0.00    -0.550 OA
ENDBRANCH   3   4
ENDBRANCH   2   3
ENDBRANCH   1   2
BRANCH   1   7
ATOM      7  C   UNL     1       1.128   2.549   8.243  1.00  0.00     0.000 C 
BRANCH   7   8
ATOM      8  C   UNL     1       1.493   1.873   6.911  1.00  0.00    -0.000 C 
BRANCH   8   9
ATOM      9  C   UNL     1       1.706   0.356   7.058  1.00  0.00    -0.000 C 
BRANCH   9  10
ATOM     10  C   UNL     1       1.295  -0.421   5.797  1.00  0.00    -0.003 C 
ATOM     11  C   UNL     1       2.247  -1.573   5.474  1.00  0.00     0.004 C 
ENDBRANCH   9  10
ENDBRANCH   8   9
ENDBRANCH   7   8
ENDBRANCH   1   7
TORSDOF 7
ENDMDL
MODEL 2
REMARK VINA RESULT:    -3.914      5.932      7.491
REMARK INTER + INTRA:          -5.753
REMARK INTER:                  -5.418
REMARK INTRA:                  -0.336
REMARK UNBOUND:                -0.237
REMARK SMILES CCCCCCCCC(=O)[O-]
REMARK SMILES IDX 6 1 7 2 8 3 9 4 10 5 11 6 5 7 4 8 3 9 2 10 1 11
REMARK H PARENT
REMARK Flexibility Score: inf
ROOT
ATOM      1  C   UNL     1      -0.309  -2.444   6.033  1.00  0.00     0.000 C 
ENDROOT
BRANCH   1   2
ATOM      2  C   UNL     1       0.518  -1.436   5.224  1.00  0.00     0.006 C 
BRANCH   2   3
ATOM      3  C   UNL     1       1.897  -1.223   5.857  1.00  0.00     0.053 C 
BRANCH   3   4
ATOM      4  C   UNL     1       2.828  -2.326   5.469  1.00  0.00     0.041 C 
ATOM      5  O   UNL     1       3.398  -2.310   4.346  1.00  0.00    -0.550 OA
ATOM      6  O   UNL     1       3.030  -3.401   6.327  1.00  0.00    -0.550 OA
ENDBRANCH   3   4
ENDBRANCH   2   3
ENDBRANCH   1   2
BRANCH   1   7
ATOM      7  C   UNL     1      -1.557  -2.881   5.251  1.00  0.00     0.000 C 
BRANCH   7   8
ATOM      8  C   UNL     1      -1.983  -1.853   4.190  1.00  0.00    -0.000 C 
BRANCH   8   9
ATOM      9  C   UNL     1      -3.435  -2.054   3.722  1.00  0.00    -0.000 C 
BRANCH   9  10
ATOM     10  C   UNL     1      -4.353  -0.894   4.138  1.00  0.00    -0.003 C 
ATOM     11  C   UNL     1      -4.847  -1.016   5.580  1.00  0.00     0.004 C 
ENDBRANCH   9  10
ENDBRANCH   8   9
ENDBRANCH   7   8
ENDBRANCH   1   7
TORSDOF 7
ENDMDL
MODEL 3
REMARK VINA RESULT:    -3.890      5.559      7.407
REMARK INTER + INTRA:          -5.719
REMARK INTER:                  -5.421
REMARK INTRA:                  -0.298
REMARK UNBOUND:                -0.237
REMARK SMILES CCCCCCCCC(=O)[O-]
REMARK SMILES IDX 6 1 7 2 8 3 9 4 10 5 11 6 5 7 4 8 3 9 2 10 1 11
REMARK H PARENT
REMARK Flexibility Score: inf
ROOT
ATOM      1  C   UNL     1      -1.689  -2.651   5.549  1.00  0.00     0.000 C 
ENDROOT
BRANCH   1   2
ATOM      2  C   UNL     1      -0.204  -2.561   5.924  1.00  0.00     0.006 C 
BRANCH   2   3
ATOM      3  C   UNL     1       0.458  -1.351   5.259  1.00  0.00     0.053 C 
BRANCH   3   4
ATOM      4  C   UNL     1       1.939  -1.391   5.454  1.00  0.00     0.041 C 
ATOM      5  O   UNL     1       2.488  -0.645   6.308  1.00  0.00    -0.550 OA
ATOM      6  O   UNL     1       2.724  -2.217   4.658  1.00  0.00    -0.550 OA
ENDBRANCH   3   4
ENDBRANCH   2   3
ENDBRANCH   1   2
BRANCH   1   7
ATOM      7  C   UNL     1      -1.969  -1.909   4.233  1.00  0.00     0.000 C 
BRANCH   7   8
ATOM      8  C   UNL     1      -3.456  -1.930   3.844  1.00  0.00    -0.000 C 
BRANCH   8   9
ATOM      9  C   UNL     1      -4.257  -0.801   4.515  1.00  0.00    -0.000 C 
BRANCH   9  10
ATOM     10  C   UNL     1      -5.071  -1.294   5.722  1.00  0.00    -0.003 C 
ATOM     11  C   UNL     1      -5.668  -0.149   6.542  1.00  0.00     0.004 C 
ENDBRANCH   9  10
ENDBRANCH   8   9
ENDBRANCH   7   8
ENDBRANCH   1   7
TORSDOF 7
ENDMDL
MODEL 4
REMARK VINA RESULT:    -3.628      5.245      6.570
REMARK INTER + INTRA:          -5.350
REMARK INTER:                  -5.014
REMARK INTRA:                  -0.336
REMARK UNBOUND:                -0.237
REMARK SMILES CCCCCCCCC(=O)[O-]
REMARK SMILES IDX 6 1 7 2 8 3 9 4 10 5 11 6 5 7 4 8 3 9 2 10 1 11
REMARK H PARENT
REMARK Flexibility Score: inf
ROOT
ATOM      1  C   UNL     1      -1.448  -2.682   5.705  1.00  0.00     0.000 C 
ENDROOT
BRANCH   1   2
ATOM      2  C   UNL     1      -1.672  -1.990   4.354  1.00  0.00     0.006 C 
BRANCH   2   3
ATOM      3  C   UNL     1      -2.764  -2.700   3.548  1.00  0.00     0.053 C 
BRANCH   3   4
ATOM      4  C   UNL     1      -4.066  -1.976   3.680  1.00  0.00     0.041 C 
ATOM      5  O   UNL     1      -5.150  -2.570   3.435  1.00  0.00    -0.550 OA
ATOM      6  O   UNL     1      -4.082  -0.631   4.024  1.00  0.00    -0.550 OA
ENDBRANCH   3   4
ENDBRANCH   2   3
ENDBRANCH   1   2
BRANCH   1   7
ATOM      7  C   UNL     1      -0.074  -2.315   6.287  1.00  0.00     0.000 C 
BRANCH   7   8
ATOM      8  C   UNL     1       0.812  -1.556   5.285  1.00  0.00    -0.000 C 
BRANCH   8   9
ATOM      9  C   UNL     1       1.932  -0.758   5.975  1.00  0.00    -0.000 C 
BRANCH   9  10
ATOM     10  C   UNL     1       3.272  -1.512   5.984  1.00  0.00    -0.003 C 
ATOM     11  C   UNL     1       3.426  -2.461   4.795  1.00  0.00     0.004 C 
ENDBRANCH   9  10
ENDBRANCH   8   9
ENDBRANCH   7   8
ENDBRANCH   1   7
TORSDOF 7
ENDMDL
MODEL 5
REMARK VINA RESULT:    -3.603      5.656      7.318
REMARK INTER + INTRA:          -5.315
REMARK INTER:                  -4.983
REMARK INTRA:                  -0.331
REMARK UNBOUND:                -0.237
REMARK SMILES CCCCCCCCC(=O)[O-]
REMARK SMILES IDX 6 1 7 2 8 3 9 4 10 5 11 6 5 7 4 8 3 9 2 10 1 11
REMARK H PARENT
REMARK Flexibility Score: inf
ROOT
ATOM      1  C   UNL     1      -1.139  -2.554   6.046  1.00  0.00     0.000 C 
ENDROOT
BRANCH   1   2
ATOM      2  C   UNL     1       0.292  -2.240   6.501  1.00  0.00     0.006 C 
BRANCH   2   3
ATOM      3  C   UNL     1       0.982  -1.284   5.523  1.00  0.00     0.053 C 
BRANCH   3   4
ATOM      4  C   UNL     1       2.459  -1.519   5.515  1.00  0.00     0.041 C 
ATOM      5  O   UNL     1       3.196  -0.952   6.364  1.00  0.00    -0.550 OA
ATOM      6  O   UNL     1       3.029  -2.325   4.538  1.00  0.00    -0.550 OA
ENDBRANCH   3   4
ENDBRANCH   2   3
ENDBRANCH   1   2
BRANCH   1   7
ATOM      7  C   UNL     1      -1.311  -2.274   4.545  1.00  0.00     0.000 C 
BRANCH   7   8
ATOM      8  C   UNL     1      -2.721  -1.775   4.191  1.00  0.00    -0.000 C 
BRANCH   8   9
ATOM      9  C   UNL     1      -3.505  -2.781   3.330  1.00  0.00    -0.000 C 
BRANCH   9  10
ATOM     10  C   UNL     1      -2.586  -3.785   2.615  1.00  0.00    -0.003 C 
ATOM     11  C   UNL     1      -3.353  -4.752   1.713  1.00  0.00     0.004 C 
ENDBRANCH   9  10
ENDBRANCH   8   9
ENDBRANCH   7   8
ENDBRANCH   1   7
TORSDOF 7
ENDMDL
MODEL 6
REMARK VINA RESULT:    -3.476      8.579     11.072
REMARK INTER + INTRA:          -5.135
REMARK INTER:                  -4.824
REMARK INTRA:                  -0.311
REMARK UNBOUND:                -0.237
REMARK SMILES CCCCCCCCC(=O)[O-]
REMARK SMILES IDX 6 1 7 2 8 3 9 4 10 5 11 6 5 7 4 8 3 9 2 10 1 11
REMARK H PARENT
REMARK Flexibility Score: inf
ROOT
ATOM      1  C   UNL     1      -3.283  -5.220  -0.586  1.00  0.00     0.000 C 
ENDROOT
BRANCH   1   2
ATOM      2  C   UNL     1      -2.363  -4.976  -1.790  1.00  0.00     0.006 C 
BRANCH   2   3
ATOM      3  C   UNL     1      -1.050  -4.319  -1.353  1.00  0.00     0.053 C 
BRANCH   3   4
ATOM      4  C   UNL     1       0.034  -4.611  -2.341  1.00  0.00     0.041 C 
ATOM      5  O   UNL     1       1.141  -5.070  -1.951  1.00  0.00    -0.550 OA
ATOM      6  O   UNL     1      -0.157  -4.328  -3.687  1.00  0.00    -0.550 OA
ENDBRANCH   3   4
ENDBRANCH   2   3
ENDBRANCH   1   2
BRANCH   1   7
ATOM      7  C   UNL     1      -2.572  -4.862   0.728  1.00  0.00     0.000 C 
BRANCH   7   8
ATOM      8  C   UNL     1      -3.385  -5.260   1.971  1.00  0.00    -0.000 C 
BRANCH   8   9
ATOM      9  C   UNL     1      -3.634  -4.074   2.918  1.00  0.00    -0.000 C 
BRANCH   9  10
ATOM     10  C   UNL     1      -2.381  -3.205   3.116  1.00  0.00    -0.003 C 
ATOM     11  C   UNL     1      -2.680  -1.889   3.834  1.00  0.00     0.004 C 
ENDBRANCH   9  10
ENDBRANCH   8   9
ENDBRANCH   7   8
ENDBRANCH   1   7
TORSDOF 7
ENDMDL
MODEL 7
REMARK VINA RESULT:    -3.462      6.144      8.121
REMARK INTER + INTRA:          -5.115
REMARK INTER:                  -4.699
REMARK INTRA:                  -0.416
REMARK UNBOUND:                -0.237
REMARK SMILES CCCCCCCCC(=O)[O-]
REMARK SMILES IDX 6 1 7 2 8 3 9 4 10 5 11 6 5 7 4 8 3 9 2 10 1 11
REMARK H PARENT
REMARK Flexibility Score: inf
ROOT
ATOM      1  C   UNL     1      -2.924  -1.520   3.964  1.00  0.00     0.000 C 
ENDROOT
BRANCH   1   2
ATOM      2  C   UNL     1      -2.512  -2.311   5.212  1.00  0.00     0.006 C 
BRANCH   2   3
ATOM      3  C   UNL     1      -1.148  -2.979   5.014  1.00  0.00     0.053 C 
BRANCH   3   4
ATOM      4  C   UNL     1      -0.078  -2.200   5.710  1.00  0.00     0.041 C 
ATOM      5  O   UNL     1       0.869  -1.693   5.052  1.00  0.00    -0.550 OA
ATOM      6  O   UNL     1      -0.098  -2.074   7.094  1.00  0.00    -0.550 OA
ENDBRANCH   3   4
ENDBRANCH   2   3
ENDBRANCH   1   2
BRANCH   1   7
ATOM      7  C   UNL     1      -4.404  -1.113   4.037  1.00  0.00     0.000 C 
BRANCH   7   8
ATOM      8  C   UNL     1      -5.244  -2.078   4.890  1.00  0.00    -0.000 C 
BRANCH   8   9
ATOM      9  C   UNL     1      -6.214  -1.343   5.831  1.00  0.00    -0.000 C 
BRANCH   9  10
ATOM     10  C   UNL     1      -5.564  -0.130   6.517  1.00  0.00    -0.003 C 
ATOM     11  C   UNL     1      -6.558   0.689   7.340  1.00  0.00     0.004 C 
ENDBRANCH   9  10
ENDBRANCH   8   9
ENDBRANCH   7   8
ENDBRANCH   1   7
TORSDOF 7
ENDMDL
MODEL 8
REMARK VINA RESULT:    -3.354      2.627      4.793
REMARK INTER + INTRA:          -4.963
REMARK INTER:                  -4.504
REMARK INTRA:                  -0.459
REMARK UNBOUND:                -0.237
REMARK SMILES CCCCCCCCC(=O)[O-]
REMARK SMILES IDX 6 1 7 2 8 3 9 4 10 5 11 6 5 7 4 8 3 9 2 10 1 11
REMARK H PARENT
REMARK Flexibility Score: inf
ROOT
ATOM      1  C   UNL     1       0.727   3.409   7.819  1.00  0.00     0.000 C 
ENDROOT
BRANCH   1   2
ATOM      2  C   UNL     1       0.459   4.491   6.765  1.00  0.00     0.006 C 
BRANCH   2   3
ATOM      3  C   UNL     1       1.399   4.335   5.566  1.00  0.00     0.053 C 
BRANCH   3   4
ATOM      4  C   UNL     1       0.862   5.068   4.380  1.00  0.00     0.041 C 
ATOM      5  O   UNL     1       1.599   5.287   3.381  1.00  0.00    -0.550 OA
ATOM      6  O   UNL     1      -0.439   5.556   4.394  1.00  0.00    -0.550 OA
ENDBRANCH   3   4
ENDBRANCH   2   3
ENDBRANCH   1   2
BRANCH   1   7
ATOM      7  C   UNL     1       0.034   3.754   9.147  1.00  0.00     0.000 C 
BRANCH   7   8
ATOM      8  C   UNL     1      -0.362   5.237   9.242  1.00  0.00    -0.000 C 
BRANCH   8   9
ATOM      9  C   UNL     1      -1.807   5.432   9.733  1.00  0.00    -0.000 C 
BRANCH   9  10
ATOM     10  C   UNL     1      -2.476   6.671   9.117  1.00  0.00    -0.003 C 
ATOM     11  C   UNL     1      -2.367   6.706   7.592  1.00  0.00     0.004 C 
ENDBRANCH   9  10
ENDBRANCH   8   9
ENDBRANCH   7   8
ENDBRANCH   1   7
TORSDOF 7
ENDMDL
MODEL 9
REMARK VINA RESULT:    -3.314      5.571      7.124
REMARK INTER + INTRA:          -4.907
REMARK INTER:                  -4.508
REMARK INTRA:                  -0.399
REMARK UNBOUND:                -0.237
REMARK SMILES CCCCCCCCC(=O)[O-]
REMARK SMILES IDX 6 1 7 2 8 3 9 4 10 5 11 6 5 7 4 8 3 9 2 10 1 11
REMARK H PARENT
REMARK Flexibility Score: inf
ROOT
ATOM      1  C   UNL     1      -3.610  -2.804   3.415  1.00  0.00     0.000 C 
ENDROOT
BRANCH   1   2
ATOM      2  C   UNL     1      -4.090  -1.429   3.896  1.00  0.00     0.006 C 
BRANCH   2   3
ATOM      3  C   UNL     1      -5.331  -1.559   4.784  1.00  0.00     0.053 C 
BRANCH   3   4
ATOM      4  C   UNL     1      -5.009  -1.177   6.193  1.00  0.00     0.041 C 
ATOM      5  O   UNL     1      -4.234  -1.890   6.883  1.00  0.00    -0.550 OA
ATOM      6  O   UNL     1      -5.605  -0.058   6.763  1.00  0.00    -0.550 OA
ENDBRANCH   3   4
ENDBRANCH   2   3
ENDBRANCH   1   2
BRANCH   1   7
ATOM      7  C   UNL     1      -2.134  -3.028   3.778  1.00  0.00     0.000 C 
BRANCH   7   8
ATOM      8  C   UNL     1      -1.508  -1.816   4.488  1.00  0.00    -0.000 C 
BRANCH   8   9
ATOM      9  C   UNL     1      -0.388  -2.218   5.464  1.00  0.00    -0.000 C 
BRANCH   9  10
ATOM     10  C   UNL     1       0.884  -1.374   5.280  1.00  0.00    -0.003 C 
ATOM     11  C   UNL     1       1.569  -1.039   6.606  1.00  0.00     0.004 C 
ENDBRANCH   9  10
ENDBRANCH   8   9
ENDBRANCH   7   8
ENDBRANCH   1   7
TORSDOF 7
ENDMDL
