MODEL 1
REMARK VINA RESULT:    -5.082      0.000      0.000
REMARK INTER + INTRA:          -5.564
REMARK INTER:                  -5.528
REMARK INTRA:                  -0.036
REMARK UNBOUND:                -0.036
REMARK SMILES O=C([O-])c1ccc(O)cc1
REMARK SMILES IDX 7 1 6 2 9 3 5 4 10 5 4 6 8 7 2 9 1 10 3 11
REMARK H PARENT 8 8
REMARK Flexibility Score: inf
ROOT
ATOM      1  C   UNL     1     -12.332 -66.248 -22.106  1.00  0.00     0.115 A 
ATOM      2  C   UNL     1     -13.170 -67.117 -22.810  1.00  0.00     0.047 A 
ATOM      3  C   UNL     1     -12.171 -64.928 -22.547  1.00  0.00     0.047 A 
ATOM      4  C   UNL     1     -13.846 -66.673 -23.951  1.00  0.00     0.014 A 
ATOM      5  C   UNL     1     -12.844 -64.481 -23.687  1.00  0.00     0.014 A 
ATOM      6  C   UNL     1     -13.690 -65.350 -24.402  1.00  0.00    -0.003 A 
ENDROOT
BRANCH   1   7
ATOM      7  O   UNL     1     -11.665 -66.704 -20.971  1.00  0.00    -0.508 OA
ATOM      8  H   UNL     1     -11.542 -67.694 -20.792  1.00  0.00     0.293 HD
ENDBRANCH   1   7
BRANCH   6   9
ATOM      9  C   UNL     1     -14.406 -64.883 -25.610  1.00  0.00     0.071 C 
ATOM     10  O   UNL     1     -14.257 -63.703 -26.027  1.00  0.00    -0.545 OA
ATOM     11  O   UNL     1     -15.254 -65.740 -26.301  1.00  0.00    -0.545 OA
ENDBRANCH   6   9
TORSDOF 2
ENDMDL
MODEL 2
REMARK VINA RESULT:    -5.020      8.662      9.662
REMARK INTER + INTRA:          -5.496
REMARK INTER:                  -5.460
REMARK INTRA:                  -0.036
REMARK UNBOUND:                -0.036
REMARK SMILES O=C([O-])c1ccc(O)cc1
REMARK SMILES IDX 7 1 6 2 9 3 5 4 10 5 4 6 8 7 2 9 1 10 3 11
REMARK H PARENT 8 8
REMARK Flexibility Score: inf
ROOT
ATOM      1  C   UNL     1     -10.162 -67.599 -31.022  1.00  0.00     0.115 A 
ATOM      2  C   UNL     1     -10.988 -67.057 -32.011  1.00  0.00     0.047 A 
ATOM      3  C   UNL     1      -8.832 -67.173 -30.918  1.00  0.00     0.047 A 
ATOM      4  C   UNL     1     -10.490 -66.093 -32.894  1.00  0.00     0.014 A 
ATOM      5  C   UNL     1      -8.331 -66.210 -31.799  1.00  0.00     0.014 A 
ATOM      6  C   UNL     1      -9.156 -65.660 -32.797  1.00  0.00    -0.003 A 
ENDROOT
BRANCH   1   7
ATOM      7  O   UNL     1     -10.672 -68.559 -30.150  1.00  0.00    -0.508 OA
ATOM      8  H   UNL     1     -11.619 -68.906 -30.241  1.00  0.00     0.293 HD
ENDBRANCH   1   7
BRANCH   6   9
ATOM      9  C   UNL     1      -8.632 -64.640 -33.732  1.00  0.00     0.071 C 
ATOM     10  O   UNL     1      -7.505 -64.111 -33.538  1.00  0.00    -0.545 OA
ATOM     11  O   UNL     1      -9.377 -64.251 -34.839  1.00  0.00    -0.545 OA
ENDBRANCH   6   9
TORSDOF 2
ENDMDL
MODEL 3
REMARK VINA RESULT:    -4.874      9.183     10.146
REMARK INTER + INTRA:          -5.337
REMARK INTER:                  -5.310
REMARK INTRA:                  -0.027
REMARK UNBOUND:                -0.036
REMARK SMILES O=C([O-])c1ccc(O)cc1
REMARK SMILES IDX 7 1 6 2 9 3 5 4 10 5 4 6 8 7 2 9 1 10 3 11
REMARK H PARENT 8 8
REMARK Flexibility Score: inf
ROOT
ATOM      1  C   UNL     1      -7.619 -65.103 -32.553  1.00  0.00     0.115 A 
ATOM      2  C   UNL     1      -8.389 -64.523 -33.565  1.00  0.00     0.047 A 
ATOM      3  C   UNL     1      -8.161 -66.131 -31.771  1.00  0.00     0.047 A 
ATOM      4  C   UNL     1      -9.695 -64.964 -33.798  1.00  0.00     0.014 A 
ATOM      5  C   UNL     1      -9.466 -66.575 -32.000  1.00  0.00     0.014 A 
ATOM      6  C   UNL     1     -10.248 -65.995 -33.017  1.00  0.00    -0.003 A 
ENDROOT
BRANCH   1   7
ATOM      7  O   UNL     1      -6.319 -64.653 -32.333  1.00  0.00    -0.508 OA
ATOM      8  H   UNL     1      -5.862 -64.020 -32.980  1.00  0.00     0.293 HD
ENDBRANCH   1   7
BRANCH   6   9
ATOM      9  C   UNL     1     -11.630 -66.460 -33.264  1.00  0.00     0.071 C 
ATOM     10  O   UNL     1     -11.893 -67.189 -34.258  1.00  0.00    -0.545 OA
ATOM     11  O   UNL     1     -12.660 -66.099 -32.404  1.00  0.00    -0.545 OA
ENDBRANCH   6   9
TORSDOF 2
ENDMDL
MODEL 4
REMARK VINA RESULT:    -4.814      8.222      9.043
REMARK INTER + INTRA:          -5.272
REMARK INTER:                  -5.244
REMARK INTRA:                  -0.028
REMARK UNBOUND:                -0.036
REMARK SMILES O=C([O-])c1ccc(O)cc1
REMARK SMILES IDX 7 1 6 2 9 3 5 4 10 5 4 6 8 7 2 9 1 10 3 11
REMARK H PARENT 8 8
REMARK Flexibility Score: inf
ROOT
ATOM      1  C   UNL     1      -7.993 -66.853 -30.601  1.00  0.00     0.115 A 
ATOM      2  C   UNL     1      -8.026 -66.029 -31.730  1.00  0.00     0.047 A 
ATOM      3  C   UNL     1      -9.113 -67.627 -30.273  1.00  0.00     0.047 A 
ATOM      4  C   UNL     1      -9.172 -65.975 -32.529  1.00  0.00     0.014 A 
ATOM      5  C   UNL     1     -10.261 -67.575 -31.069  1.00  0.00     0.014 A 
ATOM      6  C   UNL     1     -10.302 -66.748 -32.207  1.00  0.00    -0.003 A 
ENDROOT
BRANCH   1   7
ATOM      7  O   UNL     1      -6.844 -66.897 -29.814  1.00  0.00    -0.508 OA
ATOM      8  H   UNL     1      -6.192 -67.671 -29.871  1.00  0.00     0.293 HD
ENDBRANCH   1   7
BRANCH   6   9
ATOM      9  C   UNL     1     -11.513 -66.689 -33.055  1.00  0.00     0.071 C 
ATOM     10  O   UNL     1     -12.568 -66.149 -32.627  1.00  0.00    -0.545 OA
ATOM     11  O   UNL     1     -11.504 -67.230 -34.335  1.00  0.00    -0.545 OA
ENDBRANCH   6   9
TORSDOF 2
ENDMDL
MODEL 5
REMARK VINA RESULT:    -4.785      2.888      3.375
REMARK INTER + INTRA:          -5.241
REMARK INTER:                  -5.210
REMARK INTRA:                  -0.031
REMARK UNBOUND:                -0.036
REMARK SMILES O=C([O-])c1ccc(O)cc1
REMARK SMILES IDX 7 1 6 2 9 3 5 4 10 5 4 6 8 7 2 9 1 10 3 11
REMARK H PARENT 8 8
REMARK Flexibility Score: inf
ROOT
ATOM      1  C   UNL     1     -13.681 -65.833 -22.553  1.00  0.00     0.115 A 
ATOM      2  C   UNL     1     -13.938 -66.432 -23.790  1.00  0.00     0.047 A 
ATOM      3  C   UNL     1     -12.358 -65.675 -22.120  1.00  0.00     0.047 A 
ATOM      4  C   UNL     1     -12.881 -66.873 -24.593  1.00  0.00     0.014 A 
ATOM      5  C   UNL     1     -11.299 -66.115 -22.919  1.00  0.00     0.014 A 
ATOM      6  C   UNL     1     -11.550 -66.719 -24.165  1.00  0.00    -0.003 A 
ENDROOT
BRANCH   1   7
ATOM      7  O   UNL     1     -14.744 -65.399 -21.765  1.00  0.00    -0.508 OA
ATOM      8  H   UNL     1     -15.706 -65.555 -22.042  1.00  0.00     0.293 HD
ENDBRANCH   1   7
BRANCH   6   9
ATOM      9  C   UNL     1     -10.434 -67.187 -25.017  1.00  0.00     0.071 C 
ATOM     10  O   UNL     1      -9.410 -66.471 -25.181  1.00  0.00    -0.545 OA
ATOM     11  O   UNL     1     -10.500 -68.424 -25.648  1.00  0.00    -0.545 OA
ENDBRANCH   6   9
TORSDOF 2
ENDMDL
MODEL 6
REMARK VINA RESULT:    -4.778      7.979      8.569
REMARK INTER + INTRA:          -5.233
REMARK INTER:                  -5.200
REMARK INTRA:                  -0.033
REMARK UNBOUND:                -0.036
REMARK SMILES O=C([O-])c1ccc(O)cc1
REMARK SMILES IDX 7 1 6 2 9 3 5 4 10 5 4 6 8 7 2 9 1 10 3 11
REMARK H PARENT 8 8
REMARK Flexibility Score: inf
ROOT
ATOM      1  C   UNL     1      -8.870 -68.036 -29.478  1.00  0.00     0.115 A 
ATOM      2  C   UNL     1      -8.038 -67.235 -30.266  1.00  0.00     0.047 A 
ATOM      3  C   UNL     1     -10.202 -68.240 -29.861  1.00  0.00     0.047 A 
ATOM      4  C   UNL     1      -8.531 -66.638 -31.430  1.00  0.00     0.014 A 
ATOM      5  C   UNL     1     -10.699 -67.644 -31.024  1.00  0.00     0.014 A 
ATOM      6  C   UNL     1      -9.867 -66.836 -31.821  1.00  0.00    -0.003 A 
ENDROOT
BRANCH   1   7
ATOM      7  O   UNL     1      -8.365 -68.624 -28.321  1.00  0.00    -0.508 OA
ATOM      8  H   UNL     1      -8.735 -68.395 -27.406  1.00  0.00     0.293 HD
ENDBRANCH   1   7
BRANCH   6   9
ATOM      9  C   UNL     1     -10.386 -66.203 -33.054  1.00  0.00     0.071 C 
ATOM     10  O   UNL     1      -9.930 -65.097 -33.447  1.00  0.00    -0.545 OA
ATOM     11  O   UNL     1     -11.387 -66.821 -33.795  1.00  0.00    -0.545 OA
ENDBRANCH   6   9
TORSDOF 2
ENDMDL
MODEL 7
REMARK VINA RESULT:    -4.757     11.583     12.875
REMARK INTER + INTRA:          -5.210
REMARK INTER:                  -5.174
REMARK INTRA:                  -0.036
REMARK UNBOUND:                -0.036
REMARK SMILES O=C([O-])c1ccc(O)cc1
REMARK SMILES IDX 7 1 6 2 9 3 5 4 10 5 4 6 8 7 2 9 1 10 3 11
REMARK H PARENT 8 8
REMARK Flexibility Score: inf
ROOT
ATOM      1  C   UNL     1     -17.387 -66.558 -35.439  1.00  0.00     0.115 A 
ATOM      2  C   UNL     1     -16.482 -66.934 -34.442  1.00  0.00     0.047 A 
ATOM      3  C   UNL     1     -16.964 -66.496 -36.773  1.00  0.00     0.047 A 
ATOM      4  C   UNL     1     -15.159 -67.246 -34.772  1.00  0.00     0.014 A 
ATOM      5  C   UNL     1     -15.643 -66.807 -37.107  1.00  0.00     0.014 A 
ATOM      6  C   UNL     1     -14.726 -67.185 -36.109  1.00  0.00    -0.003 A 
ENDROOT
BRANCH   1   7
ATOM      7  O   UNL     1     -18.701 -66.250 -35.094  1.00  0.00    -0.508 OA
ATOM      8  H   UNL     1     -18.948 -65.349 -34.702  1.00  0.00     0.293 HD
ENDBRANCH   1   7
BRANCH   6   9
ATOM      9  C   UNL     1     -13.326 -67.515 -36.456  1.00  0.00     0.071 C 
ATOM     10  O   UNL     1     -12.495 -67.810 -35.556  1.00  0.00    -0.545 OA
ATOM     11  O   UNL     1     -12.907 -67.504 -37.781  1.00  0.00    -0.545 OA
ENDBRANCH   6   9
TORSDOF 2
ENDMDL
MODEL 8
REMARK VINA RESULT:    -4.661     10.717     13.168
REMARK INTER + INTRA:          -5.105
REMARK INTER:                  -5.077
REMARK INTRA:                  -0.029
REMARK UNBOUND:                -0.036
REMARK SMILES O=C([O-])c1ccc(O)cc1
REMARK SMILES IDX 7 1 6 2 9 3 5 4 10 5 4 6 8 7 2 9 1 10 3 11
REMARK H PARENT 8 8
REMARK Flexibility Score: inf
ROOT
ATOM      1  C   UNL     1     -15.338 -66.861 -38.202  1.00  0.00     0.115 A 
ATOM      2  C   UNL     1     -14.296 -67.301 -37.381  1.00  0.00     0.047 A 
ATOM      3  C   UNL     1     -16.528 -66.399 -37.626  1.00  0.00     0.047 A 
ATOM      4  C   UNL     1     -14.438 -67.282 -35.990  1.00  0.00     0.014 A 
ATOM      5  C   UNL     1     -16.674 -66.378 -36.236  1.00  0.00     0.014 A 
ATOM      6  C   UNL     1     -15.630 -66.820 -35.403  1.00  0.00    -0.003 A 
ENDROOT
BRANCH   1   7
ATOM      7  O   UNL     1     -15.181 -66.887 -39.586  1.00  0.00    -0.508 OA
ATOM      8  H   UNL     1     -14.519 -66.279 -40.055  1.00  0.00     0.293 HD
ENDBRANCH   1   7
BRANCH   6   9
ATOM      9  C   UNL     1     -15.778 -66.801 -33.931  1.00  0.00     0.071 C 
ATOM     10  O   UNL     1     -16.661 -67.501 -33.366  1.00  0.00    -0.545 OA
ATOM     11  O   UNL     1     -14.946 -66.008 -33.149  1.00  0.00    -0.545 OA
ENDBRANCH   6   9
TORSDOF 2
ENDMDL
MODEL 9
REMARK VINA RESULT:    -4.621      2.996      4.097
REMARK INTER + INTRA:          -5.062
REMARK INTER:                  -5.026
REMARK INTRA:                  -0.036
REMARK UNBOUND:                -0.036
REMARK SMILES O=C([O-])c1ccc(O)cc1
REMARK SMILES IDX 7 1 6 2 9 3 5 4 10 5 4 6 8 7 2 9 1 10 3 11
REMARK H PARENT 8 8
REMARK Flexibility Score: inf
ROOT
ATOM      1  C   UNL     1     -13.802 -65.706 -24.485  1.00  0.00     0.115 A 
ATOM      2  C   UNL     1     -13.293 -67.006 -24.407  1.00  0.00     0.047 A 
ATOM      3  C   UNL     1     -12.939 -64.639 -24.763  1.00  0.00     0.047 A 
ATOM      4  C   UNL     1     -11.929 -67.242 -24.603  1.00  0.00     0.014 A 
ATOM      5  C   UNL     1     -11.574 -64.871 -24.959  1.00  0.00     0.014 A 
ATOM      6  C   UNL     1     -11.055 -66.176 -24.881  1.00  0.00    -0.003 A 
ENDROOT
BRANCH   1   7
ATOM      7  O   UNL     1     -15.163 -65.487 -24.287  1.00  0.00    -0.508 OA
ATOM      8  H   UNL     1     -15.576 -64.571 -24.417  1.00  0.00     0.293 HD
ENDBRANCH   1   7
BRANCH   6   9
ATOM      9  C   UNL     1      -9.612 -66.428 -25.088  1.00  0.00     0.071 C 
ATOM     10  O   UNL     1      -9.140 -67.591 -24.968  1.00  0.00    -0.545 OA
ATOM     11  O   UNL     1      -8.754 -65.385 -25.417  1.00  0.00    -0.545 OA
ENDBRANCH   6   9
TORSDOF 2
ENDMDL
