MODEL 1
REMARK VINA RESULT:    -4.812      0.000      0.000
REMARK INTER + INTRA:          -6.939
REMARK INTER:                  -6.781
REMARK INTRA:                  -0.159
REMARK UNBOUND:                -0.159
REMARK SMILES CC1=CCC(=C(C)C)C(=O)CC(C)=CCC1
REMARK SMILES IDX 12 1 14 2 13 3 15 4 16 5 2 6 1 7 3 8 11 10 9 11 10 12 5 13
REMARK SMILES IDX 6 14 7 15 8 16 4 17
REMARK H PARENT
REMARK Flexibility Score: 60.00
ROOT
ATOM      1  C   UNL     1      -4.853  -6.207   7.476  1.00  0.00    -0.070 C 
ATOM      2  C   UNL     1      -4.498  -5.812   8.721  1.00  0.00    -0.027 C 
ATOM      3  C   UNL     1      -3.889  -7.069   6.703  1.00  0.00     0.039 C 
ENDROOT
BRANCH   2   4
ATOM      4  C   UNL     1      -5.396  -5.076   9.682  1.00  0.00     0.032 C 
BRANCH   4   5
ATOM      5  C   UNL     1      -5.172  -3.565   9.549  1.00  0.00     0.034 C 
BRANCH   5   6
ATOM      6  C   UNL     1      -6.471  -2.784   9.554  1.00  0.00    -0.077 C 
ATOM      7  C   UNL     1      -7.215  -2.626  10.856  1.00  0.00     0.039 C 
ATOM      8  C   UNL     1      -7.045  -2.277   8.434  1.00  0.00    -0.023 CG0
ATOM      9  G   UNL     1      -6.470  -2.258   7.030  1.00  0.00     0.000 G0
ENDBRANCH   5   6
ENDBRANCH   4   5
ENDBRANCH   2   4
BRANCH   1  10
ATOM     10  C   UNL     1      -6.158  -5.810   6.817  1.00  0.00     0.111 C 
BRANCH  10  11
ATOM     11  C   UNL     1      -6.007  -4.569   5.971  1.00  0.00     0.163 C 
ATOM     12  O   UNL     1      -5.054  -4.550   5.145  1.00  0.00    -0.294 OA
BRANCH  11  13
ATOM     13  C   UNL     1      -6.906  -3.371   6.078  1.00  0.00    -0.002 C 
ATOM     14  C   UNL     1      -7.976  -3.227   5.238  1.00  0.00    -0.069 C 
ATOM     15  C   UNL     1      -8.763  -1.938   5.156  1.00  0.00     0.039 C 
ATOM     16  C   UNL     1      -8.466  -4.372   4.379  1.00  0.00     0.039 C 
BRANCH  13  17
ATOM     17  C   UNL     1      -6.482  -2.247   7.017  1.00  0.00     0.066 CG0
ATOM     18  G   UNL     1      -7.047  -2.295   8.426  1.00  0.00     0.000 G0
ENDBRANCH  13  17
ENDBRANCH  11  13
ENDBRANCH  10  11
ENDBRANCH   1  10
TORSDOF 0
ENDMDL
MODEL 2
REMARK VINA RESULT:    -4.148      1.646      2.167
REMARK INTER + INTRA:          -6.004
REMARK INTER:                  -6.250
REMARK INTRA:                   0.245
REMARK UNBOUND:                -0.159
REMARK SMILES CC1=CCC(=C(C)C)C(=O)CC(C)=CCC1
REMARK SMILES IDX 12 1 14 2 13 3 15 4 16 5 2 6 1 7 3 8 11 10 9 11 10 12 5 13
REMARK SMILES IDX 6 14 7 15 8 16 4 17
REMARK H PARENT
REMARK Flexibility Score: 60.00
ROOT
ATOM      1  C   UNL     1      -5.294  -6.896   5.804  1.00  0.00    -0.070 C 
ATOM      2  C   UNL     1      -4.715  -6.971   7.024  1.00  0.00    -0.027 C 
ATOM      3  C   UNL     1      -5.916  -8.145   5.235  1.00  0.00     0.039 C 
ENDROOT
BRANCH   2   4
ATOM      4  C   UNL     1      -4.179  -5.796   7.801  1.00  0.00     0.032 C 
BRANCH   4   5
ATOM      5  C   UNL     1      -4.954  -5.645   9.115  1.00  0.00     0.034 C 
BRANCH   5   6
ATOM      6  C   UNL     1      -5.752  -4.357   9.172  1.00  0.00    -0.077 C 
ATOM      7  C   UNL     1      -5.222  -3.214  10.001  1.00  0.00     0.039 C 
ATOM      8  C   UNL     1      -6.960  -4.197   8.577  1.00  0.00    -0.023 CG0
ATOM      9  G   UNL     1      -7.671  -5.170   7.653  1.00  0.00     0.000 G0
ENDBRANCH   5   6
ENDBRANCH   4   5
ENDBRANCH   2   4
BRANCH   1  10
ATOM     10  C   UNL     1      -5.330  -5.627   4.976  1.00  0.00     0.111 C 
BRANCH  10  11
ATOM     11  C   UNL     1      -6.234  -4.583   5.584  1.00  0.00     0.163 C 
ATOM     12  O   UNL     1      -5.799  -3.400   5.624  1.00  0.00    -0.294 OA
BRANCH  11  13
ATOM     13  C   UNL     1      -7.591  -4.882   6.153  1.00  0.00    -0.002 C 
ATOM     14  C   UNL     1      -8.714  -4.739   5.384  1.00  0.00    -0.069 C 
ATOM     15  C   UNL     1     -10.104  -4.804   5.976  1.00  0.00     0.039 C 
ATOM     16  C   UNL     1      -8.628  -4.561   3.885  1.00  0.00     0.039 C 
BRANCH  13  17
ATOM     17  C   UNL     1      -7.688  -5.166   7.648  1.00  0.00     0.066 CG0
ATOM     18  G   UNL     1      -6.971  -4.196   8.569  1.00  0.00     0.000 G0
ENDBRANCH  13  17
ENDBRANCH  11  13
ENDBRANCH  10  11
ENDBRANCH   1  10
TORSDOF 0
ENDMDL
MODEL 3
REMARK VINA RESULT:    -4.006      2.030      4.638
REMARK INTER + INTRA:          -5.805
REMARK INTER:                  -5.937
REMARK INTRA:                   0.133
REMARK UNBOUND:                -0.159
REMARK SMILES CC1=CCC(=C(C)C)C(=O)CC(C)=CCC1
REMARK SMILES IDX 12 1 14 2 13 3 15 4 16 5 2 6 1 7 3 8 11 10 9 11 10 12 5 13
REMARK SMILES IDX 6 14 7 15 8 16 4 17
REMARK H PARENT
REMARK Flexibility Score: 60.00
ROOT
ATOM      1  C   UNL     1      -8.159  -5.702   6.278  1.00  0.00    -0.070 C 
ATOM      2  C   UNL     1      -7.682  -6.922   5.940  1.00  0.00    -0.027 C 
ATOM      3  C   UNL     1      -9.367  -5.636   7.177  1.00  0.00     0.039 C 
ENDROOT
BRANCH   2   4
ATOM      4  C   UNL     1      -6.406  -7.170   5.177  1.00  0.00     0.032 C 
BRANCH   4   5
ATOM      5  C   UNL     1      -5.377  -7.847   6.090  1.00  0.00     0.034 C 
BRANCH   5   6
ATOM      6  C   UNL     1      -4.195  -6.950   6.396  1.00  0.00    -0.077 C 
ATOM      7  C   UNL     1      -2.932  -7.116   5.588  1.00  0.00     0.039 C 
ATOM      8  C   UNL     1      -4.180  -6.050   7.411  1.00  0.00    -0.023 CG0
ATOM      9  G   UNL     1      -5.333  -5.664   8.320  1.00  0.00     0.000 G0
ENDBRANCH   5   6
ENDBRANCH   4   5
ENDBRANCH   2   4
BRANCH   1  10
ATOM     10  C   UNL     1      -7.553  -4.404   5.783  1.00  0.00     0.111 C 
BRANCH  10  11
ATOM     11  C   UNL     1      -6.300  -4.041   6.542  1.00  0.00     0.163 C 
ATOM     12  O   UNL     1      -5.395  -3.440   5.903  1.00  0.00    -0.294 OA
BRANCH  11  13
ATOM     13  C   UNL     1      -6.074  -4.374   7.989  1.00  0.00    -0.002 C 
ATOM     14  C   UNL     1      -6.387  -3.470   8.968  1.00  0.00    -0.069 C 
ATOM     15  C   UNL     1      -5.966  -3.668  10.406  1.00  0.00     0.039 C 
ATOM     16  C   UNL     1      -7.220  -2.242   8.672  1.00  0.00     0.039 C 
BRANCH  13  17
ATOM     17  C   UNL     1      -5.325  -5.661   8.314  1.00  0.00     0.066 CG0
ATOM     18  G   UNL     1      -4.183  -6.032   7.384  1.00  0.00     0.000 G0
ENDBRANCH  13  17
ENDBRANCH  11  13
ENDBRANCH  10  11
ENDBRANCH   1  10
TORSDOF 0
ENDMDL
MODEL 4
REMARK VINA RESULT:    -3.876      2.984      5.156
REMARK INTER + INTRA:          -5.622
REMARK INTER:                  -5.966
REMARK INTRA:                   0.344
REMARK UNBOUND:                -0.159
REMARK SMILES CC1=CCC(=C(C)C)C(=O)CC(C)=CCC1
REMARK SMILES IDX 12 1 14 2 13 3 15 4 16 5 2 6 1 7 3 8 11 10 9 11 10 12 5 13
REMARK SMILES IDX 6 14 7 15 8 16 4 17
REMARK H PARENT
REMARK Flexibility Score: 60.00
ROOT
ATOM      1  C   UNL     1      -3.794  -9.273   5.255  1.00  0.00    -0.070 C 
ATOM      2  C   UNL     1      -4.812 -10.010   4.753  1.00  0.00    -0.027 C 
ATOM      3  C   UNL     1      -2.419  -9.474   4.674  1.00  0.00     0.039 C 
ENDROOT
BRANCH   2   4
ATOM      4  C   UNL     1      -6.265  -9.835   5.112  1.00  0.00     0.032 C 
BRANCH   4   5
ATOM      5  C   UNL     1      -6.928  -8.859   4.132  1.00  0.00     0.034 C 
BRANCH   5   6
ATOM      6  C   UNL     1      -7.752  -7.800   4.837  1.00  0.00    -0.077 C 
ATOM      7  C   UNL     1      -9.149  -8.149   5.284  1.00  0.00     0.039 C 
ATOM      8  C   UNL     1      -7.330  -6.524   5.026  1.00  0.00    -0.023 CG0
ATOM      9  G   UNL     1      -5.958  -5.950   4.719  1.00  0.00     0.000 G0
ENDBRANCH   5   6
ENDBRANCH   4   5
ENDBRANCH   2   4
BRANCH   1  10
ATOM     10  C   UNL     1      -3.966  -8.275   6.382  1.00  0.00     0.111 C 
BRANCH  10  11
ATOM     11  C   UNL     1      -3.831  -6.851   5.899  1.00  0.00     0.163 C 
ATOM     12  O   UNL     1      -2.689  -6.482   5.512  1.00  0.00    -0.294 OA
BRANCH  11  13
ATOM     13  C   UNL     1      -4.964  -5.866   5.878  1.00  0.00    -0.002 C 
ATOM     14  C   UNL     1      -5.187  -5.040   6.947  1.00  0.00    -0.069 C 
ATOM     15  C   UNL     1      -6.441  -4.203   7.065  1.00  0.00     0.039 C 
ATOM     16  C   UNL     1      -4.163  -4.879   8.048  1.00  0.00     0.039 C 
BRANCH  13  17
ATOM     17  C   UNL     1      -5.953  -5.943   4.720  1.00  0.00     0.066 CG0
ATOM     18  G   UNL     1      -7.324  -6.511   5.040  1.00  0.00     0.000 G0
ENDBRANCH  13  17
ENDBRANCH  11  13
ENDBRANCH  10  11
ENDBRANCH   1  10
TORSDOF 0
ENDMDL
MODEL 5
REMARK VINA RESULT:    -3.864      1.726      3.913
REMARK INTER + INTRA:          -5.605
REMARK INTER:                  -6.088
REMARK INTRA:                   0.483
REMARK UNBOUND:                -0.159
REMARK SMILES CC1=CCC(=C(C)C)C(=O)CC(C)=CCC1
REMARK SMILES IDX 12 1 14 2 13 3 15 4 16 5 2 6 1 7 3 8 11 10 9 11 10 12 5 13
REMARK SMILES IDX 6 14 7 15 8 16 4 17
REMARK H PARENT
REMARK Flexibility Score: 60.00
ROOT
ATOM      1  C   UNL     1      -4.725  -6.972   6.094  1.00  0.00    -0.070 C 
ATOM      2  C   UNL     1      -5.497  -7.546   5.143  1.00  0.00    -0.027 C 
ATOM      3  C   UNL     1      -3.234  -6.941   5.875  1.00  0.00     0.039 C 
ENDROOT
BRANCH   2   4
ATOM      4  C   UNL     1      -7.004  -7.534   5.129  1.00  0.00     0.032 C 
BRANCH   4   5
ATOM      5  C   UNL     1      -7.507  -6.301   4.369  1.00  0.00     0.034 C 
BRANCH   5   6
ATOM      6  C   UNL     1      -8.427  -5.438   5.209  1.00  0.00    -0.077 C 
ATOM      7  C   UNL     1      -9.886  -5.810   5.299  1.00  0.00     0.039 C 
ATOM      8  C   UNL     1      -8.028  -4.300   5.831  1.00  0.00    -0.023 CG0
ATOM      9  G   UNL     1      -6.616  -3.751   5.934  1.00  0.00     0.000 G0
ENDBRANCH   5   6
ENDBRANCH   4   5
ENDBRANCH   2   4
BRANCH   1  10
ATOM     10  C   UNL     1      -5.282  -6.378   7.372  1.00  0.00     0.111 C 
BRANCH  10  11
ATOM     11  C   UNL     1      -4.942  -4.914   7.508  1.00  0.00     0.163 C 
ATOM     12  O   UNL     1      -3.761  -4.627   7.846  1.00  0.00    -0.294 OA
BRANCH  11  13
ATOM     13  C   UNL     1      -5.928  -3.804   7.288  1.00  0.00    -0.002 C 
ATOM     14  C   UNL     1      -6.313  -2.998   8.325  1.00  0.00    -0.069 C 
ATOM     15  C   UNL     1      -7.465  -2.027   8.202  1.00  0.00     0.039 C 
ATOM     16  C   UNL     1      -5.570  -2.998   9.643  1.00  0.00     0.039 C 
BRANCH  13  17
ATOM     17  C   UNL     1      -6.615  -3.722   5.929  1.00  0.00     0.066 CG0
ATOM     18  G   UNL     1      -8.016  -4.303   5.844  1.00  0.00     0.000 G0
ENDBRANCH  13  17
ENDBRANCH  11  13
ENDBRANCH  10  11
ENDBRANCH   1  10
TORSDOF 0
ENDMDL
MODEL 6
REMARK VINA RESULT:    -3.849      2.018      3.904
REMARK INTER + INTRA:          -5.583
REMARK INTER:                  -5.676
REMARK INTRA:                   0.093
REMARK UNBOUND:                -0.159
REMARK SMILES CC1=CCC(=C(C)C)C(=O)CC(C)=CCC1
REMARK SMILES IDX 12 1 14 2 13 3 15 4 16 5 2 6 1 7 3 8 11 10 9 11 10 12 5 13
REMARK SMILES IDX 6 14 7 15 8 16 4 17
REMARK H PARENT
REMARK Flexibility Score: 60.00
ROOT
ATOM      1  C   UNL     1      -5.006  -4.661   8.573  1.00  0.00    -0.070 C 
ATOM      2  C   UNL     1      -4.078  -5.308   7.832  1.00  0.00    -0.027 C 
ATOM      3  C   UNL     1      -4.663  -3.293   9.103  1.00  0.00     0.039 C 
ENDROOT
BRANCH   2   4
ATOM      4  C   UNL     1      -4.305  -6.609   7.106  1.00  0.00     0.032 C 
BRANCH   4   5
ATOM      5  C   UNL     1      -4.517  -6.340   5.611  1.00  0.00     0.034 C 
BRANCH   5   6
ATOM      6  C   UNL     1      -5.960  -6.526   5.188  1.00  0.00    -0.077 C 
ATOM      7  C   UNL     1      -6.413  -7.893   4.740  1.00  0.00     0.039 C 
ATOM      8  C   UNL     1      -6.857  -5.510   5.117  1.00  0.00    -0.023 CG0
ATOM      9  G   UNL     1      -6.660  -4.072   5.562  1.00  0.00     0.000 G0
ENDBRANCH   5   6
ENDBRANCH   4   5
ENDBRANCH   2   4
BRANCH   1  10
ATOM     10  C   UNL     1      -6.361  -5.250   8.910  1.00  0.00     0.111 C 
BRANCH  10  11
ATOM     11  C   UNL     1      -7.426  -4.810   7.936  1.00  0.00     0.163 C 
ATOM     12  O   UNL     1      -8.524  -5.429   7.967  1.00  0.00    -0.294 OA
BRANCH  11  13
ATOM     13  C   UNL     1      -7.238  -3.706   6.935  1.00  0.00    -0.002 C 
ATOM     14  C   UNL     1      -7.716  -2.449   7.187  1.00  0.00    -0.069 C 
ATOM     15  C   UNL     1      -7.754  -1.377   6.121  1.00  0.00     0.039 C 
ATOM     16  C   UNL     1      -8.188  -2.045   8.566  1.00  0.00     0.039 C 
BRANCH  13  17
ATOM     17  C   UNL     1      -6.667  -4.074   5.570  1.00  0.00     0.066 CG0
ATOM     18  G   UNL     1      -6.865  -5.510   5.119  1.00  0.00     0.000 G0
ENDBRANCH  13  17
ENDBRANCH  11  13
ENDBRANCH  10  11
ENDBRANCH   1  10
TORSDOF 0
ENDMDL
MODEL 7
REMARK VINA RESULT:    -3.719      2.787      4.842
REMARK INTER + INTRA:          -5.399
REMARK INTER:                  -5.875
REMARK INTRA:                   0.476
REMARK UNBOUND:                -0.159
REMARK SMILES CC1=CCC(=C(C)C)C(=O)CC(C)=CCC1
REMARK SMILES IDX 12 1 14 2 13 3 15 4 16 5 2 6 1 7 3 8 11 10 9 11 10 12 5 13
REMARK SMILES IDX 6 14 7 15 8 16 4 17
REMARK H PARENT
REMARK Flexibility Score: 60.00
ROOT
ATOM      1  C   UNL     1      -4.365  -6.607   6.931  1.00  0.00    -0.070 C 
ATOM      2  C   UNL     1      -4.187  -7.922   6.667  1.00  0.00    -0.027 C 
ATOM      3  C   UNL     1      -4.530  -6.188   8.368  1.00  0.00     0.039 C 
ENDROOT
BRANCH   2   4
ATOM      4  C   UNL     1      -3.862  -8.495   5.311  1.00  0.00     0.032 C 
BRANCH   4   5
ATOM      5  C   UNL     1      -4.962  -8.120   4.311  1.00  0.00     0.034 C 
BRANCH   5   6
ATOM      6  C   UNL     1      -6.337  -8.563   4.770  1.00  0.00    -0.077 C 
ATOM      7  C   UNL     1      -6.562 -10.023   5.076  1.00  0.00     0.039 C 
ATOM      8  C   UNL     1      -7.405  -7.731   4.851  1.00  0.00    -0.023 CG0
ATOM      9  G   UNL     1      -7.420  -6.226   4.650  1.00  0.00     0.000 G0
ENDBRANCH   5   6
ENDBRANCH   4   5
ENDBRANCH   2   4
BRANCH   1  10
ATOM     10  C   UNL     1      -4.427  -5.542   5.854  1.00  0.00     0.111 C 
BRANCH  10  11
ATOM     11  C   UNL     1      -5.704  -4.742   5.925  1.00  0.00     0.163 C 
ATOM     12  O   UNL     1      -5.593  -3.492   6.047  1.00  0.00    -0.294 OA
BRANCH  11  13
ATOM     13  C   UNL     1      -7.075  -5.353   5.882  1.00  0.00    -0.002 C 
ATOM     14  C   UNL     1      -7.906  -5.275   6.967  1.00  0.00    -0.069 C 
ATOM     15  C   UNL     1      -9.192  -6.066   7.050  1.00  0.00     0.039 C 
ATOM     16  C   UNL     1      -7.608  -4.348   8.125  1.00  0.00     0.039 C 
BRANCH  13  17
ATOM     17  C   UNL     1      -7.435  -6.209   4.673  1.00  0.00     0.066 CG0
ATOM     18  G   UNL     1      -7.394  -7.713   4.873  1.00  0.00     0.000 G0
ENDBRANCH  13  17
ENDBRANCH  11  13
ENDBRANCH  10  11
ENDBRANCH   1  10
TORSDOF 0
ENDMDL
MODEL 8
REMARK VINA RESULT:    -3.706      1.370      3.874
REMARK INTER + INTRA:          -5.382
REMARK INTER:                  -5.641
REMARK INTRA:                   0.260
REMARK UNBOUND:                -0.159
REMARK SMILES CC1=CCC(=C(C)C)C(=O)CC(C)=CCC1
REMARK SMILES IDX 12 1 14 2 13 3 15 4 16 5 2 6 1 7 3 8 11 10 9 11 10 12 5 13
REMARK SMILES IDX 6 14 7 15 8 16 4 17
REMARK H PARENT
REMARK Flexibility Score: 60.00
ROOT
ATOM      1  C   UNL     1      -6.478  -5.416   5.227  1.00  0.00    -0.070 C 
ATOM      2  C   UNL     1      -7.349  -4.899   4.330  1.00  0.00    -0.027 C 
ATOM      3  C   UNL     1      -5.292  -6.185   4.704  1.00  0.00     0.039 C 
ENDROOT
BRANCH   2   4
ATOM      4  C   UNL     1      -8.499  -3.987   4.670  1.00  0.00     0.032 C 
BRANCH   4   5
ATOM      5  C   UNL     1      -7.977  -2.569   4.935  1.00  0.00     0.034 C 
BRANCH   5   6
ATOM      6  C   UNL     1      -8.599  -1.944   6.167  1.00  0.00    -0.077 C 
ATOM      7  C   UNL     1     -10.076  -1.640   6.158  1.00  0.00     0.039 C 
ATOM      8  C   UNL     1      -7.886  -1.570   7.259  1.00  0.00    -0.023 CG0
ATOM      9  G   UNL     1      -6.412  -1.816   7.528  1.00  0.00     0.000 G0
ENDBRANCH   5   6
ENDBRANCH   4   5
ENDBRANCH   2   4
BRANCH   1  10
ATOM     10  C   UNL     1      -6.647  -5.279   6.727  1.00  0.00     0.111 C 
BRANCH  10  11
ATOM     11  C   UNL     1      -5.658  -4.304   7.318  1.00  0.00     0.163 C 
ATOM     12  O   UNL     1      -4.439  -4.492   7.055  1.00  0.00    -0.294 OA
BRANCH  11  13
ATOM     13  C   UNL     1      -6.045  -3.157   8.206  1.00  0.00    -0.002 C 
ATOM     14  C   UNL     1      -6.231  -3.348   9.549  1.00  0.00    -0.069 C 
ATOM     15  C   UNL     1      -6.840  -2.284  10.433  1.00  0.00     0.039 C 
ATOM     16  C   UNL     1      -5.787  -4.622  10.234  1.00  0.00     0.039 C 
BRANCH  13  17
ATOM     17  C   UNL     1      -6.397  -1.831   7.542  1.00  0.00     0.066 CG0
ATOM     18  G   UNL     1      -7.870  -1.584   7.266  1.00  0.00     0.000 G0
ENDBRANCH  13  17
ENDBRANCH  11  13
ENDBRANCH  10  11
ENDBRANCH   1  10
TORSDOF 0
ENDMDL
MODEL 9
REMARK VINA RESULT:    -3.576      2.540      5.246
REMARK INTER + INTRA:          -5.198
REMARK INTER:                  -5.560
REMARK INTRA:                   0.362
REMARK UNBOUND:                -0.159
REMARK SMILES CC1=CCC(=C(C)C)C(=O)CC(C)=CCC1
REMARK SMILES IDX 12 1 14 2 13 3 15 4 16 5 2 6 1 7 3 8 11 10 9 11 10 12 5 13
REMARK SMILES IDX 6 14 7 15 8 16 4 17
REMARK H PARENT
REMARK Flexibility Score: 60.00
ROOT
ATOM      1  C   UNL     1      -6.087  -5.232   8.012  1.00  0.00    -0.070 C 
ATOM      2  C   UNL     1      -7.377  -5.167   7.609  1.00  0.00    -0.027 C 
ATOM      3  C   UNL     1      -5.511  -4.044   8.738  1.00  0.00     0.039 C 
ENDROOT
BRANCH   2   4
ATOM      4  C   UNL     1      -8.151  -6.311   7.005  1.00  0.00     0.032 C 
BRANCH   4   5
ATOM      5  C   UNL     1      -8.841  -5.848   5.716  1.00  0.00     0.034 C 
BRANCH   5   6
ATOM      6  C   UNL     1      -7.855  -5.356   4.675  1.00  0.00    -0.077 C 
ATOM      7  C   UNL     1      -8.048  -3.980   4.090  1.00  0.00     0.039 C 
ATOM      8  C   UNL     1      -6.845  -6.115   4.182  1.00  0.00    -0.023 CG0
ATOM      9  G   UNL     1      -6.416  -7.496   4.646  1.00  0.00     0.000 G0
ENDBRANCH   5   6
ENDBRANCH   4   5
ENDBRANCH   2   4
BRANCH   1  10
ATOM     10  C   UNL     1      -5.192  -6.427   7.753  1.00  0.00     0.111 C 
BRANCH  10  11
ATOM     11  C   UNL     1      -4.708  -6.469   6.325  1.00  0.00     0.163 C 
ATOM     12  O   UNL     1      -3.988  -5.510   5.933  1.00  0.00    -0.294 OA
BRANCH  11  13
ATOM     13  C   UNL     1      -5.054  -7.565   5.358  1.00  0.00    -0.002 C 
ATOM     14  C   UNL     1      -4.121  -8.504   5.008  1.00  0.00    -0.069 C 
ATOM     15  C   UNL     1      -4.350  -9.477   3.874  1.00  0.00     0.039 C 
ATOM     16  C   UNL     1      -2.826  -8.654   5.775  1.00  0.00     0.039 C 
BRANCH  13  17
ATOM     17  C   UNL     1      -6.401  -7.488   4.648  1.00  0.00     0.066 CG0
ATOM     18  G   UNL     1      -6.838  -6.114   4.173  1.00  0.00     0.000 G0
ENDBRANCH  13  17
ENDBRANCH  11  13
ENDBRANCH  10  11
ENDBRANCH   1  10
TORSDOF 0
ENDMDL
