MODEL 1
REMARK VINA RESULT:    -3.527      0.000      0.000
REMARK INTER + INTRA:          -6.658
REMARK INTER:                  -5.589
REMARK INTRA:                  -1.070
REMARK UNBOUND:                -1.070
REMARK SMILES CCCCCCCCCCCC(=O)[O-]
REMARK SMILES IDX 7 1 8 2 9 3 10 4 11 5 12 6 13 7 14 8 6 9 5 10 4 11 3 12 2 13
REMARK SMILES IDX 1 14
REMARK H PARENT
REMARK Flexibility Score: inf
ROOT
ATOM      1  C   UNL     1      15.638 128.681  53.695  1.00  0.00     0.000 C 
ENDROOT
BRANCH   1   2
ATOM      2  C   UNL     1      16.556 127.836  52.790  1.00  0.00     0.000 C 
BRANCH   2   3
ATOM      3  C   UNL     1      17.255 128.617  51.661  1.00  0.00     0.000 C 
BRANCH   3   4
ATOM      4  C   UNL     1      16.520 129.891  51.196  1.00  0.00     0.006 C 
BRANCH   4   5
ATOM      5  C   UNL     1      16.905 130.368  49.788  1.00  0.00     0.053 C 
BRANCH   5   6
ATOM      6  C   UNL     1      17.168 129.223  48.860  1.00  0.00     0.041 C 
ATOM      7  O   UNL     1      16.210 128.619  48.310  1.00  0.00    -0.550 OA
ATOM      8  O   UNL     1      18.475 128.845  48.575  1.00  0.00    -0.550 OA
ENDBRANCH   5   6
ENDBRANCH   4   5
ENDBRANCH   3   4
ENDBRANCH   2   3
ENDBRANCH   1   2
BRANCH   1   9
ATOM      9  C   UNL     1      15.457 128.140  55.129  1.00  0.00     0.000 C 
BRANCH   9  10
ATOM     10  C   UNL     1      16.767 127.811  55.866  1.00  0.00    -0.000 C 
BRANCH  10  11
ATOM     11  C   UNL     1      17.116 128.845  56.950  1.00  0.00    -0.000 C 
BRANCH  11  12
ATOM     12  C   UNL     1      18.442 129.570  56.669  1.00  0.00    -0.000 C 
BRANCH  12  13
ATOM     13  C   UNL     1      18.957 129.322  55.244  1.00  0.00    -0.003 C 
ATOM     14  C   UNL     1      18.924 130.605  54.418  1.00  0.00     0.004 C 
ENDBRANCH  12  13
ENDBRANCH  11  12
ENDBRANCH  10  11
ENDBRANCH   9  10
ENDBRANCH   1   9
TORSDOF 10
ENDMDL
MODEL 2
REMARK VINA RESULT:    -3.510      3.373      4.967
REMARK INTER + INTRA:          -6.632
REMARK INTER:                  -5.230
REMARK INTRA:                  -1.402
REMARK UNBOUND:                -1.070
REMARK SMILES CCCCCCCCCCCC(=O)[O-]
REMARK SMILES IDX 7 1 8 2 9 3 10 4 11 5 12 6 13 7 14 8 6 9 5 10 4 11 3 12 2 13
REMARK SMILES IDX 1 14
REMARK H PARENT
REMARK Flexibility Score: inf
ROOT
ATOM      1  C   UNL     1      17.456 129.721  58.392  1.00  0.00     0.000 C 
ENDROOT
BRANCH   1   2
ATOM      2  C   UNL     1      18.472 130.410  57.460  1.00  0.00     0.000 C 
BRANCH   2   3
ATOM      3  C   UNL     1      19.375 129.452  56.659  1.00  0.00     0.000 C 
BRANCH   3   4
ATOM      4  C   UNL     1      19.337 129.648  55.129  1.00  0.00     0.006 C 
BRANCH   4   5
ATOM      5  C   UNL     1      18.519 130.863  54.665  1.00  0.00     0.053 C 
BRANCH   5   6
ATOM      6  C   UNL     1      19.395 132.015  54.280  1.00  0.00     0.041 C 
ATOM      7  O   UNL     1      18.889 133.067  53.810  1.00  0.00    -0.550 OA
ATOM      8  O   UNL     1      20.768 131.938  54.475  1.00  0.00    -0.550 OA
ENDBRANCH   5   6
ENDBRANCH   4   5
ENDBRANCH   3   4
ENDBRANCH   2   3
ENDBRANCH   1   2
BRANCH   1   9
ATOM      9  C   UNL     1      15.983 129.835  57.949  1.00  0.00     0.000 C 
BRANCH   9  10
ATOM     10  C   UNL     1      15.364 128.529  57.417  1.00  0.00    -0.000 C 
BRANCH  10  11
ATOM     11  C   UNL     1      15.392 128.440  55.881  1.00  0.00    -0.000 C 
BRANCH  11  12
ATOM     12  C   UNL     1      16.390 127.390  55.369  1.00  0.00    -0.000 C 
BRANCH  12  13
ATOM     13  C   UNL     1      16.627 127.492  53.856  1.00  0.00    -0.003 C 
ATOM     14  C   UNL     1      15.721 128.546  53.228  1.00  0.00     0.004 C 
ENDBRANCH  12  13
ENDBRANCH  11  12
ENDBRANCH  10  11
ENDBRANCH   9  10
ENDBRANCH   1   9
TORSDOF 10
ENDMDL
MODEL 3
REMARK VINA RESULT:    -3.488      0.975      1.425
REMARK INTER + INTRA:          -6.597
REMARK INTER:                  -5.776
REMARK INTRA:                  -0.821
REMARK UNBOUND:                -1.070
REMARK SMILES CCCCCCCCCCCC(=O)[O-]
REMARK SMILES IDX 7 1 8 2 9 3 10 4 11 5 12 6 13 7 14 8 6 9 5 10 4 11 3 12 2 13
REMARK SMILES IDX 1 14
REMARK H PARENT
REMARK Flexibility Score: inf
ROOT
ATOM      1  C   UNL     1      15.737 128.262  54.180  1.00  0.00     0.000 C 
ENDROOT
BRANCH   1   2
ATOM      2  C   UNL     1      16.567 127.880  52.939  1.00  0.00     0.000 C 
BRANCH   2   3
ATOM      3  C   UNL     1      16.969 129.061  52.035  1.00  0.00     0.000 C 
BRANCH   3   4
ATOM      4  C   UNL     1      17.446 128.667  50.622  1.00  0.00     0.006 C 
BRANCH   4   5
ATOM      5  C   UNL     1      16.683 129.355  49.480  1.00  0.00     0.053 C 
BRANCH   5   6
ATOM      6  C   UNL     1      16.817 128.610  48.187  1.00  0.00     0.041 C 
ATOM      7  O   UNL     1      17.710 127.733  48.050  1.00  0.00    -0.550 OA
ATOM      8  O   UNL     1      15.931 128.859  47.147  1.00  0.00    -0.550 OA
ENDBRANCH   5   6
ENDBRANCH   4   5
ENDBRANCH   3   4
ENDBRANCH   2   3
ENDBRANCH   1   2
BRANCH   1   9
ATOM      9  C   UNL     1      16.032 127.431  55.445  1.00  0.00     0.000 C 
BRANCH   9  10
ATOM     10  C   UNL     1      16.526 128.246  56.654  1.00  0.00    -0.000 C 
BRANCH  10  11
ATOM     11  C   UNL     1      16.951 129.675  56.275  1.00  0.00    -0.000 C 
BRANCH  11  12
ATOM     12  C   UNL     1      18.467 129.893  56.404  1.00  0.00    -0.000 C 
BRANCH  12  13
ATOM     13  C   UNL     1      19.244 129.350  55.197  1.00  0.00    -0.003 C 
ATOM     14  C   UNL     1      20.517 128.634  55.641  1.00  0.00     0.004 C 
ENDBRANCH  12  13
ENDBRANCH  11  12
ENDBRANCH  10  11
ENDBRANCH   9  10
ENDBRANCH   1   9
TORSDOF 10
ENDMDL
MODEL 4
REMARK VINA RESULT:    -3.475      1.507      2.235
REMARK INTER + INTRA:          -6.577
REMARK INTER:                  -5.563
REMARK INTRA:                  -1.014
REMARK UNBOUND:                -1.070
REMARK SMILES CCCCCCCCCCCC(=O)[O-]
REMARK SMILES IDX 7 1 8 2 9 3 10 4 11 5 12 6 13 7 14 8 6 9 5 10 4 11 3 12 2 13
REMARK SMILES IDX 1 14
REMARK H PARENT
REMARK Flexibility Score: inf
ROOT
ATOM      1  C   UNL     1      15.327 129.969  52.981  1.00  0.00     0.000 C 
ENDROOT
BRANCH   1   2
ATOM      2  C   UNL     1      16.709 130.315  52.393  1.00  0.00     0.000 C 
BRANCH   2   3
ATOM      3  C   UNL     1      16.676 131.109  51.072  1.00  0.00     0.000 C 
BRANCH   3   4
ATOM      4  C   UNL     1      16.620 130.247  49.795  1.00  0.00     0.006 C 
BRANCH   4   5
ATOM      5  C   UNL     1      17.322 128.885  49.917  1.00  0.00     0.053 C 
BRANCH   5   6
ATOM      6  C   UNL     1      18.063 128.523  48.667  1.00  0.00     0.041 C 
ATOM      7  O   UNL     1      17.709 127.524  47.987  1.00  0.00    -0.550 OA
ATOM      8  O   UNL     1      19.123 129.309  48.234  1.00  0.00    -0.550 OA
ENDBRANCH   5   6
ENDBRANCH   4   5
ENDBRANCH   3   4
ENDBRANCH   2   3
ENDBRANCH   1   2
BRANCH   1   9
ATOM      9  C   UNL     1      15.128 128.485  53.352  1.00  0.00     0.000 C 
BRANCH   9  10
ATOM     10  C   UNL     1      16.409 127.632  53.316  1.00  0.00    -0.000 C 
BRANCH  10  11
ATOM     11  C   UNL     1      17.131 127.585  54.674  1.00  0.00    -0.000 C 
BRANCH  11  12
ATOM     12  C   UNL     1      16.169 127.759  55.860  1.00  0.00    -0.000 C 
BRANCH  12  13
ATOM     13  C   UNL     1      16.770 128.613  56.985  1.00  0.00    -0.003 C 
ATOM     14  C   UNL     1      16.713 130.098  56.637  1.00  0.00     0.004 C 
ENDBRANCH  12  13
ENDBRANCH  11  12
ENDBRANCH  10  11
ENDBRANCH   9  10
ENDBRANCH   1   9
TORSDOF 10
ENDMDL
MODEL 5
REMARK VINA RESULT:    -3.444      2.994      5.241
REMARK INTER + INTRA:          -6.527
REMARK INTER:                  -5.365
REMARK INTRA:                  -1.162
REMARK UNBOUND:                -1.070
REMARK SMILES CCCCCCCCCCCC(=O)[O-]
REMARK SMILES IDX 7 1 8 2 9 3 10 4 11 5 12 6 13 7 14 8 6 9 5 10 4 11 3 12 2 13
REMARK SMILES IDX 1 14
REMARK H PARENT
REMARK Flexibility Score: inf
ROOT
ATOM      1  C   UNL     1      15.432 128.643  55.189  1.00  0.00     0.000 C 
ENDROOT
BRANCH   1   2
ATOM      2  C   UNL     1      16.747 128.056  55.738  1.00  0.00     0.000 C 
BRANCH   2   3
ATOM      3  C   UNL     1      17.755 129.096  56.264  1.00  0.00     0.000 C 
BRANCH   3   4
ATOM      4  C   UNL     1      17.831 130.402  55.446  1.00  0.00     0.006 C 
BRANCH   4   5
ATOM      5  C   UNL     1      19.032 130.484  54.492  1.00  0.00     0.053 C 
BRANCH   5   6
ATOM      6  C   UNL     1      19.807 131.753  54.675  1.00  0.00     0.041 C 
ATOM      7  O   UNL     1      21.042 131.713  54.917  1.00  0.00    -0.550 OA
ATOM      8  O   UNL     1      19.171 132.981  54.542  1.00  0.00    -0.550 OA
ENDBRANCH   5   6
ENDBRANCH   4   5
ENDBRANCH   3   4
ENDBRANCH   2   3
ENDBRANCH   1   2
BRANCH   1   9
ATOM      9  C   UNL     1      15.240 128.500  53.664  1.00  0.00     0.000 C 
BRANCH   9  10
ATOM     10  C   UNL     1      16.327 127.676  52.950  1.00  0.00    -0.000 C 
BRANCH  10  11
ATOM     11  C   UNL     1      17.222 128.534  52.039  1.00  0.00    -0.000 C 
BRANCH  11  12
ATOM     12  C   UNL     1      16.575 129.880  51.675  1.00  0.00    -0.000 C 
BRANCH  12  13
ATOM     13  C   UNL     1      16.361 130.040  50.163  1.00  0.00    -0.003 C 
ATOM     14  C   UNL     1      17.100 128.953  49.387  1.00  0.00     0.004 C 
ENDBRANCH  12  13
ENDBRANCH  11  12
ENDBRANCH  10  11
ENDBRANCH   9  10
ENDBRANCH   1   9
TORSDOF 10
ENDMDL
MODEL 6
REMARK VINA RESULT:    -3.437      1.911      3.218
REMARK INTER + INTRA:          -6.516
REMARK INTER:                  -5.180
REMARK INTRA:                  -1.336
REMARK UNBOUND:                -1.070
REMARK SMILES CCCCCCCCCCCC(=O)[O-]
REMARK SMILES IDX 7 1 8 2 9 3 10 4 11 5 12 6 13 7 14 8 6 9 5 10 4 11 3 12 2 13
REMARK SMILES IDX 1 14
REMARK H PARENT
REMARK Flexibility Score: inf
ROOT
ATOM      1  C   UNL     1      15.128 129.615  56.780  1.00  0.00     0.000 C 
ENDROOT
BRANCH   1   2
ATOM      2  C   UNL     1      15.164 128.693  55.545  1.00  0.00     0.000 C 
BRANCH   2   3
ATOM      3  C   UNL     1      16.264 127.614  55.569  1.00  0.00     0.000 C 
BRANCH   3   4
ATOM      4  C   UNL     1      17.086 127.493  54.270  1.00  0.00     0.006 C 
BRANCH   4   5
ATOM      5  C   UNL     1      16.313 127.859  52.993  1.00  0.00     0.053 C 
BRANCH   5   6
ATOM      6  C   UNL     1      17.045 128.870  52.165  1.00  0.00     0.041 C 
ATOM      7  O   UNL     1      17.417 128.583  50.997  1.00  0.00    -0.550 OA
ATOM      8  O   UNL     1      17.285 130.140  52.672  1.00  0.00    -0.550 OA
ENDBRANCH   5   6
ENDBRANCH   4   5
ENDBRANCH   3   4
ENDBRANCH   2   3
ENDBRANCH   1   2
BRANCH   1   9
ATOM      9  C   UNL     1      15.710 129.001  58.070  1.00  0.00     0.000 C 
BRANCH   9  10
ATOM     10  C   UNL     1      16.717 129.896  58.815  1.00  0.00    -0.000 C 
BRANCH  10  11
ATOM     11  C   UNL     1      18.148 129.767  58.266  1.00  0.00    -0.000 C 
BRANCH  11  12
ATOM     12  C   UNL     1      18.518 130.910  57.307  1.00  0.00    -0.000 C 
BRANCH  12  13
ATOM     13  C   UNL     1      18.813 130.412  55.885  1.00  0.00    -0.003 C 
ATOM     14  C   UNL     1      19.882 129.324  55.895  1.00  0.00     0.004 C 
ENDBRANCH  12  13
ENDBRANCH  11  12
ENDBRANCH  10  11
ENDBRANCH   9  10
ENDBRANCH   1   9
TORSDOF 10
ENDMDL
MODEL 7
REMARK VINA RESULT:    -3.406      5.366      7.041
REMARK INTER + INTRA:          -6.467
REMARK INTER:                  -5.006
REMARK INTRA:                  -1.460
REMARK UNBOUND:                -1.070
REMARK SMILES CCCCCCCCCCCC(=O)[O-]
REMARK SMILES IDX 7 1 8 2 9 3 10 4 11 5 12 6 13 7 14 8 6 9 5 10 4 11 3 12 2 13
REMARK SMILES IDX 1 14
REMARK H PARENT
REMARK Flexibility Score: inf
ROOT
ATOM      1  C   UNL     1      15.679 128.095  56.282  1.00  0.00     0.000 C 
ENDROOT
BRANCH   1   2
ATOM      2  C   UNL     1      16.396 128.765  57.470  1.00  0.00     0.000 C 
BRANCH   2   3
ATOM      3  C   UNL     1      16.633 130.280  57.317  1.00  0.00     0.000 C 
BRANCH   3   4
ATOM      4  C   UNL     1      17.543 130.909  58.392  1.00  0.00     0.006 C 
BRANCH   4   5
ATOM      5  C   UNL     1      18.597 129.952  58.970  1.00  0.00     0.053 C 
BRANCH   5   6
ATOM      6  C   UNL     1      18.525 129.874  60.464  1.00  0.00     0.041 C 
ATOM      7  O   UNL     1      17.609 130.473  61.086  1.00  0.00    -0.550 OA
ATOM      8  O   UNL     1      19.448 129.110  61.165  1.00  0.00    -0.550 OA
ENDBRANCH   5   6
ENDBRANCH   4   5
ENDBRANCH   3   4
ENDBRANCH   2   3
ENDBRANCH   1   2
BRANCH   1   9
ATOM      9  C   UNL     1      16.611 127.535  55.187  1.00  0.00     0.000 C 
BRANCH   9  10
ATOM     10  C   UNL     1      16.819 128.464  53.978  1.00  0.00    -0.000 C 
BRANCH  10  11
ATOM     11  C   UNL     1      18.184 129.174  54.001  1.00  0.00    -0.000 C 
BRANCH  11  12
ATOM     12  C   UNL     1      19.157 128.548  55.012  1.00  0.00    -0.000 C 
BRANCH  12  13
ATOM     13  C   UNL     1      20.054 129.593  55.690  1.00  0.00    -0.003 C 
ATOM     14  C   UNL     1      19.693 131.004  55.235  1.00  0.00     0.004 C 
ENDBRANCH  12  13
ENDBRANCH  11  12
ENDBRANCH  10  11
ENDBRANCH   9  10
ENDBRANCH   1   9
TORSDOF 10
ENDMDL
MODEL 8
REMARK VINA RESULT:    -3.391      3.349      5.271
REMARK INTER + INTRA:          -6.444
REMARK INTER:                  -4.951
REMARK INTRA:                  -1.493
REMARK UNBOUND:                -1.070
REMARK SMILES CCCCCCCCCCCC(=O)[O-]
REMARK SMILES IDX 7 1 8 2 9 3 10 4 11 5 12 6 13 7 14 8 6 9 5 10 4 11 3 12 2 13
REMARK SMILES IDX 1 14
REMARK H PARENT
REMARK Flexibility Score: inf
ROOT
ATOM      1  C   UNL     1      15.895 128.239  55.833  1.00  0.00     0.000 C 
ENDROOT
BRANCH   1   2
ATOM      2  C   UNL     1      16.706 128.626  57.085  1.00  0.00     0.000 C 
BRANCH   2   3
ATOM      3  C   UNL     1      17.521 129.927  56.958  1.00  0.00     0.000 C 
BRANCH   3   4
ATOM      4  C   UNL     1      19.024 129.730  56.672  1.00  0.00     0.006 C 
BRANCH   4   5
ATOM      5  C   UNL     1      19.446 130.068  55.233  1.00  0.00     0.053 C 
BRANCH   5   6
ATOM      6  C   UNL     1      20.002 131.454  55.124  1.00  0.00     0.041 C 
ATOM      7  O   UNL     1      21.217 131.630  54.846  1.00  0.00    -0.550 OA
ATOM      8  O   UNL     1      19.169 132.553  55.294  1.00  0.00    -0.550 OA
ENDBRANCH   5   6
ENDBRANCH   4   5
ENDBRANCH   3   4
ENDBRANCH   2   3
ENDBRANCH   1   2
BRANCH   1   9
ATOM      9  C   UNL     1      16.637 127.330  54.831  1.00  0.00     0.000 C 
BRANCH   9  10
ATOM     10  C   UNL     1      16.273 127.565  53.353  1.00  0.00    -0.000 C 
BRANCH  10  11
ATOM     11  C   UNL     1      17.105 128.686  52.706  1.00  0.00    -0.000 C 
BRANCH  11  12
ATOM     12  C   UNL     1      16.254 129.909  52.329  1.00  0.00    -0.000 C 
BRANCH  12  13
ATOM     13  C   UNL     1      16.789 131.210  52.945  1.00  0.00    -0.003 C 
ATOM     14  C   UNL     1      15.920 131.660  54.116  1.00  0.00     0.004 C 
ENDBRANCH  12  13
ENDBRANCH  11  12
ENDBRANCH  10  11
ENDBRANCH   9  10
ENDBRANCH   1   9
TORSDOF 10
ENDMDL
MODEL 9
REMARK VINA RESULT:    -3.350      3.510      4.163
REMARK INTER + INTRA:          -6.377
REMARK INTER:                  -4.939
REMARK INTRA:                  -1.438
REMARK UNBOUND:                -1.070
REMARK SMILES CCCCCCCCCCCC(=O)[O-]
REMARK SMILES IDX 7 1 8 2 9 3 10 4 11 5 12 6 13 7 14 8 6 9 5 10 4 11 3 12 2 13
REMARK SMILES IDX 1 14
REMARK H PARENT
REMARK Flexibility Score: inf
ROOT
ATOM      1  C   UNL     1      16.288 128.012  53.501  1.00  0.00     0.000 C 
ENDROOT
BRANCH   1   2
ATOM      2  C   UNL     1      17.297 129.085  53.049  1.00  0.00     0.000 C 
BRANCH   2   3
ATOM      3  C   UNL     1      16.687 130.469  52.753  1.00  0.00     0.000 C 
BRANCH   3   4
ATOM      4  C   UNL     1      17.107 131.589  53.727  1.00  0.00     0.006 C 
BRANCH   4   5
ATOM      5  C   UNL     1      18.604 131.935  53.688  1.00  0.00     0.053 C 
BRANCH   5   6
ATOM      6  C   UNL     1      18.930 133.108  54.561  1.00  0.00     0.041 C 
ATOM      7  O   UNL     1      18.570 134.267  54.227  1.00  0.00    -0.550 OA
ATOM      8  O   UNL     1      19.602 132.914  55.762  1.00  0.00    -0.550 OA
ENDBRANCH   5   6
ENDBRANCH   4   5
ENDBRANCH   3   4
ENDBRANCH   2   3
ENDBRANCH   1   2
BRANCH   1   9
ATOM      9  C   UNL     1      16.523 127.450  54.918  1.00  0.00     0.000 C 
BRANCH   9  10
ATOM     10  C   UNL     1      15.800 128.210  56.044  1.00  0.00    -0.000 C 
BRANCH  10  11
ATOM     11  C   UNL     1      16.754 128.674  57.158  1.00  0.00    -0.000 C 
BRANCH  11  12
ATOM     12  C   UNL     1      17.627 129.865  56.729  1.00  0.00    -0.000 C 
BRANCH  12  13
ATOM     13  C   UNL     1      19.114 129.647  57.040  1.00  0.00    -0.003 C 
ATOM     14  C   UNL     1      19.881 129.231  55.788  1.00  0.00     0.004 C 
ENDBRANCH  12  13
ENDBRANCH  11  12
ENDBRANCH  10  11
ENDBRANCH   9  10
ENDBRANCH   1   9
TORSDOF 10
ENDMDL
