MODEL 1
REMARK VINA RESULT:    -6.133      0.000      0.000
REMARK INTER + INTRA:          -6.571
REMARK INTER:                  -6.850
REMARK INTRA:                   0.280
REMARK UNBOUND:                 0.280
REMARK SMILES COc1cc2ccc(=O)oc2cc1OC
REMARK SMILES IDX 3 1 13 2 12 3 11 4 5 5 4 6 6 7 7 8 8 9 9 10 10 11 2 12 1 13
REMARK SMILES IDX 14 14 15 15
REMARK H PARENT
REMARK Flexibility Score: inf
ROOT
ATOM      1  C   UNL     1       6.522   6.554  10.011  1.00  0.00     0.161 A 
ATOM      2  C   UNL     1       7.485   6.704  11.022  1.00  0.00     0.164 A 
ATOM      3  C   UNL     1       8.153   5.570  11.526  1.00  0.00     0.098 A 
ATOM      4  C   UNL     1       7.865   4.299  11.025  1.00  0.00     0.142 A 
ATOM      5  C   UNL     1       6.898   4.147  10.011  1.00  0.00     0.022 A 
ATOM      6  C   UNL     1       6.230   5.271   9.507  1.00  0.00     0.062 A 
ATOM      7  C   UNL     1       6.631   2.861   9.531  1.00  0.00     0.019 A 
ATOM      8  C   UNL     1       7.322   1.774  10.065  1.00  0.00     0.094 A 
ATOM      9  C   UNL     1       8.268   2.000  11.071  1.00  0.00     0.336 A 
ATOM     10  O   UNL     1       8.903   1.033  11.566  1.00  0.00    -0.246 OA
ATOM     11  O   UNL     1       8.502   3.234  11.508  1.00  0.00    -0.423 OA
ENDROOT
BRANCH   1  12
ATOM     12  O   UNL     1       5.875   7.705   9.532  1.00  0.00    -0.493 OA
ATOM     13  C   UNL     1       6.213   8.378   8.324  1.00  0.00     0.278 C 
ENDBRANCH   1  12
BRANCH   2  14
ATOM     14  O   UNL     1       7.749   7.997  11.501  1.00  0.00    -0.493 OA
ATOM     15  C   UNL     1       8.401   9.018  10.751  1.00  0.00     0.278 C 
ENDBRANCH   2  14
TORSDOF 2
ENDMDL
MODEL 2
REMARK VINA RESULT:    -5.520      1.161      2.456
REMARK INTER + INTRA:          -5.886
REMARK INTER:                  -6.130
REMARK INTRA:                   0.244
REMARK UNBOUND:                 0.280
REMARK SMILES COc1cc2ccc(=O)oc2cc1OC
REMARK SMILES IDX 3 1 13 2 12 3 11 4 5 5 4 6 6 7 7 8 8 9 9 10 10 11 2 12 1 13
REMARK SMILES IDX 14 14 15 15
REMARK H PARENT
REMARK Flexibility Score: inf
ROOT
ATOM      1  C   UNL     1       7.578   6.818  11.084  1.00  0.00     0.161 A 
ATOM      2  C   UNL     1       6.515   6.732  10.169  1.00  0.00     0.164 A 
ATOM      3  C   UNL     1       6.122   5.475   9.669  1.00  0.00     0.098 A 
ATOM      4  C   UNL     1       6.782   4.314  10.078  1.00  0.00     0.142 A 
ATOM      5  C   UNL     1       7.848   4.399  10.995  1.00  0.00     0.022 A 
ATOM      6  C   UNL     1       8.244   5.647  11.495  1.00  0.00     0.062 A 
ATOM      7  C   UNL     1       8.489   3.218  11.385  1.00  0.00     0.019 A 
ATOM      8  C   UNL     1       8.060   2.001  10.859  1.00  0.00     0.094 A 
ATOM      9  C   UNL     1       6.994   1.992   9.952  1.00  0.00     0.336 A 
ATOM     10  O   UNL     1       6.591   0.904   9.466  1.00  0.00    -0.246 OA
ATOM     11  O   UNL     1       6.403   3.131   9.600  1.00  0.00    -0.423 OA
ENDROOT
BRANCH   1  12
ATOM     12  O   UNL     1       7.943   8.087  11.561  1.00  0.00    -0.493 OA
ATOM     13  C   UNL     1       8.499   9.123  10.759  1.00  0.00     0.278 C 
ENDBRANCH   1  12
BRANCH   2  14
ATOM     14  O   UNL     1       5.875   7.920   9.780  1.00  0.00    -0.493 OA
ATOM     15  C   UNL     1       6.004   8.523   8.496  1.00  0.00     0.278 C 
ENDBRANCH   2  14
TORSDOF 2
ENDMDL
MODEL 3
REMARK VINA RESULT:    -5.179     10.891     13.597
REMARK INTER + INTRA:          -5.505
REMARK INTER:                  -5.355
REMARK INTRA:                  -0.151
REMARK UNBOUND:                 0.280
REMARK SMILES COc1cc2ccc(=O)oc2cc1OC
REMARK SMILES IDX 3 1 13 2 12 3 11 4 5 5 4 6 6 7 7 8 8 9 9 10 10 11 2 12 1 13
REMARK SMILES IDX 14 14 15 15
REMARK H PARENT
REMARK Flexibility Score: inf
ROOT
ATOM      1  C   UNL     1      11.181  -2.402  19.338  1.00  0.00     0.161 A 
ATOM      2  C   UNL     1      12.317  -3.077  19.813  1.00  0.00     0.164 A 
ATOM      3  C   UNL     1      12.259  -4.465  20.050  1.00  0.00     0.098 A 
ATOM      4  C   UNL     1      11.079  -5.173  19.812  1.00  0.00     0.142 A 
ATOM      5  C   UNL     1       9.939  -4.496  19.335  1.00  0.00     0.022 A 
ATOM      6  C   UNL     1       9.991  -3.116  19.099  1.00  0.00     0.062 A 
ATOM      7  C   UNL     1       8.771  -5.234  19.108  1.00  0.00     0.019 A 
ATOM      8  C   UNL     1       8.769  -6.605  19.357  1.00  0.00     0.094 A 
ATOM      9  C   UNL     1       9.939  -7.210  19.831  1.00  0.00     0.336 A 
ATOM     10  O   UNL     1       9.957  -8.447  20.062  1.00  0.00    -0.246 OA
ATOM     11  O   UNL     1      11.034  -6.484  20.038  1.00  0.00    -0.423 OA
ENDROOT
BRANCH   1  12
ATOM     12  O   UNL     1      11.275  -1.018  19.114  1.00  0.00    -0.493 OA
ATOM     13  C   UNL     1      11.396  -0.414  17.831  1.00  0.00     0.278 C 
ENDBRANCH   1  12
BRANCH   2  14
ATOM     14  O   UNL     1      13.486  -2.333  20.041  1.00  0.00    -0.493 OA
ATOM     15  C   UNL     1      14.716  -2.530  19.349  1.00  0.00     0.278 C 
ENDBRANCH   2  14
TORSDOF 2
ENDMDL
MODEL 4
REMARK VINA RESULT:    -5.008      1.262      5.093
REMARK INTER + INTRA:          -5.314
REMARK INTER:                  -5.819
REMARK INTRA:                   0.505
REMARK UNBOUND:                 0.280
REMARK SMILES COc1cc2ccc(=O)oc2cc1OC
REMARK SMILES IDX 3 1 13 2 12 3 11 4 5 5 4 6 6 7 7 8 8 9 9 10 10 11 2 12 1 13
REMARK SMILES IDX 14 14 15 15
REMARK H PARENT
REMARK Flexibility Score: inf
ROOT
ATOM      1  C   UNL     1       7.171   2.966  10.253  1.00  0.00     0.161 A 
ATOM      2  C   UNL     1       8.081   3.305  11.268  1.00  0.00     0.164 A 
ATOM      3  C   UNL     1       8.264   4.657  11.620  1.00  0.00     0.098 A 
ATOM      4  C   UNL     1       7.546   5.661  10.967  1.00  0.00     0.142 A 
ATOM      5  C   UNL     1       6.633   5.322   9.949  1.00  0.00     0.022 A 
ATOM      6  C   UNL     1       6.447   3.979   9.594  1.00  0.00     0.062 A 
ATOM      7  C   UNL     1       5.929   6.350   9.313  1.00  0.00     0.019 A 
ATOM      8  C   UNL     1       6.148   7.671   9.701  1.00  0.00     0.094 A 
ATOM      9  C   UNL     1       7.071   7.934  10.720  1.00  0.00     0.336 A 
ATOM     10  O   UNL     1       7.284   9.119  11.086  1.00  0.00    -0.246 OA
ATOM     11  O   UNL     1       7.726   6.936  11.308  1.00  0.00    -0.423 OA
ENDROOT
BRANCH   1  12
ATOM     12  O   UNL     1       7.014   1.608   9.928  1.00  0.00    -0.493 OA
ATOM     13  C   UNL     1       5.937   1.081   9.161  1.00  0.00     0.278 C 
ENDBRANCH   1  12
BRANCH   2  14
ATOM     14  O   UNL     1       8.786   2.270  11.903  1.00  0.00    -0.493 OA
ATOM     15  C   UNL     1       9.390   1.172  11.226  1.00  0.00     0.278 C 
ENDBRANCH   2  14
TORSDOF 2
ENDMDL
MODEL 5
REMARK VINA RESULT:    -4.985     10.023     12.789
REMARK INTER + INTRA:          -5.288
REMARK INTER:                  -5.125
REMARK INTRA:                  -0.162
REMARK UNBOUND:                 0.280
REMARK SMILES COc1cc2ccc(=O)oc2cc1OC
REMARK SMILES IDX 3 1 13 2 12 3 11 4 5 5 4 6 6 7 7 8 8 9 9 10 10 11 2 12 1 13
REMARK SMILES IDX 14 14 15 15
REMARK H PARENT
REMARK Flexibility Score: inf
ROOT
ATOM      1  C   UNL     1      11.671  -2.393  18.622  1.00  0.00     0.161 A 
ATOM      2  C   UNL     1      10.394  -2.036  18.160  1.00  0.00     0.164 A 
ATOM      3  C   UNL     1       9.319  -2.934  18.310  1.00  0.00     0.098 A 
ATOM      4  C   UNL     1       9.515  -4.175  18.918  1.00  0.00     0.142 A 
ATOM      5  C   UNL     1      10.796  -4.534  19.383  1.00  0.00     0.022 A 
ATOM      6  C   UNL     1      11.869  -3.646  19.235  1.00  0.00     0.062 A 
ATOM      7  C   UNL     1      10.960  -5.786  19.987  1.00  0.00     0.019 A 
ATOM      8  C   UNL     1       9.862  -6.635  20.112  1.00  0.00     0.094 A 
ATOM      9  C   UNL     1       8.619  -6.211  19.626  1.00  0.00     0.336 A 
ATOM     10  O   UNL     1       7.614  -6.963  19.729  1.00  0.00    -0.246 OA
ATOM     11  O   UNL     1       8.492  -5.016  19.056  1.00  0.00    -0.423 OA
ENDROOT
BRANCH   1  12
ATOM     12  O   UNL     1      12.720  -1.474  18.455  1.00  0.00    -0.493 OA
ATOM     13  C   UNL     1      13.219  -0.622  19.481  1.00  0.00     0.278 C 
ENDBRANCH   1  12
BRANCH   2  14
ATOM     14  O   UNL     1      10.234  -0.779  17.553  1.00  0.00    -0.493 OA
ATOM     15  C   UNL     1       9.730   0.377  18.214  1.00  0.00     0.278 C 
ENDBRANCH   2  14
TORSDOF 2
ENDMDL
MODEL 6
REMARK VINA RESULT:    -4.575     10.608     13.201
REMARK INTER + INTRA:          -4.831
REMARK INTER:                  -4.718
REMARK INTRA:                  -0.112
REMARK UNBOUND:                 0.280
REMARK SMILES COc1cc2ccc(=O)oc2cc1OC
REMARK SMILES IDX 3 1 13 2 12 3 11 4 5 5 4 6 6 7 7 8 8 9 9 10 10 11 2 12 1 13
REMARK SMILES IDX 14 14 15 15
REMARK H PARENT
REMARK Flexibility Score: inf
ROOT
ATOM      1  C   UNL     1       9.090  -3.481  18.200  1.00  0.00     0.161 A 
ATOM      2  C   UNL     1       9.265  -4.537  19.108  1.00  0.00     0.164 A 
ATOM      3  C   UNL     1      10.542  -4.794  19.646  1.00  0.00     0.098 A 
ATOM      4  C   UNL     1      11.634  -4.003  19.282  1.00  0.00     0.142 A 
ATOM      5  C   UNL     1      11.459  -2.943  18.370  1.00  0.00     0.022 A 
ATOM      6  C   UNL     1      10.192  -2.683  17.832  1.00  0.00     0.062 A 
ATOM      7  C   UNL     1      12.573  -2.169  18.025  1.00  0.00     0.019 A 
ATOM      8  C   UNL     1      13.813  -2.466  18.587  1.00  0.00     0.094 A 
ATOM      9  C   UNL     1      13.912  -3.535  19.485  1.00  0.00     0.336 A 
ATOM     10  O   UNL     1      15.023  -3.820  20.004  1.00  0.00    -0.246 OA
ATOM     11  O   UNL     1      12.836  -4.254  19.796  1.00  0.00    -0.423 OA
ENDROOT
BRANCH   1  12
ATOM     12  O   UNL     1       7.804  -3.253  17.684  1.00  0.00    -0.493 OA
ATOM     13  C   UNL     1       7.524  -2.923  16.327  1.00  0.00     0.278 C 
ENDBRANCH   1  12
BRANCH   2  14
ATOM     14  O   UNL     1       8.145  -5.311  19.451  1.00  0.00    -0.493 OA
ATOM     15  C   UNL     1       8.158  -6.728  19.601  1.00  0.00     0.278 C 
ENDBRANCH   2  14
TORSDOF 2
ENDMDL
MODEL 7
REMARK VINA RESULT:    -4.569     10.197     13.610
REMARK INTER + INTRA:          -4.824
REMARK INTER:                  -4.719
REMARK INTRA:                  -0.105
REMARK UNBOUND:                 0.280
REMARK SMILES COc1cc2ccc(=O)oc2cc1OC
REMARK SMILES IDX 3 1 13 2 12 3 11 4 5 5 4 6 6 7 7 8 8 9 9 10 10 11 2 12 1 13
REMARK SMILES IDX 14 14 15 15
REMARK H PARENT
REMARK Flexibility Score: inf
ROOT
ATOM      1  C   UNL     1      10.436  -5.484  19.700  1.00  0.00     0.161 A 
ATOM      2  C   UNL     1      11.423  -4.485  19.661  1.00  0.00     0.164 A 
ATOM      3  C   UNL     1      11.085  -3.184  19.239  1.00  0.00     0.098 A 
ATOM      4  C   UNL     1       9.775  -2.881  18.861  1.00  0.00     0.142 A 
ATOM      5  C   UNL     1       8.784  -3.883  18.900  1.00  0.00     0.022 A 
ATOM      6  C   UNL     1       9.115  -5.179  19.318  1.00  0.00     0.062 A 
ATOM      7  C   UNL     1       7.482  -3.548  18.515  1.00  0.00     0.019 A 
ATOM      8  C   UNL     1       7.202  -2.245  18.106  1.00  0.00     0.094 A 
ATOM      9  C   UNL     1       8.236  -1.302  18.093  1.00  0.00     0.336 A 
ATOM     10  O   UNL     1       8.005  -0.120  17.728  1.00  0.00    -0.246 OA
ATOM     11  O   UNL     1       9.466  -1.648  18.465  1.00  0.00    -0.423 OA
ENDROOT
BRANCH   1  12
ATOM     12  O   UNL     1      10.808  -6.770  20.125  1.00  0.00    -0.493 OA
ATOM     13  C   UNL     1       9.949  -7.905  20.110  1.00  0.00     0.278 C 
ENDBRANCH   1  12
BRANCH   2  14
ATOM     14  O   UNL     1      12.729  -4.826  20.048  1.00  0.00    -0.493 OA
ATOM     15  C   UNL     1      13.910  -4.327  19.427  1.00  0.00     0.278 C 
ENDBRANCH   2  14
TORSDOF 2
ENDMDL
MODEL 8
REMARK VINA RESULT:    -4.525      9.299     11.309
REMARK INTER + INTRA:          -4.774
REMARK INTER:                  -4.673
REMARK INTRA:                  -0.101
REMARK UNBOUND:                 0.280
REMARK SMILES COc1cc2ccc(=O)oc2cc1OC
REMARK SMILES IDX 3 1 13 2 12 3 11 4 5 5 4 6 6 7 7 8 8 9 9 10 10 11 2 12 1 13
REMARK SMILES IDX 14 14 15 15
REMARK H PARENT
REMARK Flexibility Score: inf
ROOT
ATOM      1  C   UNL     1      10.126  -1.148  17.559  1.00  0.00     0.161 A 
ATOM      2  C   UNL     1      10.391   0.057  18.231  1.00  0.00     0.164 A 
ATOM      3  C   UNL     1      11.625   0.235  18.889  1.00  0.00     0.098 A 
ATOM      4  C   UNL     1      12.586  -0.777  18.874  1.00  0.00     0.142 A 
ATOM      5  C   UNL     1      12.321  -1.986  18.200  1.00  0.00     0.022 A 
ATOM      6  C   UNL     1      11.096  -2.170  17.546  1.00  0.00     0.062 A 
ATOM      7  C   UNL     1      13.304  -2.982  18.205  1.00  0.00     0.019 A 
ATOM      8  C   UNL     1      14.507  -2.753  18.870  1.00  0.00     0.094 A 
ATOM      9  C   UNL     1      14.700  -1.528  19.519  1.00  0.00     0.336 A 
ATOM     10  O   UNL     1      15.780  -1.301  20.125  1.00  0.00    -0.246 OA
ATOM     11  O   UNL     1      13.749  -0.599  19.498  1.00  0.00    -0.423 OA
ENDROOT
BRANCH   1  12
ATOM     12  O   UNL     1       8.886  -1.292  16.916  1.00  0.00    -0.493 OA
ATOM     13  C   UNL     1       8.427  -2.494  16.307  1.00  0.00     0.278 C 
ENDBRANCH   1  12
BRANCH   2  14
ATOM     14  O   UNL     1       9.401   1.053  18.225  1.00  0.00    -0.493 OA
ATOM     15  C   UNL     1       9.480   2.273  18.955  1.00  0.00     0.278 C 
ENDBRANCH   2  14
TORSDOF 2
ENDMDL
