MODEL 1
REMARK VINA RESULT:    -3.183      0.000      0.000
REMARK INTER + INTRA:          -3.863
REMARK INTER:                  -3.741
REMARK INTRA:                  -0.122
REMARK UNBOUND:                -0.122
REMARK SMILES O=C([O-])CCC(=O)[O-]
REMARK SMILES IDX 4 1 2 2 1 3 3 4 5 5 6 6 7 7 8 8
REMARK H PARENT
REMARK Flexibility Score: inf
ROOT
ATOM      1  C   UNL     1       1.456  -3.906   2.164  1.00  0.00     0.059 C 
ENDROOT
BRANCH   1   2
ATOM      2  C   UNL     1       0.872  -2.891   3.096  1.00  0.00     0.042 C 
ATOM      3  O   UNL     1       1.376  -1.739   3.175  1.00  0.00    -0.550 OA
ATOM      4  O   UNL     1      -0.258  -3.200   3.841  1.00  0.00    -0.550 OA
ENDBRANCH   1   2
BRANCH   1   5
ATOM      5  C   UNL     1       0.848  -3.761   0.767  1.00  0.00     0.059 C 
BRANCH   5   6
ATOM      6  C   UNL     1       1.806  -3.068  -0.150  1.00  0.00     0.042 C 
ATOM      7  O   UNL     1       1.459  -2.776  -1.325  1.00  0.00    -0.550 OA
ATOM      8  O   UNL     1       3.099  -2.790   0.274  1.00  0.00    -0.550 OA
ENDBRANCH   5   6
ENDBRANCH   1   5
TORSDOF 3
ENDMDL
MODEL 2
REMARK VINA RESULT:    -3.162      1.304      3.554
REMARK INTER + INTRA:          -3.839
REMARK INTER:                  -3.666
REMARK INTRA:                  -0.173
REMARK UNBOUND:                -0.122
REMARK SMILES O=C([O-])CCC(=O)[O-]
REMARK SMILES IDX 4 1 2 2 1 3 3 4 5 5 6 6 7 7 8 8
REMARK H PARENT
REMARK Flexibility Score: inf
ROOT
ATOM      1  C   UNL     1       0.985  -3.225   0.796  1.00  0.00     0.059 C 
ENDROOT
BRANCH   1   2
ATOM      2  C   UNL     1       2.400  -3.603   0.487  1.00  0.00     0.042 C 
ATOM      3  O   UNL     1       3.272  -2.709   0.317  1.00  0.00    -0.550 OA
ATOM      4  O   UNL     1       2.767  -4.941   0.435  1.00  0.00    -0.550 OA
ENDBRANCH   1   2
BRANCH   1   5
ATOM      5  C   UNL     1       0.608  -3.678   2.208  1.00  0.00     0.059 C 
BRANCH   5   6
ATOM      6  C   UNL     1       1.344  -2.870   3.230  1.00  0.00     0.042 C 
ATOM      7  O   UNL     1       1.253  -1.615   3.230  1.00  0.00    -0.550 OA
ATOM      8  O   UNL     1       2.170  -3.501   4.152  1.00  0.00    -0.550 OA
ENDBRANCH   5   6
ENDBRANCH   1   5
TORSDOF 3
ENDMDL
MODEL 3
REMARK VINA RESULT:    -3.153      0.635      4.006
REMARK INTER + INTRA:          -3.828
REMARK INTER:                  -3.787
REMARK INTRA:                  -0.041
REMARK UNBOUND:                -0.122
REMARK SMILES O=C([O-])CCC(=O)[O-]
REMARK SMILES IDX 4 1 2 2 1 3 3 4 5 5 6 6 7 7 8 8
REMARK H PARENT
REMARK Flexibility Score: inf
ROOT
ATOM      1  C   UNL     1       0.983  -3.277   1.223  1.00  0.00     0.059 C 
ENDROOT
BRANCH   1   2
ATOM      2  C   UNL     1       1.931  -3.202   0.067  1.00  0.00     0.042 C 
ATOM      3  O   UNL     1       1.535  -3.480  -1.096  1.00  0.00    -0.550 OA
ATOM      4  O   UNL     1       3.239  -2.779   0.266  1.00  0.00    -0.550 OA
ENDBRANCH   1   2
BRANCH   1   5
ATOM      5  C   UNL     1       1.751  -3.251   2.546  1.00  0.00     0.059 C 
BRANCH   5   6
ATOM      6  C   UNL     1       0.956  -2.542   3.598  1.00  0.00     0.042 C 
ATOM      7  O   UNL     1      -0.119  -3.041   4.022  1.00  0.00    -0.550 OA
ATOM      8  O   UNL     1       1.376  -1.307   4.073  1.00  0.00    -0.550 OA
ENDBRANCH   5   6
ENDBRANCH   1   5
TORSDOF 3
ENDMDL
MODEL 4
REMARK VINA RESULT:    -3.126      1.313      1.708
REMARK INTER + INTRA:          -3.796
REMARK INTER:                  -3.613
REMARK INTRA:                  -0.183
REMARK UNBOUND:                -0.122
REMARK SMILES O=C([O-])CCC(=O)[O-]
REMARK SMILES IDX 4 1 2 2 1 3 3 4 5 5 6 6 7 7 8 8
REMARK H PARENT
REMARK Flexibility Score: inf
ROOT
ATOM      1  C   UNL     1       0.622  -3.767   2.210  1.00  0.00     0.059 C 
ENDROOT
BRANCH   1   2
ATOM      2  C   UNL     1       1.367  -2.999   3.257  1.00  0.00     0.042 C 
ATOM      3  O   UNL     1       2.065  -3.607   4.112  1.00  0.00    -0.550 OA
ATOM      4  O   UNL     1       1.330  -1.611   3.260  1.00  0.00    -0.550 OA
ENDBRANCH   1   2
BRANCH   1   5
ATOM      5  C   UNL     1       1.015  -3.284   0.813  1.00  0.00     0.059 C 
BRANCH   5   6
ATOM      6  C   UNL     1       2.444  -3.625   0.524  1.00  0.00     0.042 C 
ATOM      7  O   UNL     1       3.277  -2.712   0.288  1.00  0.00    -0.550 OA
ATOM      8  O   UNL     1       2.844  -4.954   0.467  1.00  0.00    -0.550 OA
ENDBRANCH   5   6
ENDBRANCH   1   5
TORSDOF 3
ENDMDL
MODEL 5
REMARK VINA RESULT:    -3.099      0.927      1.443
REMARK INTER + INTRA:          -3.765
REMARK INTER:                  -3.609
REMARK INTRA:                  -0.156
REMARK UNBOUND:                -0.122
REMARK SMILES O=C([O-])CCC(=O)[O-]
REMARK SMILES IDX 4 1 2 2 1 3 3 4 5 5 6 6 7 7 8 8
REMARK H PARENT
REMARK Flexibility Score: inf
ROOT
ATOM      1  C   UNL     1       2.195  -3.946   2.814  1.00  0.00     0.059 C 
ENDROOT
BRANCH   1   2
ATOM      2  C   UNL     1       1.067  -3.000   3.085  1.00  0.00     0.042 C 
ATOM      3  O   UNL     1      -0.111  -3.433   3.187  1.00  0.00    -0.550 OA
ATOM      4  O   UNL     1       1.324  -1.649   3.273  1.00  0.00    -0.550 OA
ENDBRANCH   1   2
BRANCH   1   5
ATOM      5  C   UNL     1       2.163  -4.413   1.357  1.00  0.00     0.059 C 
BRANCH   5   6
ATOM      6  C   UNL     1       2.636  -3.321   0.448  1.00  0.00     0.042 C 
ATOM      7  O   UNL     1       1.880  -2.878  -0.455  1.00  0.00    -0.550 OA
ATOM      8  O   UNL     1       3.929  -2.829   0.567  1.00  0.00    -0.550 OA
ENDBRANCH   5   6
ENDBRANCH   1   5
TORSDOF 3
ENDMDL
MODEL 6
REMARK VINA RESULT:    -3.097      0.665      1.283
REMARK INTER + INTRA:          -3.762
REMARK INTER:                  -3.716
REMARK INTRA:                  -0.046
REMARK UNBOUND:                -0.122
REMARK SMILES O=C([O-])CCC(=O)[O-]
REMARK SMILES IDX 4 1 2 2 1 3 3 4 5 5 6 6 7 7 8 8
REMARK H PARENT
REMARK Flexibility Score: inf
ROOT
ATOM      1  C   UNL     1       1.742  -3.256   2.587  1.00  0.00     0.059 C 
ENDROOT
BRANCH   1   2
ATOM      2  C   UNL     1       0.980  -2.495   3.627  1.00  0.00     0.042 C 
ATOM      3  O   UNL     1       1.390  -1.369   4.016  1.00  0.00    -0.550 OA
ATOM      4  O   UNL     1      -0.210  -3.006   4.130  1.00  0.00    -0.550 OA
ENDBRANCH   1   2
BRANCH   1   5
ATOM      5  C   UNL     1       0.980  -3.258   1.261  1.00  0.00     0.059 C 
BRANCH   5   6
ATOM      6  C   UNL     1       1.935  -3.226   0.109  1.00  0.00     0.042 C 
ATOM      7  O   UNL     1       3.098  -2.769   0.263  1.00  0.00    -0.550 OA
ATOM      8  O   UNL     1       1.525  -3.655  -1.147  1.00  0.00    -0.550 OA
ENDBRANCH   5   6
ENDBRANCH   1   5
TORSDOF 3
ENDMDL
MODEL 7
REMARK VINA RESULT:    -2.668     12.068     12.768
REMARK INTER + INTRA:          -3.258
REMARK INTER:                  -3.166
REMARK INTRA:                  -0.092
REMARK UNBOUND:                -0.122
REMARK SMILES O=C([O-])CCC(=O)[O-]
REMARK SMILES IDX 4 1 2 2 1 3 3 4 5 5 6 6 7 7 8 8
REMARK H PARENT
REMARK Flexibility Score: inf
ROOT
ATOM      1  C   UNL     1       8.025   8.836   1.145  1.00  0.00     0.059 C 
ENDROOT
BRANCH   1   2
ATOM      2  C   UNL     1       6.534   8.906   1.038  1.00  0.00     0.042 C 
ATOM      3  O   UNL     1       5.810   8.316   1.883  1.00  0.00    -0.550 OA
ATOM      4  O   UNL     1       5.943   9.663   0.034  1.00  0.00    -0.550 OA
ENDBRANCH   1   2
BRANCH   1   5
ATOM      5  C   UNL     1       8.452   7.523   1.804  1.00  0.00     0.059 C 
BRANCH   5   6
ATOM      6  C   UNL     1       8.881   6.533   0.766  1.00  0.00     0.042 C 
ATOM      7  O   UNL     1       9.105   6.910  -0.414  1.00  0.00    -0.550 OA
ATOM      8  O   UNL     1       8.985   5.187   1.090  1.00  0.00    -0.550 OA
ENDBRANCH   5   6
ENDBRANCH   1   5
TORSDOF 3
ENDMDL
MODEL 8
REMARK VINA RESULT:    -2.627     12.179     12.989
REMARK INTER + INTRA:          -3.210
REMARK INTER:                  -3.094
REMARK INTRA:                  -0.116
REMARK UNBOUND:                -0.122
REMARK SMILES O=C([O-])CCC(=O)[O-]
REMARK SMILES IDX 4 1 2 2 1 3 3 4 5 5 6 6 7 7 8 8
REMARK H PARENT
REMARK Flexibility Score: inf
ROOT
ATOM      1  C   UNL     1       8.494   7.636   0.164  1.00  0.00     0.059 C 
ENDROOT
BRANCH   1   2
ATOM      2  C   UNL     1       8.853   6.656   1.236  1.00  0.00     0.042 C 
ATOM      3  O   UNL     1       8.913   5.425   0.976  1.00  0.00    -0.550 OA
ATOM      4  O   UNL     1       9.171   7.105   2.511  1.00  0.00    -0.550 OA
ENDBRANCH   1   2
BRANCH   1   5
ATOM      5  C   UNL     1       8.033   8.957   0.781  1.00  0.00     0.059 C 
BRANCH   5   6
ATOM      6  C   UNL     1       6.538   9.026   0.813  1.00  0.00     0.042 C 
ATOM      7  O   UNL     1       5.915   9.687  -0.059  1.00  0.00    -0.550 OA
ATOM      8  O   UNL     1       5.835   8.402   1.835  1.00  0.00    -0.550 OA
ENDBRANCH   5   6
ENDBRANCH   1   5
TORSDOF 3
ENDMDL
MODEL 9
REMARK VINA RESULT:    -2.611     10.475     11.459
REMARK INTER + INTRA:          -3.191
REMARK INTER:                  -3.104
REMARK INTRA:                  -0.087
REMARK UNBOUND:                -0.122
REMARK SMILES O=C([O-])CCC(=O)[O-]
REMARK SMILES IDX 4 1 2 2 1 3 3 4 5 5 6 6 7 7 8 8
REMARK H PARENT
REMARK Flexibility Score: inf
ROOT
ATOM      1  C   UNL     1      10.139   4.990   0.131  1.00  0.00     0.059 C 
ENDROOT
BRANCH   1   2
ATOM      2  C   UNL     1       9.246   6.107   0.573  1.00  0.00     0.042 C 
ATOM      3  O   UNL     1       8.855   6.170   1.768  1.00  0.00    -0.550 OA
ATOM      4  O   UNL     1       8.887   7.106  -0.323  1.00  0.00    -0.550 OA
ENDBRANCH   1   2
BRANCH   1   5
ATOM      5  C   UNL     1      10.435   4.049   1.300  1.00  0.00     0.059 C 
BRANCH   5   6
ATOM      6  C   UNL     1       9.662   2.775   1.154  1.00  0.00     0.042 C 
ATOM      7  O   UNL     1       9.355   2.348   0.010  1.00  0.00    -0.550 OA
ATOM      8  O   UNL     1       9.239   2.085   2.283  1.00  0.00    -0.550 OA
ENDBRANCH   5   6
ENDBRANCH   1   5
TORSDOF 3
ENDMDL
