MODEL 1
REMARK VINA RESULT:    -7.062      0.000      0.000
REMARK INTER + INTRA:          -8.585
REMARK INTER:                  -8.300
REMARK INTRA:                  -0.285
REMARK UNBOUND:                -0.285
REMARK SMILES O=c1c(O)c(-c2ccc(O)c(O)c2)oc2cc(O)ccc12
REMARK SMILES IDX 5 1 3 2 2 3 1 4 21 5 15 6 14 7 16 8 17 9 19 10 20 11 6 12
REMARK SMILES IDX 7 13 8 14 9 15 13 16 11 17 10 18 12 20 4 22 18 24
REMARK H PARENT 10 19 12 21 4 23 18 25
REMARK Flexibility Score: inf
ROOT
ATOM      1  C   UNL     1      15.106  14.887  62.165  1.00  0.00     0.180 A 
ATOM      2  C   UNL     1      14.894  14.011  61.080  1.00  0.00     0.208 A 
ATOM      3  C   UNL     1      15.807  14.022  60.014  1.00  0.00     0.235 A 
ATOM      4  O   UNL     1      15.633  13.255  59.027  1.00  0.00    -0.285 OA
ATOM      5  C   UNL     1      16.912  14.885  60.060  1.00  0.00     0.069 A 
ATOM      6  C   UNL     1      17.067  15.714  61.192  1.00  0.00     0.142 A 
ATOM      7  O   UNL     1      16.175  15.679  62.176  1.00  0.00    -0.452 OA
ATOM      8  C   UNL     1      18.161  16.581  61.280  1.00  0.00     0.094 A 
ATOM      9  C   UNL     1      19.107  16.631  60.248  1.00  0.00     0.119 A 
ATOM     10  C   UNL     1      18.955  15.812  59.124  1.00  0.00     0.047 A 
ATOM     11  C   UNL     1      17.866  14.941  59.027  1.00  0.00     0.020 A 
ENDROOT
BRANCH   1  12
ATOM     12  C   UNL     1      14.180  14.947  63.318  1.00  0.00     0.025 A 
ATOM     13  C   UNL     1      14.457  14.265  64.516  1.00  0.00     0.016 A 
ATOM     14  C   UNL     1      13.555  14.316  65.582  1.00  0.00     0.051 A 
ATOM     15  C   UNL     1      12.361  15.034  65.467  1.00  0.00     0.157 A 
ATOM     16  C   UNL     1      12.969  15.649  63.197  1.00  0.00     0.062 A 
ATOM     17  C   UNL     1      12.064  15.703  64.267  1.00  0.00     0.158 A 
BRANCH  15  18
ATOM     18  O   UNL     1      11.482  15.069  66.549  1.00  0.00    -0.504 OA
ATOM     19  H   UNL     1      10.936  15.892  66.771  1.00  0.00     0.293 HD
ENDBRANCH  15  18
BRANCH  17  20
ATOM     20  O   UNL     1      10.872  16.415  64.142  1.00  0.00    -0.504 OA
ATOM     21  H   UNL     1      10.386  16.485  63.255  1.00  0.00     0.293 HD
ENDBRANCH  17  20
ENDBRANCH   1  12
BRANCH   2  22
ATOM     22  O   UNL     1      13.811  13.127  61.084  1.00  0.00    -0.502 OA
ATOM     23  H   UNL     1      12.853  13.447  61.153  1.00  0.00     0.293 HD
ENDBRANCH   2  22
BRANCH   9  24
ATOM     24  O   UNL     1      20.199  17.491  60.327  1.00  0.00    -0.508 OA
ATOM     25  H   UNL     1      21.045  17.231  60.822  1.00  0.00     0.293 HD
ENDBRANCH   9  24
TORSDOF 5
ENDMDL
MODEL 2
REMARK VINA RESULT:    -6.686      2.989      6.245
REMARK INTER + INTRA:          -8.144
REMARK INTER:                  -7.821
REMARK INTRA:                  -0.323
REMARK UNBOUND:                -0.285
REMARK SMILES O=c1c(O)c(-c2ccc(O)c(O)c2)oc2cc(O)ccc12
REMARK SMILES IDX 5 1 3 2 2 3 1 4 21 5 15 6 14 7 16 8 17 9 19 10 20 11 6 12
REMARK SMILES IDX 7 13 8 14 9 15 13 16 11 17 10 18 12 20 4 22 18 24
REMARK H PARENT 10 19 12 21 4 23 18 25
REMARK Flexibility Score: inf
ROOT
ATOM      1  C   UNL     1      15.031  13.051  61.443  1.00  0.00     0.180 A 
ATOM      2  C   UNL     1      14.609  12.497  62.670  1.00  0.00     0.208 A 
ATOM      3  C   UNL     1      14.239  13.362  63.711  1.00  0.00     0.235 A 
ATOM      4  O   UNL     1      13.868  12.890  64.821  1.00  0.00    -0.285 OA
ATOM      5  C   UNL     1      14.278  14.750  63.503  1.00  0.00     0.069 A 
ATOM      6  C   UNL     1      14.688  15.225  62.239  1.00  0.00     0.142 A 
ATOM      7  O   UNL     1      15.039  14.372  61.282  1.00  0.00    -0.452 OA
ATOM      8  C   UNL     1      14.730  16.601  61.989  1.00  0.00     0.094 A 
ATOM      9  C   UNL     1      14.367  17.512  62.990  1.00  0.00     0.119 A 
ATOM     10  C   UNL     1      13.961  17.043  64.243  1.00  0.00     0.047 A 
ATOM     11  C   UNL     1      13.915  15.670  64.503  1.00  0.00     0.020 A 
ENDROOT
BRANCH   1  12
ATOM     12  C   UNL     1      15.454  12.206  60.304  1.00  0.00     0.025 A 
ATOM     13  C   UNL     1      16.799  11.835  60.127  1.00  0.00     0.016 A 
ATOM     14  C   UNL     1      17.178  11.058  59.029  1.00  0.00     0.051 A 
ATOM     15  C   UNL     1      16.228  10.652  58.087  1.00  0.00     0.157 A 
ATOM     16  C   UNL     1      14.506  11.816  59.344  1.00  0.00     0.062 A 
ATOM     17  C   UNL     1      14.885  11.035  58.242  1.00  0.00     0.158 A 
BRANCH  15  18
ATOM     18  O   UNL     1      16.637   9.875  57.003  1.00  0.00    -0.504 OA
ATOM     19  H   UNL     1      17.003  10.287  56.154  1.00  0.00     0.293 HD
ENDBRANCH  15  18
BRANCH  17  20
ATOM     20  O   UNL     1      13.934  10.639  57.303  1.00  0.00    -0.504 OA
ATOM     21  H   UNL     1      14.199  10.340  56.372  1.00  0.00     0.293 HD
ENDBRANCH  17  20
ENDBRANCH   1  12
BRANCH   2  22
ATOM     22  O   UNL     1      14.534  11.111  62.832  1.00  0.00    -0.502 OA
ATOM     23  H   UNL     1      15.106  10.472  62.294  1.00  0.00     0.293 HD
ENDBRANCH   2  22
BRANCH   9  24
ATOM     24  O   UNL     1      14.407  18.883  62.750  1.00  0.00    -0.508 OA
ATOM     25  H   UNL     1      15.208  19.445  63.018  1.00  0.00     0.293 HD
ENDBRANCH   9  24
TORSDOF 5
ENDMDL
MODEL 3
REMARK VINA RESULT:    -6.668      1.738      2.366
REMARK INTER + INTRA:          -8.122
REMARK INTER:                  -7.822
REMARK INTRA:                  -0.300
REMARK UNBOUND:                -0.285
REMARK SMILES O=c1c(O)c(-c2ccc(O)c(O)c2)oc2cc(O)ccc12
REMARK SMILES IDX 5 1 3 2 2 3 1 4 21 5 15 6 14 7 16 8 17 9 19 10 20 11 6 12
REMARK SMILES IDX 7 13 8 14 9 15 13 16 11 17 10 18 12 20 4 22 18 24
REMARK H PARENT 10 19 12 21 4 23 18 25
REMARK Flexibility Score: inf
ROOT
ATOM      1  C   UNL     1      15.806  16.229  61.939  1.00  0.00     0.180 A 
ATOM      2  C   UNL     1      15.730  16.154  60.532  1.00  0.00     0.208 A 
ATOM      3  C   UNL     1      16.892  16.382  59.779  1.00  0.00     0.235 A 
ATOM      4  O   UNL     1      16.848  16.331  58.519  1.00  0.00    -0.285 OA
ATOM      5  C   UNL     1      18.100  16.659  60.440  1.00  0.00     0.069 A 
ATOM      6  C   UNL     1      18.098  16.692  61.851  1.00  0.00     0.142 A 
ATOM      7  O   UNL     1      16.974  16.480  62.526  1.00  0.00    -0.452 OA
ATOM      8  C   UNL     1      19.283  16.955  62.546  1.00  0.00     0.094 A 
ATOM      9  C   UNL     1      20.476  17.186  61.847  1.00  0.00     0.119 A 
ATOM     10  C   UNL     1      20.480  17.155  60.449  1.00  0.00     0.047 A 
ATOM     11  C   UNL     1      19.301  16.892  59.744  1.00  0.00     0.020 A 
ENDROOT
BRANCH   1  12
ATOM     12  C   UNL     1      14.621  16.018  62.801  1.00  0.00     0.025 A 
ATOM     13  C   UNL     1      13.677  17.039  63.011  1.00  0.00     0.016 A 
ATOM     14  C   UNL     1      12.581  16.825  63.849  1.00  0.00     0.051 A 
ATOM     15  C   UNL     1      12.416  15.599  64.501  1.00  0.00     0.157 A 
ATOM     16  C   UNL     1      14.465  14.796  63.474  1.00  0.00     0.062 A 
ATOM     17  C   UNL     1      13.364  14.579  64.315  1.00  0.00     0.158 A 
BRANCH  15  18
ATOM     18  O   UNL     1      11.310  15.414  65.330  1.00  0.00    -0.504 OA
ATOM     19  H   UNL     1      10.469  14.949  65.009  1.00  0.00     0.293 HD
ENDBRANCH  15  18
BRANCH  17  20
ATOM     20  O   UNL     1      13.210  13.355  64.967  1.00  0.00    -0.504 OA
ATOM     21  H   UNL     1      12.302  13.030  65.278  1.00  0.00     0.293 HD
ENDBRANCH  17  20
ENDBRANCH   1  12
BRANCH   2  22
ATOM     22  O   UNL     1      14.525  15.829  59.904  1.00  0.00    -0.502 OA
ATOM     23  H   UNL     1      14.489  15.276  59.056  1.00  0.00     0.293 HD
ENDBRANCH   2  22
BRANCH   9  24
ATOM     24  O   UNL     1      21.660  17.449  62.531  1.00  0.00    -0.508 OA
ATOM     25  H   UNL     1      22.280  18.199  62.248  1.00  0.00     0.293 HD
ENDBRANCH   9  24
TORSDOF 5
ENDMDL
MODEL 4
REMARK VINA RESULT:    -6.562      2.908      4.201
REMARK INTER + INTRA:          -7.998
REMARK INTER:                  -8.028
REMARK INTRA:                   0.030
REMARK UNBOUND:                -0.285
REMARK SMILES O=c1c(O)c(-c2ccc(O)c(O)c2)oc2cc(O)ccc12
REMARK SMILES IDX 5 1 3 2 2 3 1 4 21 5 15 6 14 7 16 8 17 9 19 10 20 11 6 12
REMARK SMILES IDX 7 13 8 14 9 15 13 16 11 17 10 18 12 20 4 22 18 24
REMARK H PARENT 10 19 12 21 4 23 18 25
REMARK Flexibility Score: inf
ROOT
ATOM      1  C   UNL     1      14.281  14.039  62.874  1.00  0.00     0.180 A 
ATOM      2  C   UNL     1      13.925  12.993  63.751  1.00  0.00     0.208 A 
ATOM      3  C   UNL     1      14.412  11.702  63.495  1.00  0.00     0.235 A 
ATOM      4  O   UNL     1      14.099  10.747  64.259  1.00  0.00    -0.285 OA
ATOM      5  C   UNL     1      15.252  11.486  62.391  1.00  0.00     0.069 A 
ATOM      6  C   UNL     1      15.581  12.590  61.576  1.00  0.00     0.142 A 
ATOM      7  O   UNL     1      15.092  13.795  61.847  1.00  0.00    -0.452 OA
ATOM      8  C   UNL     1      16.423  12.418  60.472  1.00  0.00     0.094 A 
ATOM      9  C   UNL     1      16.943  11.152  60.170  1.00  0.00     0.119 A 
ATOM     10  C   UNL     1      16.617  10.056  60.977  1.00  0.00     0.047 A 
ATOM     11  C   UNL     1      15.777  10.217  62.082  1.00  0.00     0.020 A 
ENDROOT
BRANCH   1  12
ATOM     12  C   UNL     1      13.795  15.424  63.066  1.00  0.00     0.025 A 
ATOM     13  C   UNL     1      14.683  16.514  63.101  1.00  0.00     0.016 A 
ATOM     14  C   UNL     1      14.204  17.809  63.309  1.00  0.00     0.051 A 
ATOM     15  C   UNL     1      12.837  18.037  63.497  1.00  0.00     0.157 A 
ATOM     16  C   UNL     1      12.426  15.653  63.277  1.00  0.00     0.062 A 
ATOM     17  C   UNL     1      11.942  16.954  63.484  1.00  0.00     0.158 A 
BRANCH  15  18
ATOM     18  O   UNL     1      12.387  19.341  63.700  1.00  0.00    -0.504 OA
ATOM     19  H   UNL     1      11.521  19.542  64.183  1.00  0.00     0.293 HD
ENDBRANCH  15  18
BRANCH  17  20
ATOM     20  O   UNL     1      10.579  17.172  63.678  1.00  0.00    -0.504 OA
ATOM     21  H   UNL     1       9.879  16.661  63.151  1.00  0.00     0.293 HD
ENDBRANCH  17  20
ENDBRANCH   1  12
BRANCH   2  22
ATOM     22  O   UNL     1      13.128  13.247  64.869  1.00  0.00    -0.502 OA
ATOM     23  H   UNL     1      13.418  13.874  65.609  1.00  0.00     0.293 HD
ENDBRANCH   2  22
BRANCH   9  24
ATOM     24  O   UNL     1      17.781  10.971  59.074  1.00  0.00    -0.508 OA
ATOM     25  H   UNL     1      18.528  10.285  59.084  1.00  0.00     0.293 HD
ENDBRANCH   9  24
TORSDOF 5
ENDMDL
MODEL 5
REMARK VINA RESULT:    -6.482      1.237      2.858
REMARK INTER + INTRA:          -7.904
REMARK INTER:                  -7.604
REMARK INTRA:                  -0.300
REMARK UNBOUND:                -0.285
REMARK SMILES O=c1c(O)c(-c2ccc(O)c(O)c2)oc2cc(O)ccc12
REMARK SMILES IDX 5 1 3 2 2 3 1 4 21 5 15 6 14 7 16 8 17 9 19 10 20 11 6 12
REMARK SMILES IDX 7 13 8 14 9 15 13 16 11 17 10 18 12 20 4 22 18 24
REMARK H PARENT 10 19 12 21 4 23 18 25
REMARK Flexibility Score: inf
ROOT
ATOM      1  C   UNL     1      15.138  15.389  62.354  1.00  0.00     0.180 A 
ATOM      2  C   UNL     1      16.053  16.452  62.201  1.00  0.00     0.208 A 
ATOM      3  C   UNL     1      17.043  16.354  61.211  1.00  0.00     0.235 A 
ATOM      4  O   UNL     1      17.880  17.286  61.061  1.00  0.00    -0.285 OA
ATOM      5  C   UNL     1      17.087  15.217  60.388  1.00  0.00     0.069 A 
ATOM      6  C   UNL     1      16.120  14.209  60.589  1.00  0.00     0.142 A 
ATOM      7  O   UNL     1      15.205  14.336  61.543  1.00  0.00    -0.452 OA
ATOM      8  C   UNL     1      16.124  13.065  59.783  1.00  0.00     0.094 A 
ATOM      9  C   UNL     1      17.086  12.915  58.774  1.00  0.00     0.119 A 
ATOM     10  C   UNL     1      18.046  13.913  58.575  1.00  0.00     0.047 A 
ATOM     11  C   UNL     1      18.050  15.060  59.374  1.00  0.00     0.020 A 
ENDROOT
BRANCH   1  12
ATOM     12  C   UNL     1      14.077  15.410  63.386  1.00  0.00     0.025 A 
ATOM     13  C   UNL     1      14.230  14.730  64.608  1.00  0.00     0.016 A 
ATOM     14  C   UNL     1      13.204  14.742  65.556  1.00  0.00     0.051 A 
ATOM     15  C   UNL     1      12.008  15.419  65.297  1.00  0.00     0.157 A 
ATOM     16  C   UNL     1      12.866  16.069  63.120  1.00  0.00     0.062 A 
ATOM     17  C   UNL     1      11.836  16.084  64.071  1.00  0.00     0.158 A 
BRANCH  15  18
ATOM     18  O   UNL     1      11.003  15.415  66.264  1.00  0.00    -0.504 OA
ATOM     19  H   UNL     1      10.886  14.649  66.915  1.00  0.00     0.293 HD
ENDBRANCH  15  18
BRANCH  17  20
ATOM     20  O   UNL     1      10.643  16.755  63.803  1.00  0.00    -0.504 OA
ATOM     21  H   UNL     1      10.622  17.594  63.235  1.00  0.00     0.293 HD
ENDBRANCH  17  20
ENDBRANCH   1  12
BRANCH   2  22
ATOM     22  O   UNL     1      15.955  17.592  63.002  1.00  0.00    -0.502 OA
ATOM     23  H   UNL     1      15.089  17.865  63.451  1.00  0.00     0.293 HD
ENDBRANCH   2  22
BRANCH   9  24
ATOM     24  O   UNL     1      17.098  11.781  57.968  1.00  0.00    -0.508 OA
ATOM     25  H   UNL     1      17.800  11.057  58.082  1.00  0.00     0.293 HD
ENDBRANCH   9  24
TORSDOF 5
ENDMDL
MODEL 6
REMARK VINA RESULT:    -6.449      1.852      7.024
REMARK INTER + INTRA:          -7.865
REMARK INTER:                  -7.568
REMARK INTRA:                  -0.297
REMARK UNBOUND:                -0.285
REMARK SMILES O=c1c(O)c(-c2ccc(O)c(O)c2)oc2cc(O)ccc12
REMARK SMILES IDX 5 1 3 2 2 3 1 4 21 5 15 6 14 7 16 8 17 9 19 10 20 11 6 12
REMARK SMILES IDX 7 13 8 14 9 15 13 16 11 17 10 18 12 20 4 22 18 24
REMARK H PARENT 10 19 12 21 4 23 18 25
REMARK Flexibility Score: inf
ROOT
ATOM      1  C   UNL     1      15.524  15.760  61.536  1.00  0.00     0.180 A 
ATOM      2  C   UNL     1      14.855  16.898  62.034  1.00  0.00     0.208 A 
ATOM      3  C   UNL     1      13.976  16.745  63.117  1.00  0.00     0.235 A 
ATOM      4  O   UNL     1      13.358  17.746  63.574  1.00  0.00    -0.285 OA
ATOM      5  C   UNL     1      13.797  15.475  63.689  1.00  0.00     0.069 A 
ATOM      6  C   UNL     1      14.521  14.391  63.149  1.00  0.00     0.142 A 
ATOM      7  O   UNL     1      15.338  14.576  62.117  1.00  0.00    -0.452 OA
ATOM      8  C   UNL     1      14.379  13.112  63.697  1.00  0.00     0.094 A 
ATOM      9  C   UNL     1      13.518  12.901  64.782  1.00  0.00     0.119 A 
ATOM     10  C   UNL     1      12.798  13.974  65.318  1.00  0.00     0.047 A 
ATOM     11  C   UNL     1      12.934  15.256  64.778  1.00  0.00     0.020 A 
ENDROOT
BRANCH   1  12
ATOM     12  C   UNL     1      16.453  15.835  60.387  1.00  0.00     0.025 A 
ATOM     13  C   UNL     1      16.047  15.471  59.091  1.00  0.00     0.016 A 
ATOM     14  C   UNL     1      16.949  15.526  58.027  1.00  0.00     0.051 A 
ATOM     15  C   UNL     1      18.271  15.931  58.238  1.00  0.00     0.157 A 
ATOM     16  C   UNL     1      17.787  16.219  60.601  1.00  0.00     0.062 A 
ATOM     17  C   UNL     1      18.694  16.277  59.532  1.00  0.00     0.158 A 
BRANCH  15  18
ATOM     18  O   UNL     1      19.148  15.978  57.155  1.00  0.00    -0.504 OA
ATOM     19  H   UNL     1      19.474  15.140  56.690  1.00  0.00     0.293 HD
ENDBRANCH  15  18
BRANCH  17  20
ATOM     20  O   UNL     1      20.012  16.675  59.753  1.00  0.00    -0.504 OA
ATOM     21  H   UNL     1      20.530  17.202  59.060  1.00  0.00     0.293 HD
ENDBRANCH  17  20
ENDBRANCH   1  12
BRANCH   2  22
ATOM     22  O   UNL     1      15.090  18.157  61.477  1.00  0.00    -0.502 OA
ATOM     23  H   UNL     1      15.020  19.010  62.018  1.00  0.00     0.293 HD
ENDBRANCH   2  22
BRANCH   9  24
ATOM     24  O   UNL     1      13.369  11.631  65.334  1.00  0.00    -0.508 OA
ATOM     25  H   UNL     1      12.453  11.246  65.539  1.00  0.00     0.293 HD
ENDBRANCH   9  24
TORSDOF 5
ENDMDL
MODEL 7
REMARK VINA RESULT:    -6.291      3.082      6.769
REMARK INTER + INTRA:          -7.680
REMARK INTER:                  -7.360
REMARK INTRA:                  -0.320
REMARK UNBOUND:                -0.285
REMARK SMILES O=c1c(O)c(-c2ccc(O)c(O)c2)oc2cc(O)ccc12
REMARK SMILES IDX 5 1 3 2 2 3 1 4 21 5 15 6 14 7 16 8 17 9 19 10 20 11 6 12
REMARK SMILES IDX 7 13 8 14 9 15 13 16 11 17 10 18 12 20 4 22 18 24
REMARK H PARENT 10 19 12 21 4 23 18 25
REMARK Flexibility Score: inf
ROOT
ATOM      1  C   UNL     1      15.015  17.159  61.804  1.00  0.00     0.180 A 
ATOM      2  C   UNL     1      14.148  16.324  62.539  1.00  0.00     0.208 A 
ATOM      3  C   UNL     1      13.095  16.909  63.258  1.00  0.00     0.235 A 
ATOM      4  O   UNL     1      12.312  16.184  63.932  1.00  0.00    -0.285 OA
ATOM      5  C   UNL     1      12.917  18.301  63.214  1.00  0.00     0.069 A 
ATOM      6  C   UNL     1      13.813  19.065  62.436  1.00  0.00     0.142 A 
ATOM      7  O   UNL     1      14.803  18.473  61.776  1.00  0.00    -0.452 OA
ATOM      8  C   UNL     1      13.663  20.454  62.358  1.00  0.00     0.094 A 
ATOM      9  C   UNL     1      12.626  21.092  63.052  1.00  0.00     0.119 A 
ATOM     10  C   UNL     1      11.738  20.337  63.825  1.00  0.00     0.047 A 
ATOM     11  C   UNL     1      11.878  18.948  63.909  1.00  0.00     0.020 A 
ENDROOT
BRANCH   1  12
ATOM     12  C   UNL     1      16.159  16.621  61.034  1.00  0.00     0.025 A 
ATOM     13  C   UNL     1      17.397  16.360  61.647  1.00  0.00     0.016 A 
ATOM     14  C   UNL     1      18.469  15.876  60.895  1.00  0.00     0.051 A 
ATOM     15  C   UNL     1      18.330  15.658  59.521  1.00  0.00     0.157 A 
ATOM     16  C   UNL     1      16.028  16.422  59.650  1.00  0.00     0.062 A 
ATOM     17  C   UNL     1      17.104  15.935  58.893  1.00  0.00     0.158 A 
BRANCH  15  18
ATOM     18  O   UNL     1      19.418  15.172  58.796  1.00  0.00    -0.504 OA
ATOM     19  H   UNL     1      20.180  15.771  58.503  1.00  0.00     0.293 HD
ENDBRANCH  15  18
BRANCH  17  20
ATOM     20  O   UNL     1      16.959  15.727  57.522  1.00  0.00    -0.504 OA
ATOM     21  H   UNL     1      16.468  16.389  56.933  1.00  0.00     0.293 HD
ENDBRANCH  17  20
ENDBRANCH   1  12
BRANCH   2  22
ATOM     22  O   UNL     1      14.320  14.937  62.525  1.00  0.00    -0.502 OA
ATOM     23  H   UNL     1      15.209  14.505  62.305  1.00  0.00     0.293 HD
ENDBRANCH   2  22
BRANCH   9  24
ATOM     24  O   UNL     1      12.470  22.473  62.981  1.00  0.00    -0.508 OA
ATOM     25  H   UNL     1      11.555  22.907  63.035  1.00  0.00     0.293 HD
ENDBRANCH   9  24
TORSDOF 5
ENDMDL
MODEL 8
REMARK VINA RESULT:    -6.171      4.955      6.975
REMARK INTER + INTRA:          -7.539
REMARK INTER:                  -7.220
REMARK INTRA:                  -0.318
REMARK UNBOUND:                -0.285
REMARK SMILES O=c1c(O)c(-c2ccc(O)c(O)c2)oc2cc(O)ccc12
REMARK SMILES IDX 5 1 3 2 2 3 1 4 21 5 15 6 14 7 16 8 17 9 19 10 20 11 6 12
REMARK SMILES IDX 7 13 8 14 9 15 13 16 11 17 10 18 12 20 4 22 18 24
REMARK H PARENT 10 19 12 21 4 23 18 25
REMARK Flexibility Score: inf
ROOT
ATOM      1  C   UNL     1      12.264  19.702  63.469  1.00  0.00     0.180 A 
ATOM      2  C   UNL     1      11.198  18.822  63.752  1.00  0.00     0.208 A 
ATOM      3  C   UNL     1      11.426  17.440  63.685  1.00  0.00     0.235 A 
ATOM      4  O   UNL     1      10.485  16.633  63.924  1.00  0.00    -0.285 OA
ATOM      5  C   UNL     1      12.706  16.965  63.359  1.00  0.00     0.069 A 
ATOM      6  C   UNL     1      13.726  17.909  63.113  1.00  0.00     0.142 A 
ATOM      7  O   UNL     1      13.467  19.211  63.178  1.00  0.00    -0.452 OA
ATOM      8  C   UNL     1      15.018  17.477  62.795  1.00  0.00     0.094 A 
ATOM      9  C   UNL     1      15.305  16.107  62.718  1.00  0.00     0.119 A 
ATOM     10  C   UNL     1      14.295  15.170  62.960  1.00  0.00     0.047 A 
ATOM     11  C   UNL     1      13.001  15.592  63.279  1.00  0.00     0.020 A 
ENDROOT
BRANCH   1  12
ATOM     12  C   UNL     1      12.100  21.172  63.502  1.00  0.00     0.025 A 
ATOM     13  C   UNL     1      11.622  21.881  62.385  1.00  0.00     0.016 A 
ATOM     14  C   UNL     1      11.499  23.271  62.431  1.00  0.00     0.051 A 
ATOM     15  C   UNL     1      11.862  23.977  63.582  1.00  0.00     0.157 A 
ATOM     16  C   UNL     1      12.484  21.885  64.649  1.00  0.00     0.062 A 
ATOM     17  C   UNL     1      12.360  23.282  64.697  1.00  0.00     0.158 A 
BRANCH  15  18
ATOM     18  O   UNL     1      11.726  25.365  63.599  1.00  0.00    -0.504 OA
ATOM     19  H   UNL     1      12.247  25.964  62.971  1.00  0.00     0.293 HD
ENDBRANCH  15  18
BRANCH  17  20
ATOM     20  O   UNL     1      12.730  23.979  65.846  1.00  0.00    -0.504 OA
ATOM     21  H   UNL     1      12.118  24.666  66.271  1.00  0.00     0.293 HD
ENDBRANCH  17  20
ENDBRANCH   1  12
BRANCH   2  22
ATOM     22  O   UNL     1       9.947  19.323  64.122  1.00  0.00    -0.502 OA
ATOM     23  H   UNL     1       9.437  19.984  63.549  1.00  0.00     0.293 HD
ENDBRANCH   2  22
BRANCH   9  24
ATOM     24  O   UNL     1      16.587  15.668  62.401  1.00  0.00    -0.508 OA
ATOM     25  H   UNL     1      16.809  14.680  62.338  1.00  0.00     0.293 HD
ENDBRANCH   9  24
TORSDOF 5
ENDMDL
MODEL 9
REMARK VINA RESULT:    -6.110      1.942      3.172
REMARK INTER + INTRA:          -7.467
REMARK INTER:                  -7.909
REMARK INTRA:                   0.442
REMARK UNBOUND:                -0.285
REMARK SMILES O=c1c(O)c(-c2ccc(O)c(O)c2)oc2cc(O)ccc12
REMARK SMILES IDX 5 1 3 2 2 3 1 4 21 5 15 6 14 7 16 8 17 9 19 10 20 11 6 12
REMARK SMILES IDX 7 13 8 14 9 15 13 16 11 17 10 18 12 20 4 22 18 24
REMARK H PARENT 10 19 12 21 4 23 18 25
REMARK Flexibility Score: inf
ROOT
ATOM      1  C   UNL     1      15.629  15.329  61.136  1.00  0.00     0.180 A 
ATOM      2  C   UNL     1      15.949  16.591  60.593  1.00  0.00     0.208 A 
ATOM      3  C   UNL     1      16.816  16.654  59.492  1.00  0.00     0.235 A 
ATOM      4  O   UNL     1      17.125  17.772  58.996  1.00  0.00    -0.285 OA
ATOM      5  C   UNL     1      17.328  15.465  58.948  1.00  0.00     0.069 A 
ATOM      6  C   UNL     1      16.941  14.241  59.533  1.00  0.00     0.142 A 
ATOM      7  O   UNL     1      16.124  14.225  60.580  1.00  0.00    -0.452 OA
ATOM      8  C   UNL     1      17.421  13.034  59.012  1.00  0.00     0.094 A 
ATOM      9  C   UNL     1      18.287  13.035  57.910  1.00  0.00     0.119 A 
ATOM     10  C   UNL     1      18.673  14.248  57.330  1.00  0.00     0.047 A 
ATOM     11  C   UNL     1      18.198  15.459  57.842  1.00  0.00     0.020 A 
ENDROOT
BRANCH   1  12
ATOM     12  C   UNL     1      14.735  15.181  62.307  1.00  0.00     0.025 A 
ATOM     13  C   UNL     1      14.309  16.296  63.049  1.00  0.00     0.016 A 
ATOM     14  C   UNL     1      13.487  16.129  64.165  1.00  0.00     0.051 A 
ATOM     15  C   UNL     1      13.088  14.851  64.567  1.00  0.00     0.157 A 
ATOM     16  C   UNL     1      14.352  13.896  62.725  1.00  0.00     0.062 A 
ATOM     17  C   UNL     1      13.525  13.727  63.846  1.00  0.00     0.158 A 
BRANCH  15  18
ATOM     18  O   UNL     1      12.264  14.716  65.684  1.00  0.00    -0.504 OA
ATOM     19  H   UNL     1      12.639  14.595  66.617  1.00  0.00     0.293 HD
ENDBRANCH  15  18
BRANCH  17  20
ATOM     20  O   UNL     1      13.137  12.448  64.244  1.00  0.00    -0.504 OA
ATOM     21  H   UNL     1      12.162  12.207  64.380  1.00  0.00     0.293 HD
ENDBRANCH  17  20
ENDBRANCH   1  12
BRANCH   2  22
ATOM     22  O   UNL     1      15.385  17.754  61.126  1.00  0.00    -0.502 OA
ATOM     23  H   UNL     1      15.498  18.013  62.098  1.00  0.00     0.293 HD
ENDBRANCH   2  22
BRANCH   9  24
ATOM     24  O   UNL     1      18.770  11.839  57.387  1.00  0.00    -0.508 OA
ATOM     25  H   UNL     1      18.344  11.405  56.576  1.00  0.00     0.293 HD
ENDBRANCH   9  24
TORSDOF 5
ENDMDL
