MODEL 1
REMARK VINA RESULT:    -4.167      0.000      0.000
REMARK INTER + INTRA:          -4.865
REMARK INTER:                  -4.655
REMARK INTRA:                  -0.210
REMARK UNBOUND:                -0.210
REMARK SMILES CC(C)c1ccc(C(=O)[O-])cc1
REMARK SMILES IDX 7 1 6 2 11 3 5 4 12 5 4 6 8 7 9 8 10 9 2 10 1 11 3 12
REMARK H PARENT
REMARK Flexibility Score: inf
ROOT
ATOM      1  C   UNL     1      42.672 184.856  33.175  1.00  0.00    -0.003 A 
ATOM      2  C   UNL     1      41.880 184.332  32.140  1.00  0.00     0.010 A 
ATOM      3  C   UNL     1      42.383 186.140  33.669  1.00  0.00     0.010 A 
ATOM      4  C   UNL     1      40.823 185.075  31.608  1.00  0.00     0.004 A 
ATOM      5  C   UNL     1      41.325 186.884  33.138  1.00  0.00     0.004 A 
ATOM      6  C   UNL     1      40.533 186.359  32.101  1.00  0.00    -0.045 A 
ENDROOT
BRANCH   1   7
ATOM      7  C   UNL     1      43.790 184.067  33.735  1.00  0.00     0.071 C 
ATOM      8  O   UNL     1      44.661 183.562  32.976  1.00  0.00    -0.545 OA
ATOM      9  O   UNL     1      43.896 183.869  35.107  1.00  0.00    -0.545 OA
ENDBRANCH   1   7
BRANCH   6  10
ATOM     10  C   UNL     1      39.381 187.154  31.514  1.00  0.00     0.013 C 
ATOM     11  C   UNL     1      38.847 186.494  30.238  1.00  0.00     0.012 C 
ATOM     12  C   UNL     1      38.262 187.345  32.545  1.00  0.00     0.012 C 
ENDBRANCH   6  10
TORSDOF 2
ENDMDL
MODEL 2
REMARK VINA RESULT:    -4.158      0.022      1.398
REMARK INTER + INTRA:          -4.854
REMARK INTER:                  -4.645
REMARK INTRA:                  -0.209
REMARK UNBOUND:                -0.210
REMARK SMILES CC(C)c1ccc(C(=O)[O-])cc1
REMARK SMILES IDX 7 1 6 2 11 3 5 4 12 5 4 6 8 7 9 8 10 9 2 10 1 11 3 12
REMARK H PARENT
REMARK Flexibility Score: inf
ROOT
ATOM      1  C   UNL     1      42.679 184.858  33.166  1.00  0.00    -0.003 A 
ATOM      2  C   UNL     1      42.381 186.138  33.662  1.00  0.00     0.010 A 
ATOM      3  C   UNL     1      41.897 184.332  32.124  1.00  0.00     0.010 A 
ATOM      4  C   UNL     1      41.323 186.878  33.127  1.00  0.00     0.004 A 
ATOM      5  C   UNL     1      40.838 185.072  31.588  1.00  0.00     0.004 A 
ATOM      6  C   UNL     1      40.539 186.354  32.085  1.00  0.00    -0.045 A 
ENDROOT
BRANCH   1   7
ATOM      7  C   UNL     1      43.801 184.079  33.734  1.00  0.00     0.071 C 
ATOM      8  O   UNL     1      44.676 183.574  32.982  1.00  0.00    -0.545 OA
ATOM      9  O   UNL     1      43.904 183.892  35.108  1.00  0.00    -0.545 OA
ENDBRANCH   1   7
BRANCH   6  10
ATOM     10  C   UNL     1      39.393 187.169  31.514  1.00  0.00     0.013 C 
ATOM     11  C   UNL     1      38.840 186.526  30.237  1.00  0.00     0.012 C 
ATOM     12  C   UNL     1      38.285 187.367  32.556  1.00  0.00     0.012 C 
ENDBRANCH   6  10
TORSDOF 2
ENDMDL
MODEL 3
REMARK VINA RESULT:    -4.144      3.146      5.121
REMARK INTER + INTRA:          -4.838
REMARK INTER:                  -4.628
REMARK INTRA:                  -0.210
REMARK UNBOUND:                -0.210
REMARK SMILES CC(C)c1ccc(C(=O)[O-])cc1
REMARK SMILES IDX 7 1 6 2 11 3 5 4 12 5 4 6 8 7 9 8 10 9 2 10 1 11 3 12
REMARK H PARENT
REMARK Flexibility Score: inf
ROOT
ATOM      1  C   UNL     1      40.247 186.515  31.887  1.00  0.00    -0.003 A 
ATOM      2  C   UNL     1      40.577 185.197  31.533  1.00  0.00     0.010 A 
ATOM      3  C   UNL     1      40.997 187.161  32.885  1.00  0.00     0.010 A 
ATOM      4  C   UNL     1      41.635 184.536  32.163  1.00  0.00     0.004 A 
ATOM      5  C   UNL     1      42.056 186.501  33.515  1.00  0.00     0.004 A 
ATOM      6  C   UNL     1      42.386 185.180  33.161  1.00  0.00    -0.045 A 
ENDROOT
BRANCH   1   7
ATOM      7  C   UNL     1      39.126 187.211  31.217  1.00  0.00     0.071 C 
ATOM      8  O   UNL     1      38.480 188.111  31.817  1.00  0.00    -0.545 OA
ATOM      9  O   UNL     1      38.770 186.881  29.914  1.00  0.00    -0.545 OA
ENDBRANCH   1   7
BRANCH   6  10
ATOM     10  C   UNL     1      43.533 184.450  33.837  1.00  0.00     0.013 C 
ATOM     11  C   UNL     1      43.044 183.666  35.060  1.00  0.00     0.012 C 
ATOM     12  C   UNL     1      44.260 183.531  32.848  1.00  0.00     0.012 C 
ENDBRANCH   6  10
TORSDOF 2
ENDMDL
MODEL 4
REMARK VINA RESULT:    -4.122      3.052      5.295
REMARK INTER + INTRA:          -4.815
REMARK INTER:                  -4.605
REMARK INTRA:                  -0.210
REMARK UNBOUND:                -0.210
REMARK SMILES CC(C)c1ccc(C(=O)[O-])cc1
REMARK SMILES IDX 7 1 6 2 11 3 5 4 12 5 4 6 8 7 9 8 10 9 2 10 1 11 3 12
REMARK H PARENT
REMARK Flexibility Score: inf
ROOT
ATOM      1  C   UNL     1      40.392 186.389  32.005  1.00  0.00    -0.003 A 
ATOM      2  C   UNL     1      41.107 186.990  33.055  1.00  0.00     0.010 A 
ATOM      3  C   UNL     1      40.767 185.105  31.574  1.00  0.00     0.010 A 
ATOM      4  C   UNL     1      42.174 186.322  33.661  1.00  0.00     0.004 A 
ATOM      5  C   UNL     1      41.835 184.436  32.180  1.00  0.00     0.004 A 
ATOM      6  C   UNL     1      42.551 185.038  33.231  1.00  0.00    -0.045 A 
ENDROOT
BRANCH   1   7
ATOM      7  C   UNL     1      39.262 187.099  31.367  1.00  0.00     0.071 C 
ATOM      8  O   UNL     1      38.735 188.098  31.926  1.00  0.00    -0.545 OA
ATOM      9  O   UNL     1      38.766 186.673  30.140  1.00  0.00    -0.545 OA
ENDBRANCH   1   7
BRANCH   6  10
ATOM     10  C   UNL     1      43.713 184.325  33.898  1.00  0.00     0.013 C 
ATOM     11  C   UNL     1      43.237 183.496  35.097  1.00  0.00     0.012 C 
ATOM     12  C   UNL     1      44.476 183.453  32.894  1.00  0.00     0.012 C 
ENDBRANCH   6  10
TORSDOF 2
ENDMDL
MODEL 5
REMARK VINA RESULT:    -3.963      3.462      5.212
REMARK INTER + INTRA:          -4.636
REMARK INTER:                  -4.421
REMARK INTRA:                  -0.215
REMARK UNBOUND:                -0.210
REMARK SMILES CC(C)c1ccc(C(=O)[O-])cc1
REMARK SMILES IDX 7 1 6 2 11 3 5 4 12 5 4 6 8 7 9 8 10 9 2 10 1 11 3 12
REMARK H PARENT
REMARK Flexibility Score: inf
ROOT
ATOM      1  C   UNL     1      39.489 185.688  31.622  1.00  0.00    -0.003 A 
ATOM      2  C   UNL     1      40.742 185.998  31.069  1.00  0.00     0.010 A 
ATOM      3  C   UNL     1      39.436 185.041  32.869  1.00  0.00     0.010 A 
ATOM      4  C   UNL     1      41.919 185.668  31.747  1.00  0.00     0.004 A 
ATOM      5  C   UNL     1      40.613 184.711  33.548  1.00  0.00     0.004 A 
ATOM      6  C   UNL     1      41.868 185.021  32.993  1.00  0.00    -0.045 A 
ENDROOT
BRANCH   1   7
ATOM      7  C   UNL     1      38.246 186.040  30.901  1.00  0.00     0.071 C 
ATOM      8  O   UNL     1      38.255 186.918  29.998  1.00  0.00    -0.545 OA
ATOM      9  O   UNL     1      37.048 185.405  31.212  1.00  0.00    -0.545 OA
ENDBRANCH   1   7
BRANCH   6  10
ATOM     10  C   UNL     1      43.155 184.669  33.718  1.00  0.00     0.013 C 
ATOM     11  C   UNL     1      42.866 184.123  35.121  1.00  0.00     0.012 C 
ATOM     12  C   UNL     1      43.993 183.677  32.903  1.00  0.00     0.012 C 
ENDBRANCH   6  10
TORSDOF 2
ENDMDL
MODEL 6
REMARK VINA RESULT:    -3.906     21.385     22.524
REMARK INTER + INTRA:          -4.573
REMARK INTER:                  -4.351
REMARK INTRA:                  -0.222
REMARK UNBOUND:                -0.210
REMARK SMILES CC(C)c1ccc(C(=O)[O-])cc1
REMARK SMILES IDX 7 1 6 2 11 3 5 4 12 5 4 6 8 7 9 8 10 9 2 10 1 11 3 12
REMARK H PARENT
REMARK Flexibility Score: inf
ROOT
ATOM      1  C   UNL     1      31.888 170.546  20.228  1.00  0.00    -0.003 A 
ATOM      2  C   UNL     1      32.770 169.453  20.176  1.00  0.00     0.010 A 
ATOM      3  C   UNL     1      31.785 171.391  19.110  1.00  0.00     0.010 A 
ATOM      4  C   UNL     1      33.533 169.210  19.032  1.00  0.00     0.004 A 
ATOM      5  C   UNL     1      32.549 171.149  17.964  1.00  0.00     0.004 A 
ATOM      6  C   UNL     1      33.432 170.055  17.912  1.00  0.00    -0.045 A 
ENDROOT
BRANCH   1   7
ATOM      7  C   UNL     1      31.082 170.799  21.442  1.00  0.00     0.071 C 
ATOM      8  O   UNL     1      30.369 171.835  21.534  1.00  0.00    -0.545 OA
ATOM      9  O   UNL     1      31.099 169.897  22.500  1.00  0.00    -0.545 OA
ENDBRANCH   1   7
BRANCH   6  10
ATOM     10  C   UNL     1      34.267 169.778  16.675  1.00  0.00     0.013 C 
ATOM     11  C   UNL     1      34.715 171.083  16.009  1.00  0.00     0.012 C 
ATOM     12  C   UNL     1      35.470 168.888  17.010  1.00  0.00     0.012 C 
ENDBRANCH   6  10
TORSDOF 2
ENDMDL
MODEL 7
REMARK VINA RESULT:    -3.896      2.883      5.011
REMARK INTER + INTRA:          -4.562
REMARK INTER:                  -4.352
REMARK INTRA:                  -0.210
REMARK UNBOUND:                -0.210
REMARK SMILES CC(C)c1ccc(C(=O)[O-])cc1
REMARK SMILES IDX 7 1 6 2 11 3 5 4 12 5 4 6 8 7 9 8 10 9 2 10 1 11 3 12
REMARK H PARENT
REMARK Flexibility Score: inf
ROOT
ATOM      1  C   UNL     1      41.112 186.382  32.677  1.00  0.00    -0.003 A 
ATOM      2  C   UNL     1      41.093 185.256  31.838  1.00  0.00     0.010 A 
ATOM      3  C   UNL     1      42.004 186.406  33.763  1.00  0.00     0.010 A 
ATOM      4  C   UNL     1      41.948 184.177  32.077  1.00  0.00     0.004 A 
ATOM      5  C   UNL     1      42.860 185.327  34.003  1.00  0.00     0.004 A 
ATOM      6  C   UNL     1      42.841 184.199  33.162  1.00  0.00    -0.045 A 
ENDROOT
BRANCH   1   7
ATOM      7  C   UNL     1      40.206 187.522  32.420  1.00  0.00     0.071 C 
ATOM      8  O   UNL     1      40.421 188.644  32.951  1.00  0.00    -0.545 OA
ATOM      9  O   UNL     1      39.102 187.371  31.587  1.00  0.00    -0.545 OA
ENDBRANCH   1   7
BRANCH   6  10
ATOM     10  C   UNL     1      43.764 183.020  33.410  1.00  0.00     0.013 C 
ATOM     11  C   UNL     1      45.071 183.471  34.071  1.00  0.00     0.012 C 
ATOM     12  C   UNL     1      43.066 181.941  34.247  1.00  0.00     0.012 C 
ENDBRANCH   6  10
TORSDOF 2
ENDMDL
MODEL 8
REMARK VINA RESULT:    -3.783      1.698      2.244
REMARK INTER + INTRA:          -4.436
REMARK INTER:                  -4.221
REMARK INTRA:                  -0.215
REMARK UNBOUND:                -0.210
REMARK SMILES CC(C)c1ccc(C(=O)[O-])cc1
REMARK SMILES IDX 7 1 6 2 11 3 5 4 12 5 4 6 8 7 9 8 10 9 2 10 1 11 3 12
REMARK H PARENT
REMARK Flexibility Score: inf
ROOT
ATOM      1  C   UNL     1      42.773 183.000  33.947  1.00  0.00    -0.003 A 
ATOM      2  C   UNL     1      41.888 182.862  32.864  1.00  0.00     0.010 A 
ATOM      3  C   UNL     1      43.200 184.287  34.317  1.00  0.00     0.010 A 
ATOM      4  C   UNL     1      41.439 183.986  32.167  1.00  0.00     0.004 A 
ATOM      5  C   UNL     1      42.750 185.412  33.619  1.00  0.00     0.004 A 
ATOM      6  C   UNL     1      41.864 185.274  32.535  1.00  0.00    -0.045 A 
ENDROOT
BRANCH   1   7
ATOM      7  C   UNL     1      43.246 181.807  34.683  1.00  0.00     0.071 C 
ATOM      8  O   UNL     1      44.425 181.753  35.124  1.00  0.00    -0.545 OA
ATOM      9  O   UNL     1      42.395 180.729  34.898  1.00  0.00    -0.545 OA
ENDBRANCH   1   7
BRANCH   6  10
ATOM     10  C   UNL     1      41.368 186.486  31.768  1.00  0.00     0.013 C 
ATOM     11  C   UNL     1      40.404 186.074  30.650  1.00  0.00     0.012 C 
ATOM     12  C   UNL     1      40.716 187.505  32.710  1.00  0.00     0.012 C 
ENDBRANCH   6  10
TORSDOF 2
ENDMDL
MODEL 9
REMARK VINA RESULT:    -3.775     21.376     22.603
REMARK INTER + INTRA:          -4.426
REMARK INTER:                  -4.216
REMARK INTRA:                  -0.211
REMARK UNBOUND:                -0.210
REMARK SMILES CC(C)c1ccc(C(=O)[O-])cc1
REMARK SMILES IDX 7 1 6 2 11 3 5 4 12 5 4 6 8 7 9 8 10 9 2 10 1 11 3 12
REMARK H PARENT
REMARK Flexibility Score: inf
ROOT
ATOM      1  C   UNL     1      32.543 170.092  20.024  1.00  0.00    -0.003 A 
ATOM      2  C   UNL     1      31.992 171.129  19.253  1.00  0.00     0.010 A 
ATOM      3  C   UNL     1      33.462 169.214  19.426  1.00  0.00     0.010 A 
ATOM      4  C   UNL     1      32.351 171.284  17.912  1.00  0.00     0.004 A 
ATOM      5  C   UNL     1      33.823 169.369  18.084  1.00  0.00     0.004 A 
ATOM      6  C   UNL     1      33.270 170.407  17.312  1.00  0.00    -0.045 A 
ENDROOT
BRANCH   1   7
ATOM      7  C   UNL     1      32.160 169.931  21.444  1.00  0.00     0.071 C 
ATOM      8  O   UNL     1      33.042 169.845  22.340  1.00  0.00    -0.545 OA
ATOM      9  O   UNL     1      30.820 169.873  21.810  1.00  0.00    -0.545 OA
ENDBRANCH   1   7
BRANCH   6  10
ATOM     10  C   UNL     1      33.652 170.588  15.854  1.00  0.00     0.013 C 
ATOM     11  C   UNL     1      32.809 171.686  15.195  1.00  0.00     0.012 C 
ATOM     12  C   UNL     1      35.150 170.881  15.708  1.00  0.00     0.012 C 
ENDBRANCH   6  10
TORSDOF 2
ENDMDL
