MODEL 1
REMARK VINA RESULT:    -2.680      0.000      0.000
REMARK INTER + INTRA:          -3.174
REMARK INTER:                  -3.149
REMARK INTRA:                  -0.024
REMARK UNBOUND:                -0.024
REMARK SMILES CCCCC(=O)[O-]
REMARK SMILES IDX 4 1 5 2 6 3 7 4 3 5 2 6 1 7
REMARK H PARENT
REMARK Flexibility Score: inf
ROOT
ATOM      1  C   UNL     1       7.289 -19.118  11.088  1.00  0.00     0.053 C 
ENDROOT
BRANCH   1   2
ATOM      2  C   UNL     1       6.902 -19.544   9.708  1.00  0.00     0.041 C 
ATOM      3  O   UNL     1       7.209 -20.691   9.288  1.00  0.00    -0.550 OA
ATOM      4  O   UNL     1       6.158 -18.692   8.900  1.00  0.00    -0.550 OA
ENDBRANCH   1   2
BRANCH   1   5
ATOM      5  C   UNL     1       8.192 -20.169  11.740  1.00  0.00     0.006 C 
BRANCH   5   6
ATOM      6  C   UNL     1       9.057 -19.544  12.841  1.00  0.00    -0.003 C 
ATOM      7  C   UNL     1       8.959 -20.341  14.139  1.00  0.00     0.004 C 
ENDBRANCH   5   6
ENDBRANCH   1   5
TORSDOF 3
ENDMDL
MODEL 2
REMARK VINA RESULT:    -2.462      2.606      3.963
REMARK INTER + INTRA:          -2.918
REMARK INTER:                  -2.826
REMARK INTRA:                  -0.092
REMARK UNBOUND:                -0.024
REMARK SMILES CCCCC(=O)[O-]
REMARK SMILES IDX 4 1 5 2 6 3 7 4 3 5 2 6 1 7
REMARK H PARENT
REMARK Flexibility Score: inf
ROOT
ATOM      1  C   UNL     1       8.626 -19.812  11.514  1.00  0.00     0.053 C 
ENDROOT
BRANCH   1   2
ATOM      2  C   UNL     1       8.517 -20.378  12.894  1.00  0.00     0.041 C 
ATOM      3  O   UNL     1       7.982 -21.502  13.078  1.00  0.00    -0.550 OA
ATOM      4  O   UNL     1       9.052 -19.685  13.974  1.00  0.00    -0.550 OA
ENDBRANCH   1   2
BRANCH   1   5
ATOM      5  C   UNL     1       7.257 -19.337  11.020  1.00  0.00     0.006 C 
BRANCH   5   6
ATOM      6  C   UNL     1       7.016 -19.769   9.568  1.00  0.00    -0.003 C 
ATOM      7  C   UNL     1       7.243 -21.269   9.395  1.00  0.00     0.004 C 
ENDBRANCH   5   6
ENDBRANCH   1   5
TORSDOF 3
ENDMDL
MODEL 3
REMARK VINA RESULT:    -2.448     18.241     18.831
REMARK INTER + INTRA:          -2.902
REMARK INTER:                  -2.822
REMARK INTRA:                  -0.080
REMARK UNBOUND:                -0.024
REMARK SMILES CCCCC(=O)[O-]
REMARK SMILES IDX 4 1 5 2 6 3 7 4 3 5 2 6 1 7
REMARK H PARENT
REMARK Flexibility Score: inf
ROOT
ATOM      1  C   UNL     1     -10.501 -21.353  17.342  1.00  0.00     0.053 C 
ENDROOT
BRANCH   1   2
ATOM      2  C   UNL     1      -9.376 -21.171  18.310  1.00  0.00     0.041 C 
ATOM      3  O   UNL     1      -8.262 -21.719  18.098  1.00  0.00    -0.550 OA
ATOM      4  O   UNL     1      -9.541 -20.356  19.424  1.00  0.00    -0.550 OA
ENDBRANCH   1   2
BRANCH   1   5
ATOM      5  C   UNL     1     -10.682 -20.095  16.488  1.00  0.00     0.006 C 
BRANCH   5   6
ATOM      6  C   UNL     1     -10.638 -20.435  14.994  1.00  0.00    -0.003 C 
ATOM      7  C   UNL     1      -9.199 -20.556  14.498  1.00  0.00     0.004 C 
ENDBRANCH   5   6
ENDBRANCH   1   5
TORSDOF 3
ENDMDL
MODEL 4
REMARK VINA RESULT:    -2.444      2.366      3.740
REMARK INTER + INTRA:          -2.897
REMARK INTER:                  -2.767
REMARK INTRA:                  -0.131
REMARK UNBOUND:                -0.024
REMARK SMILES CCCCC(=O)[O-]
REMARK SMILES IDX 4 1 5 2 6 3 7 4 3 5 2 6 1 7
REMARK H PARENT
REMARK Flexibility Score: inf
ROOT
ATOM      1  C   UNL     1       7.248 -19.337  10.880  1.00  0.00     0.053 C 
ENDROOT
BRANCH   1   2
ATOM      2  C   UNL     1       8.113 -19.992  11.909  1.00  0.00     0.041 C 
ATOM      3  O   UNL     1       8.916 -19.304  12.593  1.00  0.00    -0.550 OA
ATOM      4  O   UNL     1       7.998 -21.355  12.149  1.00  0.00    -0.550 OA
ENDBRANCH   1   2
BRANCH   1   5
ATOM      5  C   UNL     1       7.148 -20.213   9.628  1.00  0.00     0.006 C 
BRANCH   5   6
ATOM      6  C   UNL     1       8.471 -20.218   8.852  1.00  0.00    -0.003 C 
ATOM      7  C   UNL     1       8.963 -21.642   8.610  1.00  0.00     0.004 C 
ENDBRANCH   5   6
ENDBRANCH   1   5
TORSDOF 3
ENDMDL
MODEL 5
REMARK VINA RESULT:    -2.440     18.347     18.966
REMARK INTER + INTRA:          -2.892
REMARK INTER:                  -2.785
REMARK INTRA:                  -0.106
REMARK UNBOUND:                -0.024
REMARK SMILES CCCCC(=O)[O-]
REMARK SMILES IDX 4 1 5 2 6 3 7 4 3 5 2 6 1 7
REMARK H PARENT
REMARK Flexibility Score: inf
ROOT
ATOM      1  C   UNL     1     -10.865 -21.160  17.359  1.00  0.00     0.053 C 
ENDROOT
BRANCH   1   2
ATOM      2  C   UNL     1      -9.599 -21.146  18.155  1.00  0.00     0.041 C 
ATOM      3  O   UNL     1      -9.551 -20.546  19.260  1.00  0.00    -0.550 OA
ATOM      4  O   UNL     1      -8.483 -21.837  17.698  1.00  0.00    -0.550 OA
ENDBRANCH   1   2
BRANCH   1   5
ATOM      5  C   UNL     1     -10.879 -20.008  16.351  1.00  0.00     0.006 C 
BRANCH   5   6
ATOM      6  C   UNL     1     -10.760 -20.532  14.915  1.00  0.00    -0.003 C 
ATOM      7  C   UNL     1      -9.305 -20.544  14.451  1.00  0.00     0.004 C 
ENDBRANCH   5   6
ENDBRANCH   1   5
TORSDOF 3
ENDMDL
MODEL 6
REMARK VINA RESULT:    -2.397      1.625      2.481
REMARK INTER + INTRA:          -2.841
REMARK INTER:                  -2.762
REMARK INTRA:                  -0.079
REMARK UNBOUND:                -0.024
REMARK SMILES CCCCC(=O)[O-]
REMARK SMILES IDX 4 1 5 2 6 3 7 4 3 5 2 6 1 7
REMARK H PARENT
REMARK Flexibility Score: inf
ROOT
ATOM      1  C   UNL     1       9.039 -19.958  12.195  1.00  0.00     0.053 C 
ENDROOT
BRANCH   1   2
ATOM      2  C   UNL     1       7.661 -20.011  11.617  1.00  0.00     0.041 C 
ATOM      3  O   UNL     1       7.188 -19.015  11.010  1.00  0.00    -0.550 OA
ATOM      4  O   UNL     1       6.915 -21.180  11.706  1.00  0.00    -0.550 OA
ENDBRANCH   1   2
BRANCH   1   5
ATOM      5  C   UNL     1       8.978 -19.760  13.712  1.00  0.00     0.006 C 
BRANCH   5   6
ATOM      6  C   UNL     1       9.125 -21.098  14.447  1.00  0.00    -0.003 C 
ATOM      7  C   UNL     1       8.072 -21.244  15.542  1.00  0.00     0.004 C 
ENDBRANCH   5   6
ENDBRANCH   1   5
TORSDOF 3
ENDMDL
MODEL 7
REMARK VINA RESULT:    -2.375      2.586      3.937
REMARK INTER + INTRA:          -2.815
REMARK INTER:                  -2.778
REMARK INTRA:                  -0.038
REMARK UNBOUND:                -0.024
REMARK SMILES CCCCC(=O)[O-]
REMARK SMILES IDX 4 1 5 2 6 3 7 4 3 5 2 6 1 7
REMARK H PARENT
REMARK Flexibility Score: inf
ROOT
ATOM      1  C   UNL     1       8.615 -20.409  10.139  1.00  0.00     0.053 C 
ENDROOT
BRANCH   1   2
ATOM      2  C   UNL     1       7.967 -19.593  11.212  1.00  0.00     0.041 C 
ATOM      3  O   UNL     1       6.841 -19.065  11.015  1.00  0.00    -0.550 OA
ATOM      4  O   UNL     1       8.583 -19.457  12.450  1.00  0.00    -0.550 OA
ENDBRANCH   1   2
BRANCH   1   5
ATOM      5  C   UNL     1       7.570 -20.904   9.136  1.00  0.00     0.006 C 
BRANCH   5   6
ATOM      6  C   UNL     1       7.544 -22.436   9.080  1.00  0.00    -0.003 C 
ATOM      7  C   UNL     1       6.139 -22.954   8.782  1.00  0.00     0.004 C 
ENDBRANCH   5   6
ENDBRANCH   1   5
TORSDOF 3
ENDMDL
MODEL 8
REMARK VINA RESULT:    -2.274      2.897      4.285
REMARK INTER + INTRA:          -2.696
REMARK INTER:                  -2.675
REMARK INTRA:                  -0.022
REMARK UNBOUND:                -0.024
REMARK SMILES CCCCC(=O)[O-]
REMARK SMILES IDX 4 1 5 2 6 3 7 4 3 5 2 6 1 7
REMARK H PARENT
REMARK Flexibility Score: inf
ROOT
ATOM      1  C   UNL     1       8.517 -19.797  11.915  1.00  0.00     0.053 C 
ENDROOT
BRANCH   1   2
ATOM      2  C   UNL     1       8.671 -20.438  13.257  1.00  0.00     0.041 C 
ATOM      3  O   UNL     1       9.125 -19.777  14.227  1.00  0.00    -0.550 OA
ATOM      4  O   UNL     1       8.267 -21.753  13.450  1.00  0.00    -0.550 OA
ENDBRANCH   1   2
BRANCH   1   5
ATOM      5  C   UNL     1       7.357 -20.433  11.146  1.00  0.00     0.006 C 
BRANCH   5   6
ATOM      6  C   UNL     1       7.455 -20.124   9.647  1.00  0.00    -0.003 C 
ATOM      7  C   UNL     1       6.501 -19.000   9.252  1.00  0.00     0.004 C 
ENDBRANCH   5   6
ENDBRANCH   1   5
TORSDOF 3
ENDMDL
