MODEL 1
REMARK VINA RESULT:    -6.178      0.000      0.000
REMARK INTER + INTRA:         -16.562
REMARK INTER:                 -13.040
REMARK INTRA:                  -3.523
REMARK UNBOUND:                -3.523
REMARK SMILES CCC(=O)CCCCC[C@H]1NC(=O)[C@@H]2CCCCN2C(=O)[C@H]([C@H](C)CC)NC(=O)[C@@H](Cc2cn(OC)c3ccccc23)NC1=O
REMARK SMILES IDX 9 1 10 2 44 3 43 4 45 6 30 7 28 8 27 9 29 11 22 12 23 14
REMARK SMILES IDX 24 15 25 16 26 17 31 18 32 19 33 20 42 21 34 22 37 23 41 24
REMARK SMILES IDX 38 25 40 26 39 27 35 28 36 29 11 30 12 31 13 33 14 34 19 35
REMARK SMILES IDX 15 36 18 37 16 38 17 39 20 40 21 41 8 43 7 44 6 45 5 46 3 47
REMARK SMILES IDX 4 48 2 49 1 50
REMARK H PARENT 43 5 27 10 11 32
REMARK Flexibility Score: 80.00
ROOT
ATOM      1  C   UNL     1      20.526 -34.840  23.554  1.00  0.00     0.035 C 
ENDROOT
BRANCH   1   2
ATOM      2  C   UNL     1      20.614 -33.630  24.517  1.00  0.00     0.171 C 
BRANCH   2   3
ATOM      3  C   UNL     1      19.807 -32.439  24.037  1.00  0.00     0.243 C 
ATOM      4  N   UNL     1      19.417 -32.286  22.667  1.00  0.00    -0.342 N 
ATOM      5  H   UNL     1      19.605 -33.058  21.975  1.00  0.00     0.164 HD
ATOM      6  O   UNL     1      19.507 -31.541  24.876  1.00  0.00    -0.273 OA
BRANCH   4   7
ATOM      7  C   UNL     1      18.931 -31.000  22.163  1.00  0.00     0.175 C 
BRANCH   7   8
ATOM      8  C   UNL     1      20.094 -30.268  21.524  1.00  0.00     0.243 C 
ATOM      9  N   UNL     1      20.639 -29.087  22.151  1.00  0.00    -0.342 N 
ATOM     10  H   UNL     1      19.988 -28.542  22.766  1.00  0.00     0.164 HD
ATOM     11  O   UNL     1      20.688 -30.782  20.536  1.00  0.00    -0.273 OA
BRANCH   9  12
ATOM     12  C   UNL     1      22.094 -28.873  22.272  1.00  0.00     0.174 CG0
ATOM     13  G   UNL     1      22.543 -29.328  23.647  1.00  0.00     0.000 G0
BRANCH  12  14
ATOM     14  C   UNL     1      22.430 -27.359  22.072  1.00  0.00     0.018 C 
ATOM     15  C   UNL     1      21.219 -26.565  21.556  1.00  0.00     0.010 C 
BRANCH  14  16
ATOM     16  C   UNL     1      23.670 -27.077  21.154  1.00  0.00     0.002 C 
ATOM     17  C   UNL     1      23.274 -26.681  19.724  1.00  0.00     0.004 C 
ENDBRANCH  14  16
ENDBRANCH  12  14
ENDBRANCH   9  12
ENDBRANCH   7   8
BRANCH   7  18
ATOM     18  C   UNL     1      17.773 -31.204  21.163  1.00  0.00     0.073 C 
BRANCH  18  19
ATOM     19  C   UNL     1      16.431 -30.959  21.800  1.00  0.00    -0.016 A 
ATOM     20  C   UNL     1      15.663 -29.815  21.615  1.00  0.00     0.134 A 
ATOM     21  C   UNL     1      15.689 -31.787  22.635  1.00  0.00     0.006 A 
ATOM     22  N   UNL     1      14.503 -29.924  22.308  1.00  0.00    -0.191 N 
ATOM     23  C   UNL     1      14.524 -31.117  22.921  1.00  0.00     0.087 A 
ATOM     24  C   UNL     1      15.951 -33.039  23.194  1.00  0.00     0.011 A 
ATOM     25  C   UNL     1      13.545 -31.648  23.760  1.00  0.00     0.030 A 
ATOM     26  C   UNL     1      14.981 -33.602  24.046  1.00  0.00     0.001 A 
ATOM     27  C   UNL     1      13.780 -32.913  24.320  1.00  0.00     0.002 A 
BRANCH  22  28
ATOM     28  O   UNL     1      13.514 -28.973  22.443  1.00  0.00    -0.417 OA
ATOM     29  C   UNL     1      13.441 -28.100  23.559  1.00  0.00     0.313 C 
ENDBRANCH  22  28
ENDBRANCH  18  19
ENDBRANCH   7  18
ENDBRANCH   4   7
ENDBRANCH   2   3
BRANCH   2  30
ATOM     30  N   UNL     1      22.000 -33.254  24.824  1.00  0.00    -0.343 N 
ATOM     31  C   UNL     1      22.783 -32.363  24.010  1.00  0.00     0.243 C 
ATOM     32  H   UNL     1      22.353 -33.494  25.781  1.00  0.00     0.164 HD
ATOM     33  O   UNL     1      22.636 -32.372  22.759  1.00  0.00    -0.273 OA
BRANCH  31  34
ATOM     34  C   UNL     1      23.765 -31.367  24.603  1.00  0.00     0.174 C 
ATOM     35  N   UNL     1      23.792 -30.091  23.858  1.00  0.00    -0.329 N 
ATOM     36  C   UNL     1      23.645 -31.044  26.106  1.00  0.00     0.035 C 
ATOM     37  C   UNL     1      25.046 -29.353  24.087  1.00  0.00     0.120 C 
ATOM     38  C   UNL     1      24.852 -30.166  26.540  1.00  0.00     0.004 C 
ATOM     39  C   UNL     1      25.125 -28.971  25.576  1.00  0.00     0.022 C 
BRANCH  35  40
ATOM     40  C   UNL     1      22.557 -29.357  23.658  1.00  0.00     0.246 CG0
ATOM     41  O   UNL     1      21.798 -29.135  24.644  1.00  0.00    -0.272 OA
ATOM     42  G   UNL     1      22.080 -28.888  22.297  1.00  0.00     0.000 G0
ENDBRANCH  35  40
ENDBRANCH  31  34
ENDBRANCH   2  30
ENDBRANCH   1   2
BRANCH   1  43
ATOM     43  C   UNL     1      19.451 -35.860  23.974  1.00  0.00     0.003 C 
BRANCH  43  44
ATOM     44  C   UNL     1      18.850 -36.675  22.808  1.00  0.00     0.001 C 
BRANCH  44  45
ATOM     45  C   UNL     1      17.594 -36.046  22.163  1.00  0.00     0.008 C 
BRANCH  45  46
ATOM     46  C   UNL     1      17.945 -34.979  21.107  1.00  0.00     0.075 C 
BRANCH  46  47
ATOM     47  C   UNL     1      16.929 -34.911  19.988  1.00  0.00     0.132 C 
ATOM     48  O   UNL     1      17.311 -34.767  18.842  1.00  0.00    -0.300 OA
BRANCH  47  49
ATOM     49  C   UNL     1      15.459 -35.126  20.248  1.00  0.00     0.072 C 
ATOM     50  C   UNL     1      14.626 -33.947  19.750  1.00  0.00     0.012 C 
ENDBRANCH  47  49
ENDBRANCH  46  47
ENDBRANCH  45  46
ENDBRANCH  44  45
ENDBRANCH  43  44
ENDBRANCH   1  43
TORSDOF 12
ENDMDL
MODEL 2
REMARK VINA RESULT:    -6.021      1.634      2.867
REMARK INTER + INTRA:         -16.232
REMARK INTER:                 -12.892
REMARK INTRA:                  -3.340
REMARK UNBOUND:                -3.523
REMARK SMILES CCC(=O)CCCCC[C@H]1NC(=O)[C@@H]2CCCCN2C(=O)[C@H]([C@H](C)CC)NC(=O)[C@@H](Cc2cn(OC)c3ccccc23)NC1=O
REMARK SMILES IDX 9 1 10 2 44 3 43 4 45 6 30 7 28 8 27 9 29 11 22 12 23 14
REMARK SMILES IDX 24 15 25 16 26 17 31 18 32 19 33 20 42 21 34 22 37 23 41 24
REMARK SMILES IDX 38 25 40 26 39 27 35 28 36 29 11 30 12 31 13 33 14 34 19 35
REMARK SMILES IDX 15 36 18 37 16 38 17 39 20 40 21 41 8 43 7 44 6 45 5 46 3 47
REMARK SMILES IDX 4 48 2 49 1 50
REMARK H PARENT 43 5 27 10 11 32
REMARK Flexibility Score: 80.00
ROOT
ATOM      1  C   UNL     1      20.917 -34.754  22.454  1.00  0.00     0.035 C 
ENDROOT
BRANCH   1   2
ATOM      2  C   UNL     1      20.916 -33.815  23.686  1.00  0.00     0.171 C 
BRANCH   2   3
ATOM      3  C   UNL     1      20.135 -32.537  23.446  1.00  0.00     0.243 C 
ATOM      4  N   UNL     1      19.791 -32.090  22.129  1.00  0.00    -0.342 N 
ATOM      5  H   UNL     1      19.994 -32.700  21.295  1.00  0.00     0.164 HD
ATOM      6  O   UNL     1      19.816 -31.833  24.448  1.00  0.00    -0.273 OA
BRANCH   4   7
ATOM      7  C   UNL     1      19.332 -30.719  21.897  1.00  0.00     0.175 C 
BRANCH   7   8
ATOM      8  C   UNL     1      20.526 -29.880  21.487  1.00  0.00     0.243 C 
ATOM      9  N   UNL     1      21.106 -28.941  22.417  1.00  0.00    -0.342 N 
ATOM     10  H   UNL     1      20.468 -28.566  23.160  1.00  0.00     0.164 HD
ATOM     11  O   UNL     1      21.112 -30.119  20.394  1.00  0.00    -0.273 OA
BRANCH   9  12
ATOM     12  C   UNL     1      22.566 -28.821  22.593  1.00  0.00     0.174 CG0
ATOM     13  G   UNL     1      22.950 -29.434  23.926  1.00  0.00     0.000 G0
BRANCH  12  14
ATOM     14  C   UNL     1      22.987 -27.317  22.553  1.00  0.00     0.018 C 
ATOM     15  C   UNL     1      21.804 -26.380  22.843  1.00  0.00     0.010 C 
BRANCH  14  16
ATOM     16  C   UNL     1      23.697 -26.869  21.227  1.00  0.00     0.002 C 
ATOM     17  C   UNL     1      22.826 -27.093  19.982  1.00  0.00     0.004 C 
ENDBRANCH  14  16
ENDBRANCH  12  14
ENDBRANCH   9  12
ENDBRANCH   7   8
BRANCH   7  18
ATOM     18  C   UNL     1      18.223 -30.685  20.825  1.00  0.00     0.073 C 
BRANCH  18  19
ATOM     19  C   UNL     1      17.157 -31.717  21.085  1.00  0.00    -0.016 A 
ATOM     20  C   UNL     1      16.067 -31.534  21.928  1.00  0.00     0.134 A 
ATOM     21  C   UNL     1      17.016 -32.991  20.548  1.00  0.00     0.006 A 
ATOM     22  N   UNL     1      15.289 -32.644  21.920  1.00  0.00    -0.191 N 
ATOM     23  C   UNL     1      15.866 -33.520  21.083  1.00  0.00     0.087 A 
ATOM     24  C   UNL     1      17.809 -33.738  19.675  1.00  0.00     0.011 A 
ATOM     25  C   UNL     1      15.425 -34.807  20.779  1.00  0.00     0.030 A 
ATOM     26  C   UNL     1      17.390 -35.042  19.349  1.00  0.00     0.001 A 
ATOM     27  C   UNL     1      16.199 -35.570  19.892  1.00  0.00     0.002 A 
BRANCH  22  28
ATOM     28  O   UNL     1      14.163 -32.885  22.678  1.00  0.00    -0.417 OA
ATOM     29  C   UNL     1      14.066 -32.508  24.042  1.00  0.00     0.313 C 
ENDBRANCH  22  28
ENDBRANCH  18  19
ENDBRANCH   7  18
ENDBRANCH   4   7
ENDBRANCH   2   3
BRANCH   2  30
ATOM     30  N   UNL     1      22.268 -33.535  24.183  1.00  0.00    -0.343 N 
ATOM     31  C   UNL     1      23.103 -32.480  23.672  1.00  0.00     0.243 C 
ATOM     32  H   UNL     1      22.549 -34.003  25.079  1.00  0.00     0.164 HD
ATOM     33  O   UNL     1      23.055 -32.185  22.450  1.00  0.00    -0.273 OA
BRANCH  31  34
ATOM     34  C   UNL     1      24.024 -31.665  24.565  1.00  0.00     0.174 C 
ATOM     35  N   UNL     1      24.161 -30.267  24.105  1.00  0.00    -0.329 N 
ATOM     36  C   UNL     1      23.731 -31.646  26.079  1.00  0.00     0.035 C 
ATOM     37  C   UNL     1      25.391 -29.642  24.621  1.00  0.00     0.120 C 
ATOM     38  C   UNL     1      24.892 -30.924  26.817  1.00  0.00     0.004 C 
ATOM     39  C   UNL     1      25.298 -29.572  26.156  1.00  0.00     0.022 C 
BRANCH  35  40
ATOM     40  C   UNL     1      22.972 -29.458  23.921  1.00  0.00     0.246 CG0
ATOM     41  O   UNL     1      22.168 -29.304  24.884  1.00  0.00    -0.272 OA
ATOM     42  G   UNL     1      22.593 -28.827  22.595  1.00  0.00     0.000 G0
ENDBRANCH  35  40
ENDBRANCH  31  34
ENDBRANCH   2  30
ENDBRANCH   1   2
BRANCH   1  43
ATOM     43  C   UNL     1      19.960 -35.951  22.614  1.00  0.00     0.003 C 
BRANCH  43  44
ATOM     44  C   UNL     1      20.282 -36.873  23.810  1.00  0.00     0.001 C 
BRANCH  44  45
ATOM     45  C   UNL     1      19.048 -37.547  24.453  1.00  0.00     0.008 C 
BRANCH  45  46
ATOM     46  C   UNL     1      18.651 -36.895  25.792  1.00  0.00     0.075 C 
BRANCH  46  47
ATOM     47  C   UNL     1      17.217 -36.411  25.803  1.00  0.00     0.132 C 
ATOM     48  O   UNL     1      16.446 -36.845  26.638  1.00  0.00    -0.300 OA
BRANCH  47  49
ATOM     49  C   UNL     1      16.750 -35.323  24.869  1.00  0.00     0.072 C 
ATOM     50  C   UNL     1      17.272 -33.955  25.301  1.00  0.00     0.012 C 
ENDBRANCH  47  49
ENDBRANCH  46  47
ENDBRANCH  45  46
ENDBRANCH  44  45
ENDBRANCH  43  44
ENDBRANCH   1  43
TORSDOF 12
ENDMDL
MODEL 3
REMARK VINA RESULT:    -5.772      1.734      2.982
REMARK INTER + INTRA:         -15.707
REMARK INTER:                 -11.820
REMARK INTRA:                  -3.887
REMARK UNBOUND:                -3.523
REMARK SMILES CCC(=O)CCCCC[C@H]1NC(=O)[C@@H]2CCCCN2C(=O)[C@H]([C@H](C)CC)NC(=O)[C@@H](Cc2cn(OC)c3ccccc23)NC1=O
REMARK SMILES IDX 9 1 10 2 44 3 43 4 45 6 30 7 28 8 27 9 29 11 22 12 23 14
REMARK SMILES IDX 24 15 25 16 26 17 31 18 32 19 33 20 42 21 34 22 37 23 41 24
REMARK SMILES IDX 38 25 40 26 39 27 35 28 36 29 11 30 12 31 13 33 14 34 19 35
REMARK SMILES IDX 15 36 18 37 16 38 17 39 20 40 21 41 8 43 7 44 6 45 5 46 3 47
REMARK SMILES IDX 4 48 2 49 1 50
REMARK H PARENT 43 5 27 10 11 32
REMARK Flexibility Score: 80.00
ROOT
ATOM      1  C   UNL     1      21.814 -34.228  22.912  1.00  0.00     0.035 C 
ENDROOT
BRANCH   1   2
ATOM      2  C   UNL     1      21.394 -33.349  24.116  1.00  0.00     0.171 C 
BRANCH   2   3
ATOM      3  C   UNL     1      20.509 -32.186  23.710  1.00  0.00     0.243 C 
ATOM      4  N   UNL     1      20.079 -31.991  22.358  1.00  0.00    -0.342 N 
ATOM      5  H   UNL     1      20.294 -32.717  21.626  1.00  0.00     0.164 HD
ATOM      6  O   UNL     1      20.178 -31.347  24.597  1.00  0.00    -0.273 OA
BRANCH   4   7
ATOM      7  C   UNL     1      19.509 -30.713  21.927  1.00  0.00     0.175 C 
BRANCH   7   8
ATOM      8  C   UNL     1      20.647 -29.755  21.641  1.00  0.00     0.243 C 
ATOM      9  N   UNL     1      21.139 -28.882  22.681  1.00  0.00    -0.342 N 
ATOM     10  H   UNL     1      20.461 -28.633  23.441  1.00  0.00     0.164 HD
ATOM     11  O   UNL     1      21.271 -29.835  20.546  1.00  0.00    -0.273 OA
BRANCH   9  12
ATOM     12  C   UNL     1      22.583 -28.681  22.909  1.00  0.00     0.174 CG0
ATOM     13  G   UNL     1      22.876 -28.873  24.385  1.00  0.00     0.000 G0
BRANCH  12  14
ATOM     14  C   UNL     1      22.999 -27.242  22.462  1.00  0.00     0.018 C 
ATOM     15  C   UNL     1      21.789 -26.300  22.359  1.00  0.00     0.010 C 
BRANCH  14  16
ATOM     16  C   UNL     1      23.825 -27.182  21.130  1.00  0.00     0.002 C 
ATOM     17  C   UNL     1      23.014 -26.622  19.952  1.00  0.00     0.004 C 
ENDBRANCH  14  16
ENDBRANCH  12  14
ENDBRANCH   9  12
ENDBRANCH   7   8
BRANCH   7  18
ATOM     18  C   UNL     1      18.606 -30.903  20.690  1.00  0.00     0.073 C 
BRANCH  18  19
ATOM     19  C   UNL     1      17.559 -31.962  20.915  1.00  0.00    -0.016 A 
ATOM     20  C   UNL     1      17.499 -33.173  20.236  1.00  0.00     0.134 A 
ATOM     21  C   UNL     1      16.505 -31.979  21.821  1.00  0.00     0.006 A 
ATOM     22  N   UNL     1      16.453 -33.905  20.693  1.00  0.00    -0.191 N 
ATOM     23  C   UNL     1      15.858 -33.179  21.652  1.00  0.00     0.087 A 
ATOM     24  C   UNL     1      16.041 -31.039  22.743  1.00  0.00     0.011 A 
ATOM     25  C   UNL     1      14.727 -33.527  22.389  1.00  0.00     0.030 A 
ATOM     26  C   UNL     1      14.900 -31.361  23.502  1.00  0.00     0.001 A 
ATOM     27  C   UNL     1      14.252 -32.603  23.332  1.00  0.00     0.002 A 
BRANCH  22  28
ATOM     28  O   UNL     1      16.013 -35.124  20.224  1.00  0.00    -0.417 OA
ATOM     29  C   UNL     1      16.898 -36.112  19.719  1.00  0.00     0.313 C 
ENDBRANCH  22  28
ENDBRANCH  18  19
ENDBRANCH   7  18
ENDBRANCH   4   7
ENDBRANCH   2   3
BRANCH   2  30
ATOM     30  N   UNL     1      22.541 -32.901  24.914  1.00  0.00    -0.343 N 
ATOM     31  C   UNL     1      23.463 -31.884  24.484  1.00  0.00     0.243 C 
ATOM     32  H   UNL     1      22.564 -33.201  25.918  1.00  0.00     0.164 HD
ATOM     33  O   UNL     1      23.761 -31.789  23.264  1.00  0.00    -0.273 OA
BRANCH  31  34
ATOM     34  C   UNL     1      24.072 -30.876  25.445  1.00  0.00     0.174 C 
ATOM     35  N   UNL     1      24.116 -29.512  24.877  1.00  0.00    -0.329 N 
ATOM     36  C   UNL     1      23.482 -30.786  26.866  1.00  0.00     0.035 C 
ATOM     37  C   UNL     1      25.125 -28.675  25.548  1.00  0.00     0.120 C 
ATOM     38  C   UNL     1      24.366 -29.847  27.731  1.00  0.00     0.004 C 
ATOM     39  C   UNL     1      24.718 -28.503  27.023  1.00  0.00     0.022 C 
BRANCH  35  40
ATOM     40  C   UNL     1      22.892 -28.904  24.390  1.00  0.00     0.246 CG0
ATOM     41  O   UNL     1      21.984 -28.590  25.211  1.00  0.00    -0.272 OA
ATOM     42  G   UNL     1      22.604 -28.679  22.918  1.00  0.00     0.000 G0
ENDBRANCH  35  40
ENDBRANCH  31  34
ENDBRANCH   2  30
ENDBRANCH   1   2
BRANCH   1  43
ATOM     43  C   UNL     1      21.102 -35.594  22.892  1.00  0.00     0.003 C 
BRANCH  43  44
ATOM     44  C   UNL     1      19.706 -35.580  22.231  1.00  0.00     0.001 C 
BRANCH  44  45
ATOM     45  C   UNL     1      18.570 -36.149  23.113  1.00  0.00     0.008 C 
BRANCH  45  46
ATOM     46  C   UNL     1      18.905 -36.089  24.616  1.00  0.00     0.075 C 
BRANCH  46  47
ATOM     47  C   UNL     1      17.686 -35.830  25.474  1.00  0.00     0.132 C 
ATOM     48  O   UNL     1      17.526 -36.471  26.495  1.00  0.00    -0.300 OA
BRANCH  47  49
ATOM     49  C   UNL     1      16.720 -34.718  25.149  1.00  0.00     0.072 C 
ATOM     50  C   UNL     1      17.313 -33.350  25.477  1.00  0.00     0.012 C 
ENDBRANCH  47  49
ENDBRANCH  46  47
ENDBRANCH  45  46
ENDBRANCH  44  45
ENDBRANCH  43  44
ENDBRANCH   1  43
TORSDOF 12
ENDMDL
MODEL 4
REMARK VINA RESULT:    -5.559      2.534      6.789
REMARK INTER + INTRA:         -15.255
REMARK INTER:                 -12.850
REMARK INTRA:                  -2.406
REMARK UNBOUND:                -3.523
REMARK SMILES CCC(=O)CCCCC[C@H]1NC(=O)[C@@H]2CCCCN2C(=O)[C@H]([C@H](C)CC)NC(=O)[C@@H](Cc2cn(OC)c3ccccc23)NC1=O
REMARK SMILES IDX 9 1 10 2 44 3 43 4 45 6 30 7 28 8 27 9 29 11 22 12 23 14
REMARK SMILES IDX 24 15 25 16 26 17 31 18 32 19 33 20 42 21 34 22 37 23 41 24
REMARK SMILES IDX 38 25 40 26 39 27 35 28 36 29 11 30 12 31 13 33 14 34 19 35
REMARK SMILES IDX 15 36 18 37 16 38 17 39 20 40 21 41 8 43 7 44 6 45 5 46 3 47
REMARK SMILES IDX 4 48 2 49 1 50
REMARK H PARENT 43 5 27 10 11 32
REMARK Flexibility Score: 80.00
ROOT
ATOM      1  C   UNL     1      23.257 -29.886  24.438  1.00  0.00     0.035 C 
ENDROOT
BRANCH   1   2
ATOM      2  C   UNL     1      23.561 -31.208  23.691  1.00  0.00     0.171 C 
BRANCH   2   3
ATOM      3  C   UNL     1      22.398 -31.679  22.839  1.00  0.00     0.243 C 
ATOM      4  N   UNL     1      21.039 -31.357  23.160  1.00  0.00    -0.342 N 
ATOM      5  H   UNL     1      20.826 -30.697  23.953  1.00  0.00     0.164 HD
ATOM      6  O   UNL     1      22.645 -32.409  21.836  1.00  0.00    -0.273 OA
BRANCH   4   7
ATOM      7  C   UNL     1      19.928 -32.074  22.531  1.00  0.00     0.175 C 
BRANCH   7   8
ATOM      8  C   UNL     1      19.440 -33.138  23.493  1.00  0.00     0.243 C 
ATOM      9  N   UNL     1      19.558 -34.535  23.150  1.00  0.00    -0.342 N 
ATOM     10  H   UNL     1      19.579 -34.764  22.127  1.00  0.00     0.164 HD
ATOM     11  O   UNL     1      19.082 -32.809  24.658  1.00  0.00    -0.273 OA
BRANCH   9  12
ATOM     12  C   UNL     1      20.034 -35.537  24.123  1.00  0.00     0.174 CG0
ATOM     13  G   UNL     1      21.550 -35.519  24.142  1.00  0.00     0.000 G0
BRANCH  12  14
ATOM     14  C   UNL     1      19.520 -36.958  23.721  1.00  0.00     0.018 C 
ATOM     15  C   UNL     1      18.752 -36.936  22.389  1.00  0.00     0.010 C 
BRANCH  14  16
ATOM     16  C   UNL     1      18.653 -37.676  24.813  1.00  0.00     0.002 C 
ATOM     17  C   UNL     1      18.672 -36.943  26.163  1.00  0.00     0.004 C 
ENDBRANCH  14  16
ENDBRANCH  12  14
ENDBRANCH   9  12
ENDBRANCH   7   8
BRANCH   7  18
ATOM     18  C   UNL     1      18.795 -31.100  22.143  1.00  0.00     0.073 C 
BRANCH  18  19
ATOM     19  C   UNL     1      17.483 -31.813  21.947  1.00  0.00    -0.016 A 
ATOM     20  C   UNL     1      16.338 -31.586  22.702  1.00  0.00     0.134 A 
ATOM     21  C   UNL     1      17.134 -32.772  21.003  1.00  0.00     0.006 A 
ATOM     22  N   UNL     1      15.329 -32.372  22.254  1.00  0.00    -0.191 N 
ATOM     23  C   UNL     1      15.815 -33.084  21.226  1.00  0.00     0.087 A 
ATOM     24  C   UNL     1      17.865 -33.418  20.005  1.00  0.00     0.011 A 
ATOM     25  C   UNL     1      15.137 -34.039  20.470  1.00  0.00     0.030 A 
ATOM     26  C   UNL     1      17.207 -34.388  19.224  1.00  0.00     0.001 A 
ATOM     27  C   UNL     1      15.847 -34.690  19.451  1.00  0.00     0.002 A 
BRANCH  22  28
ATOM     28  O   UNL     1      14.063 -32.495  22.785  1.00  0.00    -0.417 OA
ATOM     29  C   UNL     1      13.191 -31.388  22.948  1.00  0.00     0.313 C 
ENDBRANCH  22  28
ENDBRANCH  18  19
ENDBRANCH   7  18
ENDBRANCH   4   7
ENDBRANCH   2   3
BRANCH   2  30
ATOM     30  N   UNL     1      24.034 -32.268  24.589  1.00  0.00    -0.343 N 
ATOM     31  C   UNL     1      23.159 -33.186  25.269  1.00  0.00     0.243 C 
ATOM     32  H   UNL     1      25.061 -32.478  24.572  1.00  0.00     0.164 HD
ATOM     33  O   UNL     1      22.033 -32.793  25.670  1.00  0.00    -0.273 OA
BRANCH  31  34
ATOM     34  C   UNL     1      23.523 -34.645  25.491  1.00  0.00     0.174 C 
ATOM     35  N   UNL     1      22.356 -35.542  25.357  1.00  0.00    -0.329 N 
ATOM     36  C   UNL     1      24.680 -35.235  24.660  1.00  0.00     0.035 C 
ATOM     37  C   UNL     1      22.573 -36.825  26.049  1.00  0.00     0.120 C 
ATOM     38  C   UNL     1      25.008 -36.663  25.178  1.00  0.00     0.004 C 
ATOM     39  C   UNL     1      23.745 -37.556  25.370  1.00  0.00     0.022 C 
BRANCH  35  40
ATOM     40  C   UNL     1      21.570 -35.513  24.139  1.00  0.00     0.246 CG0
ATOM     41  O   UNL     1      22.156 -35.417  23.022  1.00  0.00    -0.272 OA
ATOM     42  G   UNL     1      20.054 -35.522  24.127  1.00  0.00     0.000 G0
ENDBRANCH  35  40
ENDBRANCH  31  34
ENDBRANCH   2  30
ENDBRANCH   1   2
BRANCH   1  43
ATOM     43  C   UNL     1      24.144 -28.718  23.969  1.00  0.00     0.003 C 
BRANCH  43  44
ATOM     44  C   UNL     1      23.638 -27.998  22.700  1.00  0.00     0.001 C 
BRANCH  44  45
ATOM     45  C   UNL     1      22.440 -27.047  22.934  1.00  0.00     0.008 C 
BRANCH  45  46
ATOM     46  C   UNL     1      21.349 -27.199  21.856  1.00  0.00     0.075 C 
BRANCH  46  47
ATOM     47  C   UNL     1      21.339 -26.049  20.872  1.00  0.00     0.132 C 
ATOM     48  O   UNL     1      20.344 -25.844  20.203  1.00  0.00    -0.300 OA
BRANCH  47  49
ATOM     49  C   UNL     1      22.495 -25.085  20.781  1.00  0.00     0.072 C 
ATOM     50  C   UNL     1      23.144 -25.122  19.399  1.00  0.00     0.012 C 
ENDBRANCH  47  49
ENDBRANCH  46  47
ENDBRANCH  45  46
ENDBRANCH  44  45
ENDBRANCH  43  44
ENDBRANCH   1  43
TORSDOF 12
ENDMDL
MODEL 5
REMARK VINA RESULT:    -5.555      2.254      6.814
REMARK INTER + INTRA:         -15.248
REMARK INTER:                 -13.146
REMARK INTRA:                  -2.102
REMARK UNBOUND:                -3.523
REMARK SMILES CCC(=O)CCCCC[C@H]1NC(=O)[C@@H]2CCCCN2C(=O)[C@H]([C@H](C)CC)NC(=O)[C@@H](Cc2cn(OC)c3ccccc23)NC1=O
REMARK SMILES IDX 9 1 10 2 44 3 43 4 45 6 30 7 28 8 27 9 29 11 22 12 23 14
REMARK SMILES IDX 24 15 25 16 26 17 31 18 32 19 33 20 42 21 34 22 37 23 41 24
REMARK SMILES IDX 38 25 40 26 39 27 35 28 36 29 11 30 12 31 13 33 14 34 19 35
REMARK SMILES IDX 15 36 18 37 16 38 17 39 20 40 21 41 8 43 7 44 6 45 5 46 3 47
REMARK SMILES IDX 4 48 2 49 1 50
REMARK H PARENT 43 5 27 10 11 32
REMARK Flexibility Score: 80.00
ROOT
ATOM      1  C   UNL     1      22.128 -28.483  22.953  1.00  0.00     0.035 C 
ENDROOT
BRANCH   1   2
ATOM      2  C   UNL     1      22.272 -29.800  22.150  1.00  0.00     0.171 C 
BRANCH   2   3
ATOM      3  C   UNL     1      20.944 -30.318  21.632  1.00  0.00     0.243 C 
ATOM      4  N   UNL     1      19.693 -29.900  22.191  1.00  0.00    -0.342 N 
ATOM      5  H   UNL     1      19.668 -29.140  22.920  1.00  0.00     0.164 HD
ATOM      6  O   UNL     1      20.956 -31.175  20.701  1.00  0.00    -0.273 OA
BRANCH   4   7
ATOM      7  C   UNL     1      18.460 -30.637  21.909  1.00  0.00     0.175 C 
BRANCH   7   8
ATOM      8  C   UNL     1      18.226 -31.625  23.034  1.00  0.00     0.243 C 
ATOM      9  N   UNL     1      18.342 -33.043  22.789  1.00  0.00    -0.342 N 
ATOM     10  H   UNL     1      18.170 -33.363  21.806  1.00  0.00     0.164 HD
ATOM     11  O   UNL     1      18.092 -31.204  24.217  1.00  0.00    -0.273 OA
BRANCH   9  12
ATOM     12  C   UNL     1      19.050 -33.938  23.725  1.00  0.00     0.174 CG0
ATOM     13  G   UNL     1      20.521 -33.969  23.353  1.00  0.00     0.000 G0
BRANCH  12  14
ATOM     14  C   UNL     1      18.447 -35.378  23.647  1.00  0.00     0.018 C 
ATOM     15  C   UNL     1      17.103 -35.399  22.900  1.00  0.00     0.010 C 
BRANCH  14  16
ATOM     16  C   UNL     1      18.288 -36.099  25.031  1.00  0.00     0.002 C 
ATOM     17  C   UNL     1      16.957 -35.769  25.723  1.00  0.00     0.004 C 
ENDBRANCH  14  16
ENDBRANCH  12  14
ENDBRANCH   9  12
ENDBRANCH   7   8
BRANCH   7  18
ATOM     18  C   UNL     1      17.267 -29.671  21.748  1.00  0.00     0.073 C 
BRANCH  18  19
ATOM     19  C   UNL     1      15.954 -30.406  21.674  1.00  0.00    -0.016 A 
ATOM     20  C   UNL     1      15.784 -31.669  21.120  1.00  0.00     0.134 A 
ATOM     21  C   UNL     1      14.704 -30.024  22.147  1.00  0.00     0.006 A 
ATOM     22  N   UNL     1      14.488 -32.051  21.236  1.00  0.00    -0.191 N 
ATOM     23  C   UNL     1      13.842 -31.054  21.859  1.00  0.00     0.087 A 
ATOM     24  C   UNL     1      14.247 -28.858  22.763  1.00  0.00     0.011 A 
ATOM     25  C   UNL     1      12.484 -31.000  22.173  1.00  0.00     0.030 A 
ATOM     26  C   UNL     1      12.881 -28.773  23.093  1.00  0.00     0.001 A 
ATOM     27  C   UNL     1      12.006 -29.843  22.807  1.00  0.00     0.002 A 
BRANCH  22  28
ATOM     28  O   UNL     1      13.905 -33.198  20.744  1.00  0.00    -0.417 OA
ATOM     29  C   UNL     1      14.071 -33.625  19.401  1.00  0.00     0.313 C 
ENDBRANCH  22  28
ENDBRANCH  18  19
ENDBRANCH   7  18
ENDBRANCH   4   7
ENDBRANCH   2   3
BRANCH   2  30
ATOM     30  N   UNL     1      23.002 -30.836  22.892  1.00  0.00    -0.343 N 
ATOM     31  C   UNL     1      22.397 -31.677  23.890  1.00  0.00     0.243 C 
ATOM     32  H   UNL     1      23.951 -31.095  22.532  1.00  0.00     0.164 HD
ATOM     33  O   UNL     1      21.493 -31.212  24.633  1.00  0.00    -0.273 OA
BRANCH  31  34
ATOM     34  C   UNL     1      22.776 -33.139  24.063  1.00  0.00     0.174 C 
ATOM     35  N   UNL     1      21.598 -34.003  24.285  1.00  0.00    -0.329 N 
ATOM     36  C   UNL     1      23.652 -33.790  22.974  1.00  0.00     0.035 C 
ATOM     37  C   UNL     1      21.967 -35.269  24.942  1.00  0.00     0.120 C 
ATOM     38  C   UNL     1      24.078 -35.210  23.439  1.00  0.00     0.004 C 
ATOM     39  C   UNL     1      22.895 -36.058  24.000  1.00  0.00     0.022 C 
BRANCH  35  40
ATOM     40  C   UNL     1      20.512 -33.988  23.323  1.00  0.00     0.246 CG0
ATOM     41  O   UNL     1      20.775 -33.974  22.087  1.00  0.00    -0.272 OA
ATOM     42  G   UNL     1      19.050 -33.919  23.722  1.00  0.00     0.000 G0
ENDBRANCH  35  40
ENDBRANCH  31  34
ENDBRANCH   2  30
ENDBRANCH   1   2
BRANCH   1  43
ATOM     43  C   UNL     1      23.331 -27.539  22.771  1.00  0.00     0.003 C 
BRANCH  43  44
ATOM     44  C   UNL     1      23.672 -27.209  21.301  1.00  0.00     0.001 C 
BRANCH  44  45
ATOM     45  C   UNL     1      22.546 -26.484  20.527  1.00  0.00     0.008 C 
BRANCH  45  46
ATOM     46  C   UNL     1      22.797 -24.969  20.404  1.00  0.00     0.075 C 
BRANCH  46  47
ATOM     47  C   UNL     1      22.474 -24.219  21.679  1.00  0.00     0.132 C 
ATOM     48  O   UNL     1      23.335 -23.543  22.209  1.00  0.00    -0.300 OA
BRANCH  47  49
ATOM     49  C   UNL     1      21.077 -24.206  22.248  1.00  0.00     0.072 C 
ATOM     50  C   UNL     1      20.999 -24.994  23.553  1.00  0.00     0.012 C 
ENDBRANCH  47  49
ENDBRANCH  46  47
ENDBRANCH  45  46
ENDBRANCH  44  45
ENDBRANCH  43  44
ENDBRANCH   1  43
TORSDOF 12
ENDMDL
MODEL 6
REMARK VINA RESULT:    -5.537      2.998      8.708
REMARK INTER + INTRA:         -15.210
REMARK INTER:                 -12.794
REMARK INTRA:                  -2.417
REMARK UNBOUND:                -3.523
REMARK SMILES CCC(=O)CCCCC[C@H]1NC(=O)[C@@H]2CCCCN2C(=O)[C@H]([C@H](C)CC)NC(=O)[C@@H](Cc2cn(OC)c3ccccc23)NC1=O
REMARK SMILES IDX 9 1 10 2 44 3 43 4 45 6 30 7 28 8 27 9 29 11 22 12 23 14
REMARK SMILES IDX 24 15 25 16 26 17 31 18 32 19 33 20 42 21 34 22 37 23 41 24
REMARK SMILES IDX 38 25 40 26 39 27 35 28 36 29 11 30 12 31 13 33 14 34 19 35
REMARK SMILES IDX 15 36 18 37 16 38 17 39 20 40 21 41 8 43 7 44 6 45 5 46 3 47
REMARK SMILES IDX 4 48 2 49 1 50
REMARK H PARENT 43 5 27 10 11 32
REMARK Flexibility Score: 80.00
ROOT
ATOM      1  C   UNL     1      20.717 -30.169  21.785  1.00  0.00     0.035 C 
ENDROOT
BRANCH   1   2
ATOM      2  C   UNL     1      19.223 -30.531  21.967  1.00  0.00     0.171 C 
BRANCH   2   3
ATOM      3  C   UNL     1      18.919 -31.087  23.344  1.00  0.00     0.243 C 
ATOM      4  N   UNL     1      19.953 -31.402  24.284  1.00  0.00    -0.342 N 
ATOM      5  H   UNL     1      20.955 -31.160  24.067  1.00  0.00     0.164 HD
ATOM      6  O   UNL     1      17.711 -31.311  23.648  1.00  0.00    -0.273 OA
BRANCH   4   7
ATOM      7  C   UNL     1      19.674 -32.227  25.462  1.00  0.00     0.175 C 
BRANCH   7   8
ATOM      8  C   UNL     1      19.893 -33.679  25.090  1.00  0.00     0.243 C 
ATOM      9  N   UNL     1      18.776 -34.502  24.691  1.00  0.00    -0.342 N 
ATOM     10  H   UNL     1      17.835 -34.221  25.057  1.00  0.00     0.164 HD
ATOM     11  O   UNL     1      21.069 -34.123  24.973  1.00  0.00    -0.273 OA
BRANCH   9  12
ATOM     12  C   UNL     1      18.856 -35.413  23.533  1.00  0.00     0.174 CG0
ATOM     13  G   UNL     1      17.727 -35.086  22.574  1.00  0.00     0.000 G0
BRANCH  12  14
ATOM     14  C   UNL     1      18.741 -36.896  24.011  1.00  0.00     0.018 C 
ATOM     15  C   UNL     1      18.642 -37.001  25.542  1.00  0.00     0.010 C 
BRANCH  14  16
ATOM     16  C   UNL     1      19.879 -37.844  23.494  1.00  0.00     0.002 C 
ATOM     17  C   UNL     1      21.229 -37.579  24.177  1.00  0.00     0.004 C 
ENDBRANCH  14  16
ENDBRANCH  12  14
ENDBRANCH   9  12
ENDBRANCH   7   8
BRANCH   7  18
ATOM     18  C   UNL     1      20.564 -31.806  26.650  1.00  0.00     0.073 C 
BRANCH  18  19
ATOM     19  C   UNL     1      21.473 -30.660  26.294  1.00  0.00    -0.016 A 
ATOM     20  C   UNL     1      21.319 -29.356  26.751  1.00  0.00     0.134 A 
ATOM     21  C   UNL     1      22.619 -30.656  25.507  1.00  0.00     0.006 A 
ATOM     22  N   UNL     1      22.316 -28.577  26.264  1.00  0.00    -0.191 N 
ATOM     23  C   UNL     1      23.100 -29.369  25.516  1.00  0.00     0.087 A 
ATOM     24  C   UNL     1      23.252 -31.652  24.762  1.00  0.00     0.011 A 
ATOM     25  C   UNL     1      24.238 -28.993  24.803  1.00  0.00     0.030 A 
ATOM     26  C   UNL     1      24.403 -31.303  24.031  1.00  0.00     0.001 A 
ATOM     27  C   UNL     1      24.898 -29.982  24.059  1.00  0.00     0.002 A 
BRANCH  22  28
ATOM     28  O   UNL     1      22.473 -27.218  26.424  1.00  0.00    -0.417 OA
ATOM     29  C   UNL     1      21.387 -26.352  26.714  1.00  0.00     0.313 C 
ENDBRANCH  22  28
ENDBRANCH  18  19
ENDBRANCH   7  18
ENDBRANCH   4   7
ENDBRANCH   2   3
BRANCH   2  30
ATOM     30  N   UNL     1      18.724 -31.416  20.907  1.00  0.00    -0.343 N 
ATOM     31  C   UNL     1      18.917 -32.841  20.901  1.00  0.00     0.243 C 
ATOM     32  H   UNL     1      18.032 -31.004  20.235  1.00  0.00     0.164 HD
ATOM     33  O   UNL     1      19.984 -33.327  21.360  1.00  0.00    -0.273 OA
BRANCH  31  34
ATOM     34  C   UNL     1      17.858 -33.806  20.395  1.00  0.00     0.174 C 
ATOM     35  N   UNL     1      17.860 -35.084  21.138  1.00  0.00    -0.329 N 
ATOM     36  C   UNL     1      16.403 -33.301  20.313  1.00  0.00     0.035 C 
ATOM     37  C   UNL     1      17.231 -36.166  20.361  1.00  0.00     0.120 C 
ATOM     38  C   UNL     1      15.530 -34.368  19.596  1.00  0.00     0.004 C 
ATOM     39  C   UNL     1      15.749 -35.813  20.139  1.00  0.00     0.022 C 
BRANCH  35  40
ATOM     40  C   UNL     1      17.724 -35.069  22.582  1.00  0.00     0.246 CG0
ATOM     41  O   UNL     1      16.628 -34.711  23.101  1.00  0.00    -0.272 OA
ATOM     42  G   UNL     1      18.863 -35.400  23.528  1.00  0.00     0.000 G0
ENDBRANCH  35  40
ENDBRANCH  31  34
ENDBRANCH   2  30
ENDBRANCH   1   2
BRANCH   1  43
ATOM     43  C   UNL     1      20.928 -28.941  20.879  1.00  0.00     0.003 C 
BRANCH  43  44
ATOM     44  C   UNL     1      19.752 -27.941  20.870  1.00  0.00     0.001 C 
BRANCH  44  45
ATOM     45  C   UNL     1      20.172 -26.453  20.866  1.00  0.00     0.008 C 
BRANCH  45  46
ATOM     46  C   UNL     1      21.087 -26.096  22.054  1.00  0.00     0.075 C 
BRANCH  46  47
ATOM     47  C   UNL     1      22.227 -25.183  21.658  1.00  0.00     0.132 C 
ATOM     48  O   UNL     1      22.547 -24.271  22.396  1.00  0.00    -0.300 OA
BRANCH  47  49
ATOM     49  C   UNL     1      23.046 -25.444  20.418  1.00  0.00     0.072 C 
ATOM     50  C   UNL     1      23.707 -24.167  19.907  1.00  0.00     0.012 C 
ENDBRANCH  47  49
ENDBRANCH  46  47
ENDBRANCH  45  46
ENDBRANCH  44  45
ENDBRANCH  43  44
ENDBRANCH   1  43
TORSDOF 12
ENDMDL
MODEL 7
REMARK VINA RESULT:    -5.534      2.581      7.974
REMARK INTER + INTRA:         -15.203
REMARK INTER:                 -11.687
REMARK INTRA:                  -3.515
REMARK UNBOUND:                -3.523
REMARK SMILES CCC(=O)CCCCC[C@H]1NC(=O)[C@@H]2CCCCN2C(=O)[C@H]([C@H](C)CC)NC(=O)[C@@H](Cc2cn(OC)c3ccccc23)NC1=O
REMARK SMILES IDX 9 1 10 2 44 3 43 4 45 6 30 7 28 8 27 9 29 11 22 12 23 14
REMARK SMILES IDX 24 15 25 16 26 17 31 18 32 19 33 20 42 21 34 22 37 23 41 24
REMARK SMILES IDX 38 25 40 26 39 27 35 28 36 29 11 30 12 31 13 33 14 34 19 35
REMARK SMILES IDX 15 36 18 37 16 38 17 39 20 40 21 41 8 43 7 44 6 45 5 46 3 47
REMARK SMILES IDX 4 48 2 49 1 50
REMARK H PARENT 43 5 27 10 11 32
REMARK Flexibility Score: 80.00
ROOT
ATOM      1  C   UNL     1      21.052 -36.243  24.815  1.00  0.00     0.035 C 
ENDROOT
BRANCH   1   2
ATOM      2  C   UNL     1      20.755 -35.641  23.420  1.00  0.00     0.171 C 
BRANCH   2   3
ATOM      3  C   UNL     1      20.760 -34.124  23.423  1.00  0.00     0.243 C 
ATOM      4  N   UNL     1      20.454 -33.364  24.598  1.00  0.00    -0.342 N 
ATOM      5  H   UNL     1      20.310 -33.852  25.520  1.00  0.00     0.164 HD
ATOM      6  O   UNL     1      21.009 -33.523  22.338  1.00  0.00    -0.273 OA
BRANCH   4   7
ATOM      7  C   UNL     1      20.149 -31.934  24.510  1.00  0.00     0.175 C 
BRANCH   7   8
ATOM      8  C   UNL     1      18.644 -31.764  24.569  1.00  0.00     0.243 C 
ATOM      9  N   UNL     1      17.922 -31.292  23.411  1.00  0.00    -0.342 N 
ATOM     10  H   UNL     1      18.461 -30.702  22.732  1.00  0.00     0.164 HD
ATOM     11  O   UNL     1      18.006 -32.187  25.573  1.00  0.00    -0.273 OA
BRANCH   9  12
ATOM     12  C   UNL     1      16.657 -31.916  22.977  1.00  0.00     0.174 CG0
ATOM     13  G   UNL     1      16.971 -33.022  21.988  1.00  0.00     0.000 G0
BRANCH  12  14
ATOM     14  C   UNL     1      15.736 -30.845  22.308  1.00  0.00     0.018 C 
ATOM     15  C   UNL     1      16.495 -29.544  21.999  1.00  0.00     0.010 C 
BRANCH  14  16
ATOM     16  C   UNL     1      14.429 -30.510  23.109  1.00  0.00     0.002 C 
ATOM     17  C   UNL     1      13.611 -31.761  23.462  1.00  0.00     0.004 C 
ENDBRANCH  14  16
ENDBRANCH  12  14
ENDBRANCH   9  12
ENDBRANCH   7   8
BRANCH   7  18
ATOM     18  C   UNL     1      20.851 -31.152  25.639  1.00  0.00     0.073 C 
BRANCH  18  19
ATOM     19  C   UNL     1      22.182 -30.601  25.198  1.00  0.00    -0.016 A 
ATOM     20  C   UNL     1      22.346 -29.541  24.315  1.00  0.00     0.134 A 
ATOM     21  C   UNL     1      23.463 -30.983  25.580  1.00  0.00     0.006 A 
ATOM     22  N   UNL     1      23.667 -29.281  24.149  1.00  0.00    -0.191 N 
ATOM     23  C   UNL     1      24.335 -30.154  24.918  1.00  0.00     0.087 A 
ATOM     24  C   UNL     1      23.932 -32.001  26.413  1.00  0.00     0.011 A 
ATOM     25  C   UNL     1      25.719 -30.271  25.049  1.00  0.00     0.030 A 
ATOM     26  C   UNL     1      25.325 -32.143  26.565  1.00  0.00     0.001 A 
ATOM     27  C   UNL     1      26.213 -31.277  25.892  1.00  0.00     0.002 A 
BRANCH  22  28
ATOM     28  O   UNL     1      24.241 -28.360  23.300  1.00  0.00    -0.417 OA
ATOM     29  C   UNL     1      23.495 -27.659  22.318  1.00  0.00     0.313 C 
ENDBRANCH  22  28
ENDBRANCH  18  19
ENDBRANCH   7  18
ENDBRANCH   4   7
ENDBRANCH   2   3
BRANCH   2  30
ATOM     30  N   UNL     1      19.522 -36.174  22.827  1.00  0.00    -0.343 N 
ATOM     31  C   UNL     1      18.226 -35.577  23.011  1.00  0.00     0.243 C 
ATOM     32  H   UNL     1      19.633 -36.903  22.082  1.00  0.00     0.164 HD
ATOM     33  O   UNL     1      17.941 -35.035  24.111  1.00  0.00    -0.273 OA
BRANCH  31  34
ATOM     34  C   UNL     1      17.183 -35.535  21.907  1.00  0.00     0.174 C 
ATOM     35  N   UNL     1      16.341 -34.323  21.975  1.00  0.00    -0.329 N 
ATOM     36  C   UNL     1      17.666 -35.704  20.452  1.00  0.00     0.035 C 
ATOM     37  C   UNL     1      15.059 -34.511  21.273  1.00  0.00     0.120 C 
ATOM     38  C   UNL     1      16.434 -35.824  19.513  1.00  0.00     0.004 C 
ATOM     39  C   UNL     1      15.346 -34.739  19.778  1.00  0.00     0.022 C 
BRANCH  35  40
ATOM     40  C   UNL     1      16.971 -33.016  21.972  1.00  0.00     0.246 CG0
ATOM     41  O   UNL     1      17.871 -32.760  21.123  1.00  0.00    -0.272 OA
ATOM     42  G   UNL     1      16.654 -31.940  22.993  1.00  0.00     0.000 G0
ENDBRANCH  35  40
ENDBRANCH  31  34
ENDBRANCH   2  30
ENDBRANCH   1   2
BRANCH   1  43
ATOM     43  C   UNL     1      22.351 -37.071  24.845  1.00  0.00     0.003 C 
BRANCH  43  44
ATOM     44  C   UNL     1      22.857 -37.519  23.456  1.00  0.00     0.001 C 
BRANCH  44  45
ATOM     45  C   UNL     1      24.389 -37.708  23.360  1.00  0.00     0.008 C 
BRANCH  45  46
ATOM     46  C   UNL     1      25.167 -36.465  23.831  1.00  0.00     0.075 C 
BRANCH  46  47
ATOM     47  C   UNL     1      24.990 -35.281  22.905  1.00  0.00     0.132 C 
ATOM     48  O   UNL     1      25.187 -35.419  21.713  1.00  0.00    -0.300 OA
BRANCH  47  49
ATOM     49  C   UNL     1      24.468 -33.959  23.413  1.00  0.00     0.072 C 
ATOM     50  C   UNL     1      24.332 -32.942  22.283  1.00  0.00     0.012 C 
ENDBRANCH  47  49
ENDBRANCH  46  47
ENDBRANCH  45  46
ENDBRANCH  44  45
ENDBRANCH  43  44
ENDBRANCH   1  43
TORSDOF 12
ENDMDL
MODEL 8
REMARK VINA RESULT:    -5.527      2.694      6.781
REMARK INTER + INTRA:         -15.189
REMARK INTER:                 -12.531
REMARK INTRA:                  -2.658
REMARK UNBOUND:                -3.523
REMARK SMILES CCC(=O)CCCCC[C@H]1NC(=O)[C@@H]2CCCCN2C(=O)[C@H]([C@H](C)CC)NC(=O)[C@@H](Cc2cn(OC)c3ccccc23)NC1=O
REMARK SMILES IDX 9 1 10 2 44 3 43 4 45 6 30 7 28 8 27 9 29 11 22 12 23 14
REMARK SMILES IDX 24 15 25 16 26 17 31 18 32 19 33 20 42 21 34 22 37 23 41 24
REMARK SMILES IDX 38 25 40 26 39 27 35 28 36 29 11 30 12 31 13 33 14 34 19 35
REMARK SMILES IDX 15 36 18 37 16 38 17 39 20 40 21 41 8 43 7 44 6 45 5 46 3 47
REMARK SMILES IDX 4 48 2 49 1 50
REMARK H PARENT 43 5 27 10 11 32
REMARK Flexibility Score: 80.00
ROOT
ATOM      1  C   UNL     1      22.584 -29.745  24.576  1.00  0.00     0.035 C 
ENDROOT
BRANCH   1   2
ATOM      2  C   UNL     1      22.730 -31.038  23.736  1.00  0.00     0.171 C 
BRANCH   2   3
ATOM      3  C   UNL     1      21.394 -31.598  23.286  1.00  0.00     0.243 C 
ATOM      4  N   UNL     1      20.169 -31.275  23.955  1.00  0.00    -0.342 N 
ATOM      5  H   UNL     1      20.161 -30.556  24.725  1.00  0.00     0.164 HD
ATOM      6  O   UNL     1      21.379 -32.403  22.311  1.00  0.00    -0.273 OA
BRANCH   4   7
ATOM      7  C   UNL     1      18.955 -32.060  23.721  1.00  0.00     0.175 C 
BRANCH   7   8
ATOM      8  C   UNL     1      18.834 -33.091  24.824  1.00  0.00     0.243 C 
ATOM      9  N   UNL     1      19.000 -34.494  24.527  1.00  0.00    -0.342 N 
ATOM     10  H   UNL     1      18.785 -34.792  23.545  1.00  0.00     0.164 HD
ATOM     11  O   UNL     1      18.751 -32.713  26.026  1.00  0.00    -0.273 OA
BRANCH   9  12
ATOM     12  C   UNL     1      19.802 -35.382  25.391  1.00  0.00     0.174 CG0
ATOM     13  G   UNL     1      21.229 -35.408  24.875  1.00  0.00     0.000 G0
BRANCH  12  14
ATOM     14  C   UNL     1      19.201 -36.825  25.378  1.00  0.00     0.018 C 
ATOM     15  C   UNL     1      18.014 -36.945  24.409  1.00  0.00     0.010 C 
BRANCH  14  16
ATOM     16  C   UNL     1      18.785 -37.375  26.787  1.00  0.00     0.002 C 
ATOM     17  C   UNL     1      17.266 -37.550  26.932  1.00  0.00     0.004 C 
ENDBRANCH  14  16
ENDBRANCH  12  14
ENDBRANCH   9  12
ENDBRANCH   7   8
BRANCH   7  18
ATOM     18  C   UNL     1      17.713 -31.147  23.661  1.00  0.00     0.073 C 
BRANCH  18  19
ATOM     19  C   UNL     1      16.661 -31.688  22.730  1.00  0.00    -0.016 A 
ATOM     20  C   UNL     1      16.806 -32.829  21.950  1.00  0.00     0.134 A 
ATOM     21  C   UNL     1      15.376 -31.217  22.484  1.00  0.00     0.006 A 
ATOM     22  N   UNL     1      15.668 -33.053  21.247  1.00  0.00    -0.191 N 
ATOM     23  C   UNL     1      14.808 -32.077  21.575  1.00  0.00     0.087 A 
ATOM     24  C   UNL     1      14.679 -30.099  22.945  1.00  0.00     0.011 A 
ATOM     25  C   UNL     1      13.517 -31.892  21.080  1.00  0.00     0.030 A 
ATOM     26  C   UNL     1      13.374 -29.885  22.463  1.00  0.00     0.001 A 
ATOM     27  C   UNL     1      12.793 -30.783  21.541  1.00  0.00     0.002 A 
BRANCH  22  28
ATOM     28  O   UNL     1      15.442 -34.036  20.308  1.00  0.00    -0.417 OA
ATOM     29  C   UNL     1      16.398 -34.381  19.317  1.00  0.00     0.313 C 
ENDBRANCH  22  28
ENDBRANCH  18  19
ENDBRANCH   7  18
ENDBRANCH   4   7
ENDBRANCH   2   3
BRANCH   2  30
ATOM     30  N   UNL     1      23.542 -32.059  24.411  1.00  0.00    -0.343 N 
ATOM     31  C   UNL     1      23.013 -32.996  25.365  1.00  0.00     0.243 C 
ATOM     32  H   UNL     1      24.502 -32.229  24.025  1.00  0.00     0.164 HD
ATOM     33  O   UNL     1      22.090 -32.638  26.144  1.00  0.00    -0.273 OA
BRANCH  31  34
ATOM     34  C   UNL     1      23.497 -34.434  25.451  1.00  0.00     0.174 C 
ATOM     35  N   UNL     1      22.399 -35.380  25.741  1.00  0.00    -0.329 N 
ATOM     36  C   UNL     1      24.312 -34.992  24.267  1.00  0.00     0.035 C 
ATOM     37  C   UNL     1      22.903 -36.639  26.316  1.00  0.00     0.120 C 
ATOM     38  C   UNL     1      24.866 -36.395  24.642  1.00  0.00     0.004 C 
ATOM     39  C   UNL     1      23.793 -37.335  25.270  1.00  0.00     0.022 C 
BRANCH  35  40
ATOM     40  C   UNL     1      21.234 -35.406  24.877  1.00  0.00     0.246 CG0
ATOM     41  O   UNL     1      21.387 -35.376  23.623  1.00  0.00    -0.272 OA
ATOM     42  G   UNL     1      19.811 -35.400  25.402  1.00  0.00     0.000 G0
ENDBRANCH  35  40
ENDBRANCH  31  34
ENDBRANCH   2  30
ENDBRANCH   1   2
BRANCH   1  43
ATOM     43  C   UNL     1      23.197 -28.512  23.884  1.00  0.00     0.003 C 
BRANCH  43  44
ATOM     44  C   UNL     1      22.554 -27.166  24.284  1.00  0.00     0.001 C 
BRANCH  44  45
ATOM     45  C   UNL     1      22.413 -26.151  23.126  1.00  0.00     0.008 C 
BRANCH  45  46
ATOM     46  C   UNL     1      22.637 -26.798  21.745  1.00  0.00     0.075 C 
BRANCH  46  47
ATOM     47  C   UNL     1      21.460 -26.604  20.813  1.00  0.00     0.132 C 
ATOM     48  O   UNL     1      21.531 -25.776  19.925  1.00  0.00    -0.300 OA
BRANCH  47  49
ATOM     49  C   UNL     1      20.241 -27.489  20.894  1.00  0.00     0.072 C 
ATOM     50  C   UNL     1      20.628 -28.961  21.010  1.00  0.00     0.012 C 
ENDBRANCH  47  49
ENDBRANCH  46  47
ENDBRANCH  45  46
ENDBRANCH  44  45
ENDBRANCH  43  44
ENDBRANCH   1  43
TORSDOF 12
ENDMDL
MODEL 9
REMARK VINA RESULT:    -5.377      1.782      3.662
REMARK INTER + INTRA:         -14.871
REMARK INTER:                 -11.836
REMARK INTRA:                  -3.035
REMARK UNBOUND:                -3.523
REMARK SMILES CCC(=O)CCCCC[C@H]1NC(=O)[C@@H]2CCCCN2C(=O)[C@H]([C@H](C)CC)NC(=O)[C@@H](Cc2cn(OC)c3ccccc23)NC1=O
REMARK SMILES IDX 9 1 10 2 44 3 43 4 45 6 30 7 28 8 27 9 29 11 22 12 23 14
REMARK SMILES IDX 24 15 25 16 26 17 31 18 32 19 33 20 42 21 34 22 37 23 41 24
REMARK SMILES IDX 38 25 40 26 39 27 35 28 36 29 11 30 12 31 13 33 14 34 19 35
REMARK SMILES IDX 15 36 18 37 16 38 17 39 20 40 21 41 8 43 7 44 6 45 5 46 3 47
REMARK SMILES IDX 4 48 2 49 1 50
REMARK H PARENT 43 5 27 10 11 32
REMARK Flexibility Score: 80.00
ROOT
ATOM      1  C   UNL     1      20.533 -34.734  22.715  1.00  0.00     0.035 C 
ENDROOT
BRANCH   1   2
ATOM      2  C   UNL     1      20.597 -33.747  23.906  1.00  0.00     0.171 C 
BRANCH   2   3
ATOM      3  C   UNL     1      19.923 -32.422  23.605  1.00  0.00     0.243 C 
ATOM      4  N   UNL     1      19.548 -32.043  22.275  1.00  0.00    -0.342 N 
ATOM      5  H   UNL     1      19.648 -32.729  21.483  1.00  0.00     0.164 HD
ATOM      6  O   UNL     1      19.726 -31.618  24.562  1.00  0.00    -0.273 OA
BRANCH   4   7
ATOM      7  C   UNL     1      19.204 -30.656  21.958  1.00  0.00     0.175 C 
BRANCH   7   8
ATOM      8  C   UNL     1      20.466 -29.939  21.522  1.00  0.00     0.243 C 
ATOM      9  N   UNL     1      21.104 -28.992  22.405  1.00  0.00    -0.342 N 
ATOM     10  H   UNL     1      20.486 -28.523  23.112  1.00  0.00     0.164 HD
ATOM     11  O   UNL     1      21.047 -30.289  20.457  1.00  0.00    -0.273 OA
BRANCH   9  12
ATOM     12  C   UNL     1      22.566 -28.975  22.602  1.00  0.00     0.174 CG0
ATOM     13  G   UNL     1      22.887 -29.617  23.939  1.00  0.00     0.000 G0
BRANCH  12  14
ATOM     14  C   UNL     1      23.092 -27.504  22.575  1.00  0.00     0.018 C 
ATOM     15  C   UNL     1      21.979 -26.489  22.885  1.00  0.00     0.010 C 
BRANCH  14  16
ATOM     16  C   UNL     1      23.820 -27.092  21.248  1.00  0.00     0.002 C 
ATOM     17  C   UNL     1      22.870 -27.030  20.042  1.00  0.00     0.004 C 
ENDBRANCH  14  16
ENDBRANCH  12  14
ENDBRANCH   9  12
ENDBRANCH   7   8
BRANCH   7  18
ATOM     18  C   UNL     1      18.114 -30.596  20.867  1.00  0.00     0.073 C 
BRANCH  18  19
ATOM     19  C   UNL     1      17.046 -31.635  21.082  1.00  0.00    -0.016 A 
ATOM     20  C   UNL     1      15.905 -31.450  21.854  1.00  0.00     0.134 A 
ATOM     21  C   UNL     1      16.950 -32.920  20.560  1.00  0.00     0.006 A 
ATOM     22  N   UNL     1      15.140 -32.569  21.819  1.00  0.00    -0.191 N 
ATOM     23  C   UNL     1      15.776 -33.452  21.034  1.00  0.00     0.087 A 
ATOM     24  C   UNL     1      17.802 -33.673  19.749  1.00  0.00     0.011 A 
ATOM     25  C   UNL     1      15.367 -34.750  20.727  1.00  0.00     0.030 A 
ATOM     26  C   UNL     1      17.417 -34.986  19.422  1.00  0.00     0.001 A 
ATOM     27  C   UNL     1      16.201 -35.519  19.902  1.00  0.00     0.002 A 
BRANCH  22  28
ATOM     28  O   UNL     1      13.973 -32.810  22.512  1.00  0.00    -0.417 OA
ATOM     29  C   UNL     1      13.825 -32.500  23.889  1.00  0.00     0.313 C 
ENDBRANCH  22  28
ENDBRANCH  18  19
ENDBRANCH   7  18
ENDBRANCH   4   7
ENDBRANCH   2   3
BRANCH   2  30
ATOM     30  N   UNL     1      21.964 -33.555  24.406  1.00  0.00    -0.343 N 
ATOM     31  C   UNL     1      22.914 -32.657  23.805  1.00  0.00     0.243 C 
ATOM     32  H   UNL     1      22.179 -33.945  25.355  1.00  0.00     0.164 HD
ATOM     33  O   UNL     1      22.917 -32.499  22.556  1.00  0.00    -0.273 OA
BRANCH  31  34
ATOM     34  C   UNL     1      23.903 -31.847  24.627  1.00  0.00     0.174 C 
ATOM     35  N   UNL     1      24.078 -30.476  24.104  1.00  0.00    -0.329 N 
ATOM     36  C   UNL     1      23.672 -31.755  26.149  1.00  0.00     0.035 C 
ATOM     37  C   UNL     1      25.353 -29.884  24.546  1.00  0.00     0.120 C 
ATOM     38  C   UNL     1      24.890 -31.054  26.811  1.00  0.00     0.004 C 
ATOM     39  C   UNL     1      25.325 -29.748  26.079  1.00  0.00     0.022 C 
BRANCH  35  40
ATOM     40  C   UNL     1      22.916 -29.625  23.933  1.00  0.00     0.246 CG0
ATOM     41  O   UNL     1      22.122 -29.452  24.901  1.00  0.00    -0.272 OA
ATOM     42  G   UNL     1      22.554 -28.969  22.614  1.00  0.00     0.000 G0
ENDBRANCH  35  40
ENDBRANCH  31  34
ENDBRANCH   2  30
ENDBRANCH   1   2
BRANCH   1  43
ATOM     43  C   UNL     1      19.510 -35.866  22.932  1.00  0.00     0.003 C 
BRANCH  43  44
ATOM     44  C   UNL     1      20.069 -37.102  23.670  1.00  0.00     0.001 C 
BRANCH  44  45
ATOM     45  C   UNL     1      21.560 -37.401  23.388  1.00  0.00     0.008 C 
BRANCH  45  46
ATOM     46  C   UNL     1      22.432 -37.293  24.655  1.00  0.00     0.075 C 
BRANCH  46  47
ATOM     47  C   UNL     1      23.870 -36.939  24.343  1.00  0.00     0.132 C 
ATOM     48  O   UNL     1      24.417 -37.450  23.385  1.00  0.00    -0.300 OA
BRANCH  47  49
ATOM     49  C   UNL     1      24.607 -35.885  25.132  1.00  0.00     0.072 C 
ATOM     50  C   UNL     1      23.985 -35.685  26.511  1.00  0.00     0.012 C 
ENDBRANCH  47  49
ENDBRANCH  46  47
ENDBRANCH  45  46
ENDBRANCH  44  45
ENDBRANCH  43  44
ENDBRANCH   1  43
TORSDOF 12
ENDMDL
